data_image0
_cell_length_a       13.351
_cell_length_b       13.351
_cell_length_c       34.765
_cell_angle_alpha    90
_cell_angle_beta     90
_cell_angle_gamma    120

_symmetry_space_group_name_H-M    "P 1"
_symmetry_int_tables_number       1

loop_
  _symmetry_equiv_pos_as_xyz
  'x, y, z'

loop_
  _atom_site_label
  _atom_site_occupancy
  _atom_site_fract_x
  _atom_site_fract_y
  _atom_site_fract_z
  _atom_site_thermal_displace_type
  _atom_site_B_iso_or_equiv
  _atom_site_type_symbol
  C1       1.0000 0.22845  0.12913  0.76951  Biso   1.000  C
  C2       1.0000 0.20117  0.07308  0.73209  Biso   1.000  C
  C3       1.0000 0.20122  0.07317  0.73209  Biso   1.000  C
  C4       1.0000 0.20217  0.07628  0.80291  Biso   1.000  C
  H1       1.0000 0.26999  0.21596  0.77000  Biso   1.000  H
  C5       1.0000 0.20222  0.07637  0.80291  Biso   1.000  C
  H2       1.0000 0.26996  0.21605  0.77000  Biso   1.000  H
  C6       1.0000 0.23069  0.12688  0.69771  Biso   1.000  C
  C7       1.0000 0.23066  0.12696  0.69771  Biso   1.000  C
  C8       1.0000 0.22852  0.12913  0.76951  Biso   1.000  C
  H3       1.0000 0.15702  0.98703  0.73200  Biso   1.000  H
  C9       1.0000 0.22459  0.12861  0.84079  Biso   1.000  C
  H4       1.0000 0.16209  0.98997  0.80201  Biso   1.000  H
  H5       1.0000 0.16198  0.99005  0.80201  Biso   1.000  H
  C10      1.0000 0.19822  0.05578  0.66291  Biso   1.000  C
  C11      1.0000 0.19814  0.05578  0.66291  Biso   1.000  C
  C12      1.0000 0.29794  0.25583  0.69231  Biso   1.000  C
  C13      1.0000 0.29787  0.25583  0.69231  Biso   1.000  C
  C14      1.0000 0.19541  0.06201  0.87329  Biso   1.000  C
  C15      1.0000 0.27900  0.25704  0.84231  Biso   1.000  C
  C16      1.0000 0.19534  0.06201  0.87329  Biso   1.000  C
  N1       1.0000 0.22802  0.10041  0.63000  Biso   1.000  N
  N2       1.0000 0.22795  0.10041  0.63000  Biso   1.000  N
  H6       1.0000 0.15097  0.96999  0.66501  Biso   1.000  H
  H7       1.0000 0.31498  0.29501  0.71799  Biso   1.000  H
  H8       1.0000 0.25098  0.27996  0.67700  Biso   1.000  H
  H9       1.0000 0.37200  0.27797  0.67899  Biso   1.000  H
  H10      1.0000 0.25095  0.28005  0.67700  Biso   1.000  H
  H11      1.0000 0.37197  0.27806  0.67899  Biso   1.000  H
  H12      1.0000 0.31506  0.29501  0.71799  Biso   1.000  H
  H13      1.0000 0.25103  0.28005  0.67700  Biso   1.000  H
  C17      1.0000 0.20323  0.09981  0.91189  Biso   1.000  C
  C18      1.0000 0.20315  0.09981  0.91189  Biso   1.000  C
  H14      1.0000 0.16608  0.97803  0.86901  Biso   1.000  H
  H15      1.0000 0.29305  0.28904  0.81599  Biso   1.000  H
  H16      1.0000 0.35397  0.28999  0.85600  Biso   1.000  H
  H17      1.0000 0.22602  0.27797  0.85600  Biso   1.000  H
  H18      1.0000 0.29297  0.28904  0.81599  Biso   1.000  H
  H19      1.0000 0.22599  0.27806  0.85600  Biso   1.000  H
  C19      1.0000 0.19256  0.02396  0.59709  Biso   1.000  C
  C20      1.0000 0.19261  0.02404  0.59709  Biso   1.000  C
  C21      1.0000 0.18966  0.03209  0.94299  Biso   1.000  C
  H20      1.0000 0.21897  0.17998  0.91701  Biso   1.000  H
  H21      1.0000 0.21901  0.18007  0.91701  Biso   1.000  H
  C22      1.0000 0.12063  0.05146  0.56939  Biso   1.000  C
  C23      1.0000 0.12059  0.05137  0.56939  Biso   1.000  C
  H22      1.0000 0.26297  0.03399  0.58300  Biso   1.000  H
  H23      1.0000 0.14505  0.94197  0.60601  Biso   1.000  H
  H24      1.0000 0.14510  0.94205  0.60601  Biso   1.000  H
  H25      1.0000 0.14490  0.94197  0.60601  Biso   1.000  H
  C24      1.0000 0.19072  0.06582  0.98191  Biso   1.000  C
  C25      1.0000 0.19065  0.06582  0.98191  Biso   1.000  C
  H26      1.0000 0.17905  0.95304  0.93801  Biso   1.000  H
  N3       1.0000 0.00000  0.00000  0.58199  Biso   1.000  N
  H27      1.0000 0.12204  0.02102  0.54299  Biso   1.000  H
  H28      1.0000 0.15501  0.13700  0.56801  Biso   1.000  H
  H29      1.0000 0.12196  0.02102  0.54299  Biso   1.000  H
  H30      1.0000 0.15493  0.13700  0.56801  Biso   1.000  H
  N4       1.0000 0.00007  0.00000  0.58199  Biso   1.000  N
  H31      1.0000 0.18400  0.13596  0.98599  Biso   1.000  H
  H32      1.0000 0.18397  0.13605  0.98599  Biso   1.000  H
  C26      1.0000 0.19959  0.01479  0.01361  Biso   1.000  C
  C27      1.0000 0.93088  0.87944  0.56939  Biso   1.000  C
  C28      1.0000 0.94861  0.06919  0.56939  Biso   1.000  C
  C29      1.0000 0.94853  0.06919  0.56939  Biso   1.000  C
  C30      1.0000 0.21859  0.91317  0.01199  Biso   1.000  C
  C31      1.0000 0.21863  0.91325  0.01199  Biso   1.000  C
  C32      1.0000 0.18890  0.05483  0.05140  Biso   1.000  C
  C33      1.0000 0.83142  0.80739  0.59709  Biso   1.000  C
  H33      1.0000 0.89906  0.87797  0.54299  Biso   1.000  H
  H34      1.0000 0.98198  0.84501  0.56801  Biso   1.000  H
  C34      1.0000 0.83134  0.80739  0.59709  Biso   1.000  C
  H35      1.0000 0.89903  0.87805  0.54299  Biso   1.000  H
  C35      1.0000 0.97598  0.16857  0.59709  Biso   1.000  C
  H36      1.0000 0.97898  0.10102  0.54299  Biso   1.000  H
  H37      1.0000 0.86301  0.01799  0.56801  Biso   1.000  H
  C36      1.0000 0.97602  0.16865  0.59709  Biso   1.000  C
  H38      1.0000 0.86294  0.01799  0.56801  Biso   1.000  H
  H39      1.0000 0.29195  0.93496  0.99799  Biso   1.000  H
  H40      1.0000 0.15307  0.84804  0.99799  Biso   1.000  H
  H41      1.0000 0.29199  0.93505  0.99799  Biso   1.000  H
  H42      1.0000 0.22300  0.88800  0.03900  Biso   1.000  H
  H43      1.0000 0.22293  0.88800  0.03900  Biso   1.000  H
  C37      1.0000 0.20082  0.01470  0.08609  Biso   1.000  C
  H44      1.0000 0.17103  0.11901  0.05201  Biso   1.000  H
  C38      1.0000 0.20075  0.01470  0.08609  Biso   1.000  C
  H45      1.0000 0.17096  0.11901  0.05201  Biso   1.000  H
  N5       1.0000 0.87245  0.77202  0.63000  Biso   1.000  N
  H46      1.0000 0.77097  0.73699  0.58300  Biso   1.000  H
  H47      1.0000 0.79700  0.85496  0.60601  Biso   1.000  H
  H48      1.0000 0.79705  0.85505  0.60601  Biso   1.000  H
  H49      1.0000 0.05798  0.20299  0.60601  Biso   1.000  H
  N6       1.0000 0.89960  0.12757  0.63000  Biso   1.000  N
  H50      1.0000 0.96598  0.22902  0.58300  Biso   1.000  H
  N7       1.0000 0.89965  0.12766  0.63000  Biso   1.000  N
  N8       1.0000 0.89957  0.12766  0.63000  Biso   1.000  N
  H51      1.0000 0.21911  0.95001  0.08701  Biso   1.000  H
  H52      1.0000 0.21896  0.95001  0.08701  Biso   1.000  H
  C39      1.0000 0.18883  0.05933  0.12190  Biso   1.000  C
  C40      1.0000 0.18875  0.05933  0.12190  Biso   1.000  C
  C41      1.0000 0.85759  0.80177  0.66291  Biso   1.000  C
  C42      1.0000 0.85756  0.80186  0.66291  Biso   1.000  C
  C43      1.0000 0.94415  0.14236  0.66291  Biso   1.000  C
  C44      1.0000 0.94419  0.14245  0.66291  Biso   1.000  C
  C45      1.0000 0.20328  0.02621  0.15720  Biso   1.000  C
  H53      1.0000 0.16805  0.12203  0.12101  Biso   1.000  H
  H54      1.0000 0.16798  0.12203  0.12101  Biso   1.000  H
  C46      1.0000 0.89620  0.76934  0.69771  Biso   1.000  C
  H55      1.0000 0.81896  0.84899  0.66501  Biso   1.000  H
  H56      1.0000 0.02999  0.18102  0.66501  Biso   1.000  H
  C47      1.0000 0.87310  0.10379  0.69771  Biso   1.000  C
  C48      1.0000 0.87303  0.10379  0.69771  Biso   1.000  C
  C49      1.0000 0.23418  0.93358  0.16381  Biso   1.000  C
  C50      1.0000 0.23408  0.93366  0.16381  Biso   1.000  C
  C51      1.0000 0.18869  0.08407  0.19059  Biso   1.000  C
  C52      1.0000 0.18866  0.08415  0.19059  Biso   1.000  C
  C53      1.0000 0.87200  0.79883  0.73209  Biso   1.000  C
  C54      1.0000 0.95795  0.70214  0.69231  Biso   1.000  C
  C55      1.0000 0.87193  0.79883  0.73209  Biso   1.000  C
  C56      1.0000 0.92690  0.12809  0.73209  Biso   1.000  C
  C57      1.0000 0.74423  0.04212  0.69231  Biso   1.000  C
  C58      1.0000 0.92683  0.12809  0.73209  Biso   1.000  C
  C59      1.0000 0.74415  0.04212  0.69231  Biso   1.000  C
  H57      1.0000 0.24007  0.92303  0.19200  Biso   1.000  H
  H58      1.0000 0.31002  0.95702  0.15101  Biso   1.000  H
  H59      1.0000 0.17309  0.85902  0.15199  Biso   1.000  H
  H60      1.0000 0.17301  0.85902  0.15199  Biso   1.000  H
  N9       1.0000 0.21740  0.07213  0.22419  Biso   1.000  N
  H61      1.0000 0.15501  0.13596  0.18700  Biso   1.000  H
  H62      1.0000 0.15498  0.13605  0.18700  Biso   1.000  H
  C60      1.0000 0.90065  0.77150  0.76951  Biso   1.000  C
  H63      1.0000 0.82998  0.84302  0.73200  Biso   1.000  H
  H64      1.0000 0.98010  0.68501  0.71799  Biso   1.000  H
  H65      1.0000 0.90599  0.62802  0.67899  Biso   1.000  H
  H66      1.0000 0.97995  0.68501  0.71799  Biso   1.000  H
  H67      1.0000 0.02903  0.74901  0.67700  Biso   1.000  H
  H68      1.0000 0.02895  0.74901  0.67700  Biso   1.000  H
  H69      1.0000 0.01304  0.17004  0.73200  Biso   1.000  H
  H70      1.0000 0.01296  0.17004  0.73200  Biso   1.000  H
  C61      1.0000 0.87090  0.09937  0.76951  Biso   1.000  C
  C62      1.0000 0.87087  0.09946  0.76951  Biso   1.000  C
  H71      1.0000 0.71999  0.97103  0.67700  Biso   1.000  H
  H72      1.0000 0.70499  0.01998  0.71799  Biso   1.000  H
  H73      1.0000 0.72201  0.09401  0.67899  Biso   1.000  H
  H74      1.0000 0.70496  0.02007  0.71799  Biso   1.000  H
  H75      1.0000 0.72194  0.09401  0.67899  Biso   1.000  H
  C63      1.0000 0.20125  0.13734  0.25520  Biso   1.000  C
  C64      1.0000 0.20117  0.13734  0.25520  Biso   1.000  C
  C65      1.0000 0.87410  0.79779  0.80291  Biso   1.000  C
  H76      1.0000 0.94596  0.72998  0.77000  Biso   1.000  H
  C66      1.0000 0.87403  0.79779  0.80291  Biso   1.000  C
  C67      1.0000 0.92372  0.12593  0.80291  Biso   1.000  C
  H77      1.0000 0.78401  0.05397  0.77000  Biso   1.000  H
  H78      1.0000 0.78405  0.05405  0.77000  Biso   1.000  H
  C68      1.0000 0.92365  0.12593  0.80291  Biso   1.000  C
  H79      1.0000 0.78397  0.05405  0.77000  Biso   1.000  H
  C69      1.0000 0.11951  0.05146  0.28520  Biso   1.000  C
  H80      1.0000 0.27697  0.19097  0.26699  Biso   1.000  H
  H81      1.0000 0.16603  0.18301  0.24401  Biso   1.000  H
  C70      1.0000 0.11947  0.05155  0.28520  Biso   1.000  C
  H82      1.0000 0.27701  0.19105  0.26699  Biso   1.000  H
  H83      1.0000 0.16596  0.18301  0.24401  Biso   1.000  H
  C71      1.0000 0.90402  0.77539  0.84079  Biso   1.000  C
  H84      1.0000 0.82807  0.83801  0.80201  Biso   1.000  H
  C72      1.0000 0.90395  0.77539  0.84079  Biso   1.000  C
  H85      1.0000 0.00999  0.17202  0.80201  Biso   1.000  H
  C73      1.0000 0.87138  0.09600  0.84079  Biso   1.000  C
  H86      1.0000 0.13899  0.98902  0.28900  Biso   1.000  H
  N10      1.0000 0.00007  0.00000  0.27349  Biso   1.000  N
  N11      1.0000 0.00000  0.00000  0.27349  Biso   1.000  N
  H87      1.0000 0.13000  0.09297  0.31000  Biso   1.000  H
  H88      1.0000 0.12997  0.09306  0.31000  Biso   1.000  H
  C74      1.0000 0.86666  0.80462  0.87329  Biso   1.000  C
  C75      1.0000 0.97801  0.72099  0.84231  Biso   1.000  C
  C76      1.0000 0.93800  0.13336  0.87329  Biso   1.000  C
  C77      1.0000 0.74299  0.02197  0.84231  Biso   1.000  C
  C78      1.0000 0.93797  0.13345  0.87329  Biso   1.000  C
  C79      1.0000 0.74296  0.02205  0.84231  Biso   1.000  C
  C80      1.0000 0.93200  0.88047  0.28520  Biso   1.000  C
  C81      1.0000 0.93197  0.88056  0.28520  Biso   1.000  C
  C82      1.0000 0.94845  0.06798  0.28520  Biso   1.000  C
  C83      1.0000 0.94850  0.06807  0.28520  Biso   1.000  C
  C84      1.0000 0.89662  0.79684  0.91189  Biso   1.000  C
  H89      1.0000 0.81208  0.83403  0.86901  Biso   1.000  H
  C85      1.0000 0.89655  0.79684  0.91189  Biso   1.000  C
  H90      1.0000 0.99603  0.70698  0.81599  Biso   1.000  H
  H91      1.0000 0.93610  0.64600  0.85600  Biso   1.000  H
  H92      1.0000 0.99607  0.70707  0.81599  Biso   1.000  H
  H93      1.0000 0.93595  0.64600  0.85600  Biso   1.000  H
  H94      1.0000 0.05208  0.77401  0.85600  Biso   1.000  H
  H95      1.0000 0.05201  0.77401  0.85600  Biso   1.000  H
  H96      1.0000 0.02203  0.18802  0.86901  Biso   1.000  H
  H97      1.0000 0.02196  0.18802  0.86901  Biso   1.000  H
  C86      1.0000 0.90020  0.10344  0.91189  Biso   1.000  C
  C87      1.0000 0.90027  0.10344  0.91189  Biso   1.000  C
  H98      1.0000 0.72204  0.94802  0.85600  Biso   1.000  H
  H99      1.0000 0.72197  0.94802  0.85600  Biso   1.000  H
  H100     1.0000 0.71100  0.00398  0.81599  Biso   1.000  H
  H101     1.0000 0.71000  0.06400  0.85600  Biso   1.000  H
  H102     1.0000 0.71097  0.00406  0.81599  Biso   1.000  H
  H103     1.0000 0.70993  0.06400  0.85600  Biso   1.000  H
  C88      1.0000 0.93612  0.79883  0.25520  Biso   1.000  C
  C89      1.0000 0.93604  0.79883  0.25520  Biso   1.000  C
  H104     1.0000 0.96302  0.87001  0.31000  Biso   1.000  H
  H105     1.0000 0.84999  0.86101  0.28900  Biso   1.000  H
  H106     1.0000 0.96294  0.87001  0.31000  Biso   1.000  H
  C90      1.0000 0.86268  0.06391  0.25520  Biso   1.000  C
  H107     1.0000 0.90698  0.03702  0.31000  Biso   1.000  H
  H108     1.0000 0.01102  0.14997  0.28900  Biso   1.000  H
  H109     1.0000 0.01099  0.15006  0.28900  Biso   1.000  H
  C91      1.0000 0.84240  0.81033  0.94299  Biso   1.000  C
  H110     1.0000 0.96106  0.78101  0.91701  Biso   1.000  H
  C92      1.0000 0.96786  0.15758  0.94299  Biso   1.000  C
  H111     1.0000 0.81997  0.03901  0.91701  Biso   1.000  H
  C93      1.0000 0.96791  0.15767  0.94299  Biso   1.000  C
  N12      1.0000 0.85473  0.78257  0.22419  Biso   1.000  N
  N13      1.0000 0.85478  0.78266  0.22419  Biso   1.000  N
  H112     1.0000 0.91407  0.72298  0.26699  Biso   1.000  H
  H113     1.0000 0.91404  0.72307  0.26699  Biso   1.000  H
  H114     1.0000 0.01701  0.83403  0.24401  Biso   1.000  H
  N14      1.0000 0.92787  0.14530  0.22419  Biso   1.000  N
  H115     1.0000 0.81704  0.98296  0.24401  Biso   1.000  H
  H116     1.0000 0.81708  0.98305  0.24401  Biso   1.000  H
  H117     1.0000 0.80899  0.08597  0.26699  Biso   1.000  H
  H118     1.0000 0.80896  0.08606  0.26699  Biso   1.000  H
  C94      1.0000 0.87506  0.80929  0.98191  Biso   1.000  C
  H119     1.0000 0.77409  0.82097  0.93801  Biso   1.000  H
  H120     1.0000 0.77398  0.82106  0.93801  Biso   1.000  H
  H121     1.0000 0.04701  0.22599  0.93801  Biso   1.000  H
  H122     1.0000 0.04693  0.22599  0.93801  Biso   1.000  H
  C95      1.0000 0.93421  0.12489  0.98191  Biso   1.000  C
  C96      1.0000 0.93414  0.12489  0.98191  Biso   1.000  C
  C97      1.0000 0.89538  0.81128  0.19059  Biso   1.000  C
  C98      1.0000 0.91589  0.10456  0.19059  Biso   1.000  C
  C99      1.0000 0.91586  0.10465  0.19059  Biso   1.000  C
  H123     1.0000 0.95206  0.81604  0.98599  Biso   1.000  H
  C100     1.0000 0.81518  0.80039  0.01361  Biso   1.000  C
  H124     1.0000 0.86401  0.04800  0.98599  Biso   1.000  H
  H125     1.0000 0.86394  0.04800  0.98599  Biso   1.000  H
  C101     1.0000 0.98523  0.18482  0.01361  Biso   1.000  C
  C102     1.0000 0.98515  0.18482  0.01361  Biso   1.000  C
  C103     1.0000 0.82298  0.79667  0.15720  Biso   1.000  C
  C104     1.0000 0.82288  0.79675  0.15720  Biso   1.000  C
  H126     1.0000 0.98100  0.84501  0.18700  Biso   1.000  H
  C105     1.0000 0.97382  0.17713  0.15720  Biso   1.000  C
  C106     1.0000 0.97374  0.17713  0.15720  Biso   1.000  C
  H127     1.0000 0.86398  0.01903  0.18700  Biso   1.000  H
  H128     1.0000 0.86406  0.01903  0.18700  Biso   1.000  H
  C107     1.0000 0.86601  0.81111  0.05140  Biso   1.000  C
  C108     1.0000 0.69459  0.78136  0.01199  Biso   1.000  C
  C109     1.0000 0.86593  0.81111  0.05140  Biso   1.000  C
  C110     1.0000 0.69456  0.78144  0.01199  Biso   1.000  C
  C111     1.0000 0.94521  0.13414  0.05140  Biso   1.000  C
  C112     1.0000 0.08678  0.30539  0.01199  Biso   1.000  C
  C113     1.0000 0.87047  0.81120  0.12190  Biso   1.000  C
  C114     1.0000 0.69951  0.76588  0.16381  Biso   1.000  C
  C115     1.0000 0.69947  0.76596  0.16381  Biso   1.000  C
  C116     1.0000 0.94070  0.12947  0.12190  Biso   1.000  C
  C117     1.0000 0.94067  0.12956  0.12190  Biso   1.000  C
  C118     1.0000 0.06642  0.30046  0.16381  Biso   1.000  C
  C119     1.0000 0.06638  0.30055  0.16381  Biso   1.000  C
  C120     1.0000 0.81398  0.79917  0.08609  Biso   1.000  C
  H129     1.0000 0.94806  0.82901  0.05201  Biso   1.000  H
  C121     1.0000 0.81387  0.79926  0.08609  Biso   1.000  C
  H130     1.0000 0.64301  0.70802  0.99799  Biso   1.000  H
  H131     1.0000 0.69505  0.84700  0.99799  Biso   1.000  H
  H132     1.0000 0.66509  0.77703  0.03900  Biso   1.000  H
  C122     1.0000 0.98528  0.18612  0.08609  Biso   1.000  C
  H133     1.0000 0.88098  0.05198  0.05201  Biso   1.000  H
  H134     1.0000 0.88103  0.05207  0.05201  Biso   1.000  H
  H135     1.0000 0.06504  0.35702  0.99799  Biso   1.000  H
  H136     1.0000 0.15200  0.30504  0.99799  Biso   1.000  H
  H137     1.0000 0.06496  0.35702  0.99799  Biso   1.000  H
  H138     1.0000 0.11198  0.33497  0.03900  Biso   1.000  H
  H139     1.0000 0.11203  0.33505  0.03900  Biso   1.000  H
  H140     1.0000 0.95399  0.83204  0.12101  Biso   1.000  H
  H141     1.0000 0.68301  0.76000  0.19200  Biso   1.000  H
  H142     1.0000 0.64705  0.69003  0.15101  Biso   1.000  H
  H143     1.0000 0.68604  0.82702  0.15199  Biso   1.000  H
  H144     1.0000 0.68293  0.76000  0.19200  Biso   1.000  H
  H145     1.0000 0.68596  0.82702  0.15199  Biso   1.000  H
  H146     1.0000 0.87800  0.04601  0.12101  Biso   1.000  H
  H147     1.0000 0.07700  0.31698  0.19200  Biso   1.000  H
  H148     1.0000 0.04301  0.35296  0.15101  Biso   1.000  H
  H149     1.0000 0.14099  0.31404  0.15199  Biso   1.000  H
  H150     1.0000 0.07697  0.31706  0.19200  Biso   1.000  H
  H151     1.0000 0.04297  0.35304  0.15101  Biso   1.000  H
  H152     1.0000 0.73112  0.78101  0.08701  Biso   1.000  H
  H153     1.0000 0.73097  0.78101  0.08701  Biso   1.000  H
  H154     1.0000 0.05000  0.26898  0.08701  Biso   1.000  H
  H155     1.0000 0.04997  0.26906  0.08701  Biso   1.000  H
  C123     1.0000 0.22845  0.12913  0.76951  Biso   1.000  C
  C124     1.0000 0.20117  0.07308  0.73209  Biso   1.000  C
  C125     1.0000 0.20122  0.07317  0.73209  Biso   1.000  C
  C126     1.0000 0.20217  0.07628  0.80291  Biso   1.000  C
  H156     1.0000 0.26999  0.21596  0.77000  Biso   1.000  H
  C127     1.0000 0.20222  0.07637  0.80291  Biso   1.000  C
  H157     1.0000 0.26996  0.21605  0.77000  Biso   1.000  H
  H158     1.0000 0.15702  0.98703  0.73200  Biso   1.000  H
  C128     1.0000 0.23069  0.12688  0.69771  Biso   1.000  C
  C129     1.0000 0.23066  0.12696  0.69771  Biso   1.000  C
  C130     1.0000 0.22852  0.12913  0.76951  Biso   1.000  C
  C131     1.0000 0.22459  0.12861  0.84079  Biso   1.000  C
  H159     1.0000 0.16209  0.98997  0.80201  Biso   1.000  H
  H160     1.0000 0.16198  0.99005  0.80201  Biso   1.000  H
  C132     1.0000 0.19822  0.05578  0.66291  Biso   1.000  C
  C133     1.0000 0.19814  0.05578  0.66291  Biso   1.000  C
  C134     1.0000 0.29794  0.25583  0.69231  Biso   1.000  C
  C135     1.0000 0.29787  0.25583  0.69231  Biso   1.000  C
  C136     1.0000 0.27900  0.25704  0.84231  Biso   1.000  C
  C137     1.0000 0.19541  0.06201  0.87329  Biso   1.000  C
  C138     1.0000 0.19534  0.06201  0.87329  Biso   1.000  C
  N15      1.0000 0.22802  0.10041  0.63000  Biso   1.000  N
  N16      1.0000 0.22795  0.10041  0.63000  Biso   1.000  N
  H161     1.0000 0.15097  0.96999  0.66501  Biso   1.000  H
  H162     1.0000 0.31498  0.29501  0.71799  Biso   1.000  H
  H163     1.0000 0.25098  0.27996  0.67700  Biso   1.000  H
  H164     1.0000 0.37200  0.27797  0.67899  Biso   1.000  H
  H165     1.0000 0.37197  0.27806  0.67899  Biso   1.000  H
  H166     1.0000 0.25095  0.28005  0.67700  Biso   1.000  H
  H167     1.0000 0.31506  0.29501  0.71799  Biso   1.000  H
  H168     1.0000 0.25103  0.28005  0.67700  Biso   1.000  H
  H169     1.0000 0.35397  0.28999  0.85600  Biso   1.000  H
  H170     1.0000 0.29305  0.28904  0.81599  Biso   1.000  H
  H171     1.0000 0.22602  0.27797  0.85600  Biso   1.000  H
  H172     1.0000 0.29297  0.28904  0.81599  Biso   1.000  H
  H173     1.0000 0.22599  0.27806  0.85600  Biso   1.000  H
  C139     1.0000 0.20323  0.09981  0.91189  Biso   1.000  C
  C140     1.0000 0.20315  0.09981  0.91189  Biso   1.000  C
  H174     1.0000 0.16608  0.97803  0.86901  Biso   1.000  H
  C141     1.0000 0.19256  0.02396  0.59709  Biso   1.000  C
  C142     1.0000 0.19261  0.02404  0.59709  Biso   1.000  C
  C143     1.0000 0.18966  0.03209  0.94299  Biso   1.000  C
  H175     1.0000 0.21897  0.17998  0.91701  Biso   1.000  H
  H176     1.0000 0.21901  0.18007  0.91701  Biso   1.000  H
  C144     1.0000 0.12063  0.05146  0.56939  Biso   1.000  C
  H177     1.0000 0.26297  0.03399  0.58300  Biso   1.000  H
  C145     1.0000 0.12059  0.05137  0.56939  Biso   1.000  C
  H178     1.0000 0.14505  0.94197  0.60601  Biso   1.000  H
  H179     1.0000 0.14510  0.94205  0.60601  Biso   1.000  H
  H180     1.0000 0.14490  0.94197  0.60601  Biso   1.000  H
  H181     1.0000 0.17905  0.95304  0.93801  Biso   1.000  H
  C146     1.0000 0.19072  0.06582  0.98191  Biso   1.000  C
  C147     1.0000 0.19065  0.06582  0.98191  Biso   1.000  C
  N17      1.0000 0.00000  0.00000  0.58199  Biso   1.000  N
  H182     1.0000 0.12204  0.02102  0.54299  Biso   1.000  H
  H183     1.0000 0.15501  0.13700  0.56801  Biso   1.000  H
  H184     1.0000 0.12196  0.02102  0.54299  Biso   1.000  H
  H185     1.0000 0.15493  0.13700  0.56801  Biso   1.000  H
  N18      1.0000 0.00007  0.00000  0.58199  Biso   1.000  N
  H186     1.0000 0.18400  0.13596  0.98599  Biso   1.000  H
  H187     1.0000 0.18397  0.13605  0.98599  Biso   1.000  H
  C148     1.0000 0.19959  0.01479  0.01361  Biso   1.000  C
  C149     1.0000 0.93088  0.87944  0.56939  Biso   1.000  C
  C150     1.0000 0.94861  0.06919  0.56939  Biso   1.000  C
  C151     1.0000 0.94853  0.06919  0.56939  Biso   1.000  C
  C152     1.0000 0.21859  0.91317  0.01199  Biso   1.000  C
  C153     1.0000 0.21863  0.91325  0.01199  Biso   1.000  C
  C154     1.0000 0.18890  0.05483  0.05140  Biso   1.000  C
  C155     1.0000 0.83142  0.80739  0.59709  Biso   1.000  C
  H188     1.0000 0.89906  0.87797  0.54299  Biso   1.000  H
  H189     1.0000 0.98198  0.84501  0.56801  Biso   1.000  H
  C156     1.0000 0.83134  0.80739  0.59709  Biso   1.000  C
  H190     1.0000 0.89903  0.87805  0.54299  Biso   1.000  H
  C157     1.0000 0.97598  0.16857  0.59709  Biso   1.000  C
  H191     1.0000 0.97898  0.10102  0.54299  Biso   1.000  H
  H192     1.0000 0.86301  0.01799  0.56801  Biso   1.000  H
  C158     1.0000 0.97602  0.16865  0.59709  Biso   1.000  C
  H193     1.0000 0.86294  0.01799  0.56801  Biso   1.000  H
  H194     1.0000 0.29195  0.93496  0.99799  Biso   1.000  H
  H195     1.0000 0.15307  0.84804  0.99799  Biso   1.000  H
  H196     1.0000 0.29199  0.93505  0.99799  Biso   1.000  H
  H197     1.0000 0.22300  0.88800  0.03900  Biso   1.000  H
  H198     1.0000 0.22293  0.88800  0.03900  Biso   1.000  H
  C159     1.0000 0.20082  0.01470  0.08609  Biso   1.000  C
  H199     1.0000 0.17103  0.11901  0.05201  Biso   1.000  H
  C160     1.0000 0.20075  0.01470  0.08609  Biso   1.000  C
  H200     1.0000 0.17096  0.11901  0.05201  Biso   1.000  H
  N19      1.0000 0.87245  0.77202  0.63000  Biso   1.000  N
  H201     1.0000 0.77097  0.73699  0.58300  Biso   1.000  H
  H202     1.0000 0.79700  0.85496  0.60601  Biso   1.000  H
  H203     1.0000 0.79705  0.85505  0.60601  Biso   1.000  H
  H204     1.0000 0.05798  0.20299  0.60601  Biso   1.000  H
  N20      1.0000 0.89960  0.12757  0.63000  Biso   1.000  N
  H205     1.0000 0.96598  0.22902  0.58300  Biso   1.000  H
  N21      1.0000 0.89965  0.12766  0.63000  Biso   1.000  N
  N22      1.0000 0.89957  0.12766  0.63000  Biso   1.000  N
  H206     1.0000 0.21911  0.95001  0.08701  Biso   1.000  H
  H207     1.0000 0.21896  0.95001  0.08701  Biso   1.000  H
  C161     1.0000 0.18883  0.05933  0.12190  Biso   1.000  C
  C162     1.0000 0.18875  0.05933  0.12190  Biso   1.000  C
  C163     1.0000 0.85759  0.80177  0.66291  Biso   1.000  C
  C164     1.0000 0.85756  0.80186  0.66291  Biso   1.000  C
  C165     1.0000 0.94415  0.14236  0.66291  Biso   1.000  C
  C166     1.0000 0.94419  0.14245  0.66291  Biso   1.000  C
  C167     1.0000 0.20328  0.02621  0.15720  Biso   1.000  C
  H208     1.0000 0.16805  0.12203  0.12101  Biso   1.000  H
  H209     1.0000 0.16798  0.12203  0.12101  Biso   1.000  H
  C168     1.0000 0.89620  0.76934  0.69771  Biso   1.000  C
  H210     1.0000 0.81896  0.84899  0.66501  Biso   1.000  H
  H211     1.0000 0.02999  0.18102  0.66501  Biso   1.000  H
  C169     1.0000 0.87310  0.10379  0.69771  Biso   1.000  C
  C170     1.0000 0.87303  0.10379  0.69771  Biso   1.000  C
  C171     1.0000 0.23418  0.93358  0.16381  Biso   1.000  C
  C172     1.0000 0.23408  0.93366  0.16381  Biso   1.000  C
  C173     1.0000 0.18869  0.08407  0.19059  Biso   1.000  C
  C174     1.0000 0.18866  0.08415  0.19059  Biso   1.000  C
  C175     1.0000 0.95795  0.70214  0.69231  Biso   1.000  C
  C176     1.0000 0.87200  0.79883  0.73209  Biso   1.000  C
  C177     1.0000 0.87193  0.79883  0.73209  Biso   1.000  C
  C178     1.0000 0.92690  0.12809  0.73209  Biso   1.000  C
  C179     1.0000 0.74423  0.04212  0.69231  Biso   1.000  C
  C180     1.0000 0.92683  0.12809  0.73209  Biso   1.000  C
  C181     1.0000 0.74415  0.04212  0.69231  Biso   1.000  C
  H212     1.0000 0.31002  0.95702  0.15101  Biso   1.000  H
  H213     1.0000 0.24007  0.92303  0.19200  Biso   1.000  H
  H214     1.0000 0.17309  0.85902  0.15199  Biso   1.000  H
  H215     1.0000 0.17301  0.85902  0.15199  Biso   1.000  H
  N23      1.0000 0.21740  0.07213  0.22419  Biso   1.000  N
  H216     1.0000 0.15501  0.13596  0.18700  Biso   1.000  H
  H217     1.0000 0.15498  0.13605  0.18700  Biso   1.000  H
  H218     1.0000 0.98010  0.68501  0.71799  Biso   1.000  H
  H219     1.0000 0.90599  0.62802  0.67899  Biso   1.000  H
  H220     1.0000 0.97995  0.68501  0.71799  Biso   1.000  H
  H221     1.0000 0.02903  0.74901  0.67700  Biso   1.000  H
  H222     1.0000 0.02895  0.74901  0.67700  Biso   1.000  H
  C182     1.0000 0.90065  0.77150  0.76951  Biso   1.000  C
  H223     1.0000 0.82998  0.84302  0.73200  Biso   1.000  H
  H224     1.0000 0.01304  0.17004  0.73200  Biso   1.000  H
  H225     1.0000 0.01296  0.17004  0.73200  Biso   1.000  H
  C183     1.0000 0.87090  0.09937  0.76951  Biso   1.000  C
  C184     1.0000 0.87087  0.09946  0.76951  Biso   1.000  C
  H226     1.0000 0.71999  0.97103  0.67700  Biso   1.000  H
  H227     1.0000 0.70499  0.01998  0.71799  Biso   1.000  H
  H228     1.0000 0.72201  0.09401  0.67899  Biso   1.000  H
  H229     1.0000 0.70496  0.02007  0.71799  Biso   1.000  H
  H230     1.0000 0.72194  0.09401  0.67899  Biso   1.000  H
  C185     1.0000 0.20125  0.13734  0.25520  Biso   1.000  C
  C186     1.0000 0.20117  0.13734  0.25520  Biso   1.000  C
  C187     1.0000 0.87410  0.79779  0.80291  Biso   1.000  C
  H231     1.0000 0.94596  0.72998  0.77000  Biso   1.000  H
  C188     1.0000 0.87403  0.79779  0.80291  Biso   1.000  C
  C189     1.0000 0.92372  0.12593  0.80291  Biso   1.000  C
  H232     1.0000 0.78401  0.05397  0.77000  Biso   1.000  H
  H233     1.0000 0.78405  0.05405  0.77000  Biso   1.000  H
  C190     1.0000 0.92365  0.12593  0.80291  Biso   1.000  C
  H234     1.0000 0.78397  0.05405  0.77000  Biso   1.000  H
  C191     1.0000 0.11951  0.05146  0.28520  Biso   1.000  C
  H235     1.0000 0.27697  0.19097  0.26699  Biso   1.000  H
  H236     1.0000 0.16603  0.18301  0.24401  Biso   1.000  H
  C192     1.0000 0.11947  0.05155  0.28520  Biso   1.000  C
  H237     1.0000 0.27701  0.19105  0.26699  Biso   1.000  H
  H238     1.0000 0.16596  0.18301  0.24401  Biso   1.000  H
  C193     1.0000 0.90402  0.77539  0.84079  Biso   1.000  C
  H239     1.0000 0.82807  0.83801  0.80201  Biso   1.000  H
  C194     1.0000 0.90395  0.77539  0.84079  Biso   1.000  C
  H240     1.0000 0.00999  0.17202  0.80201  Biso   1.000  H
  C195     1.0000 0.87138  0.09600  0.84079  Biso   1.000  C
  H241     1.0000 0.13899  0.98902  0.28900  Biso   1.000  H
  N24      1.0000 0.00007  0.00000  0.27349  Biso   1.000  N
  N25      1.0000 0.00000  0.00000  0.27349  Biso   1.000  N
  H242     1.0000 0.13000  0.09297  0.31000  Biso   1.000  H
  H243     1.0000 0.12997  0.09306  0.31000  Biso   1.000  H
  C196     1.0000 0.97801  0.72099  0.84231  Biso   1.000  C
  C197     1.0000 0.86666  0.80462  0.87329  Biso   1.000  C
  C198     1.0000 0.93800  0.13336  0.87329  Biso   1.000  C
  C199     1.0000 0.74299  0.02197  0.84231  Biso   1.000  C
  C200     1.0000 0.93797  0.13345  0.87329  Biso   1.000  C
  C201     1.0000 0.74296  0.02205  0.84231  Biso   1.000  C
  C202     1.0000 0.93200  0.88047  0.28520  Biso   1.000  C
  C203     1.0000 0.93197  0.88056  0.28520  Biso   1.000  C
  C204     1.0000 0.94845  0.06798  0.28520  Biso   1.000  C
  C205     1.0000 0.94850  0.06807  0.28520  Biso   1.000  C
  H244     1.0000 0.99603  0.70698  0.81599  Biso   1.000  H
  H245     1.0000 0.93610  0.64600  0.85600  Biso   1.000  H
  H246     1.0000 0.99607  0.70707  0.81599  Biso   1.000  H
  H247     1.0000 0.93595  0.64600  0.85600  Biso   1.000  H
  H248     1.0000 0.05208  0.77401  0.85600  Biso   1.000  H
  H249     1.0000 0.05201  0.77401  0.85600  Biso   1.000  H
  C206     1.0000 0.89662  0.79684  0.91189  Biso   1.000  C
  H250     1.0000 0.81208  0.83403  0.86901  Biso   1.000  H
  C207     1.0000 0.89655  0.79684  0.91189  Biso   1.000  C
  H251     1.0000 0.02203  0.18802  0.86901  Biso   1.000  H
  H252     1.0000 0.02196  0.18802  0.86901  Biso   1.000  H
  C208     1.0000 0.90020  0.10344  0.91189  Biso   1.000  C
  C209     1.0000 0.90027  0.10344  0.91189  Biso   1.000  C
  H253     1.0000 0.72204  0.94802  0.85600  Biso   1.000  H
  H254     1.0000 0.72197  0.94802  0.85600  Biso   1.000  H
  H255     1.0000 0.71100  0.00398  0.81599  Biso   1.000  H
  H256     1.0000 0.71000  0.06400  0.85600  Biso   1.000  H
  H257     1.0000 0.71097  0.00406  0.81599  Biso   1.000  H
  H258     1.0000 0.70993  0.06400  0.85600  Biso   1.000  H
  C210     1.0000 0.93612  0.79883  0.25520  Biso   1.000  C
  C211     1.0000 0.93604  0.79883  0.25520  Biso   1.000  C
  H259     1.0000 0.96302  0.87001  0.31000  Biso   1.000  H
  H260     1.0000 0.84999  0.86101  0.28900  Biso   1.000  H
  H261     1.0000 0.96294  0.87001  0.31000  Biso   1.000  H
  C212     1.0000 0.86268  0.06391  0.25520  Biso   1.000  C
  H262     1.0000 0.90698  0.03702  0.31000  Biso   1.000  H
  H263     1.0000 0.01102  0.14997  0.28900  Biso   1.000  H
  H264     1.0000 0.01099  0.15006  0.28900  Biso   1.000  H
  C213     1.0000 0.84240  0.81033  0.94299  Biso   1.000  C
  H265     1.0000 0.96106  0.78101  0.91701  Biso   1.000  H
  C214     1.0000 0.96786  0.15758  0.94299  Biso   1.000  C
  H266     1.0000 0.81997  0.03901  0.91701  Biso   1.000  H
  C215     1.0000 0.96791  0.15767  0.94299  Biso   1.000  C
  N26      1.0000 0.85473  0.78257  0.22419  Biso   1.000  N
  N27      1.0000 0.85478  0.78266  0.22419  Biso   1.000  N
  H267     1.0000 0.91407  0.72298  0.26699  Biso   1.000  H
  H268     1.0000 0.91404  0.72307  0.26699  Biso   1.000  H
  H269     1.0000 0.01701  0.83403  0.24401  Biso   1.000  H
  N28      1.0000 0.92787  0.14530  0.22419  Biso   1.000  N
  H270     1.0000 0.81704  0.98296  0.24401  Biso   1.000  H
  H271     1.0000 0.81708  0.98305  0.24401  Biso   1.000  H
  H272     1.0000 0.80899  0.08597  0.26699  Biso   1.000  H
  H273     1.0000 0.80896  0.08606  0.26699  Biso   1.000  H
  C216     1.0000 0.87506  0.80929  0.98191  Biso   1.000  C
  H274     1.0000 0.77409  0.82097  0.93801  Biso   1.000  H
  H275     1.0000 0.77398  0.82106  0.93801  Biso   1.000  H
  H276     1.0000 0.04701  0.22599  0.93801  Biso   1.000  H
  H277     1.0000 0.04693  0.22599  0.93801  Biso   1.000  H
  C217     1.0000 0.93421  0.12489  0.98191  Biso   1.000  C
  C218     1.0000 0.93414  0.12489  0.98191  Biso   1.000  C
  C219     1.0000 0.89538  0.81128  0.19059  Biso   1.000  C
  C220     1.0000 0.91589  0.10456  0.19059  Biso   1.000  C
  C221     1.0000 0.91586  0.10465  0.19059  Biso   1.000  C
  H278     1.0000 0.95206  0.81604  0.98599  Biso   1.000  H
  C222     1.0000 0.81518  0.80039  0.01361  Biso   1.000  C
  H279     1.0000 0.86401  0.04800  0.98599  Biso   1.000  H
  H280     1.0000 0.86394  0.04800  0.98599  Biso   1.000  H
  C223     1.0000 0.98523  0.18482  0.01361  Biso   1.000  C
  C224     1.0000 0.98515  0.18482  0.01361  Biso   1.000  C
  C225     1.0000 0.82298  0.79667  0.15720  Biso   1.000  C
  C226     1.0000 0.82288  0.79675  0.15720  Biso   1.000  C
  H281     1.0000 0.98100  0.84501  0.18700  Biso   1.000  H
  C227     1.0000 0.97382  0.17713  0.15720  Biso   1.000  C
  C228     1.0000 0.97374  0.17713  0.15720  Biso   1.000  C
  H282     1.0000 0.86398  0.01903  0.18700  Biso   1.000  H
  H283     1.0000 0.86406  0.01903  0.18700  Biso   1.000  H
  C229     1.0000 0.86601  0.81111  0.05140  Biso   1.000  C
  C230     1.0000 0.69459  0.78136  0.01199  Biso   1.000  C
  C231     1.0000 0.86593  0.81111  0.05140  Biso   1.000  C
  C232     1.0000 0.69456  0.78144  0.01199  Biso   1.000  C
  C233     1.0000 0.94521  0.13414  0.05140  Biso   1.000  C
  C234     1.0000 0.08678  0.30539  0.01199  Biso   1.000  C
  C235     1.0000 0.87047  0.81120  0.12190  Biso   1.000  C
  C236     1.0000 0.69951  0.76588  0.16381  Biso   1.000  C
  C237     1.0000 0.69947  0.76596  0.16381  Biso   1.000  C
  C238     1.0000 0.94070  0.12947  0.12190  Biso   1.000  C
  C239     1.0000 0.94067  0.12956  0.12190  Biso   1.000  C
  C240     1.0000 0.06642  0.30046  0.16381  Biso   1.000  C
  C241     1.0000 0.06638  0.30055  0.16381  Biso   1.000  C
  C242     1.0000 0.81398  0.79917  0.08609  Biso   1.000  C
  H284     1.0000 0.94806  0.82901  0.05201  Biso   1.000  H
  C243     1.0000 0.81387  0.79926  0.08609  Biso   1.000  C
  H285     1.0000 0.64301  0.70802  0.99799  Biso   1.000  H
  H286     1.0000 0.69505  0.84700  0.99799  Biso   1.000  H
  H287     1.0000 0.66509  0.77703  0.03900  Biso   1.000  H
  C244     1.0000 0.98528  0.18612  0.08609  Biso   1.000  C
  H288     1.0000 0.88098  0.05198  0.05201  Biso   1.000  H
  H289     1.0000 0.88103  0.05207  0.05201  Biso   1.000  H
  H290     1.0000 0.15200  0.30504  0.99799  Biso   1.000  H
  H291     1.0000 0.06504  0.35702  0.99799  Biso   1.000  H
  H292     1.0000 0.06496  0.35702  0.99799  Biso   1.000  H
  H293     1.0000 0.11198  0.33497  0.03900  Biso   1.000  H
  H294     1.0000 0.11203  0.33505  0.03900  Biso   1.000  H
  H295     1.0000 0.95399  0.83204  0.12101  Biso   1.000  H
  H296     1.0000 0.64705  0.69003  0.15101  Biso   1.000  H
  H297     1.0000 0.68301  0.76000  0.19200  Biso   1.000  H
  H298     1.0000 0.68604  0.82702  0.15199  Biso   1.000  H
  H299     1.0000 0.68293  0.76000  0.19200  Biso   1.000  H
  H300     1.0000 0.68596  0.82702  0.15199  Biso   1.000  H
  H301     1.0000 0.87800  0.04601  0.12101  Biso   1.000  H
  H302     1.0000 0.07700  0.31698  0.19200  Biso   1.000  H
  H303     1.0000 0.04301  0.35296  0.15101  Biso   1.000  H
  H304     1.0000 0.14099  0.31404  0.15199  Biso   1.000  H
  H305     1.0000 0.07697  0.31706  0.19200  Biso   1.000  H
  H306     1.0000 0.04297  0.35304  0.15101  Biso   1.000  H
  H307     1.0000 0.73112  0.78101  0.08701  Biso   1.000  H
  H308     1.0000 0.73097  0.78101  0.08701  Biso   1.000  H
  H309     1.0000 0.05000  0.26898  0.08701  Biso   1.000  H
  H310     1.0000 0.04997  0.26906  0.08701  Biso   1.000  H
  C245     1.0000 0.22845  0.12913  0.76951  Biso   1.000  C
  C246     1.0000 0.20217  0.07628  0.80291  Biso   1.000  C
  C247     1.0000 0.20222  0.07637  0.80291  Biso   1.000  C
  C248     1.0000 0.20117  0.07308  0.73209  Biso   1.000  C
  H311     1.0000 0.26999  0.21596  0.77000  Biso   1.000  H
  C249     1.0000 0.20122  0.07317  0.73209  Biso   1.000  C
  H312     1.0000 0.26996  0.21605  0.77000  Biso   1.000  H
  C250     1.0000 0.22459  0.12861  0.84079  Biso   1.000  C
  H313     1.0000 0.16209  0.98997  0.80201  Biso   1.000  H
  H314     1.0000 0.16198  0.99005  0.80201  Biso   1.000  H
  C251     1.0000 0.22852  0.12913  0.76951  Biso   1.000  C
  H315     1.0000 0.15702  0.98703  0.73200  Biso   1.000  H
  C252     1.0000 0.23069  0.12688  0.69771  Biso   1.000  C
  C253     1.0000 0.23066  0.12696  0.69771  Biso   1.000  C
  C254     1.0000 0.27900  0.25704  0.84231  Biso   1.000  C
  C255     1.0000 0.19541  0.06201  0.87329  Biso   1.000  C
  C256     1.0000 0.19534  0.06201  0.87329  Biso   1.000  C
  C257     1.0000 0.29794  0.25583  0.69231  Biso   1.000  C
  C258     1.0000 0.19822  0.05578  0.66291  Biso   1.000  C
  C259     1.0000 0.29787  0.25583  0.69231  Biso   1.000  C
  C260     1.0000 0.19814  0.05578  0.66291  Biso   1.000  C
  H316     1.0000 0.35397  0.28999  0.85600  Biso   1.000  H
  H317     1.0000 0.29305  0.28904  0.81599  Biso   1.000  H
  H318     1.0000 0.22602  0.27797  0.85600  Biso   1.000  H
  H319     1.0000 0.29297  0.28904  0.81599  Biso   1.000  H
  H320     1.0000 0.22599  0.27806  0.85600  Biso   1.000  H
  H321     1.0000 0.16608  0.97803  0.86901  Biso   1.000  H
  C261     1.0000 0.20323  0.09981  0.91189  Biso   1.000  C
  C262     1.0000 0.20315  0.09981  0.91189  Biso   1.000  C
  H322     1.0000 0.31498  0.29501  0.71799  Biso   1.000  H
  H323     1.0000 0.25098  0.27996  0.67700  Biso   1.000  H
  H324     1.0000 0.37200  0.27797  0.67899  Biso   1.000  H
  H325     1.0000 0.25095  0.28005  0.67700  Biso   1.000  H
  H326     1.0000 0.37197  0.27806  0.67899  Biso   1.000  H
  H327     1.0000 0.31506  0.29501  0.71799  Biso   1.000  H
  H328     1.0000 0.25103  0.28005  0.67700  Biso   1.000  H
  H329     1.0000 0.15097  0.96999  0.66501  Biso   1.000  H
  N29      1.0000 0.22802  0.10041  0.63000  Biso   1.000  N
  N30      1.0000 0.22795  0.10041  0.63000  Biso   1.000  N
  C263     1.0000 0.18966  0.03209  0.94299  Biso   1.000  C
  H330     1.0000 0.21897  0.17998  0.91701  Biso   1.000  H
  H331     1.0000 0.21901  0.18007  0.91701  Biso   1.000  H
  C264     1.0000 0.19256  0.02396  0.59709  Biso   1.000  C
  C265     1.0000 0.19261  0.02404  0.59709  Biso   1.000  C
  H332     1.0000 0.17905  0.95304  0.93801  Biso   1.000  H
  C266     1.0000 0.19072  0.06582  0.98191  Biso   1.000  C
  C267     1.0000 0.19065  0.06582  0.98191  Biso   1.000  C
  H333     1.0000 0.26297  0.03399  0.58300  Biso   1.000  H
  H334     1.0000 0.14505  0.94197  0.60601  Biso   1.000  H
  H335     1.0000 0.14510  0.94205  0.60601  Biso   1.000  H
  H336     1.0000 0.14490  0.94197  0.60601  Biso   1.000  H
  C268     1.0000 0.12059  0.05137  0.56939  Biso   1.000  C
  C269     1.0000 0.12063  0.05146  0.56939  Biso   1.000  C
  H337     1.0000 0.18400  0.13596  0.98599  Biso   1.000  H
  H338     1.0000 0.18397  0.13605  0.98599  Biso   1.000  H
  C270     1.0000 0.19959  0.01479  0.01361  Biso   1.000  C
  N31      1.0000 0.00007  0.00000  0.58199  Biso   1.000  N
  N32      1.0000 0.00000  0.00000  0.58199  Biso   1.000  N
  H339     1.0000 0.12204  0.02102  0.54299  Biso   1.000  H
  H340     1.0000 0.15501  0.13700  0.56801  Biso   1.000  H
  H341     1.0000 0.12196  0.02102  0.54299  Biso   1.000  H
  H342     1.0000 0.15493  0.13700  0.56801  Biso   1.000  H
  C271     1.0000 0.21859  0.91317  0.01199  Biso   1.000  C
  C272     1.0000 0.21863  0.91325  0.01199  Biso   1.000  C
  C273     1.0000 0.18890  0.05483  0.05140  Biso   1.000  C
  C274     1.0000 0.93088  0.87944  0.56939  Biso   1.000  C
  C275     1.0000 0.94861  0.06919  0.56939  Biso   1.000  C
  C276     1.0000 0.94853  0.06919  0.56939  Biso   1.000  C
  H343     1.0000 0.29195  0.93496  0.99799  Biso   1.000  H
  H344     1.0000 0.15307  0.84804  0.99799  Biso   1.000  H
  H345     1.0000 0.29199  0.93505  0.99799  Biso   1.000  H
  H346     1.0000 0.22300  0.88800  0.03900  Biso   1.000  H
  H347     1.0000 0.22293  0.88800  0.03900  Biso   1.000  H
  C277     1.0000 0.20082  0.01470  0.08609  Biso   1.000  C
  H348     1.0000 0.17103  0.11901  0.05201  Biso   1.000  H
  C278     1.0000 0.20075  0.01470  0.08609  Biso   1.000  C
  H349     1.0000 0.17096  0.11901  0.05201  Biso   1.000  H
  C279     1.0000 0.83142  0.80739  0.59709  Biso   1.000  C
  H350     1.0000 0.89906  0.87797  0.54299  Biso   1.000  H
  H351     1.0000 0.98198  0.84501  0.56801  Biso   1.000  H
  C280     1.0000 0.83134  0.80739  0.59709  Biso   1.000  C
  H352     1.0000 0.89903  0.87805  0.54299  Biso   1.000  H
  C281     1.0000 0.97598  0.16857  0.59709  Biso   1.000  C
  H353     1.0000 0.97898  0.10102  0.54299  Biso   1.000  H
  H354     1.0000 0.86301  0.01799  0.56801  Biso   1.000  H
  C282     1.0000 0.97602  0.16865  0.59709  Biso   1.000  C
  H355     1.0000 0.86294  0.01799  0.56801  Biso   1.000  H
  H356     1.0000 0.21911  0.95001  0.08701  Biso   1.000  H
  H357     1.0000 0.21896  0.95001  0.08701  Biso   1.000  H
  C283     1.0000 0.18883  0.05933  0.12190  Biso   1.000  C
  C284     1.0000 0.18875  0.05933  0.12190  Biso   1.000  C
  N33      1.0000 0.87245  0.77202  0.63000  Biso   1.000  N
  H358     1.0000 0.77097  0.73699  0.58300  Biso   1.000  H
  H359     1.0000 0.79700  0.85496  0.60601  Biso   1.000  H
  H360     1.0000 0.79705  0.85505  0.60601  Biso   1.000  H
  H361     1.0000 0.05798  0.20299  0.60601  Biso   1.000  H
  N34      1.0000 0.89960  0.12757  0.63000  Biso   1.000  N
  H362     1.0000 0.96598  0.22902  0.58300  Biso   1.000  H
  N35      1.0000 0.89965  0.12766  0.63000  Biso   1.000  N
  N36      1.0000 0.89957  0.12766  0.63000  Biso   1.000  N
  C285     1.0000 0.20328  0.02621  0.15720  Biso   1.000  C
  H363     1.0000 0.16805  0.12203  0.12101  Biso   1.000  H
  H364     1.0000 0.16798  0.12203  0.12101  Biso   1.000  H
  C286     1.0000 0.85759  0.80177  0.66291  Biso   1.000  C
  C287     1.0000 0.85756  0.80186  0.66291  Biso   1.000  C
  C288     1.0000 0.94415  0.14236  0.66291  Biso   1.000  C
  C289     1.0000 0.94419  0.14245  0.66291  Biso   1.000  C
  C290     1.0000 0.23418  0.93358  0.16381  Biso   1.000  C
  C291     1.0000 0.23408  0.93366  0.16381  Biso   1.000  C
  C292     1.0000 0.18869  0.08407  0.19059  Biso   1.000  C
  C293     1.0000 0.18866  0.08415  0.19059  Biso   1.000  C
  C294     1.0000 0.89620  0.76934  0.69771  Biso   1.000  C
  H365     1.0000 0.81896  0.84899  0.66501  Biso   1.000  H
  H366     1.0000 0.02999  0.18102  0.66501  Biso   1.000  H
  C295     1.0000 0.87310  0.10379  0.69771  Biso   1.000  C
  C296     1.0000 0.87303  0.10379  0.69771  Biso   1.000  C
  H367     1.0000 0.31002  0.95702  0.15101  Biso   1.000  H
  H368     1.0000 0.24007  0.92303  0.19200  Biso   1.000  H
  H369     1.0000 0.17309  0.85902  0.15199  Biso   1.000  H
  H370     1.0000 0.17301  0.85902  0.15199  Biso   1.000  H
  N37      1.0000 0.21740  0.07213  0.22419  Biso   1.000  N
  H371     1.0000 0.15501  0.13596  0.18700  Biso   1.000  H
  H372     1.0000 0.15498  0.13605  0.18700  Biso   1.000  H
  C297     1.0000 0.95795  0.70214  0.69231  Biso   1.000  C
  C298     1.0000 0.87200  0.79883  0.73209  Biso   1.000  C
  C299     1.0000 0.87193  0.79883  0.73209  Biso   1.000  C
  C300     1.0000 0.92690  0.12809  0.73209  Biso   1.000  C
  C301     1.0000 0.74423  0.04212  0.69231  Biso   1.000  C
  C302     1.0000 0.92683  0.12809  0.73209  Biso   1.000  C
  C303     1.0000 0.74415  0.04212  0.69231  Biso   1.000  C
  C304     1.0000 0.20125  0.13734  0.25520  Biso   1.000  C
  C305     1.0000 0.20117  0.13734  0.25520  Biso   1.000  C
  H373     1.0000 0.98010  0.68501  0.71799  Biso   1.000  H
  H374     1.0000 0.90599  0.62802  0.67899  Biso   1.000  H
  H375     1.0000 0.97995  0.68501  0.71799  Biso   1.000  H
  H376     1.0000 0.02903  0.74901  0.67700  Biso   1.000  H
  H377     1.0000 0.02895  0.74901  0.67700  Biso   1.000  H
  C306     1.0000 0.90065  0.77150  0.76951  Biso   1.000  C
  H378     1.0000 0.82998  0.84302  0.73200  Biso   1.000  H
  C307     1.0000 0.87090  0.09937  0.76951  Biso   1.000  C
  C308     1.0000 0.87087  0.09946  0.76951  Biso   1.000  C
  H379     1.0000 0.01304  0.17004  0.73200  Biso   1.000  H
  H380     1.0000 0.01296  0.17004  0.73200  Biso   1.000  H
  H381     1.0000 0.71999  0.97103  0.67700  Biso   1.000  H
  H382     1.0000 0.70499  0.01998  0.71799  Biso   1.000  H
  H383     1.0000 0.72201  0.09401  0.67899  Biso   1.000  H
  H384     1.0000 0.70496  0.02007  0.71799  Biso   1.000  H
  H385     1.0000 0.72194  0.09401  0.67899  Biso   1.000  H
  C309     1.0000 0.11951  0.05146  0.28520  Biso   1.000  C
  H386     1.0000 0.27697  0.19097  0.26699  Biso   1.000  H
  H387     1.0000 0.16603  0.18301  0.24401  Biso   1.000  H
  C310     1.0000 0.11947  0.05155  0.28520  Biso   1.000  C
  H388     1.0000 0.27701  0.19105  0.26699  Biso   1.000  H
  H389     1.0000 0.16596  0.18301  0.24401  Biso   1.000  H
  C311     1.0000 0.87410  0.79779  0.80291  Biso   1.000  C
  H390     1.0000 0.94596  0.72998  0.77000  Biso   1.000  H
  C312     1.0000 0.87403  0.79779  0.80291  Biso   1.000  C
  C313     1.0000 0.92372  0.12593  0.80291  Biso   1.000  C
  H391     1.0000 0.78401  0.05397  0.77000  Biso   1.000  H
  H392     1.0000 0.78405  0.05405  0.77000  Biso   1.000  H
  C314     1.0000 0.92365  0.12593  0.80291  Biso   1.000  C
  H393     1.0000 0.78397  0.05405  0.77000  Biso   1.000  H
  H394     1.0000 0.13899  0.98902  0.28900  Biso   1.000  H
  N38      1.0000 0.00007  0.00000  0.27349  Biso   1.000  N
  N39      1.0000 0.00000  0.00000  0.27349  Biso   1.000  N
  H395     1.0000 0.13000  0.09297  0.31000  Biso   1.000  H
  H396     1.0000 0.12997  0.09306  0.31000  Biso   1.000  H
  C315     1.0000 0.90402  0.77539  0.84079  Biso   1.000  C
  H397     1.0000 0.82807  0.83801  0.80201  Biso   1.000  H
  C316     1.0000 0.90395  0.77539  0.84079  Biso   1.000  C
  H398     1.0000 0.00999  0.17202  0.80201  Biso   1.000  H
  C317     1.0000 0.87138  0.09600  0.84079  Biso   1.000  C
  C318     1.0000 0.93200  0.88047  0.28520  Biso   1.000  C
  C319     1.0000 0.93197  0.88056  0.28520  Biso   1.000  C
  C320     1.0000 0.94845  0.06798  0.28520  Biso   1.000  C
  C321     1.0000 0.94850  0.06807  0.28520  Biso   1.000  C
  C322     1.0000 0.97801  0.72099  0.84231  Biso   1.000  C
  C323     1.0000 0.86666  0.80462  0.87329  Biso   1.000  C
  C324     1.0000 0.93800  0.13336  0.87329  Biso   1.000  C
  C325     1.0000 0.74299  0.02197  0.84231  Biso   1.000  C
  C326     1.0000 0.93797  0.13345  0.87329  Biso   1.000  C
  C327     1.0000 0.74296  0.02205  0.84231  Biso   1.000  C
  C328     1.0000 0.93612  0.79883  0.25520  Biso   1.000  C
  H399     1.0000 0.96302  0.87001  0.31000  Biso   1.000  H
  H400     1.0000 0.84999  0.86101  0.28900  Biso   1.000  H
  C329     1.0000 0.93604  0.79883  0.25520  Biso   1.000  C
  H401     1.0000 0.96294  0.87001  0.31000  Biso   1.000  H
  C330     1.0000 0.86268  0.06391  0.25520  Biso   1.000  C
  H402     1.0000 0.90698  0.03702  0.31000  Biso   1.000  H
  H403     1.0000 0.01102  0.14997  0.28900  Biso   1.000  H
  H404     1.0000 0.01099  0.15006  0.28900  Biso   1.000  H
  H405     1.0000 0.99603  0.70698  0.81599  Biso   1.000  H
  H406     1.0000 0.93610  0.64600  0.85600  Biso   1.000  H
  H407     1.0000 0.99607  0.70707  0.81599  Biso   1.000  H
  H408     1.0000 0.93595  0.64600  0.85600  Biso   1.000  H
  H409     1.0000 0.05208  0.77401  0.85600  Biso   1.000  H
  H410     1.0000 0.05201  0.77401  0.85600  Biso   1.000  H
  C331     1.0000 0.89662  0.79684  0.91189  Biso   1.000  C
  H411     1.0000 0.81208  0.83403  0.86901  Biso   1.000  H
  C332     1.0000 0.89655  0.79684  0.91189  Biso   1.000  C
  C333     1.0000 0.90020  0.10344  0.91189  Biso   1.000  C
  C334     1.0000 0.90027  0.10344  0.91189  Biso   1.000  C
  H412     1.0000 0.02203  0.18802  0.86901  Biso   1.000  H
  H413     1.0000 0.02196  0.18802  0.86901  Biso   1.000  H
  H414     1.0000 0.72204  0.94802  0.85600  Biso   1.000  H
  H415     1.0000 0.72197  0.94802  0.85600  Biso   1.000  H
  H416     1.0000 0.71100  0.00398  0.81599  Biso   1.000  H
  H417     1.0000 0.71000  0.06400  0.85600  Biso   1.000  H
  H418     1.0000 0.71097  0.00406  0.81599  Biso   1.000  H
  H419     1.0000 0.70993  0.06400  0.85600  Biso   1.000  H
  N40      1.0000 0.85473  0.78257  0.22419  Biso   1.000  N
  H420     1.0000 0.91407  0.72298  0.26699  Biso   1.000  H
  N41      1.0000 0.85478  0.78266  0.22419  Biso   1.000  N
  H421     1.0000 0.91404  0.72307  0.26699  Biso   1.000  H
  H422     1.0000 0.01701  0.83403  0.24401  Biso   1.000  H
  H423     1.0000 0.81704  0.98296  0.24401  Biso   1.000  H
  H424     1.0000 0.81708  0.98305  0.24401  Biso   1.000  H
  N42      1.0000 0.92787  0.14530  0.22419  Biso   1.000  N
  H425     1.0000 0.80899  0.08597  0.26699  Biso   1.000  H
  H426     1.0000 0.80896  0.08606  0.26699  Biso   1.000  H
  C335     1.0000 0.84240  0.81033  0.94299  Biso   1.000  C
  H427     1.0000 0.96106  0.78101  0.91701  Biso   1.000  H
  C336     1.0000 0.96786  0.15758  0.94299  Biso   1.000  C
  H428     1.0000 0.81997  0.03901  0.91701  Biso   1.000  H
  C337     1.0000 0.96791  0.15767  0.94299  Biso   1.000  C
  C338     1.0000 0.89538  0.81128  0.19059  Biso   1.000  C
  C339     1.0000 0.91589  0.10456  0.19059  Biso   1.000  C
  C340     1.0000 0.91586  0.10465  0.19059  Biso   1.000  C
  C341     1.0000 0.87506  0.80929  0.98191  Biso   1.000  C
  H429     1.0000 0.77409  0.82097  0.93801  Biso   1.000  H
  H430     1.0000 0.77398  0.82106  0.93801  Biso   1.000  H
  C342     1.0000 0.93421  0.12489  0.98191  Biso   1.000  C
  C343     1.0000 0.93414  0.12489  0.98191  Biso   1.000  C
  H431     1.0000 0.04701  0.22599  0.93801  Biso   1.000  H
  H432     1.0000 0.04693  0.22599  0.93801  Biso   1.000  H
  C344     1.0000 0.82298  0.79667  0.15720  Biso   1.000  C
  H433     1.0000 0.98100  0.84501  0.18700  Biso   1.000  H
  C345     1.0000 0.82288  0.79675  0.15720  Biso   1.000  C
  C346     1.0000 0.97382  0.17713  0.15720  Biso   1.000  C
  H434     1.0000 0.86398  0.01903  0.18700  Biso   1.000  H
  C347     1.0000 0.97374  0.17713  0.15720  Biso   1.000  C
  H435     1.0000 0.86406  0.01903  0.18700  Biso   1.000  H
  C348     1.0000 0.81518  0.80039  0.01361  Biso   1.000  C
  H436     1.0000 0.95206  0.81604  0.98599  Biso   1.000  H
  C349     1.0000 0.98523  0.18482  0.01361  Biso   1.000  C
  C350     1.0000 0.98515  0.18482  0.01361  Biso   1.000  C
  H437     1.0000 0.86401  0.04800  0.98599  Biso   1.000  H
  H438     1.0000 0.86394  0.04800  0.98599  Biso   1.000  H
  C351     1.0000 0.69951  0.76588  0.16381  Biso   1.000  C
  C352     1.0000 0.87047  0.81120  0.12190  Biso   1.000  C
  C353     1.0000 0.69947  0.76596  0.16381  Biso   1.000  C
  C354     1.0000 0.94070  0.12947  0.12190  Biso   1.000  C
  C355     1.0000 0.94067  0.12956  0.12190  Biso   1.000  C
  C356     1.0000 0.06642  0.30046  0.16381  Biso   1.000  C
  C357     1.0000 0.06638  0.30055  0.16381  Biso   1.000  C
  C358     1.0000 0.86601  0.81111  0.05140  Biso   1.000  C
  C359     1.0000 0.86593  0.81111  0.05140  Biso   1.000  C
  C360     1.0000 0.69459  0.78136  0.01199  Biso   1.000  C
  C361     1.0000 0.69456  0.78144  0.01199  Biso   1.000  C
  C362     1.0000 0.94521  0.13414  0.05140  Biso   1.000  C
  C363     1.0000 0.08678  0.30539  0.01199  Biso   1.000  C
  H439     1.0000 0.64705  0.69003  0.15101  Biso   1.000  H
  H440     1.0000 0.68301  0.76000  0.19200  Biso   1.000  H
  H441     1.0000 0.68604  0.82702  0.15199  Biso   1.000  H
  H442     1.0000 0.68293  0.76000  0.19200  Biso   1.000  H
  H443     1.0000 0.68596  0.82702  0.15199  Biso   1.000  H
  C364     1.0000 0.81398  0.79917  0.08609  Biso   1.000  C
  H444     1.0000 0.95399  0.83204  0.12101  Biso   1.000  H
  C365     1.0000 0.81387  0.79926  0.08609  Biso   1.000  C
  C366     1.0000 0.98528  0.18612  0.08609  Biso   1.000  C
  H445     1.0000 0.87800  0.04601  0.12101  Biso   1.000  H
  H446     1.0000 0.07700  0.31698  0.19200  Biso   1.000  H
  H447     1.0000 0.04301  0.35296  0.15101  Biso   1.000  H
  H448     1.0000 0.14099  0.31404  0.15199  Biso   1.000  H
  H449     1.0000 0.07697  0.31706  0.19200  Biso   1.000  H
  H450     1.0000 0.04297  0.35304  0.15101  Biso   1.000  H
  H451     1.0000 0.94806  0.82901  0.05201  Biso   1.000  H
  H452     1.0000 0.64301  0.70802  0.99799  Biso   1.000  H
  H453     1.0000 0.69505  0.84700  0.99799  Biso   1.000  H
  H454     1.0000 0.66509  0.77703  0.03900  Biso   1.000  H
  H455     1.0000 0.88098  0.05198  0.05201  Biso   1.000  H
  H456     1.0000 0.88103  0.05207  0.05201  Biso   1.000  H
  H457     1.0000 0.15200  0.30504  0.99799  Biso   1.000  H
  H458     1.0000 0.06504  0.35702  0.99799  Biso   1.000  H
  H459     1.0000 0.06496  0.35702  0.99799  Biso   1.000  H
  H460     1.0000 0.11198  0.33497  0.03900  Biso   1.000  H
  H461     1.0000 0.11203  0.33505  0.03900  Biso   1.000  H
  H462     1.0000 0.73112  0.78101  0.08701  Biso   1.000  H
  H463     1.0000 0.73097  0.78101  0.08701  Biso   1.000  H
  H464     1.0000 0.05000  0.26898  0.08701  Biso   1.000  H
  H465     1.0000 0.04997  0.26906  0.08701  Biso   1.000  H
  C367     1.0000 0.22845  0.12913  0.76951  Biso   1.000  C
  C368     1.0000 0.20217  0.07628  0.80291  Biso   1.000  C
  C369     1.0000 0.20222  0.07637  0.80291  Biso   1.000  C
  C370     1.0000 0.20117  0.07308  0.73209  Biso   1.000  C
  H466     1.0000 0.26999  0.21596  0.77000  Biso   1.000  H
  C371     1.0000 0.20122  0.07317  0.73209  Biso   1.000  C
  H467     1.0000 0.26996  0.21605  0.77000  Biso   1.000  H
  C372     1.0000 0.22459  0.12861  0.84079  Biso   1.000  C
  H468     1.0000 0.16209  0.98997  0.80201  Biso   1.000  H
  H469     1.0000 0.16198  0.99005  0.80201  Biso   1.000  H
  C373     1.0000 0.22852  0.12913  0.76951  Biso   1.000  C
  H470     1.0000 0.15702  0.98703  0.73200  Biso   1.000  H
  C374     1.0000 0.23069  0.12688  0.69771  Biso   1.000  C
  C375     1.0000 0.23066  0.12696  0.69771  Biso   1.000  C
  C376     1.0000 0.27900  0.25704  0.84231  Biso   1.000  C
  C377     1.0000 0.19541  0.06201  0.87329  Biso   1.000  C
  C378     1.0000 0.19534  0.06201  0.87329  Biso   1.000  C
  C379     1.0000 0.29794  0.25583  0.69231  Biso   1.000  C
  C380     1.0000 0.19822  0.05578  0.66291  Biso   1.000  C
  C381     1.0000 0.29787  0.25583  0.69231  Biso   1.000  C
  C382     1.0000 0.19814  0.05578  0.66291  Biso   1.000  C
  H471     1.0000 0.35397  0.28999  0.85600  Biso   1.000  H
  H472     1.0000 0.29305  0.28904  0.81599  Biso   1.000  H
  H473     1.0000 0.22602  0.27797  0.85600  Biso   1.000  H
  H474     1.0000 0.29297  0.28904  0.81599  Biso   1.000  H
  H475     1.0000 0.22599  0.27806  0.85600  Biso   1.000  H
  H476     1.0000 0.16608  0.97803  0.86901  Biso   1.000  H
  C383     1.0000 0.20323  0.09981  0.91189  Biso   1.000  C
  C384     1.0000 0.20315  0.09981  0.91189  Biso   1.000  C
  H477     1.0000 0.31498  0.29501  0.71799  Biso   1.000  H
  H478     1.0000 0.25098  0.27996  0.67700  Biso   1.000  H
  H479     1.0000 0.37200  0.27797  0.67899  Biso   1.000  H
  H480     1.0000 0.25095  0.28005  0.67700  Biso   1.000  H
  H481     1.0000 0.37197  0.27806  0.67899  Biso   1.000  H
  H482     1.0000 0.31506  0.29501  0.71799  Biso   1.000  H
  H483     1.0000 0.25103  0.28005  0.67700  Biso   1.000  H
  H484     1.0000 0.15097  0.96999  0.66501  Biso   1.000  H
  N43      1.0000 0.22802  0.10041  0.63000  Biso   1.000  N
  N44      1.0000 0.22795  0.10041  0.63000  Biso   1.000  N
  C385     1.0000 0.18966  0.03209  0.94299  Biso   1.000  C
  H485     1.0000 0.21897  0.17998  0.91701  Biso   1.000  H
  H486     1.0000 0.21901  0.18007  0.91701  Biso   1.000  H
  C386     1.0000 0.19256  0.02396  0.59709  Biso   1.000  C
  C387     1.0000 0.19261  0.02404  0.59709  Biso   1.000  C
  H487     1.0000 0.17905  0.95304  0.93801  Biso   1.000  H
  C388     1.0000 0.19072  0.06582  0.98191  Biso   1.000  C
  C389     1.0000 0.19065  0.06582  0.98191  Biso   1.000  C
  H488     1.0000 0.26297  0.03399  0.58300  Biso   1.000  H
  H489     1.0000 0.14505  0.94197  0.60601  Biso   1.000  H
  H490     1.0000 0.14510  0.94205  0.60601  Biso   1.000  H
  H491     1.0000 0.14490  0.94197  0.60601  Biso   1.000  H
  C390     1.0000 0.12059  0.05137  0.56939  Biso   1.000  C
  C391     1.0000 0.12063  0.05146  0.56939  Biso   1.000  C
  H492     1.0000 0.18400  0.13596  0.98599  Biso   1.000  H
  H493     1.0000 0.18397  0.13605  0.98599  Biso   1.000  H
  C392     1.0000 0.19959  0.01479  0.01361  Biso   1.000  C
  N45      1.0000 0.00007  0.00000  0.58199  Biso   1.000  N
  N46      1.0000 0.00000  0.00000  0.58199  Biso   1.000  N
  H494     1.0000 0.12204  0.02102  0.54299  Biso   1.000  H
  H495     1.0000 0.15501  0.13700  0.56801  Biso   1.000  H
  H496     1.0000 0.12196  0.02102  0.54299  Biso   1.000  H
  H497     1.0000 0.15493  0.13700  0.56801  Biso   1.000  H
  C393     1.0000 0.21859  0.91317  0.01199  Biso   1.000  C
  C394     1.0000 0.21863  0.91325  0.01199  Biso   1.000  C
  C395     1.0000 0.18890  0.05483  0.05140  Biso   1.000  C
  C396     1.0000 0.93088  0.87944  0.56939  Biso   1.000  C
  C397     1.0000 0.94861  0.06919  0.56939  Biso   1.000  C
  C398     1.0000 0.94853  0.06919  0.56939  Biso   1.000  C
  H498     1.0000 0.29195  0.93496  0.99799  Biso   1.000  H
  H499     1.0000 0.15307  0.84804  0.99799  Biso   1.000  H
  H500     1.0000 0.29199  0.93505  0.99799  Biso   1.000  H
  H501     1.0000 0.22300  0.88800  0.03900  Biso   1.000  H
  H502     1.0000 0.22293  0.88800  0.03900  Biso   1.000  H
  C399     1.0000 0.20082  0.01470  0.08609  Biso   1.000  C
  H503     1.0000 0.17103  0.11901  0.05201  Biso   1.000  H
  C400     1.0000 0.20075  0.01470  0.08609  Biso   1.000  C
  H504     1.0000 0.17096  0.11901  0.05201  Biso   1.000  H
  C401     1.0000 0.83142  0.80739  0.59709  Biso   1.000  C
  H505     1.0000 0.89906  0.87797  0.54299  Biso   1.000  H
  H506     1.0000 0.98198  0.84501  0.56801  Biso   1.000  H
  C402     1.0000 0.83134  0.80739  0.59709  Biso   1.000  C
  H507     1.0000 0.89903  0.87805  0.54299  Biso   1.000  H
  C403     1.0000 0.97598  0.16857  0.59709  Biso   1.000  C
  H508     1.0000 0.97898  0.10102  0.54299  Biso   1.000  H
  H509     1.0000 0.86301  0.01799  0.56801  Biso   1.000  H
  C404     1.0000 0.97602  0.16865  0.59709  Biso   1.000  C
  H510     1.0000 0.86294  0.01799  0.56801  Biso   1.000  H
  H511     1.0000 0.21911  0.95001  0.08701  Biso   1.000  H
  H512     1.0000 0.21896  0.95001  0.08701  Biso   1.000  H
  C405     1.0000 0.18883  0.05933  0.12190  Biso   1.000  C
  C406     1.0000 0.18875  0.05933  0.12190  Biso   1.000  C
  N47      1.0000 0.87245  0.77202  0.63000  Biso   1.000  N
  H513     1.0000 0.77097  0.73699  0.58300  Biso   1.000  H
  H514     1.0000 0.79700  0.85496  0.60601  Biso   1.000  H
  H515     1.0000 0.79705  0.85505  0.60601  Biso   1.000  H
  H516     1.0000 0.05798  0.20299  0.60601  Biso   1.000  H
  N48      1.0000 0.89960  0.12757  0.63000  Biso   1.000  N
  H517     1.0000 0.96598  0.22902  0.58300  Biso   1.000  H
  N49      1.0000 0.89965  0.12766  0.63000  Biso   1.000  N
  N50      1.0000 0.89957  0.12766  0.63000  Biso   1.000  N
  C407     1.0000 0.20328  0.02621  0.15720  Biso   1.000  C
  H518     1.0000 0.16805  0.12203  0.12101  Biso   1.000  H
  H519     1.0000 0.16798  0.12203  0.12101  Biso   1.000  H
  C408     1.0000 0.85759  0.80177  0.66291  Biso   1.000  C
  C409     1.0000 0.85756  0.80186  0.66291  Biso   1.000  C
  C410     1.0000 0.94415  0.14236  0.66291  Biso   1.000  C
  C411     1.0000 0.94419  0.14245  0.66291  Biso   1.000  C
  C412     1.0000 0.23418  0.93358  0.16381  Biso   1.000  C
  C413     1.0000 0.23408  0.93366  0.16381  Biso   1.000  C
  C414     1.0000 0.18869  0.08407  0.19059  Biso   1.000  C
  C415     1.0000 0.18866  0.08415  0.19059  Biso   1.000  C
  C416     1.0000 0.89620  0.76934  0.69771  Biso   1.000  C
  H520     1.0000 0.81896  0.84899  0.66501  Biso   1.000  H
  H521     1.0000 0.02999  0.18102  0.66501  Biso   1.000  H
  C417     1.0000 0.87310  0.10379  0.69771  Biso   1.000  C
  C418     1.0000 0.87303  0.10379  0.69771  Biso   1.000  C
  H522     1.0000 0.31002  0.95702  0.15101  Biso   1.000  H
  H523     1.0000 0.24007  0.92303  0.19200  Biso   1.000  H
  H524     1.0000 0.17309  0.85902  0.15199  Biso   1.000  H
  H525     1.0000 0.17301  0.85902  0.15199  Biso   1.000  H
  N51      1.0000 0.21740  0.07213  0.22419  Biso   1.000  N
  H526     1.0000 0.15501  0.13596  0.18700  Biso   1.000  H
  H527     1.0000 0.15498  0.13605  0.18700  Biso   1.000  H
  C419     1.0000 0.95795  0.70214  0.69231  Biso   1.000  C
  C420     1.0000 0.87200  0.79883  0.73209  Biso   1.000  C
  C421     1.0000 0.87193  0.79883  0.73209  Biso   1.000  C
  C422     1.0000 0.92690  0.12809  0.73209  Biso   1.000  C
  C423     1.0000 0.74423  0.04212  0.69231  Biso   1.000  C
  C424     1.0000 0.92683  0.12809  0.73209  Biso   1.000  C
  C425     1.0000 0.74415  0.04212  0.69231  Biso   1.000  C
  C426     1.0000 0.20125  0.13734  0.25520  Biso   1.000  C
  C427     1.0000 0.20117  0.13734  0.25520  Biso   1.000  C
  H528     1.0000 0.98010  0.68501  0.71799  Biso   1.000  H
  H529     1.0000 0.90599  0.62802  0.67899  Biso   1.000  H
  H530     1.0000 0.97995  0.68501  0.71799  Biso   1.000  H
  H531     1.0000 0.02903  0.74901  0.67700  Biso   1.000  H
  H532     1.0000 0.02895  0.74901  0.67700  Biso   1.000  H
  C428     1.0000 0.90065  0.77150  0.76951  Biso   1.000  C
  H533     1.0000 0.82998  0.84302  0.73200  Biso   1.000  H
  C429     1.0000 0.87090  0.09937  0.76951  Biso   1.000  C
  C430     1.0000 0.87087  0.09946  0.76951  Biso   1.000  C
  H534     1.0000 0.01304  0.17004  0.73200  Biso   1.000  H
  H535     1.0000 0.01296  0.17004  0.73200  Biso   1.000  H
  H536     1.0000 0.71999  0.97103  0.67700  Biso   1.000  H
  H537     1.0000 0.70499  0.01998  0.71799  Biso   1.000  H
  H538     1.0000 0.72201  0.09401  0.67899  Biso   1.000  H
  H539     1.0000 0.70496  0.02007  0.71799  Biso   1.000  H
  H540     1.0000 0.72194  0.09401  0.67899  Biso   1.000  H
  C431     1.0000 0.11951  0.05146  0.28520  Biso   1.000  C
  H541     1.0000 0.27697  0.19097  0.26699  Biso   1.000  H
  H542     1.0000 0.16603  0.18301  0.24401  Biso   1.000  H
  C432     1.0000 0.11947  0.05155  0.28520  Biso   1.000  C
  H543     1.0000 0.27701  0.19105  0.26699  Biso   1.000  H
  H544     1.0000 0.16596  0.18301  0.24401  Biso   1.000  H
  C433     1.0000 0.87410  0.79779  0.80291  Biso   1.000  C
  H545     1.0000 0.94596  0.72998  0.77000  Biso   1.000  H
  C434     1.0000 0.87403  0.79779  0.80291  Biso   1.000  C
  C435     1.0000 0.92372  0.12593  0.80291  Biso   1.000  C
  H546     1.0000 0.78401  0.05397  0.77000  Biso   1.000  H
  H547     1.0000 0.78405  0.05405  0.77000  Biso   1.000  H
  C436     1.0000 0.92365  0.12593  0.80291  Biso   1.000  C
  H548     1.0000 0.78397  0.05405  0.77000  Biso   1.000  H
  H549     1.0000 0.13899  0.98902  0.28900  Biso   1.000  H
  N52      1.0000 0.00007  0.00000  0.27349  Biso   1.000  N
  N53      1.0000 0.00000  0.00000  0.27349  Biso   1.000  N
  H550     1.0000 0.13000  0.09297  0.31000  Biso   1.000  H
  H551     1.0000 0.12997  0.09306  0.31000  Biso   1.000  H
  C437     1.0000 0.90402  0.77539  0.84079  Biso   1.000  C
  H552     1.0000 0.82807  0.83801  0.80201  Biso   1.000  H
  C438     1.0000 0.90395  0.77539  0.84079  Biso   1.000  C
  H553     1.0000 0.00999  0.17202  0.80201  Biso   1.000  H
  C439     1.0000 0.87138  0.09600  0.84079  Biso   1.000  C
  C440     1.0000 0.93200  0.88047  0.28520  Biso   1.000  C
  C441     1.0000 0.93197  0.88056  0.28520  Biso   1.000  C
  C442     1.0000 0.94845  0.06798  0.28520  Biso   1.000  C
  C443     1.0000 0.94850  0.06807  0.28520  Biso   1.000  C
  C444     1.0000 0.97801  0.72099  0.84231  Biso   1.000  C
  C445     1.0000 0.86666  0.80462  0.87329  Biso   1.000  C
  C446     1.0000 0.93800  0.13336  0.87329  Biso   1.000  C
  C447     1.0000 0.74299  0.02197  0.84231  Biso   1.000  C
  C448     1.0000 0.93797  0.13345  0.87329  Biso   1.000  C
  C449     1.0000 0.74296  0.02205  0.84231  Biso   1.000  C
  C450     1.0000 0.93612  0.79883  0.25520  Biso   1.000  C
  H554     1.0000 0.96302  0.87001  0.31000  Biso   1.000  H
  H555     1.0000 0.84999  0.86101  0.28900  Biso   1.000  H
  C451     1.0000 0.93604  0.79883  0.25520  Biso   1.000  C
  H556     1.0000 0.96294  0.87001  0.31000  Biso   1.000  H
  C452     1.0000 0.86268  0.06391  0.25520  Biso   1.000  C
  H557     1.0000 0.90698  0.03702  0.31000  Biso   1.000  H
  H558     1.0000 0.01102  0.14997  0.28900  Biso   1.000  H
  H559     1.0000 0.01099  0.15006  0.28900  Biso   1.000  H
  H560     1.0000 0.99603  0.70698  0.81599  Biso   1.000  H
  H561     1.0000 0.93610  0.64600  0.85600  Biso   1.000  H
  H562     1.0000 0.99607  0.70707  0.81599  Biso   1.000  H
  H563     1.0000 0.93595  0.64600  0.85600  Biso   1.000  H
  H564     1.0000 0.05208  0.77401  0.85600  Biso   1.000  H
  H565     1.0000 0.05201  0.77401  0.85600  Biso   1.000  H
  C453     1.0000 0.89662  0.79684  0.91189  Biso   1.000  C
  H566     1.0000 0.81208  0.83403  0.86901  Biso   1.000  H
  C454     1.0000 0.89655  0.79684  0.91189  Biso   1.000  C
  C455     1.0000 0.90020  0.10344  0.91189  Biso   1.000  C
  C456     1.0000 0.90027  0.10344  0.91189  Biso   1.000  C
  H567     1.0000 0.02203  0.18802  0.86901  Biso   1.000  H
  H568     1.0000 0.02196  0.18802  0.86901  Biso   1.000  H
  H569     1.0000 0.72204  0.94802  0.85600  Biso   1.000  H
  H570     1.0000 0.72197  0.94802  0.85600  Biso   1.000  H
  H571     1.0000 0.71100  0.00398  0.81599  Biso   1.000  H
  H572     1.0000 0.71000  0.06400  0.85600  Biso   1.000  H
  H573     1.0000 0.71097  0.00406  0.81599  Biso   1.000  H
  H574     1.0000 0.70993  0.06400  0.85600  Biso   1.000  H
  N54      1.0000 0.85473  0.78257  0.22419  Biso   1.000  N
  H575     1.0000 0.91407  0.72298  0.26699  Biso   1.000  H
  N55      1.0000 0.85478  0.78266  0.22419  Biso   1.000  N
  H576     1.0000 0.91404  0.72307  0.26699  Biso   1.000  H
  H577     1.0000 0.01701  0.83403  0.24401  Biso   1.000  H
  H578     1.0000 0.81704  0.98296  0.24401  Biso   1.000  H
  H579     1.0000 0.81708  0.98305  0.24401  Biso   1.000  H
  N56      1.0000 0.92787  0.14530  0.22419  Biso   1.000  N
  H580     1.0000 0.80899  0.08597  0.26699  Biso   1.000  H
  H581     1.0000 0.80896  0.08606  0.26699  Biso   1.000  H
  C457     1.0000 0.84240  0.81033  0.94299  Biso   1.000  C
  H582     1.0000 0.96106  0.78101  0.91701  Biso   1.000  H
  C458     1.0000 0.96786  0.15758  0.94299  Biso   1.000  C
  H583     1.0000 0.81997  0.03901  0.91701  Biso   1.000  H
  C459     1.0000 0.96791  0.15767  0.94299  Biso   1.000  C
  C460     1.0000 0.89538  0.81128  0.19059  Biso   1.000  C
  C461     1.0000 0.91589  0.10456  0.19059  Biso   1.000  C
  C462     1.0000 0.91586  0.10465  0.19059  Biso   1.000  C
  C463     1.0000 0.87506  0.80929  0.98191  Biso   1.000  C
  H584     1.0000 0.77409  0.82097  0.93801  Biso   1.000  H
  H585     1.0000 0.77398  0.82106  0.93801  Biso   1.000  H
  C464     1.0000 0.93421  0.12489  0.98191  Biso   1.000  C
  C465     1.0000 0.93414  0.12489  0.98191  Biso   1.000  C
  H586     1.0000 0.04701  0.22599  0.93801  Biso   1.000  H
  H587     1.0000 0.04693  0.22599  0.93801  Biso   1.000  H
  C466     1.0000 0.82298  0.79667  0.15720  Biso   1.000  C
  H588     1.0000 0.98100  0.84501  0.18700  Biso   1.000  H
  C467     1.0000 0.82288  0.79675  0.15720  Biso   1.000  C
  C468     1.0000 0.97382  0.17713  0.15720  Biso   1.000  C
  H589     1.0000 0.86398  0.01903  0.18700  Biso   1.000  H
  C469     1.0000 0.97374  0.17713  0.15720  Biso   1.000  C
  H590     1.0000 0.86406  0.01903  0.18700  Biso   1.000  H
  C470     1.0000 0.81518  0.80039  0.01361  Biso   1.000  C
  H591     1.0000 0.95206  0.81604  0.98599  Biso   1.000  H
  C471     1.0000 0.98523  0.18482  0.01361  Biso   1.000  C
  C472     1.0000 0.98515  0.18482  0.01361  Biso   1.000  C
  H592     1.0000 0.86401  0.04800  0.98599  Biso   1.000  H
  H593     1.0000 0.86394  0.04800  0.98599  Biso   1.000  H
  C473     1.0000 0.69951  0.76588  0.16381  Biso   1.000  C
  C474     1.0000 0.87047  0.81120  0.12190  Biso   1.000  C
  C475     1.0000 0.69947  0.76596  0.16381  Biso   1.000  C
  C476     1.0000 0.94070  0.12947  0.12190  Biso   1.000  C
  C477     1.0000 0.94067  0.12956  0.12190  Biso   1.000  C
  C478     1.0000 0.06642  0.30046  0.16381  Biso   1.000  C
  C479     1.0000 0.06638  0.30055  0.16381  Biso   1.000  C
  C480     1.0000 0.86601  0.81111  0.05140  Biso   1.000  C
  C481     1.0000 0.86593  0.81111  0.05140  Biso   1.000  C
  C482     1.0000 0.69459  0.78136  0.01199  Biso   1.000  C
  C483     1.0000 0.69456  0.78144  0.01199  Biso   1.000  C
  C484     1.0000 0.94521  0.13414  0.05140  Biso   1.000  C
  C485     1.0000 0.08678  0.30539  0.01199  Biso   1.000  C
  H594     1.0000 0.64705  0.69003  0.15101  Biso   1.000  H
  H595     1.0000 0.68301  0.76000  0.19200  Biso   1.000  H
  H596     1.0000 0.68604  0.82702  0.15199  Biso   1.000  H
  H597     1.0000 0.68293  0.76000  0.19200  Biso   1.000  H
  H598     1.0000 0.68596  0.82702  0.15199  Biso   1.000  H
  C486     1.0000 0.81398  0.79917  0.08609  Biso   1.000  C
  H599     1.0000 0.95399  0.83204  0.12101  Biso   1.000  H
  C487     1.0000 0.81387  0.79926  0.08609  Biso   1.000  C
  C488     1.0000 0.98528  0.18612  0.08609  Biso   1.000  C
  H600     1.0000 0.87800  0.04601  0.12101  Biso   1.000  H
  H601     1.0000 0.07700  0.31698  0.19200  Biso   1.000  H
  H602     1.0000 0.04301  0.35296  0.15101  Biso   1.000  H
  H603     1.0000 0.14099  0.31404  0.15199  Biso   1.000  H
  H604     1.0000 0.07697  0.31706  0.19200  Biso   1.000  H
  H605     1.0000 0.04297  0.35304  0.15101  Biso   1.000  H
  H606     1.0000 0.94806  0.82901  0.05201  Biso   1.000  H
  H607     1.0000 0.64301  0.70802  0.99799  Biso   1.000  H
  H608     1.0000 0.69505  0.84700  0.99799  Biso   1.000  H
  H609     1.0000 0.66509  0.77703  0.03900  Biso   1.000  H
  H610     1.0000 0.88098  0.05198  0.05201  Biso   1.000  H
  H611     1.0000 0.88103  0.05207  0.05201  Biso   1.000  H
  H612     1.0000 0.15200  0.30504  0.99799  Biso   1.000  H
  H613     1.0000 0.06504  0.35702  0.99799  Biso   1.000  H
  H614     1.0000 0.06496  0.35702  0.99799  Biso   1.000  H
  H615     1.0000 0.11198  0.33497  0.03900  Biso   1.000  H
  H616     1.0000 0.11203  0.33505  0.03900  Biso   1.000  H
  H617     1.0000 0.73112  0.78101  0.08701  Biso   1.000  H
  H618     1.0000 0.73097  0.78101  0.08701  Biso   1.000  H
  H619     1.0000 0.05000  0.26898  0.08701  Biso   1.000  H
  H620     1.0000 0.04997  0.26906  0.08701  Biso   1.000  H
  C489     1.0000 0.20379  0.47785  0.78858  Biso   1.000  C
  C490     1.0000 0.14723  0.46582  0.75277  Biso   1.000  C
  C491     1.0000 0.15628  0.46340  0.82387  Biso   1.000  C
  H621     1.0000 0.28732  0.49869  0.78766  Biso   1.000  H
  C492     1.0000 0.19926  0.47776  0.71808  Biso   1.000  C
  H622     1.0000 0.06437  0.44766  0.75366  Biso   1.000  H
  C493     1.0000 0.22870  0.47793  0.85727  Biso   1.000  C
  C494     1.0000 0.03283  0.43253  0.83046  Biso   1.000  C
  C495     1.0000 0.14851  0.46703  0.68025  Biso   1.000  C
  H623     1.0000 0.28131  0.49566  0.71865  Biso   1.000  H
  N57      1.0000 0.18803  0.44930  0.89087  Biso   1.000  N
  H624     1.0000 0.31433  0.51166  0.85367  Biso   1.000  H
  H625     1.0000 0.01633  0.42665  0.85868  Biso   1.000  H
  H626     1.0000 0.01936  0.49367  0.81867  Biso   1.000  H
  H627     1.0000 0.98038  0.35668  0.81766  Biso   1.000  H
  C496     1.0000 0.20839  0.47594  0.64855  Biso   1.000  C
  C497     1.0000 0.02796  0.44809  0.67867  Biso   1.000  C
  C498     1.0000 0.26944  0.46548  0.92188  Biso   1.000  C
  C499     1.0000 0.17572  0.47698  0.60966  Biso   1.000  C
  H628     1.0000 0.28531  0.48269  0.65267  Biso   1.000  H
  H629     1.0000 0.02830  0.51365  0.66466  Biso   1.000  H
  H630     1.0000 0.99834  0.44368  0.70568  Biso   1.000  H
  H631     1.0000 0.97634  0.37467  0.66466  Biso   1.000  H
  C500     1.0000 0.26537  0.54721  0.95188  Biso   1.000  C
  H632     1.0000 0.24732  0.38963  0.93367  Biso   1.000  H
  H633     1.0000 0.35033  0.50068  0.91066  Biso   1.000  H
  C501     1.0000 0.22995  0.46349  0.57857  Biso   1.000  C
  H634     1.0000 0.10738  0.48771  0.60466  Biso   1.000  H
  N58      1.0000 0.33332  0.66665  0.94017  Biso   1.000  N
  H635     1.0000 0.29634  0.53666  0.97667  Biso   1.000  H
  H636     1.0000 0.18331  0.52766  0.95567  Biso   1.000  H
  C502     1.0000 0.19991  0.47127  0.53997  Biso   1.000  C
  H637     1.0000 0.29431  0.44766  0.58366  Biso   1.000  H
  C503     1.0000 0.45287  0.71820  0.95188  Biso   1.000  C
  C504     1.0000 0.28178  0.73463  0.95188  Biso   1.000  C
  C505     1.0000 0.23735  0.44204  0.50746  Biso   1.000  C
  H638     1.0000 0.14533  0.50068  0.53565  Biso   1.000  H
  C506     1.0000 0.53457  0.80399  0.92188  Biso   1.000  C
  H639     1.0000 0.46333  0.75962  0.97667  Biso   1.000  H
  H640     1.0000 0.47232  0.65567  0.95567  Biso   1.000  H
  C507     1.0000 0.19601  0.73056  0.92188  Biso   1.000  C
  H641     1.0000 0.24031  0.70367  0.97667  Biso   1.000  H
  H642     1.0000 0.34439  0.81671  0.95567  Biso   1.000  H
  C508     1.0000 0.20743  0.46444  0.46955  Biso   1.000  C
  C509     1.0000 0.31134  0.38764  0.50896  Biso   1.000  C
  N59      1.0000 0.55072  0.73878  0.89087  Biso   1.000  N
  H643     1.0000 0.61034  0.85770  0.93367  Biso   1.000  H
  H644     1.0000 0.49936  0.84966  0.91066  Biso   1.000  H
  N60      1.0000 0.26119  0.81195  0.89087  Biso   1.000  N
  H645     1.0000 0.14236  0.75270  0.93367  Biso   1.000  H
  H646     1.0000 0.15033  0.64970  0.91066  Biso   1.000  H
  C510     1.0000 0.23390  0.43815  0.43616  Biso   1.000  C
  H647     1.0000 0.16132  0.50466  0.46866  Biso   1.000  H
  H648     1.0000 0.32935  0.37363  0.48267  Biso   1.000  H
  H649     1.0000 0.26935  0.31265  0.52268  Biso   1.000  H
  H650     1.0000 0.38533  0.44066  0.52268  Biso   1.000  H
  C511     1.0000 0.52206  0.75080  0.85727  Biso   1.000  C
  C512     1.0000 0.24926  0.77130  0.85727  Biso   1.000  C
  C513     1.0000 0.20525  0.46548  0.39876  Biso   1.000  C
  H651     1.0000 0.27928  0.39663  0.43667  Biso   1.000  H
  C514     1.0000 0.53660  0.69285  0.82387  Biso   1.000  C
  H652     1.0000 0.48838  0.80269  0.85367  Biso   1.000  H
  C515     1.0000 0.30714  0.84378  0.82387  Biso   1.000  C
  H653     1.0000 0.19731  0.68568  0.85367  Biso   1.000  H
  C516     1.0000 0.22953  0.43599  0.36436  Biso   1.000  C
  H654     1.0000 0.16331  0.50967  0.39868  Biso   1.000  H
  C517     1.0000 0.52215  0.72598  0.78858  Biso   1.000  C
  C518     1.0000 0.56743  0.60023  0.83046  Biso   1.000  C
  C519     1.0000 0.27407  0.79621  0.78858  Biso   1.000  C
  C520     1.0000 0.39978  0.96719  0.83046  Biso   1.000  C
  C521     1.0000 0.19096  0.46851  0.32956  Biso   1.000  C
  C522     1.0000 0.29128  0.36878  0.35895  Biso   1.000  C
  C523     1.0000 0.53414  0.68135  0.75277  Biso   1.000  C
  H655     1.0000 0.50137  0.78868  0.78766  Biso   1.000  H
  H656     1.0000 0.57332  0.58967  0.85868  Biso   1.000  H
  H657     1.0000 0.64334  0.62366  0.81766  Biso   1.000  H
  H658     1.0000 0.50634  0.52567  0.81867  Biso   1.000  H
  C524     1.0000 0.31860  0.85277  0.75277  Biso   1.000  C
  H659     1.0000 0.21132  0.71266  0.78766  Biso   1.000  H
  H660     1.0000 0.41032  0.98363  0.85868  Biso   1.000  H
  H661     1.0000 0.47431  0.98069  0.81867  Biso   1.000  H
  H662     1.0000 0.37637  0.01969  0.81766  Biso   1.000  H
  N61      1.0000 0.20570  0.43867  0.29668  Biso   1.000  N
  H663     1.0000 0.15229  0.51564  0.33166  Biso   1.000  H
  H664     1.0000 0.31335  0.35166  0.38467  Biso   1.000  H
  H665     1.0000 0.36235  0.41566  0.34368  Biso   1.000  H
  H666     1.0000 0.23931  0.29466  0.34566  Biso   1.000  H
  C525     1.0000 0.52223  0.72148  0.71808  Biso   1.000  C
  H667     1.0000 0.55236  0.61666  0.75366  Biso   1.000  H
  C526     1.0000 0.27853  0.80079  0.71808  Biso   1.000  C
  H668     1.0000 0.38333  0.93563  0.75366  Biso   1.000  H
  C527     1.0000 0.16474  0.47404  0.26377  Biso   1.000  C
  C528     1.0000 0.53291  0.68144  0.68025  Biso   1.000  C
  H669     1.0000 0.50436  0.78566  0.71865  Biso   1.000  H
  C529     1.0000 0.31855  0.85147  0.68025  Biso   1.000  C
  H670     1.0000 0.21431  0.71863  0.71865  Biso   1.000  H
  C530     1.0000 0.26413  0.54608  0.23607  Biso   1.000  C
  H671     1.0000 0.10430  0.40364  0.24968  Biso   1.000  H
  H672     1.0000 0.13037  0.52170  0.27266  Biso   1.000  H
  C531     1.0000 0.52405  0.73247  0.64855  Biso   1.000  C
  C532     1.0000 0.55195  0.57990  0.67867  Biso   1.000  C
  C533     1.0000 0.26754  0.79154  0.64855  Biso   1.000  C
  C534     1.0000 0.42011  0.97204  0.67867  Biso   1.000  C
  N62      1.0000 0.33332  0.66665  0.24867  Biso   1.000  N
  H673     1.0000 0.23235  0.54470  0.20966  Biso   1.000  H
  H674     1.0000 0.31530  0.51166  0.23466  Biso   1.000  H
  C535     1.0000 0.52299  0.69874  0.60966  Biso   1.000  C
  H675     1.0000 0.51737  0.80269  0.65267  Biso   1.000  H
  H676     1.0000 0.55633  0.55465  0.70568  Biso   1.000  H
  H677     1.0000 0.62532  0.60170  0.66466  Biso   1.000  H
  H678     1.0000 0.48632  0.51469  0.66466  Biso   1.000  H
  C536     1.0000 0.30119  0.82423  0.60966  Biso   1.000  C
  H679     1.0000 0.19734  0.71465  0.65267  Biso   1.000  H
  H680     1.0000 0.48532  0.97169  0.66466  Biso   1.000  H
  H681     1.0000 0.44528  0.00170  0.70568  Biso   1.000  H
  H682     1.0000 0.39829  0.02367  0.66466  Biso   1.000  H
  C537     1.0000 0.45395  0.71811  0.23607  Biso   1.000  C
  C538     1.0000 0.28193  0.73584  0.23607  Biso   1.000  C
  C539     1.0000 0.53655  0.76646  0.57857  Biso   1.000  C
  H683     1.0000 0.51237  0.61969  0.60466  Biso   1.000  H
  C540     1.0000 0.23352  0.77009  0.57857  Biso   1.000  C
  H684     1.0000 0.38033  0.89264  0.60466  Biso   1.000  H
  C541     1.0000 0.52593  0.69069  0.26377  Biso   1.000  C
  H685     1.0000 0.45536  0.68767  0.20966  Biso   1.000  H
  H686     1.0000 0.48833  0.80365  0.23466  Biso   1.000  H
  C542     1.0000 0.30934  0.83530  0.26377  Biso   1.000  C
  H687     1.0000 0.31230  0.76767  0.20966  Biso   1.000  H
  H688     1.0000 0.19634  0.68464  0.23466  Biso   1.000  H
  C543     1.0000 0.52874  0.72866  0.53997  Biso   1.000  C
  H689     1.0000 0.55229  0.84663  0.58366  Biso   1.000  H
  C544     1.0000 0.27137  0.80010  0.53997  Biso   1.000  C
  H690     1.0000 0.15329  0.70566  0.58366  Biso   1.000  H
  N63      1.0000 0.56135  0.76706  0.29668  Biso   1.000  N
  H691     1.0000 0.59629  0.70064  0.24968  Biso   1.000  H
  H692     1.0000 0.47835  0.60870  0.27266  Biso   1.000  H
  N64      1.0000 0.23297  0.79431  0.29668  Biso   1.000  N
  H693     1.0000 0.29931  0.89567  0.24968  Biso   1.000  H
  H694     1.0000 0.39130  0.86964  0.27266  Biso   1.000  H
  C545     1.0000 0.55792  0.79526  0.50746  Biso   1.000  C
  H695     1.0000 0.49933  0.64468  0.53565  Biso   1.000  H
  C546     1.0000 0.20471  0.76265  0.50746  Biso   1.000  C
  H696     1.0000 0.35536  0.85467  0.53565  Biso   1.000  H
  C547     1.0000 0.53154  0.72243  0.32956  Biso   1.000  C
  C548     1.0000 0.27752  0.80909  0.32956  Biso   1.000  C
  C549     1.0000 0.53550  0.74293  0.46955  Biso   1.000  C
  C550     1.0000 0.61232  0.92369  0.50896  Biso   1.000  C
  C551     1.0000 0.25705  0.79258  0.46955  Biso   1.000  C
  C552     1.0000 0.07636  0.68870  0.50896  Biso   1.000  C
  C553     1.0000 0.56402  0.79353  0.36436  Biso   1.000  C
  H697     1.0000 0.48430  0.63664  0.33166  Biso   1.000  H
  C554     1.0000 0.20643  0.77043  0.36436  Biso   1.000  C
  H698     1.0000 0.36331  0.84767  0.33166  Biso   1.000  H
  C555     1.0000 0.56185  0.79578  0.43616  Biso   1.000  C
  H699     1.0000 0.49538  0.65670  0.46866  Biso   1.000  H
  H700     1.0000 0.62637  0.95569  0.48267  Biso   1.000  H
  H701     1.0000 0.68729  0.95664  0.52268  Biso   1.000  H
  H702     1.0000 0.55939  0.94471  0.52268  Biso   1.000  H
  C556     1.0000 0.20422  0.76602  0.43616  Biso   1.000  C
  H703     1.0000 0.34331  0.83867  0.46866  Biso   1.000  H
  H704     1.0000 0.04432  0.67063  0.48267  Biso   1.000  H
  H705     1.0000 0.04333  0.73065  0.52268  Biso   1.000  H
  H706     1.0000 0.05537  0.61467  0.52268  Biso   1.000  H
  C557     1.0000 0.53450  0.73973  0.39876  Biso   1.000  C
  C558     1.0000 0.63126  0.92248  0.35895  Biso   1.000  C
  C559     1.0000 0.26023  0.79474  0.39876  Biso   1.000  C
  C560     1.0000 0.07755  0.70877  0.35895  Biso   1.000  C
  H707     1.0000 0.60336  0.88270  0.43667  Biso   1.000  H
  H708     1.0000 0.11737  0.72070  0.43667  Biso   1.000  H
  H709     1.0000 0.49035  0.65368  0.39868  Biso   1.000  H
  H710     1.0000 0.64831  0.96166  0.38467  Biso   1.000  H
  H711     1.0000 0.58435  0.94670  0.34368  Biso   1.000  H
  H712     1.0000 0.70537  0.94471  0.34566  Biso   1.000  H
  H713     1.0000 0.34636  0.83668  0.39868  Biso   1.000  H
  H714     1.0000 0.03832  0.68663  0.38467  Biso   1.000  H
  H715     1.0000 0.05331  0.63768  0.34368  Biso   1.000  H
  H716     1.0000 0.05534  0.76066  0.34566  Biso   1.000  H
  C561     1.0000 0.61515  0.40130  0.61852  Biso   1.000  C
  C562     1.0000 0.52938  0.39724  0.58852  Biso   1.000  C
  N65      1.0000 0.66670  0.33332  0.60685  Biso   1.000  N
  H717     1.0000 0.57368  0.37034  0.64332  Biso   1.000  H
  H718     1.0000 0.67764  0.48329  0.62232  Biso   1.000  H
  N66      1.0000 0.59457  0.47862  0.55754  Biso   1.000  N
  H719     1.0000 0.47562  0.41929  0.60035  Biso   1.000  H
  H720     1.0000 0.48371  0.31637  0.57733  Biso   1.000  H
  C563     1.0000 0.78617  0.38487  0.61852  Biso   1.000  C
  C564     1.0000 0.59862  0.21380  0.61852  Biso   1.000  C
  C565     1.0000 0.58256  0.43797  0.52395  Biso   1.000  C
  C566     1.0000 0.86787  0.47067  0.58852  Biso   1.000  C
  H721     1.0000 0.79663  0.42630  0.64332  Biso   1.000  H
  H722     1.0000 0.80569  0.32234  0.62232  Biso   1.000  H
  C567     1.0000 0.60274  0.13215  0.58852  Biso   1.000  C
  H723     1.0000 0.62964  0.20333  0.64332  Biso   1.000  H
  H724     1.0000 0.51669  0.19434  0.62232  Biso   1.000  H
  C568     1.0000 0.64044  0.51045  0.49052  Biso   1.000  C
  H725     1.0000 0.53068  0.35235  0.52032  Biso   1.000  H
  N67      1.0000 0.88410  0.40546  0.55754  Biso   1.000  N
  H726     1.0000 0.94371  0.52438  0.60035  Biso   1.000  H
  H727     1.0000 0.83266  0.51633  0.57733  Biso   1.000  H
  N68      1.0000 0.52136  0.11589  0.55754  Biso   1.000  N
  H728     1.0000 0.58062  0.05630  0.60035  Biso   1.000  H
  H729     1.0000 0.68371  0.16735  0.57733  Biso   1.000  H
  C569     1.0000 0.60733  0.46280  0.45523  Biso   1.000  C
  C570     1.0000 0.73308  0.63387  0.49714  Biso   1.000  C
  C571     1.0000 0.85531  0.41739  0.52395  Biso   1.000  C
  C572     1.0000 0.56208  0.14461  0.52395  Biso   1.000  C
  C573     1.0000 0.65198  0.51945  0.41944  Biso   1.000  C
  H730     1.0000 0.54470  0.37934  0.45434  Biso   1.000  H
  H731     1.0000 0.74362  0.65030  0.52533  Biso   1.000  H
  H732     1.0000 0.70967  0.68637  0.48434  Biso   1.000  H
  H733     1.0000 0.80769  0.64736  0.48534  Biso   1.000  H
  C574     1.0000 0.86998  0.35953  0.49052  Biso   1.000  C
  H734     1.0000 0.82168  0.46937  0.52032  Biso   1.000  H
  C575     1.0000 0.48953  0.12999  0.49052  Biso   1.000  C
  H735     1.0000 0.64770  0.17834  0.52032  Biso   1.000  H
  C576     1.0000 0.61191  0.46747  0.38473  Biso   1.000  C
  H736     1.0000 0.71663  0.60230  0.42034  Biso   1.000  H
  C577     1.0000 0.90073  0.26690  0.49714  Biso   1.000  C
  C578     1.0000 0.85545  0.39266  0.45523  Biso   1.000  C
  C579     1.0000 0.36613  0.09920  0.49714  Biso   1.000  C
  C580     1.0000 0.53717  0.14452  0.45523  Biso   1.000  C
  C581     1.0000 0.65185  0.51815  0.34693  Biso   1.000  C
  H737     1.0000 0.54768  0.38530  0.38533  Biso   1.000  H
  H738     1.0000 0.90669  0.25635  0.52533  Biso   1.000  H
  H739     1.0000 0.97664  0.29034  0.48434  Biso   1.000  H
  H740     1.0000 0.83964  0.19235  0.48534  Biso   1.000  H
  C582     1.0000 0.86744  0.34803  0.41944  Biso   1.000  C
  H741     1.0000 0.83468  0.45536  0.45434  Biso   1.000  H
  H742     1.0000 0.34963  0.09332  0.52533  Biso   1.000  H
  H743     1.0000 0.31368  0.02335  0.48434  Biso   1.000  H
  H744     1.0000 0.35266  0.16035  0.48534  Biso   1.000  H
  C583     1.0000 0.48053  0.13250  0.41944  Biso   1.000  C
  H745     1.0000 0.62069  0.16536  0.45434  Biso   1.000  H
  C584     1.0000 0.60084  0.45821  0.31523  Biso   1.000  C
  C585     1.0000 0.75348  0.63871  0.34535  Biso   1.000  C
  C586     1.0000 0.85560  0.38816  0.38473  Biso   1.000  C
  H746     1.0000 0.88566  0.28333  0.42034  Biso   1.000  H
  C587     1.0000 0.53256  0.14443  0.38473  Biso   1.000  C
  H747     1.0000 0.39767  0.11434  0.42034  Biso   1.000  H
  C588     1.0000 0.63456  0.49091  0.27634  Biso   1.000  C
  H748     1.0000 0.53064  0.38133  0.31934  Biso   1.000  H
  H749     1.0000 0.77868  0.66829  0.37233  Biso   1.000  H
  H750     1.0000 0.73166  0.69035  0.33134  Biso   1.000  H
  H751     1.0000 0.81870  0.63837  0.33134  Biso   1.000  H
  C589     1.0000 0.86629  0.34811  0.34693  Biso   1.000  C
  H752     1.0000 0.83766  0.45233  0.38533  Biso   1.000  H
  C590     1.0000 0.48188  0.13371  0.34693  Biso   1.000  C
  H753     1.0000 0.61469  0.16234  0.38533  Biso   1.000  H
  C591     1.0000 0.56690  0.43676  0.24525  Biso   1.000  C
  H754     1.0000 0.71363  0.55932  0.27134  Biso   1.000  H
  C592     1.0000 0.85735  0.39914  0.31523  Biso   1.000  C
  C593     1.0000 0.88521  0.24649  0.34535  Biso   1.000  C
  C594     1.0000 0.54176  0.14262  0.31523  Biso   1.000  C
  C595     1.0000 0.36126  0.11477  0.34535  Biso   1.000  C
  C596     1.0000 0.60467  0.46678  0.20664  Biso   1.000  C
  H755     1.0000 0.48667  0.37233  0.25034  Biso   1.000  H
  C597     1.0000 0.85636  0.36541  0.27634  Biso   1.000  C
  H756     1.0000 0.85067  0.46937  0.31934  Biso   1.000  H
  H757     1.0000 0.88963  0.22132  0.37233  Biso   1.000  H
  H758     1.0000 0.95869  0.26837  0.33134  Biso   1.000  H
  H759     1.0000 0.81969  0.18137  0.33134  Biso   1.000  H
  C598     1.0000 0.50910  0.14366  0.27634  Biso   1.000  C
  H760     1.0000 0.61869  0.14936  0.31934  Biso   1.000  H
  H761     1.0000 0.33171  0.11036  0.37233  Biso   1.000  H
  H762     1.0000 0.30964  0.04134  0.33134  Biso   1.000  H
  H763     1.0000 0.36168  0.18033  0.33134  Biso   1.000  H
  C599     1.0000 0.53808  0.42933  0.17414  Biso   1.000  C
  H764     1.0000 0.68866  0.52135  0.20233  Biso   1.000  H
  C600     1.0000 0.86985  0.43313  0.24525  Biso   1.000  C
  H765     1.0000 0.84567  0.28636  0.27134  Biso   1.000  H
  C601     1.0000 0.56325  0.13016  0.24525  Biso   1.000  C
  H766     1.0000 0.44064  0.15429  0.27134  Biso   1.000  H
  C602     1.0000 0.40961  0.35529  0.17564  Biso   1.000  C
  C603     1.0000 0.59035  0.45925  0.13623  Biso   1.000  C
  C604     1.0000 0.86204  0.39534  0.20664  Biso   1.000  C
  H767     1.0000 0.88567  0.51331  0.25034  Biso   1.000  H
  C605     1.0000 0.53328  0.13795  0.20664  Biso   1.000  C
  H768     1.0000 0.62769  0.11434  0.25034  Biso   1.000  H
  H769     1.0000 0.37762  0.33730  0.14935  Biso   1.000  H
  H770     1.0000 0.37663  0.39733  0.18933  Biso   1.000  H
  H771     1.0000 0.38867  0.28135  0.18933  Biso   1.000  H
  C606     1.0000 0.53752  0.43270  0.10283  Biso   1.000  C
  H772     1.0000 0.67669  0.50535  0.13534  Biso   1.000  H
  C607     1.0000 0.89129  0.46193  0.17414  Biso   1.000  C
  H773     1.0000 0.83271  0.31136  0.20233  Biso   1.000  H
  C608     1.0000 0.57065  0.10872  0.17414  Biso   1.000  C
  H774     1.0000 0.47870  0.16735  0.20233  Biso   1.000  H
  C609     1.0000 0.59353  0.46141  0.06544  Biso   1.000  C
  H775     1.0000 0.45063  0.38729  0.10332  Biso   1.000  H
  C610     1.0000 0.86887  0.40961  0.13623  Biso   1.000  C
  C611     1.0000 0.94570  0.59037  0.17564  Biso   1.000  C
  C612     1.0000 0.54073  0.13112  0.13623  Biso   1.000  C
  C613     1.0000 0.64464  0.05431  0.17564  Biso   1.000  C
  C614     1.0000 0.53973  0.43711  0.03104  Biso   1.000  C
  H776     1.0000 0.67966  0.50336  0.06532  Biso   1.000  H
  C615     1.0000 0.89515  0.46245  0.10283  Biso   1.000  C
  H777     1.0000 0.82864  0.32329  0.13534  Biso   1.000  H
  H778     1.0000 0.95967  0.62237  0.14935  Biso   1.000  H
  H779     1.0000 0.89265  0.61130  0.18933  Biso   1.000  H
  H780     1.0000 0.02067  0.62332  0.18933  Biso   1.000  H
  C616     1.0000 0.56728  0.10482  0.10283  Biso   1.000  C
  H781     1.0000 0.49470  0.17133  0.13534  Biso   1.000  H
  H782     1.0000 0.66265  0.04030  0.14935  Biso   1.000  H
  H783     1.0000 0.71863  0.10733  0.18933  Biso   1.000  H
  H784     1.0000 0.60265  0.97933  0.18933  Biso   1.000  H
  C617     1.0000 0.41085  0.37544  0.02563  Biso   1.000  C
  C618     1.0000 0.61089  0.47577  0.99623  Biso   1.000  C
  C619     1.0000 0.86787  0.40641  0.06544  Biso   1.000  C
  H785     1.0000 0.93666  0.54937  0.10332  Biso   1.000  H
  C620     1.0000 0.53855  0.13215  0.06544  Biso   1.000  C
  H786     1.0000 0.61266  0.06331  0.10332  Biso   1.000  H
  H787     1.0000 0.37162  0.35330  0.05134  Biso   1.000  H
  H788     1.0000 0.38669  0.30435  0.01033  Biso   1.000  H
  H789     1.0000 0.38864  0.42734  0.01234  Biso   1.000  H
  N69      1.0000 0.56623  0.46089  0.96333  Biso   1.000  N
  H790     1.0000 0.69669  0.51434  0.99833  Biso   1.000  H
  C621     1.0000 0.89732  0.46020  0.03104  Biso   1.000  C
  H791     1.0000 0.82365  0.32035  0.06532  Biso   1.000  H
  C622     1.0000 0.56290  0.10266  0.03104  Biso   1.000  C
  H792     1.0000 0.49668  0.17635  0.06532  Biso   1.000  H
  C623     1.0000 0.64272  0.50198  0.93045  Biso   1.000  C
  C624     1.0000 0.86484  0.38911  0.99623  Biso   1.000  C
  C625     1.0000 0.96457  0.58916  0.02563  Biso   1.000  C
  C626     1.0000 0.52422  0.13509  0.99623  Biso   1.000  C
  C627     1.0000 0.62458  0.03546  0.02563  Biso   1.000  C
  C628     1.0000 0.61523  0.40251  0.90275  Biso   1.000  C
  H793     1.0000 0.63268  0.56234  0.91632  Biso   1.000  H
  H794     1.0000 0.72468  0.53631  0.93934  Biso   1.000  H
  N70      1.0000 0.89465  0.43374  0.96333  Biso   1.000  N
  H795     1.0000 0.81767  0.30331  0.99833  Biso   1.000  H
  H796     1.0000 0.98168  0.62833  0.05134  Biso   1.000  H
  H797     1.0000 0.91765  0.61337  0.01033  Biso   1.000  H
  H798     1.0000 0.03863  0.61130  0.01234  Biso   1.000  H
  N71      1.0000 0.53908  0.10534  0.96333  Biso   1.000  N
  H799     1.0000 0.48566  0.18232  0.99833  Biso   1.000  H
  H800     1.0000 0.64665  0.01834  0.05134  Biso   1.000  H
  H801     1.0000 0.69565  0.08234  0.01033  Biso   1.000  H
  H802     1.0000 0.57269  0.96134  0.01234  Biso   1.000  H
  N72      1.0000 0.66670  0.33332  0.91535  Biso   1.000  N
  H803     1.0000 0.64568  0.43434  0.87634  Biso   1.000  H
  H804     1.0000 0.52964  0.35131  0.90134  Biso   1.000  H
  C629     1.0000 0.85931  0.35737  0.93045  Biso   1.000  C
  C630     1.0000 0.49804  0.14072  0.93045  Biso   1.000  C
  C631     1.0000 0.78729  0.38470  0.90275  Biso   1.000  C
  C632     1.0000 0.59750  0.21276  0.90275  Biso   1.000  C
  H805     1.0000 0.92967  0.36731  0.91632  Biso   1.000  H
  H806     1.0000 0.81168  0.27529  0.93934  Biso   1.000  H
  H807     1.0000 0.43767  0.07031  0.91632  Biso   1.000  H
  H808     1.0000 0.46367  0.18837  0.93934  Biso   1.000  H
  H809     1.0000 0.78866  0.35434  0.87634  Biso   1.000  H
  H810     1.0000 0.82163  0.47032  0.90134  Biso   1.000  H
  H811     1.0000 0.56565  0.21138  0.87634  Biso   1.000  H
  H812     1.0000 0.64868  0.17834  0.90134  Biso   1.000  H
