data_image0
_cell_length_a       16.902
_cell_length_b       26.87
_cell_length_c       21.474
_cell_angle_alpha    90
_cell_angle_beta     92.1
_cell_angle_gamma    90

_symmetry_space_group_name_H-M    "P 1"
_symmetry_int_tables_number       1

loop_
  _symmetry_equiv_pos_as_xyz
  'x, y, z'

loop_
  _atom_site_label
  _atom_site_occupancy
  _atom_site_fract_x
  _atom_site_fract_y
  _atom_site_fract_z
  _atom_site_thermal_displace_type
  _atom_site_B_iso_or_equiv
  _atom_site_type_symbol
  S1       1.0000 0.65398  0.42069  0.55868  Biso   1.000  S
  C1       1.0000 0.67000  0.35862  0.51902  Biso   1.000  C
  C2       1.0000 0.61049  0.32508  0.52289  Biso   1.000  C
  C3       1.0000 0.72288  0.34291  0.47550  Biso   1.000  C
  S2       1.0000 0.69739  0.41180  0.56208  Biso   1.000  S
  N1       1.0000 0.62545  0.28776  0.48212  Biso   1.000  N
  H1       1.0000 0.56651  0.32732  0.54913  Biso   1.000  H
  C4       1.0000 0.69451  0.29829  0.45308  Biso   1.000  C
  S3       1.0000 0.80865  0.38042  0.46497  Biso   1.000  S
  S4       1.0000 0.78397  0.38292  0.48500  Biso   1.000  S
  C5       1.0000 0.77220  0.42881  0.51310  Biso   1.000  C
  C6       1.0000 0.57958  0.24168  0.47662  Biso   1.000  C
  H2       1.0000 0.71853  0.27819  0.42275  Biso   1.000  H
  C7       1.0000 0.80209  0.47611  0.51581  Biso   1.000  C
  C8       1.0000 0.52388  0.23882  0.42019  Biso   1.000  C
  H3       1.0000 0.54827  0.23800  0.51446  Biso   1.000  H
  H4       1.0000 0.61680  0.21332  0.47550  Biso   1.000  H
  S5       1.0000 0.76098  0.51939  0.56688  Biso   1.000  S
  S6       1.0000 0.87922  0.50067  0.47359  Biso   1.000  S
  S7       1.0000 0.86500  0.49111  0.48701  Biso   1.000  S
  C9       1.0000 0.48106  0.27938  0.39768  Biso   1.000  C
  C10      1.0000 0.51215  0.19311  0.39069  Biso   1.000  C
  C11      1.0000 0.80351  0.57090  0.53482  Biso   1.000  C
  C12      1.0000 0.85688  0.56290  0.49172  Biso   1.000  C
  C13      1.0000 0.42979  0.27529  0.34600  Biso   1.000  C
  H5       1.0000 0.48698  0.31064  0.41804  Biso   1.000  H
  C14      1.0000 0.46056  0.18910  0.33859  Biso   1.000  C
  H6       1.0000 0.53938  0.16446  0.40607  Biso   1.000  H
  S8       1.0000 0.77875  0.62903  0.56744  Biso   1.000  S
  S9       1.0000 0.72680  0.52181  0.56860  Biso   1.000  S
  S10      1.0000 0.89736  0.61057  0.44763  Biso   1.000  S
  S11      1.0000 0.95999  0.58999  0.49018  Biso   1.000  S
  C15      1.0000 0.42110  0.23022  0.31450  Biso   1.000  C
  H7       1.0000 0.40038  0.30350  0.33188  Biso   1.000  H
  H8       1.0000 0.45257  0.15754  0.31939  Biso   1.000  H
  C16      1.0000 0.68696  0.64481  0.52620  Biso   1.000  C
  C17      1.0000 0.99627  0.58452  0.43458  Biso   1.000  C
  H9       1.0000 0.02342  0.57719  0.47517  Biso   1.000  H
  C18      1.0000 0.37696  0.22702  0.25089  Biso   1.000  C
  H10      1.0000 0.66780  0.61541  0.50225  Biso   1.000  H
  H11      1.0000 0.64662  0.65311  0.55686  Biso   1.000  H
  C19      1.0000 0.69517  0.68649  0.48379  Biso   1.000  C
  H12      1.0000 0.99080  0.55288  0.41105  Biso   1.000  H
  H13      1.0000 0.95335  0.57391  0.40481  Biso   1.000  H
  C20      1.0000 0.04317  0.61961  0.39982  Biso   1.000  C
  H14      1.0000 0.03087  0.55501  0.44060  Biso   1.000  H
  C21      1.0000 0.31496  0.26852  0.24339  Biso   1.000  C
  C22      1.0000 0.43907  0.22918  0.20089  Biso   1.000  C
  C23      1.0000 0.33127  0.17670  0.24660  Biso   1.000  C
  O1       1.0000 0.62561  0.69829  0.45122  Biso   1.000  O
  H15      1.0000 0.71333  0.71604  0.50793  Biso   1.000  H
  H16      1.0000 0.73631  0.67845  0.45374  Biso   1.000  H
  O2       1.0000 0.00258  0.63480  0.34260  Biso   1.000  O
  H17      1.0000 0.05473  0.64927  0.42587  Biso   1.000  H
  H18      1.0000 0.09430  0.60394  0.38990  Biso   1.000  H
  C24      1.0000 0.24820  0.26770  0.28099  Biso   1.000  C
  C25      1.0000 0.31868  0.30607  0.19991  Biso   1.000  C
  C26      1.0000 0.43651  0.19896  0.14860  Biso   1.000  C
  C27      1.0000 0.50448  0.26100  0.20811  Biso   1.000  C
  H19      1.0000 0.29170  0.17566  0.27876  Biso   1.000  H
  H20      1.0000 0.30485  0.17373  0.20536  Biso   1.000  H
  H21      1.0000 0.36866  0.14913  0.25294  Biso   1.000  H
  C28      1.0000 0.62939  0.74689  0.42312  Biso   1.000  C
  C29      1.0000 0.98321  0.59721  0.30392  Biso   1.000  C
  H22      1.0000 0.24390  0.24258  0.31184  Biso   1.000  H
  C30      1.0000 0.18947  0.30249  0.27382  Biso   1.000  C
  H23      1.0000 0.36316  0.30800  0.17423  Biso   1.000  H
  C31      1.0000 0.25872  0.34120  0.19292  Biso   1.000  C
  C32      1.0000 0.49541  0.20060  0.10611  Biso   1.000  C
  H24      1.0000 0.39325  0.17674  0.14189  Biso   1.000  H
  H25      1.0000 0.50868  0.28206  0.24353  Biso   1.000  H
  C33      1.0000 0.56277  0.26249  0.16510  Biso   1.000  C
  C34      1.0000 0.57406  0.74842  0.36562  Biso   1.000  C
  H26      1.0000 0.68433  0.75408  0.41119  Biso   1.000  H
  H27      1.0000 0.61352  0.77261  0.45327  Biso   1.000  H
  C35      1.0000 0.96476  0.61969  0.23822  Biso   1.000  C
  H28      1.0000 0.93627  0.57938  0.31883  Biso   1.000  H
  H29      1.0000 0.02767  0.57332  0.30210  Biso   1.000  H
  C36      1.0000 0.19257  0.33949  0.22862  Biso   1.000  C
  H30      1.0000 0.14562  0.30138  0.30024  Biso   1.000  H
  H31      1.0000 0.26335  0.36688  0.16282  Biso   1.000  H
  H32      1.0000 0.49156  0.17972  0.07036  Biso   1.000  H
  C37      1.0000 0.55979  0.23152  0.11380  Biso   1.000  C
  H33      1.0000 0.60563  0.28515  0.17083  Biso   1.000  H
  O3       1.0000 0.49700  0.74592  0.38421  Biso   1.000  O
  H34      1.0000 0.58237  0.77957  0.34213  Biso   1.000  H
  H35      1.0000 0.58531  0.71999  0.33794  Biso   1.000  H
  O4       1.0000 0.93686  0.57990  0.20191  Biso   1.000  O
  H36      1.0000 0.92404  0.64607  0.24031  Biso   1.000  H
  H37      1.0000 0.01312  0.63405  0.22079  Biso   1.000  H
  C38      1.0000 0.12440  0.37469  0.21808  Biso   1.000  C
  C39      1.0000 0.62707  0.22903  0.06962  Biso   1.000  C
  C40      1.0000 0.44041  0.75158  0.33272  Biso   1.000  C
  C41      1.0000 0.91048  0.59259  0.14092  Biso   1.000  C
  N2       1.0000 0.14740  0.42717  0.22032  Biso   1.000  N
  H38      1.0000 0.09858  0.36755  0.17689  Biso   1.000  H
  H39      1.0000 0.08495  0.36855  0.25019  Biso   1.000  H
  N3       1.0000 0.66161  0.27756  0.05531  Biso   1.000  N
  H40      1.0000 0.66923  0.20737  0.08807  Biso   1.000  H
  H41      1.0000 0.60767  0.21336  0.03024  Biso   1.000  H
  C42      1.0000 0.36186  0.76319  0.35849  Biso   1.000  C
  H42      1.0000 0.43725  0.72051  0.30797  Biso   1.000  H
  H43      1.0000 0.45699  0.77894  0.30513  Biso   1.000  H
  C43      1.0000 0.97287  0.58880  0.09469  Biso   1.000  C
  H44      1.0000 0.89013  0.62717  0.14096  Biso   1.000  H
  H45      1.0000 0.86604  0.57045  0.12805  Biso   1.000  H
  C44      1.0000 0.14940  0.45798  0.17051  Biso   1.000  C
  C45      1.0000 0.16599  0.45259  0.27400  Biso   1.000  C
  C46      1.0000 0.73991  0.29055  0.06342  Biso   1.000  C
  C47      1.0000 0.62108  0.31489  0.02479  Biso   1.000  C
  S12      1.0000 0.28705  0.78348  0.30592  Biso   1.000  S
  H46      1.0000 0.36981  0.78910  0.39083  Biso   1.000  H
  H47      1.0000 0.34278  0.73290  0.37946  Biso   1.000  H
  S13      1.0000 0.93323  0.60320  0.01841  Biso   1.000  S
  H48      1.0000 0.99478  0.55460  0.09502  Biso   1.000  H
  H49      1.0000 0.01646  0.61210  0.10583  Biso   1.000  H
  C48      1.0000 0.16879  0.50391  0.19180  Biso   1.000  C
  H50      1.0000 0.13909  0.44898  0.12824  Biso   1.000  H
  C49      1.0000 0.17849  0.50112  0.25769  Biso   1.000  C
  H51      1.0000 0.16962  0.43919  0.31496  Biso   1.000  H
  H52      1.0000 0.78023  0.27093  0.08327  Biso   1.000  H
  C50      1.0000 0.74960  0.33658  0.03779  Biso   1.000  C
  C51      1.0000 0.67350  0.35173  0.01342  Biso   1.000  C
  H53      1.0000 0.56624  0.31496  0.01356  Biso   1.000  H
  C52      1.0000 0.26942  0.73000  0.26142  Biso   1.000  C
  C53      1.0000 0.86002  0.55809  0.00648  Biso   1.000  C
  S14      1.0000 0.18152  0.56226  0.15774  Biso   1.000  S
  S15      1.0000 0.21252  0.55969  0.15629  Biso   1.000  S
  S16      1.0000 0.19621  0.55623  0.29782  Biso   1.000  S
  S17      1.0000 0.25191  0.54879  0.29460  Biso   1.000  S
  S18      1.0000 0.82870  0.37711  0.02638  Biso   1.000  S
  S19      1.0000 0.66955  0.40845  0.97423  Biso   1.000  S
  S20      1.0000 0.24907  0.67339  0.29968  Biso   1.000  S
  C54      1.0000 0.26052  0.73111  0.19982  Biso   1.000  C
  S21      1.0000 0.88780  0.49475  0.00331  Biso   1.000  S
  C55      1.0000 0.78405  0.56896  0.98979  Biso   1.000  C
  C56      1.0000 0.20632  0.59218  0.23020  Biso   1.000  C
  C57      1.0000 0.76604  0.42609  0.99832  Biso   1.000  C
  C58      1.0000 0.22769  0.63990  0.23062  Biso   1.000  C
  S22      1.0000 0.23030  0.67588  0.16203  Biso   1.000  S
  S23      1.0000 0.26632  0.78545  0.15420  Biso   1.000  S
  S24      1.0000 0.28499  0.78642  0.17899  Biso   1.000  S
  C59      1.0000 0.79023  0.47302  0.99180  Biso   1.000  C
  S25      1.0000 0.72391  0.51932  0.96389  Biso   1.000  S
  S26      1.0000 0.74482  0.62921  0.99222  Biso   1.000  S
  C60      1.0000 0.33748  0.76699  0.09791  Biso   1.000  C
  C61      1.0000 0.64436  0.62170  0.96309  Biso   1.000  C
  H54      1.0000 0.34200  0.79300  0.06799  Biso   1.000  H
  C62      1.0000 0.41969  0.75780  0.12540  Biso   1.000  C
  H55      1.0000 0.32897  0.73699  0.08798  Biso   1.000  H
  H56      1.0000 0.64370  0.60651  0.92101  Biso   1.000  H
  H57      1.0000 0.61519  0.59940  0.99096  Biso   1.000  H
  C63      1.0000 0.60524  0.67220  0.96020  Biso   1.000  C
  O5       1.0000 0.47080  0.75381  0.07549  Biso   1.000  O
  H58      1.0000 0.43624  0.78575  0.15299  Biso   1.000  H
  H59      1.0000 0.42067  0.72676  0.15019  Biso   1.000  H
  O6       1.0000 0.58133  0.68694  0.01980  Biso   1.000  O
  H60      1.0000 0.64283  0.69699  0.94422  Biso   1.000  H
  H61      1.0000 0.55855  0.67101  0.93099  Biso   1.000  H
  C64      1.0000 0.55127  0.74730  0.09478  Biso   1.000  C
  C65      1.0000 0.59818  0.73629  0.03858  Biso   1.000  C
  H62      1.0000 0.55628  0.71950  0.12493  Biso   1.000  H
  H63      1.0000 0.57158  0.77793  0.11552  Biso   1.000  H
  H64      1.0000 0.58351  0.75973  0.00452  Biso   1.000  H
  H65      1.0000 0.65551  0.73997  0.04879  Biso   1.000  H
  S27      1.0000 0.34601  0.57931  0.44129  Biso   1.000  S
  C66      1.0000 0.32999  0.64138  0.48100  Biso   1.000  C
  S28      1.0000 0.30254  0.58820  0.43794  Biso   1.000  S
  C67      1.0000 0.27705  0.65709  0.52452  Biso   1.000  C
  C68      1.0000 0.38950  0.67492  0.47708  Biso   1.000  C
  C69      1.0000 0.22779  0.57119  0.48692  Biso   1.000  C
  S29      1.0000 0.21597  0.61708  0.51501  Biso   1.000  S
  S30      1.0000 0.19134  0.61958  0.53505  Biso   1.000  S
  C70      1.0000 0.30549  0.70171  0.54689  Biso   1.000  C
  N4       1.0000 0.37448  0.71224  0.51790  Biso   1.000  N
  H66      1.0000 0.43343  0.67268  0.45085  Biso   1.000  H
  C71      1.0000 0.19791  0.52389  0.48421  Biso   1.000  C
  H67      1.0000 0.28140  0.72181  0.57727  Biso   1.000  H
  C72      1.0000 0.42036  0.75832  0.52340  Biso   1.000  C
  S31      1.0000 0.23895  0.48061  0.43309  Biso   1.000  S
  S32      1.0000 0.12071  0.49933  0.52639  Biso   1.000  S
  S33      1.0000 0.13499  0.50889  0.51301  Biso   1.000  S
  C73      1.0000 0.47605  0.76118  0.57979  Biso   1.000  C
  H68      1.0000 0.45167  0.76200  0.48556  Biso   1.000  H
  H69      1.0000 0.38319  0.78668  0.52452  Biso   1.000  H
  C74      1.0000 0.19649  0.42910  0.46520  Biso   1.000  C
  C75      1.0000 0.14306  0.43710  0.50830  Biso   1.000  C
  C76      1.0000 0.51887  0.72062  0.60230  Biso   1.000  C
  C77      1.0000 0.48778  0.80689  0.60929  Biso   1.000  C
  S34      1.0000 0.22118  0.37097  0.43258  Biso   1.000  S
  S35      1.0000 0.27319  0.47819  0.43142  Biso   1.000  S
  S36      1.0000 0.10257  0.38943  0.55239  Biso   1.000  S
  S37      1.0000 0.04000  0.41001  0.50980  Biso   1.000  S
  C78      1.0000 0.57015  0.72471  0.65402  Biso   1.000  C
  H70      1.0000 0.51301  0.68936  0.58198  Biso   1.000  H
  C79      1.0000 0.53937  0.81090  0.66138  Biso   1.000  C
  H71      1.0000 0.46056  0.83554  0.59391  Biso   1.000  H
  C80      1.0000 0.31297  0.35519  0.47382  Biso   1.000  C
  C81      1.0000 0.00366  0.41548  0.56539  Biso   1.000  C
  H72      1.0000 0.97651  0.42281  0.52485  Biso   1.000  H
  H73      1.0000 0.59956  0.69650  0.66809  Biso   1.000  H
  C82      1.0000 0.57889  0.76978  0.68552  Biso   1.000  C
  H74      1.0000 0.54743  0.84246  0.68063  Biso   1.000  H
  H75      1.0000 0.33213  0.38459  0.49777  Biso   1.000  H
  H76      1.0000 0.35331  0.34689  0.44316  Biso   1.000  H
  C83      1.0000 0.30477  0.31351  0.51618  Biso   1.000  C
  H77      1.0000 0.00920  0.44712  0.58892  Biso   1.000  H
  H78      1.0000 0.04658  0.42609  0.59517  Biso   1.000  H
  C84      1.0000 0.95677  0.38039  0.60020  Biso   1.000  C
  H79      1.0000 0.96907  0.44499  0.55942  Biso   1.000  H
  C85      1.0000 0.62297  0.77298  0.74908  Biso   1.000  C
  O7       1.0000 0.37438  0.30171  0.54880  Biso   1.000  O
  H80      1.0000 0.28661  0.28396  0.49209  Biso   1.000  H
  H81      1.0000 0.26363  0.32155  0.54628  Biso   1.000  H
  O8       1.0000 0.99736  0.36520  0.65742  Biso   1.000  O
  H82      1.0000 0.94526  0.35073  0.57415  Biso   1.000  H
  H83      1.0000 0.90564  0.39606  0.61008  Biso   1.000  H
  C86      1.0000 0.56087  0.77082  0.79908  Biso   1.000  C
  C87      1.0000 0.66867  0.82330  0.75342  Biso   1.000  C
  C88      1.0000 0.68497  0.73148  0.75659  Biso   1.000  C
  C89      1.0000 0.37055  0.25311  0.57690  Biso   1.000  C
  C90      1.0000 0.01679  0.40279  0.69610  Biso   1.000  C
  C91      1.0000 0.56348  0.80104  0.85141  Biso   1.000  C
  C92      1.0000 0.49545  0.73900  0.79191  Biso   1.000  C
  H84      1.0000 0.70823  0.82434  0.72122  Biso   1.000  H
  H85      1.0000 0.69508  0.82627  0.79461  Biso   1.000  H
  H86      1.0000 0.63128  0.85087  0.74708  Biso   1.000  H
  C93      1.0000 0.68126  0.69393  0.80011  Biso   1.000  C
  C94      1.0000 0.75179  0.73230  0.71898  Biso   1.000  C
  H87      1.0000 0.31566  0.24592  0.58883  Biso   1.000  H
  H88      1.0000 0.38642  0.22739  0.54675  Biso   1.000  H
  C95      1.0000 0.42588  0.25158  0.63440  Biso   1.000  C
  C96      1.0000 0.03517  0.38031  0.76180  Biso   1.000  C
  H89      1.0000 0.06366  0.42062  0.68119  Biso   1.000  H
  H90      1.0000 0.97232  0.42668  0.69787  Biso   1.000  H
  C97      1.0000 0.50458  0.79940  0.89391  Biso   1.000  C
  H91      1.0000 0.60669  0.82326  0.85808  Biso   1.000  H
  H92      1.0000 0.49132  0.71794  0.75645  Biso   1.000  H
  C98      1.0000 0.43717  0.73751  0.83492  Biso   1.000  C
  H93      1.0000 0.63678  0.69200  0.82579  Biso   1.000  H
  C99      1.0000 0.74128  0.65880  0.80710  Biso   1.000  C
  H94      1.0000 0.75603  0.75742  0.68813  Biso   1.000  H
  C100     1.0000 0.81046  0.69751  0.72620  Biso   1.000  C
  O9       1.0000 0.50299  0.25408  0.61581  Biso   1.000  O
  H95      1.0000 0.41762  0.22043  0.65789  Biso   1.000  H
  H96      1.0000 0.41462  0.28001  0.66204  Biso   1.000  H
  O10      1.0000 0.06307  0.42010  0.79811  Biso   1.000  O
  H97      1.0000 0.07590  0.35393  0.75971  Biso   1.000  H
  H98      1.0000 0.98688  0.36595  0.77923  Biso   1.000  H
  H99      1.0000 0.50843  0.82028  0.92961  Biso   1.000  H
  C101     1.0000 0.44014  0.76848  0.88618  Biso   1.000  C
  H100     1.0000 0.39436  0.71485  0.82919  Biso   1.000  H
  C102     1.0000 0.80736  0.66051  0.77140  Biso   1.000  C
  H101     1.0000 0.73664  0.63312  0.83716  Biso   1.000  H
  H102     1.0000 0.85432  0.69862  0.69978  Biso   1.000  H
  C103     1.0000 0.55958  0.24842  0.66730  Biso   1.000  C
  C104     1.0000 0.08946  0.40741  0.85910  Biso   1.000  C
  C105     1.0000 0.37286  0.77097  0.93040  Biso   1.000  C
  C106     1.0000 0.87559  0.62531  0.78189  Biso   1.000  C
  C107     1.0000 0.63808  0.23681  0.64149  Biso   1.000  C
  H103     1.0000 0.56275  0.27949  0.69200  Biso   1.000  H
  H104     1.0000 0.54300  0.22106  0.69489  Biso   1.000  H
  C108     1.0000 0.02706  0.41120  0.90528  Biso   1.000  C
  H105     1.0000 0.10987  0.37283  0.85901  Biso   1.000  H
  H106     1.0000 0.13390  0.42955  0.87192  Biso   1.000  H
  N5       1.0000 0.33838  0.72244  0.94466  Biso   1.000  N
  H107     1.0000 0.33077  0.79263  0.91195  Biso   1.000  H
  H108     1.0000 0.39227  0.78664  0.96978  Biso   1.000  H
  N6       1.0000 0.85259  0.57283  0.77970  Biso   1.000  N
  H109     1.0000 0.90135  0.63245  0.82308  Biso   1.000  H
  H110     1.0000 0.91498  0.63145  0.74983  Biso   1.000  H
  S38      1.0000 0.71288  0.21652  0.69410  Biso   1.000  S
  H111     1.0000 0.63018  0.21090  0.60915  Biso   1.000  H
  H112     1.0000 0.65722  0.26710  0.62056  Biso   1.000  H
  S39      1.0000 0.06670  0.39680  0.98161  Biso   1.000  S
  H113     1.0000 0.00521  0.44540  0.90500  Biso   1.000  H
  H114     1.0000 0.98353  0.38790  0.89415  Biso   1.000  H
  C109     1.0000 0.26009  0.70945  0.93660  Biso   1.000  C
  C110     1.0000 0.37885  0.68511  0.97518  Biso   1.000  C
  C111     1.0000 0.85053  0.54202  0.82951  Biso   1.000  C
  C112     1.0000 0.83394  0.54741  0.72602  Biso   1.000  C
  C113     1.0000 0.73058  0.27000  0.73860  Biso   1.000  C
  C114     1.0000 0.13997  0.44191  0.99350  Biso   1.000  C
  C115     1.0000 0.25033  0.66342  0.96218  Biso   1.000  C
  H115     1.0000 0.21976  0.72907  0.91670  Biso   1.000  H
  C116     1.0000 0.32643  0.64827  0.98660  Biso   1.000  C
  H116     1.0000 0.43369  0.68504  0.98641  Biso   1.000  H
  C117     1.0000 0.83114  0.49609  0.80822  Biso   1.000  C
  H117     1.0000 0.86084  0.55102  0.87173  Biso   1.000  H
  C118     1.0000 0.82145  0.49888  0.74228  Biso   1.000  C
  H118     1.0000 0.83038  0.56081  0.68506  Biso   1.000  H
  S40      1.0000 0.75086  0.32661  0.70034  Biso   1.000  S
  C119     1.0000 0.73948  0.26889  0.80020  Biso   1.000  C
  S41      1.0000 0.11213  0.50525  0.99671  Biso   1.000  S
  C120     1.0000 0.21589  0.43104  0.01018  Biso   1.000  C
  S42      1.0000 0.17123  0.62289  0.97364  Biso   1.000  S
  S43      1.0000 0.33039  0.59155  0.02579  Biso   1.000  S
  S44      1.0000 0.81841  0.43774  0.84228  Biso   1.000  S
  S45      1.0000 0.78747  0.44031  0.84368  Biso   1.000  S
  S46      1.0000 0.80378  0.44377  0.70216  Biso   1.000  S
  S47      1.0000 0.74808  0.45121  0.70542  Biso   1.000  S
  C121     1.0000 0.77224  0.36010  0.76940  Biso   1.000  C
  S48      1.0000 0.73367  0.21455  0.84578  Biso   1.000  S
  S49      1.0000 0.76969  0.32412  0.83795  Biso   1.000  S
  S50      1.0000 0.71495  0.21358  0.82099  Biso   1.000  S
  C122     1.0000 0.20970  0.52698  0.00822  Biso   1.000  C
  S51      1.0000 0.27608  0.48068  0.03609  Biso   1.000  S
  S52      1.0000 0.25512  0.37079  0.00780  Biso   1.000  S
  C123     1.0000 0.23389  0.57391  0.00170  Biso   1.000  C
  C124     1.0000 0.79368  0.40782  0.76982  Biso   1.000  C
  C125     1.0000 0.66246  0.23301  0.90211  Biso   1.000  C
  C126     1.0000 0.35563  0.37830  0.03688  Biso   1.000  C
  H119     1.0000 0.65793  0.20700  0.93198  Biso   1.000  H
  C127     1.0000 0.58024  0.24220  0.87462  Biso   1.000  C
  H120     1.0000 0.67096  0.26301  0.91199  Biso   1.000  H
  H121     1.0000 0.35629  0.39349  0.07896  Biso   1.000  H
  H122     1.0000 0.38481  0.40060  0.00901  Biso   1.000  H
  C128     1.0000 0.39470  0.32780  0.03982  Biso   1.000  C
  O11      1.0000 0.52914  0.24619  0.92453  Biso   1.000  O
  H123     1.0000 0.56375  0.21425  0.84699  Biso   1.000  H
  H124     1.0000 0.57932  0.27324  0.84983  Biso   1.000  H
  O12      1.0000 0.41867  0.31306  0.98021  Biso   1.000  O
  H125     1.0000 0.35711  0.30301  0.05580  Biso   1.000  H
  H126     1.0000 0.44144  0.32899  0.06903  Biso   1.000  H
  C129     1.0000 0.44866  0.25270  0.90519  Biso   1.000  C
  C130     1.0000 0.40176  0.26371  0.96139  Biso   1.000  C
  H127     1.0000 0.44365  0.28050  0.87504  Biso   1.000  H
  H128     1.0000 0.42841  0.22207  0.88445  Biso   1.000  H
  H129     1.0000 0.41642  0.24027  0.99550  Biso   1.000  H
  H130     1.0000 0.34449  0.26003  0.95123  Biso   1.000  H
  C131     1.0000 0.87055  0.24689  0.57690  Biso   1.000  C
  O13      1.0000 0.87438  0.19829  0.54880  Biso   1.000  O
  H131     1.0000 0.81566  0.25408  0.58883  Biso   1.000  H
  H132     1.0000 0.88642  0.27261  0.54675  Biso   1.000  H
  C132     1.0000 0.92588  0.24842  0.63440  Biso   1.000  C
  C133     1.0000 0.80477  0.18649  0.51618  Biso   1.000  C
  H133     1.0000 0.91762  0.27957  0.65789  Biso   1.000  H
  H134     1.0000 0.91462  0.21999  0.66204  Biso   1.000  H
  O14      1.0000 0.00299  0.24592  0.61581  Biso   1.000  O
  C134     1.0000 0.81297  0.14481  0.47382  Biso   1.000  C
  H135     1.0000 0.78661  0.21604  0.49209  Biso   1.000  H
  H136     1.0000 0.76363  0.17845  0.54628  Biso   1.000  H
  C135     1.0000 0.05958  0.25158  0.66730  Biso   1.000  C
  S53      1.0000 0.72118  0.12903  0.43258  Biso   1.000  S
  H137     1.0000 0.83213  0.11541  0.49777  Biso   1.000  H
  H138     1.0000 0.85331  0.15311  0.44316  Biso   1.000  H
  C136     1.0000 0.13808  0.26319  0.64149  Biso   1.000  C
  H139     1.0000 0.06275  0.22051  0.69200  Biso   1.000  H
  H140     1.0000 0.04300  0.27894  0.69489  Biso   1.000  H
  C137     1.0000 0.69649  0.07090  0.46520  Biso   1.000  C
  S54      1.0000 0.21288  0.28348  0.69410  Biso   1.000  S
  H141     1.0000 0.13018  0.28910  0.60915  Biso   1.000  H
  H142     1.0000 0.15722  0.23290  0.62056  Biso   1.000  H
  C138     1.0000 0.64306  0.06290  0.50830  Biso   1.000  C
  S55      1.0000 0.73895  0.01939  0.43309  Biso   1.000  S
  S56      1.0000 0.77319  0.02181  0.43142  Biso   1.000  S
  C139     1.0000 0.23058  0.23000  0.73860  Biso   1.000  C
  S57      1.0000 0.54000  0.08999  0.50980  Biso   1.000  S
  S58      1.0000 0.62071  0.00067  0.52639  Biso   1.000  S
  S59      1.0000 0.60257  0.11057  0.55239  Biso   1.000  S
  S60      1.0000 0.63499  0.99111  0.51301  Biso   1.000  S
  C140     1.0000 0.69791  0.97611  0.48421  Biso   1.000  C
  S61      1.0000 0.25086  0.17339  0.70034  Biso   1.000  S
  C141     1.0000 0.23948  0.23111  0.80020  Biso   1.000  C
  C142     1.0000 0.50366  0.08452  0.56539  Biso   1.000  C
  H143     1.0000 0.47651  0.07719  0.52485  Biso   1.000  H
  C143     1.0000 0.72779  0.92881  0.48692  Biso   1.000  C
  C144     1.0000 0.27224  0.13990  0.76940  Biso   1.000  C
  S62      1.0000 0.23367  0.28545  0.84578  Biso   1.000  S
  S63      1.0000 0.26969  0.17588  0.83795  Biso   1.000  S
  S64      1.0000 0.21495  0.28642  0.82099  Biso   1.000  S
  H144     1.0000 0.50920  0.05288  0.58892  Biso   1.000  H
  C145     1.0000 0.45677  0.11961  0.60020  Biso   1.000  C
  H145     1.0000 0.54658  0.07391  0.59517  Biso   1.000  H
  H146     1.0000 0.46907  0.05501  0.55942  Biso   1.000  H
  S65      1.0000 0.69134  0.88042  0.53505  Biso   1.000  S
  S66      1.0000 0.80254  0.91180  0.43794  Biso   1.000  S
  S67      1.0000 0.71597  0.88292  0.51501  Biso   1.000  S
  C146     1.0000 0.29368  0.09218  0.76982  Biso   1.000  C
  C147     1.0000 0.16246  0.26699  0.90211  Biso   1.000  C
  O15      1.0000 0.49736  0.13480  0.65742  Biso   1.000  O
  H147     1.0000 0.44526  0.14927  0.57415  Biso   1.000  H
  H148     1.0000 0.40564  0.10394  0.61008  Biso   1.000  H
  C148     1.0000 0.77705  0.84291  0.52452  Biso   1.000  C
  C149     1.0000 0.82999  0.85862  0.48100  Biso   1.000  C
  S68      1.0000 0.31841  0.06226  0.84228  Biso   1.000  S
  S69      1.0000 0.30378  0.05623  0.70216  Biso   1.000  S
  S70      1.0000 0.24808  0.04879  0.70542  Biso   1.000  S
  S71      1.0000 0.28747  0.05969  0.84368  Biso   1.000  S
  H149     1.0000 0.15793  0.29300  0.93198  Biso   1.000  H
  C150     1.0000 0.08024  0.25780  0.87462  Biso   1.000  C
  H150     1.0000 0.17096  0.23699  0.91199  Biso   1.000  H
  C151     1.0000 0.51679  0.09721  0.69610  Biso   1.000  C
  C152     1.0000 0.80549  0.79829  0.54689  Biso   1.000  C
  C153     1.0000 0.88950  0.82508  0.47708  Biso   1.000  C
  S72      1.0000 0.84601  0.92069  0.44129  Biso   1.000  S
  C154     1.0000 0.33114  0.00391  0.80822  Biso   1.000  C
  C155     1.0000 0.32145  0.00112  0.74228  Biso   1.000  C
  O16      1.0000 0.02914  0.25381  0.92453  Biso   1.000  O
  H151     1.0000 0.06375  0.28575  0.84699  Biso   1.000  H
  H152     1.0000 0.07932  0.22676  0.84983  Biso   1.000  H
  C156     1.0000 0.53517  0.11969  0.76180  Biso   1.000  C
  H153     1.0000 0.56366  0.07938  0.68119  Biso   1.000  H
  H154     1.0000 0.47232  0.07332  0.69787  Biso   1.000  H
  N7       1.0000 0.87448  0.78776  0.51790  Biso   1.000  N
  H155     1.0000 0.78140  0.77819  0.57727  Biso   1.000  H
  H156     1.0000 0.93343  0.82732  0.45085  Biso   1.000  H
  C157     1.0000 0.35053  0.95798  0.82951  Biso   1.000  C
  C158     1.0000 0.33394  0.95259  0.72602  Biso   1.000  C
  C159     1.0000 0.94866  0.24730  0.90519  Biso   1.000  C
  O17      1.0000 0.56307  0.07990  0.79811  Biso   1.000  O
  H157     1.0000 0.57590  0.14607  0.75971  Biso   1.000  H
  H158     1.0000 0.48688  0.13405  0.77923  Biso   1.000  H
  C160     1.0000 0.92036  0.74168  0.52340  Biso   1.000  C
  N8       1.0000 0.35259  0.92717  0.77970  Biso   1.000  N
  H159     1.0000 0.36084  0.94898  0.87173  Biso   1.000  H
  H160     1.0000 0.33038  0.93919  0.68506  Biso   1.000  H
  C161     1.0000 0.90176  0.23629  0.96139  Biso   1.000  C
  H161     1.0000 0.94365  0.21950  0.87504  Biso   1.000  H
  H162     1.0000 0.92841  0.27793  0.88445  Biso   1.000  H
  C162     1.0000 0.58946  0.09259  0.85910  Biso   1.000  C
  C163     1.0000 0.97605  0.73882  0.57979  Biso   1.000  C
  H163     1.0000 0.95167  0.73800  0.48556  Biso   1.000  H
  H164     1.0000 0.88319  0.71332  0.52452  Biso   1.000  H
  C164     1.0000 0.37559  0.87469  0.78189  Biso   1.000  C
  O18      1.0000 0.91867  0.18694  0.98021  Biso   1.000  O
  H165     1.0000 0.91642  0.25973  0.99550  Biso   1.000  H
  H166     1.0000 0.84449  0.23997  0.95123  Biso   1.000  H
  C165     1.0000 0.52706  0.08880  0.90528  Biso   1.000  C
  H167     1.0000 0.60987  0.12717  0.85901  Biso   1.000  H
  H168     1.0000 0.63390  0.07045  0.87192  Biso   1.000  H
  C166     1.0000 0.98778  0.69311  0.60929  Biso   1.000  C
  C167     1.0000 0.01887  0.77938  0.60230  Biso   1.000  C
  C168     1.0000 0.30736  0.83949  0.77140  Biso   1.000  C
  H169     1.0000 0.40135  0.86755  0.82308  Biso   1.000  H
  H170     1.0000 0.41498  0.86855  0.74983  Biso   1.000  H
  C169     1.0000 0.89470  0.17220  0.03982  Biso   1.000  C
  S73      1.0000 0.56670  0.10320  0.98161  Biso   1.000  S
  H171     1.0000 0.50521  0.05460  0.90500  Biso   1.000  H
  H172     1.0000 0.48353  0.11210  0.89415  Biso   1.000  H
  H173     1.0000 0.96056  0.66446  0.59391  Biso   1.000  H
  C170     1.0000 0.03937  0.68910  0.66138  Biso   1.000  C
  C171     1.0000 0.07015  0.77529  0.65402  Biso   1.000  C
  H174     1.0000 0.01301  0.81064  0.58198  Biso   1.000  H
  C172     1.0000 0.24128  0.84120  0.80710  Biso   1.000  C
  C173     1.0000 0.31046  0.80249  0.72620  Biso   1.000  C
  C174     1.0000 0.85563  0.12170  0.03688  Biso   1.000  C
  H175     1.0000 0.85711  0.19699  0.05580  Biso   1.000  H
  H176     1.0000 0.94144  0.17101  0.06903  Biso   1.000  H
  C175     1.0000 0.63997  0.05809  0.99350  Biso   1.000  C
  C176     1.0000 0.07889  0.73022  0.68552  Biso   1.000  C
  H177     1.0000 0.04743  0.65754  0.68063  Biso   1.000  H
  H178     1.0000 0.09956  0.80350  0.66809  Biso   1.000  H
  C177     1.0000 0.18126  0.80607  0.80011  Biso   1.000  C
  H179     1.0000 0.23664  0.86688  0.83716  Biso   1.000  H
  C178     1.0000 0.25179  0.76770  0.71898  Biso   1.000  C
  H180     1.0000 0.35432  0.80138  0.69978  Biso   1.000  H
  S74      1.0000 0.75512  0.12921  0.00780  Biso   1.000  S
  H181     1.0000 0.85629  0.10651  0.07896  Biso   1.000  H
  H182     1.0000 0.88481  0.09940  0.00901  Biso   1.000  H
  S75      1.0000 0.61213  0.99475  0.99671  Biso   1.000  S
  C179     1.0000 0.71589  0.06896  0.01018  Biso   1.000  C
  C180     1.0000 0.12297  0.72702  0.74908  Biso   1.000  C
  C181     1.0000 0.18497  0.76852  0.75659  Biso   1.000  C
  H183     1.0000 0.13678  0.80800  0.82579  Biso   1.000  H
  H184     1.0000 0.25603  0.74258  0.68813  Biso   1.000  H
  C182     1.0000 0.70970  0.97302  0.00822  Biso   1.000  C
  S76      1.0000 0.77608  0.01932  0.03609  Biso   1.000  S
  C183     1.0000 0.06087  0.72918  0.79908  Biso   1.000  C
  C184     1.0000 0.16867  0.67670  0.75342  Biso   1.000  C
  C185     1.0000 0.73389  0.92609  0.00170  Biso   1.000  C
  C186     1.0000 0.99545  0.76100  0.79191  Biso   1.000  C
  C187     1.0000 0.06348  0.69896  0.85141  Biso   1.000  C
  H185     1.0000 0.20823  0.67566  0.72122  Biso   1.000  H
  H186     1.0000 0.19508  0.67373  0.79461  Biso   1.000  H
  H187     1.0000 0.13128  0.64913  0.74708  Biso   1.000  H
  S77      1.0000 0.67123  0.87711  0.97364  Biso   1.000  S
  S78      1.0000 0.83039  0.90845  0.02579  Biso   1.000  S
  H188     1.0000 0.99132  0.78206  0.75645  Biso   1.000  H
  C188     1.0000 0.93717  0.76249  0.83492  Biso   1.000  C
  C189     1.0000 0.00458  0.70060  0.89391  Biso   1.000  C
  H189     1.0000 0.10669  0.67674  0.85808  Biso   1.000  H
  C190     1.0000 0.75033  0.83658  0.96218  Biso   1.000  C
  C191     1.0000 0.82643  0.85173  0.98660  Biso   1.000  C
  C192     1.0000 0.94014  0.73152  0.88618  Biso   1.000  C
  H190     1.0000 0.89436  0.78515  0.82919  Biso   1.000  H
  H191     1.0000 0.00843  0.67972  0.92961  Biso   1.000  H
  C193     1.0000 0.76009  0.79055  0.93660  Biso   1.000  C
  C194     1.0000 0.87885  0.81489  0.97518  Biso   1.000  C
  C195     1.0000 0.87286  0.72903  0.93040  Biso   1.000  C
  N9       1.0000 0.83838  0.77756  0.94466  Biso   1.000  N
  H192     1.0000 0.71976  0.77093  0.91670  Biso   1.000  H
  H193     1.0000 0.93369  0.81496  0.98641  Biso   1.000  H
  H194     1.0000 0.83077  0.70737  0.91195  Biso   1.000  H
  H195     1.0000 0.89227  0.71336  0.96978  Biso   1.000  H
  C196     1.0000 0.12939  0.75311  0.42312  Biso   1.000  C
  C197     1.0000 0.07406  0.75158  0.36562  Biso   1.000  C
  O19      1.0000 0.12561  0.80171  0.45122  Biso   1.000  O
  H196     1.0000 0.18433  0.74592  0.41119  Biso   1.000  H
  H197     1.0000 0.11352  0.72739  0.45327  Biso   1.000  H
  H198     1.0000 0.08237  0.72043  0.34213  Biso   1.000  H
  H199     1.0000 0.08531  0.78001  0.33794  Biso   1.000  H
  O20      1.0000 0.99700  0.75408  0.38421  Biso   1.000  O
  C198     1.0000 0.19517  0.81351  0.48379  Biso   1.000  C
  C199     1.0000 0.94041  0.74842  0.33272  Biso   1.000  C
  C200     1.0000 0.18696  0.85519  0.52620  Biso   1.000  C
  H200     1.0000 0.21333  0.78396  0.50793  Biso   1.000  H
  H201     1.0000 0.23631  0.82155  0.45374  Biso   1.000  H
  C201     1.0000 0.86186  0.73681  0.35849  Biso   1.000  C
  H202     1.0000 0.93725  0.77949  0.30797  Biso   1.000  H
  H203     1.0000 0.95699  0.72106  0.30513  Biso   1.000  H
  S79      1.0000 0.27875  0.87097  0.56744  Biso   1.000  S
  H204     1.0000 0.16780  0.88459  0.50225  Biso   1.000  H
  H205     1.0000 0.14662  0.84689  0.55686  Biso   1.000  H
  S80      1.0000 0.78705  0.71652  0.30592  Biso   1.000  S
  H206     1.0000 0.86981  0.71090  0.39083  Biso   1.000  H
  H207     1.0000 0.84278  0.76710  0.37946  Biso   1.000  H
  C202     1.0000 0.30351  0.92910  0.53482  Biso   1.000  C
  C203     1.0000 0.76942  0.77000  0.26142  Biso   1.000  C
  S81      1.0000 0.26098  0.98061  0.56688  Biso   1.000  S
  C204     1.0000 0.35688  0.93710  0.49172  Biso   1.000  C
  S82      1.0000 0.22680  0.97819  0.56860  Biso   1.000  S
  S83      1.0000 0.74907  0.82661  0.29968  Biso   1.000  S
  C205     1.0000 0.76052  0.76889  0.19982  Biso   1.000  C
  C206     1.0000 0.30209  0.02389  0.51581  Biso   1.000  C
  S84      1.0000 0.37922  0.99933  0.47359  Biso   1.000  S
  S85      1.0000 0.39736  0.88943  0.44763  Biso   1.000  S
  S86      1.0000 0.45999  0.91001  0.49018  Biso   1.000  S
  S87      1.0000 0.36500  0.00889  0.48701  Biso   1.000  S
  C207     1.0000 0.72769  0.86010  0.23062  Biso   1.000  C
  S88      1.0000 0.76632  0.71455  0.15420  Biso   1.000  S
  S89      1.0000 0.73030  0.82412  0.16203  Biso   1.000  S
  S90      1.0000 0.78499  0.71358  0.17899  Biso   1.000  S
  C208     1.0000 0.27220  0.07119  0.51310  Biso   1.000  C
  C209     1.0000 0.49627  0.91548  0.43458  Biso   1.000  C
  H208     1.0000 0.52342  0.92281  0.47517  Biso   1.000  H
  C210     1.0000 0.70632  0.90782  0.23020  Biso   1.000  C
  C211     1.0000 0.83748  0.73301  0.09791  Biso   1.000  C
  S91      1.0000 0.30865  0.11958  0.46497  Biso   1.000  S
  S92      1.0000 0.19739  0.08820  0.56208  Biso   1.000  S
  S93      1.0000 0.28397  0.11708  0.48500  Biso   1.000  S
  H209     1.0000 0.49080  0.94712  0.41105  Biso   1.000  H
  C212     1.0000 0.54317  0.88039  0.39982  Biso   1.000  C
  H210     1.0000 0.45335  0.92609  0.40481  Biso   1.000  H
  H211     1.0000 0.53087  0.94499  0.44060  Biso   1.000  H
  S94      1.0000 0.68152  0.93774  0.15774  Biso   1.000  S
  S95      1.0000 0.69621  0.94377  0.29782  Biso   1.000  S
  S96      1.0000 0.75191  0.95121  0.29460  Biso   1.000  S
  S97      1.0000 0.71252  0.94031  0.15629  Biso   1.000  S
  H212     1.0000 0.84200  0.70700  0.06799  Biso   1.000  H
  C213     1.0000 0.91969  0.74220  0.12540  Biso   1.000  C
  H213     1.0000 0.82897  0.76301  0.08798  Biso   1.000  H
  C214     1.0000 0.22288  0.15709  0.47550  Biso   1.000  C
  C215     1.0000 0.17000  0.14138  0.51902  Biso   1.000  C
  O21      1.0000 0.50258  0.86520  0.34260  Biso   1.000  O
  H214     1.0000 0.55473  0.85073  0.42587  Biso   1.000  H
  H215     1.0000 0.59430  0.89606  0.38990  Biso   1.000  H
  C216     1.0000 0.66879  0.99609  0.19180  Biso   1.000  C
  C217     1.0000 0.67849  0.99888  0.25769  Biso   1.000  C
  O22      1.0000 0.97080  0.74619  0.07549  Biso   1.000  O
  H216     1.0000 0.93624  0.71425  0.15299  Biso   1.000  H
  H217     1.0000 0.92067  0.77324  0.15019  Biso   1.000  H
  C218     1.0000 0.19451  0.20171  0.45308  Biso   1.000  C
  C219     1.0000 0.11049  0.17492  0.52289  Biso   1.000  C
  S98      1.0000 0.15398  0.07931  0.55868  Biso   1.000  S
  C220     1.0000 0.48321  0.90279  0.30392  Biso   1.000  C
  C221     1.0000 0.64940  0.04202  0.17051  Biso   1.000  C
  C222     1.0000 0.66599  0.04741  0.27400  Biso   1.000  C
  C223     1.0000 0.05127  0.75270  0.09478  Biso   1.000  C
  N10      1.0000 0.12545  0.21224  0.48212  Biso   1.000  N
  H218     1.0000 0.21853  0.22181  0.42275  Biso   1.000  H
  H219     1.0000 0.06651  0.17268  0.54913  Biso   1.000  H
  C224     1.0000 0.46476  0.88031  0.23822  Biso   1.000  C
  H220     1.0000 0.43627  0.92062  0.31883  Biso   1.000  H
  H221     1.0000 0.52767  0.92668  0.30210  Biso   1.000  H
  N11      1.0000 0.64740  0.07283  0.22032  Biso   1.000  N
  H222     1.0000 0.63909  0.05102  0.12824  Biso   1.000  H
  H223     1.0000 0.66962  0.06081  0.31496  Biso   1.000  H
  H224     1.0000 0.05628  0.78050  0.12493  Biso   1.000  H
  H225     1.0000 0.07158  0.72207  0.11552  Biso   1.000  H
  C225     1.0000 0.09818  0.76371  0.03858  Biso   1.000  C
  C226     1.0000 0.07958  0.25832  0.47662  Biso   1.000  C
  O23      1.0000 0.43686  0.92010  0.20191  Biso   1.000  O
  H226     1.0000 0.42404  0.85393  0.24031  Biso   1.000  H
  H227     1.0000 0.51312  0.86595  0.22079  Biso   1.000  H
  C227     1.0000 0.62440  0.12531  0.21808  Biso   1.000  C
  O24      1.0000 0.08133  0.81306  0.01980  Biso   1.000  O
  H228     1.0000 0.08351  0.74027  0.00452  Biso   1.000  H
  H229     1.0000 0.15551  0.76003  0.04879  Biso   1.000  H
  C228     1.0000 0.02388  0.26118  0.42019  Biso   1.000  C
  H230     1.0000 0.04827  0.26200  0.51446  Biso   1.000  H
  H231     1.0000 0.11680  0.28668  0.47550  Biso   1.000  H
  C229     1.0000 0.41048  0.90741  0.14092  Biso   1.000  C
  C230     1.0000 0.69257  0.16051  0.22862  Biso   1.000  C
  H232     1.0000 0.59858  0.13245  0.17689  Biso   1.000  H
  H233     1.0000 0.58495  0.13145  0.25019  Biso   1.000  H
  C231     1.0000 0.10524  0.82780  0.96020  Biso   1.000  C
  C232     1.0000 0.98106  0.22062  0.39768  Biso   1.000  C
  C233     1.0000 0.01215  0.30689  0.39069  Biso   1.000  C
  C234     1.0000 0.47287  0.91120  0.09469  Biso   1.000  C
  H234     1.0000 0.39013  0.87283  0.14096  Biso   1.000  H
  H235     1.0000 0.36604  0.92955  0.12805  Biso   1.000  H
  C235     1.0000 0.75872  0.15880  0.19292  Biso   1.000  C
  C236     1.0000 0.68947  0.19751  0.27382  Biso   1.000  C
  C237     1.0000 0.14436  0.87830  0.96309  Biso   1.000  C
  H236     1.0000 0.14283  0.80301  0.94422  Biso   1.000  H
  H237     1.0000 0.05855  0.82899  0.93099  Biso   1.000  H
  C238     1.0000 0.92979  0.22471  0.34600  Biso   1.000  C
  H238     1.0000 0.98698  0.18936  0.41804  Biso   1.000  H
  C239     1.0000 0.96056  0.31090  0.33859  Biso   1.000  C
  H239     1.0000 0.03938  0.33554  0.40607  Biso   1.000  H
  S99      1.0000 0.43323  0.89680  0.01841  Biso   1.000  S
  H240     1.0000 0.49478  0.94540  0.09502  Biso   1.000  H
  H241     1.0000 0.51646  0.88790  0.10583  Biso   1.000  H
  C240     1.0000 0.81868  0.19393  0.19991  Biso   1.000  C
  H242     1.0000 0.76335  0.13312  0.16282  Biso   1.000  H
  C241     1.0000 0.74820  0.23230  0.28099  Biso   1.000  C
  H243     1.0000 0.64562  0.19862  0.30024  Biso   1.000  H
  S100     1.0000 0.24482  0.87079  0.99222  Biso   1.000  S
  H244     1.0000 0.14370  0.89349  0.92101  Biso   1.000  H
  H245     1.0000 0.11519  0.90060  0.99096  Biso   1.000  H
  H246     1.0000 0.90038  0.19650  0.33188  Biso   1.000  H
  C242     1.0000 0.92110  0.26978  0.31450  Biso   1.000  C
  H247     1.0000 0.95257  0.34246  0.31939  Biso   1.000  H
  C243     1.0000 0.36002  0.94191  0.00648  Biso   1.000  C
  H248     1.0000 0.86316  0.19200  0.17423  Biso   1.000  H
  C244     1.0000 0.81496  0.23148  0.24339  Biso   1.000  C
  H249     1.0000 0.74390  0.25742  0.31184  Biso   1.000  H
  C245     1.0000 0.28405  0.93104  0.98979  Biso   1.000  C
  C246     1.0000 0.87696  0.27298  0.25089  Biso   1.000  C
  S101     1.0000 0.38780  0.00525  0.00331  Biso   1.000  S
  S102     1.0000 0.22391  0.98068  0.96389  Biso   1.000  S
  C247     1.0000 0.93907  0.27082  0.20089  Biso   1.000  C
  C248     1.0000 0.83127  0.32330  0.24660  Biso   1.000  C
  C249     1.0000 0.29023  0.02698  0.99180  Biso   1.000  C
  C250     1.0000 0.93651  0.30104  0.14860  Biso   1.000  C
  C251     1.0000 0.00448  0.23900  0.20811  Biso   1.000  C
  H250     1.0000 0.79170  0.32434  0.27876  Biso   1.000  H
  H251     1.0000 0.80485  0.32627  0.20536  Biso   1.000  H
  H252     1.0000 0.86866  0.35087  0.25294  Biso   1.000  H
  C252     1.0000 0.26604  0.07391  0.99832  Biso   1.000  C
  C253     1.0000 0.99541  0.29940  0.10611  Biso   1.000  C
  H253     1.0000 0.89325  0.32326  0.14189  Biso   1.000  H
  H254     1.0000 0.00868  0.21794  0.24353  Biso   1.000  H
  C254     1.0000 0.06277  0.23751  0.16510  Biso   1.000  C
  S103     1.0000 0.16955  0.09155  0.97423  Biso   1.000  S
  S104     1.0000 0.32870  0.12289  0.02638  Biso   1.000  S
  H255     1.0000 0.99156  0.32028  0.07036  Biso   1.000  H
  C255     1.0000 0.05979  0.26848  0.11380  Biso   1.000  C
  H256     1.0000 0.10563  0.21485  0.17083  Biso   1.000  H
  C256     1.0000 0.17350  0.14827  0.01342  Biso   1.000  C
  C257     1.0000 0.24960  0.16342  0.03779  Biso   1.000  C
  C258     1.0000 0.12707  0.27097  0.06962  Biso   1.000  C
  C259     1.0000 0.12108  0.18511  0.02479  Biso   1.000  C
  C260     1.0000 0.23991  0.20945  0.06342  Biso   1.000  C
  N12      1.0000 0.16161  0.22244  0.05531  Biso   1.000  N
  H257     1.0000 0.16923  0.29263  0.08807  Biso   1.000  H
  H258     1.0000 0.10767  0.28664  0.03024  Biso   1.000  H
  H259     1.0000 0.06624  0.18504  0.01356  Biso   1.000  H
  H260     1.0000 0.28023  0.22907  0.08327  Biso   1.000  H
