data_image0
_cell_length_a       16.65
_cell_length_b       20.442
_cell_length_c       20.043
_cell_angle_alpha    90
_cell_angle_beta     99
_cell_angle_gamma    90

_symmetry_space_group_name_H-M    "P 1"
_symmetry_int_tables_number       1

loop_
  _symmetry_equiv_pos_as_xyz
  'x, y, z'

loop_
  _atom_site_label
  _atom_site_occupancy
  _atom_site_fract_x
  _atom_site_fract_y
  _atom_site_fract_z
  _atom_site_thermal_displace_type
  _atom_site_B_iso_or_equiv
  _atom_site_type_symbol
  O1       1.0000 0.97415  0.18041  0.15230  Biso   1.000  O
  C1       1.0000 0.04662  0.16378  0.19559  Biso   1.000  C
  C2       1.0000 0.04663  0.16378  0.19564  Biso   1.000  C
  C3       1.0000 0.92131  0.22258  0.18428  Biso   1.000  C
  C4       1.0000 0.92132  0.22258  0.18433  Biso   1.000  C
  C5       1.0000 0.94503  0.24782  0.14952  Biso   1.000  C
  C6       1.0000 0.11630  0.18848  0.18670  Biso   1.000  C
  C7       1.0000 0.04174  0.11418  0.24272  Biso   1.000  C
  O2       1.0000 0.97409  0.18041  0.15230  Biso   1.000  O
  H1       1.0000 0.95353  0.25350  0.21408  Biso   1.000  H
  H2       1.0000 0.88902  0.19680  0.21090  Biso   1.000  H
  C8       1.0000 0.86521  0.25961  0.12780  Biso   1.000  C
  H3       1.0000 0.95354  0.25350  0.21413  Biso   1.000  H
  H4       1.0000 0.93682  0.26250  0.19393  Biso   1.000  H
  H5       1.0000 0.98400  0.27659  0.13321  Biso   1.000  H
  C9       1.0000 0.86219  0.24758  0.09931  Biso   1.000  C
  C10      1.0000 0.18941  0.16539  0.22090  Biso   1.000  C
  O3       1.0000 0.11391  0.24278  0.14341  Biso   1.000  O
  C11      1.0000 0.11342  0.09030  0.28081  Biso   1.000  C
  O4       1.0000 0.96691  0.09432  0.25389  Biso   1.000  O
  O5       1.0000 0.96692  0.09432  0.25394  Biso   1.000  O
  H6       1.0000 0.85482  0.30349  0.14280  Biso   1.000  H
  H7       1.0000 0.89139  0.26299  0.08790  Biso   1.000  H
  C12      1.0000 0.78550  0.22219  0.11088  Biso   1.000  C
  H8       1.0000 0.89145  0.26299  0.08790  Biso   1.000  H
  C13      1.0000 0.78551  0.22219  0.11093  Biso   1.000  C
  H9       1.0000 0.83698  0.29048  0.09749  Biso   1.000  H
  C14      1.0000 0.80809  0.19651  0.12750  Biso   1.000  C
  H10      1.0000 0.87091  0.23569  0.05410  Biso   1.000  H
  C15      1.0000 0.26853  0.19602  0.20383  Biso   1.000  C
  C16      1.0000 0.18592  0.11789  0.26682  Biso   1.000  C
  C17      1.0000 0.26852  0.19602  0.20378  Biso   1.000  C
  C18      1.0000 0.12778  0.23031  0.07769  Biso   1.000  C
  C19      1.0000 0.12785  0.23031  0.07774  Biso   1.000  C
  C20      1.0000 0.11103  0.03708  0.33001  Biso   1.000  C
  C21      1.0000 0.94232  0.03610  0.22348  Biso   1.000  C
  C22      1.0000 0.94233  0.03610  0.22353  Biso   1.000  C
  H11      1.0000 0.74291  0.24469  0.12962  Biso   1.000  H
  H12      1.0000 0.79150  0.17870  0.13028  Biso   1.000  H
  C23      1.0000 0.76271  0.21749  0.03319  Biso   1.000  C
  H13      1.0000 0.79151  0.17870  0.13033  Biso   1.000  H
  C24      1.0000 0.76272  0.21749  0.03324  Biso   1.000  C
  H14      1.0000 0.78183  0.21549  0.16281  Biso   1.000  H
  C25      1.0000 0.74322  0.17469  0.06622  Biso   1.000  C
  H15      1.0000 0.84042  0.15928  0.14609  Biso   1.000  H
  H16      1.0000 0.25738  0.24141  0.18988  Biso   1.000  H
  C26      1.0000 0.33329  0.19558  0.27020  Biso   1.000  C
  C27      1.0000 0.29138  0.15801  0.14402  Biso   1.000  C
  H17      1.0000 0.25745  0.24141  0.18994  Biso   1.000  H
  C28      1.0000 0.33335  0.19558  0.27020  Biso   1.000  C
  C29      1.0000 0.29144  0.15801  0.14402  Biso   1.000  C
  H18      1.0000 0.23462  0.10239  0.29071  Biso   1.000  H
  O6       1.0000 0.21070  0.23579  0.06991  Biso   1.000  O
  H19      1.0000 0.09607  0.26079  0.04708  Biso   1.000  H
  H20      1.0000 0.10898  0.18648  0.06491  Biso   1.000  H
  H21      1.0000 0.09614  0.26079  0.04713  Biso   1.000  H
  H22      1.0000 0.10904  0.18648  0.06491  Biso   1.000  H
  H23      1.0000 0.05854  0.04119  0.34592  Biso   1.000  H
  C30      1.0000 0.17571  0.04070  0.39341  Biso   1.000  C
  C31      1.0000 0.10840  0.97290  0.29339  Biso   1.000  C
  C32      1.0000 0.10841  0.97290  0.29344  Biso   1.000  C
  O7       1.0000 0.96223  0.98019  0.26510  Biso   1.000  O
  H24      1.0000 0.96704  0.03141  0.18312  Biso   1.000  H
  H25      1.0000 0.88383  0.03742  0.20979  Biso   1.000  H
  H26      1.0000 0.88384  0.03742  0.20984  Biso   1.000  H
  H27      1.0000 0.70449  0.22248  0.02000  Biso   1.000  H
  H28      1.0000 0.78988  0.25159  0.01162  Biso   1.000  H
  O8       1.0000 0.78849  0.15341  0.01318  Biso   1.000  O
  H29      1.0000 0.70455  0.22248  0.02000  Biso   1.000  H
  H30      1.0000 0.78994  0.25159  0.01162  Biso   1.000  H
  O9       1.0000 0.78850  0.15341  0.01323  Biso   1.000  O
  H31      1.0000 0.70759  0.21089  0.05051  Biso   1.000  H
  H32      1.0000 0.71043  0.13908  0.07931  Biso   1.000  H
  H33      1.0000 0.31090  0.21539  0.30728  Biso   1.000  H
  H34      1.0000 0.34969  0.15111  0.28268  Biso   1.000  H
  C33      1.0000 0.40458  0.23452  0.25429  Biso   1.000  C
  H35      1.0000 0.31091  0.21539  0.30733  Biso   1.000  H
  H36      1.0000 0.34976  0.15111  0.28273  Biso   1.000  H
  C34      1.0000 0.40465  0.23452  0.25434  Biso   1.000  C
  C35      1.0000 0.25479  0.17841  0.07820  Biso   1.000  C
  C36      1.0000 0.34021  0.10209  0.14912  Biso   1.000  C
  C37      1.0000 0.25485  0.17841  0.07820  Biso   1.000  C
  H37      1.0000 0.16991  0.00259  0.42099  Biso   1.000  H
  H38      1.0000 0.22895  0.03840  0.37952  Biso   1.000  H
  C38      1.0000 0.17291  0.10058  0.43630  Biso   1.000  C
  H39      1.0000 0.16992  0.00259  0.42104  Biso   1.000  H
  C39      1.0000 0.03341  0.94648  0.25909  Biso   1.000  C
  C40      1.0000 0.17890  0.93870  0.28409  Biso   1.000  C
  C41      1.0000 0.03342  0.94648  0.25914  Biso   1.000  C
  C42      1.0000 0.74353  0.12900  0.95302  Biso   1.000  C
  H40      1.0000 0.38561  0.27238  0.22721  Biso   1.000  H
  H41      1.0000 0.43740  0.20791  0.22888  Biso   1.000  H
  C43      1.0000 0.45688  0.25702  0.32279  Biso   1.000  C
  H42      1.0000 0.43741  0.20791  0.22893  Biso   1.000  H
  C44      1.0000 0.45695  0.25702  0.32284  Biso   1.000  C
  C45      1.0000 0.27069  0.14260  0.02581  Biso   1.000  C
  C46      1.0000 0.27075  0.14260  0.02581  Biso   1.000  C
  H43      1.0000 0.36270  0.08781  0.19201  Biso   1.000  H
  C47      1.0000 0.35679  0.06731  0.09522  Biso   1.000  C
  C48      1.0000 0.35685  0.06731  0.09522  Biso   1.000  C
  H44      1.0000 0.22134  0.10160  0.47019  Biso   1.000  H
  H45      1.0000 0.17379  0.13908  0.40811  Biso   1.000  H
  C49      1.0000 0.10009  0.10381  0.47059  Biso   1.000  C
  H46      1.0000 0.22135  0.10160  0.47024  Biso   1.000  H
  H47      1.0000 0.17385  0.13908  0.40811  Biso   1.000  H
  C50      1.0000 0.10016  0.10381  0.47064  Biso   1.000  C
  C51      1.0000 0.03223  0.89380  0.22408  Biso   1.000  C
  C52      1.0000 0.03224  0.89380  0.22413  Biso   1.000  C
  H48      1.0000 0.22880  0.95592  0.30349  Biso   1.000  H
  C53      1.0000 0.17944  0.88078  0.24772  Biso   1.000  C
  H49      1.0000 0.22881  0.95592  0.30354  Biso   1.000  H
  C54      1.0000 0.75828  0.15649  0.89362  Biso   1.000  C
  C55      1.0000 0.69301  0.08052  0.95459  Biso   1.000  C
  C56      1.0000 0.75834  0.15649  0.89362  Biso   1.000  C
  C57      1.0000 0.69302  0.08052  0.95464  Biso   1.000  C
  C58      1.0000 0.43612  0.31298  0.35572  Biso   1.000  C
  C59      1.0000 0.52511  0.22102  0.34991  Biso   1.000  C
  C60      1.0000 0.31828  0.09109  0.03071  Biso   1.000  C
  C61      1.0000 0.31834  0.09109  0.03071  Biso   1.000  C
  O10      1.0000 0.22363  0.15400  0.96120  Biso   1.000  O
  C62      1.0000 0.40598  0.00558  0.10098  Biso   1.000  C
  C63      1.0000 0.40605  0.00558  0.10103  Biso   1.000  C
  C64      1.0000 0.02689  0.13130  0.44069  Biso   1.000  C
  C65      1.0000 0.10632  0.07509  0.53399  Biso   1.000  C
  C66      1.0000 0.02696  0.13130  0.44074  Biso   1.000  C
  C67      1.0000 0.10633  0.07509  0.53404  Biso   1.000  C
  O11      1.0000 0.95903  0.87262  0.18589  Biso   1.000  O
  C68      1.0000 0.09909  0.85911  0.21651  Biso   1.000  C
  C69      1.0000 0.09915  0.85911  0.21651  Biso   1.000  C
  C70      1.0000 0.25328  0.84551  0.23510  Biso   1.000  C
  C71      1.0000 0.25334  0.84551  0.23510  Biso   1.000  C
  O12      1.0000 0.81082  0.21030  0.89291  Biso   1.000  O
  C72      1.0000 0.72211  0.12880  0.83229  Biso   1.000  C
  C73      1.0000 0.65098  0.05161  0.89660  Biso   1.000  C
  C74      1.0000 0.65104  0.05161  0.89660  Biso   1.000  C
  O13      1.0000 0.67629  0.05772  0.01859  Biso   1.000  O
  O14      1.0000 0.67630  0.05772  0.01864  Biso   1.000  O
  H50      1.0000 0.39054  0.33700  0.33759  Biso   1.000  H
  C75      1.0000 0.48353  0.33289  0.41548  Biso   1.000  C
  H51      1.0000 0.39055  0.33700  0.33764  Biso   1.000  H
  C76      1.0000 0.48354  0.33289  0.41553  Biso   1.000  C
  C77      1.0000 0.57253  0.24102  0.40972  Biso   1.000  C
  H52      1.0000 0.53898  0.18359  0.32789  Biso   1.000  H
  H53      1.0000 0.53905  0.18359  0.32794  Biso   1.000  H
  O15      1.0000 0.33328  0.05469  0.97292  Biso   1.000  O
  O16      1.0000 0.33334  0.05469  0.97292  Biso   1.000  O
  C78      1.0000 0.23769  0.21642  0.92680  Biso   1.000  C
  H54      1.0000 0.42903  0.00142  0.05910  Biso   1.000  H
  C79      1.0000 0.47749  0.00362  0.15953  Biso   1.000  C
  C80      1.0000 0.47755  0.00362  0.15953  Biso   1.000  C
  C81      1.0000 0.34902  0.94839  0.10340  Biso   1.000  C
  H55      1.0000 0.02274  0.15052  0.39821  Biso   1.000  H
  C82      1.0000 0.95994  0.12998  0.47428  Biso   1.000  C
  C83      1.0000 0.95995  0.12998  0.47433  Biso   1.000  C
  C84      1.0000 0.03932  0.07382  0.56758  Biso   1.000  C
  H56      1.0000 0.15532  0.05670  0.55399  Biso   1.000  H
  C85      1.0000 0.03933  0.07382  0.56763  Biso   1.000  C
  H57      1.0000 0.15532  0.05670  0.55404  Biso   1.000  H
  C86      1.0000 0.90230  0.84101  0.22782  Biso   1.000  C
  O17      1.0000 0.09510  0.80041  0.17938  Biso   1.000  O
  O18      1.0000 0.09511  0.80041  0.17943  Biso   1.000  O
  C87      1.0000 0.27789  0.87120  0.16771  Biso   1.000  C
  C88      1.0000 0.27795  0.87120  0.16771  Biso   1.000  C
  H58      1.0000 0.23918  0.79909  0.22878  Biso   1.000  H
  C89      1.0000 0.32451  0.85070  0.29440  Biso   1.000  C
  H59      1.0000 0.23925  0.79909  0.22883  Biso   1.000  H
  C90      1.0000 0.89059  0.19631  0.88528  Biso   1.000  C
  C91      1.0000 0.89060  0.19631  0.88533  Biso   1.000  C
  C92      1.0000 0.67147  0.07739  0.83638  Biso   1.000  C
  C93      1.0000 0.74672  0.15449  0.76490  Biso   1.000  C
  C94      1.0000 0.67154  0.07739  0.83643  Biso   1.000  C
  C95      1.0000 0.59402  0.99442  0.89902  Biso   1.000  C
  C96      1.0000 0.71342  0.99878  0.04258  Biso   1.000  C
  C97      1.0000 0.71343  0.99878  0.04263  Biso   1.000  C
  H60      1.0000 0.46960  0.37041  0.43751  Biso   1.000  H
  C98      1.0000 0.55174  0.29689  0.44251  Biso   1.000  C
  H61      1.0000 0.46966  0.37041  0.43751  Biso   1.000  H
  H62      1.0000 0.61822  0.21691  0.42781  Biso   1.000  H
  C99      1.0000 0.28658  0.00122  0.95742  Biso   1.000  C
  C100     1.0000 0.28664  0.00122  0.95742  Biso   1.000  C
  C101     1.0000 0.16532  0.21808  0.86432  Biso   1.000  C
  H63      1.0000 0.23481  0.25350  0.95651  Biso   1.000  H
  H64      1.0000 0.29018  0.21642  0.91150  Biso   1.000  H
  H65      1.0000 0.29024  0.21642  0.91150  Biso   1.000  H
  H66      1.0000 0.45899  0.01688  0.20100  Biso   1.000  H
  C102     1.0000 0.54481  0.04911  0.14483  Biso   1.000  C
  H67      1.0000 0.45905  0.01688  0.20100  Biso   1.000  H
  H68      1.0000 0.49823  0.95930  0.16538  Biso   1.000  H
  H69      1.0000 0.49824  0.95930  0.16544  Biso   1.000  H
  C103     1.0000 0.32853  0.92261  0.16362  Biso   1.000  C
  C104     1.0000 0.30699  0.91948  0.04541  Biso   1.000  C
  C105     1.0000 0.30705  0.91948  0.04541  Biso   1.000  C
  H70      1.0000 0.91089  0.14842  0.45428  Biso   1.000  H
  C106     1.0000 0.96612  0.10131  0.53768  Biso   1.000  C
  H71      1.0000 0.91096  0.14842  0.45433  Biso   1.000  H
  C107     1.0000 0.96613  0.10131  0.53773  Biso   1.000  C
  H72      1.0000 0.04354  0.05459  0.61012  Biso   1.000  H
  H73      1.0000 0.89600  0.86841  0.26611  Biso   1.000  H
  H74      1.0000 0.92340  0.79880  0.24449  Biso   1.000  H
  C108     1.0000 0.81949  0.83250  0.18069  Biso   1.000  C
  H75      1.0000 0.89606  0.86841  0.26611  Biso   1.000  H
  H76      1.0000 0.92341  0.79880  0.24454  Biso   1.000  H
  C109     1.0000 0.81956  0.83250  0.18074  Biso   1.000  C
  C110     1.0000 0.10941  0.80369  0.11472  Biso   1.000  C
  C111     1.0000 0.24172  0.84351  0.10638  Biso   1.000  C
  C112     1.0000 0.24172  0.84351  0.10643  Biso   1.000  C
  H77      1.0000 0.34470  0.89531  0.29799  Biso   1.000  H
  H78      1.0000 0.30569  0.83950  0.33638  Biso   1.000  H
  C113     1.0000 0.39193  0.80501  0.28278  Biso   1.000  C
  H79      1.0000 0.34471  0.89531  0.29804  Biso   1.000  H
  H80      1.0000 0.30576  0.83950  0.33643  Biso   1.000  H
  C114     1.0000 0.39194  0.80501  0.28283  Biso   1.000  C
  O19      1.0000 0.90490  0.19959  0.82062  Biso   1.000  O
  H81      1.0000 0.90398  0.15258  0.90251  Biso   1.000  H
  H82      1.0000 0.92659  0.22669  0.91251  Biso   1.000  H
  H83      1.0000 0.90404  0.15258  0.90251  Biso   1.000  H
  H84      1.0000 0.64839  0.05772  0.79612  Biso   1.000  H
  C115     1.0000 0.82056  0.11922  0.75228  Biso   1.000  C
  C116     1.0000 0.82063  0.11922  0.75233  Biso   1.000  C
  H85      1.0000 0.76082  0.20091  0.77122  Biso   1.000  H
  C117     1.0000 0.67549  0.14930  0.70560  Biso   1.000  C
  C118     1.0000 0.64321  0.93269  0.90478  Biso   1.000  C
  H86      1.0000 0.57097  0.99858  0.94090  Biso   1.000  H
  C119     1.0000 0.52251  0.99638  0.84047  Biso   1.000  C
  C120     1.0000 0.64322  0.93269  0.90483  Biso   1.000  C
  H87      1.0000 0.57103  0.99858  0.94090  Biso   1.000  H
  C121     1.0000 0.52252  0.99638  0.84053  Biso   1.000  C
  O20      1.0000 0.66672  0.94531  0.02708  Biso   1.000  O
  H88      1.0000 0.76342  0.99359  0.02389  Biso   1.000  H
  O21      1.0000 0.66673  0.94531  0.02713  Biso   1.000  O
  H89      1.0000 0.72782  0.00161  0.09128  Biso   1.000  H
  H90      1.0000 0.72783  0.00161  0.09133  Biso   1.000  H
  H91      1.0000 0.58354  0.31029  0.48252  Biso   1.000  H
  O22      1.0000 0.32371  0.94228  0.98141  Biso   1.000  O
  H92      1.0000 0.27218  0.99839  0.90872  Biso   1.000  H
  H93      1.0000 0.27224  0.99839  0.90872  Biso   1.000  H
  H94      1.0000 0.23658  0.00641  0.97611  Biso   1.000  H
  H95      1.0000 0.23664  0.00641  0.97611  Biso   1.000  H
  C122     1.0000 0.18051  0.16750  0.81931  Biso   1.000  C
  H96      1.0000 0.16362  0.26020  0.84189  Biso   1.000  H
  H97      1.0000 0.11362  0.21089  0.87967  Biso   1.000  H
  H98      1.0000 0.16363  0.26020  0.84194  Biso   1.000  H
  H99      1.0000 0.11363  0.21089  0.87972  Biso   1.000  H
  H100     1.0000 0.52380  0.09329  0.14008  Biso   1.000  H
  H101     1.0000 0.56093  0.03659  0.10219  Biso   1.000  H
  C123     1.0000 0.61969  0.04819  0.19958  Biso   1.000  C
  H102     1.0000 0.52381  0.09329  0.14013  Biso   1.000  H
  H103     1.0000 0.56094  0.03659  0.10224  Biso   1.000  H
  C124     1.0000 0.61976  0.04819  0.19963  Biso   1.000  C
  H104     1.0000 0.35161  0.94228  0.20388  Biso   1.000  H
  H105     1.0000 0.35162  0.94228  0.20393  Biso   1.000  H
  C125     1.0000 0.25647  0.87100  0.04698  Biso   1.000  C
  C126     1.0000 0.25654  0.87100  0.04703  Biso   1.000  C
  H106     1.0000 0.92135  0.10038  0.56021  Biso   1.000  H
  H107     1.0000 0.77711  0.81978  0.20630  Biso   1.000  H
  H108     1.0000 0.80350  0.87262  0.15639  Biso   1.000  H
  C127     1.0000 0.83468  0.78192  0.13568  Biso   1.000  C
  C128     1.0000 0.83475  0.78192  0.13573  Biso   1.000  C
  O23      1.0000 0.18918  0.78970  0.10709  Biso   1.000  O
  O24      1.0000 0.18925  0.78970  0.10714  Biso   1.000  O
  H109     1.0000 0.09602  0.84742  0.09749  Biso   1.000  H
  H110     1.0000 0.07341  0.77331  0.08749  Biso   1.000  H
  H111     1.0000 0.07342  0.77331  0.08754  Biso   1.000  H
  H112     1.0000 0.40524  0.81289  0.23803  Biso   1.000  H
  H113     1.0000 0.37272  0.76030  0.28409  Biso   1.000  H
  C129     1.0000 0.46760  0.81279  0.33410  Biso   1.000  C
  C130     1.0000 0.46766  0.81279  0.33410  Biso   1.000  C
  C131     1.0000 0.90091  0.14089  0.78349  Biso   1.000  C
  C132     1.0000 0.82110  0.06130  0.71591  Biso   1.000  C
  H114     1.0000 0.65530  0.10469  0.70201  Biso   1.000  H
  H115     1.0000 0.69431  0.16050  0.66362  Biso   1.000  H
  C133     1.0000 0.60807  0.19499  0.71722  Biso   1.000  C
  C134     1.0000 0.60813  0.19499  0.71722  Biso   1.000  C
  C135     1.0000 0.68172  0.90891  0.96929  Biso   1.000  C
  C136     1.0000 0.65979  0.89791  0.85088  Biso   1.000  C
  C137     1.0000 0.68173  0.90891  0.96934  Biso   1.000  C
  C138     1.0000 0.65980  0.89791  0.85093  Biso   1.000  C
  H116     1.0000 0.54101  0.98312  0.79900  Biso   1.000  H
  C139     1.0000 0.45519  0.95089  0.85517  Biso   1.000  C
  C140     1.0000 0.45520  0.95089  0.85523  Biso   1.000  C
  H117     1.0000 0.50177  0.04070  0.83462  Biso   1.000  H
  H118     1.0000 0.50183  0.04070  0.83462  Biso   1.000  H
  C141     1.0000 0.09770  0.15899  0.77218  Biso   1.000  C
  H119     1.0000 0.22289  0.18022  0.79370  Biso   1.000  H
  H120     1.0000 0.19650  0.12738  0.84361  Biso   1.000  H
  C142     1.0000 0.09771  0.15899  0.77223  Biso   1.000  C
  C143     1.0000 0.64728  0.10708  0.22939  Biso   1.000  C
  C144     1.0000 0.64735  0.10708  0.22944  Biso   1.000  C
  C145     1.0000 0.66140  0.99061  0.21858  Biso   1.000  C
  C146     1.0000 0.66141  0.99061  0.21863  Biso   1.000  C
  O25      1.0000 0.21151  0.84659  0.98682  Biso   1.000  O
  H121     1.0000 0.83638  0.73980  0.15811  Biso   1.000  H
  H122     1.0000 0.88638  0.78911  0.12033  Biso   1.000  H
  C147     1.0000 0.76231  0.78358  0.07320  Biso   1.000  C
  H123     1.0000 0.83644  0.73980  0.15811  Biso   1.000  H
  H124     1.0000 0.88644  0.78911  0.12033  Biso   1.000  H
  C148     1.0000 0.52280  0.86210  0.32582  Biso   1.000  C
  C149     1.0000 0.48650  0.76690  0.38533  Biso   1.000  C
  C150     1.0000 0.52286  0.86210  0.32582  Biso   1.000  C
  C151     1.0000 0.48656  0.76690  0.38533  Biso   1.000  C
  C152     1.0000 0.96777  0.10620  0.77592  Biso   1.000  C
  C153     1.0000 0.96783  0.10620  0.77592  Biso   1.000  C
  C154     1.0000 0.89160  0.02710  0.70661  Biso   1.000  C
  H125     1.0000 0.77120  0.04408  0.69651  Biso   1.000  H
  H126     1.0000 0.59476  0.18711  0.76197  Biso   1.000  H
  H127     1.0000 0.62728  0.23970  0.71591  Biso   1.000  H
  C155     1.0000 0.53240  0.18721  0.66590  Biso   1.000  C
  H128     1.0000 0.59483  0.18711  0.76203  Biso   1.000  H
  C156     1.0000 0.72931  0.85740  0.97419  Biso   1.000  C
  C157     1.0000 0.72932  0.85740  0.97424  Biso   1.000  C
  C158     1.0000 0.70862  0.84199  0.85598  Biso   1.000  C
  H129     1.0000 0.63730  0.91219  0.80799  Biso   1.000  H
  C159     1.0000 0.70862  0.84199  0.85603  Biso   1.000  C
  H130     1.0000 0.47620  0.90671  0.85992  Biso   1.000  H
  H131     1.0000 0.43907  0.96341  0.89781  Biso   1.000  H
  C160     1.0000 0.38031  0.95181  0.80042  Biso   1.000  C
  H132     1.0000 0.43913  0.96341  0.89781  Biso   1.000  H
  O26      1.0000 0.04097  0.12738  0.81411  Biso   1.000  O
  H133     1.0000 0.10400  0.13159  0.73389  Biso   1.000  H
  H134     1.0000 0.07660  0.20120  0.75551  Biso   1.000  H
  O27      1.0000 0.04103  0.12738  0.81411  Biso   1.000  O
  H135     1.0000 0.10401  0.13159  0.73394  Biso   1.000  H
  C161     1.0000 0.71651  0.10840  0.27808  Biso   1.000  C
  H136     1.0000 0.61943  0.14568  0.21671  Biso   1.000  H
  C162     1.0000 0.71652  0.10840  0.27813  Biso   1.000  C
  H137     1.0000 0.64301  0.95108  0.19872  Biso   1.000  H
  C163     1.0000 0.73070  0.99188  0.26732  Biso   1.000  C
  C164     1.0000 0.73076  0.99188  0.26732  Biso   1.000  C
  C165     1.0000 0.23729  0.78251  0.96681  Biso   1.000  C
  C166     1.0000 0.25685  0.82531  0.93383  Biso   1.000  C
  H138     1.0000 0.76519  0.74650  0.04349  Biso   1.000  H
  H139     1.0000 0.70982  0.78358  0.08850  Biso   1.000  H
  O28      1.0000 0.77637  0.84600  0.03880  Biso   1.000  O
  O29      1.0000 0.77643  0.84600  0.03880  Biso   1.000  O
  H140     1.0000 0.51023  0.89282  0.29162  Biso   1.000  H
  C167     1.0000 0.59684  0.86542  0.36881  Biso   1.000  C
  C168     1.0000 0.56040  0.77018  0.42821  Biso   1.000  C
  H141     1.0000 0.44963  0.73388  0.39078  Biso   1.000  H
  C169     1.0000 0.56046  0.77018  0.42821  Biso   1.000  C
  H142     1.0000 0.44963  0.73388  0.39083  Biso   1.000  H
  C170     1.0000 0.96659  0.05352  0.74091  Biso   1.000  C
  C171     1.0000 0.88897  0.96292  0.66999  Biso   1.000  C
  C172     1.0000 0.88904  0.96292  0.67004  Biso   1.000  C
  C173     1.0000 0.47720  0.13790  0.67418  Biso   1.000  C
  C174     1.0000 0.51350  0.23310  0.61467  Biso   1.000  C
  C175     1.0000 0.47721  0.13790  0.67423  Biso   1.000  C
  C176     1.0000 0.51351  0.23310  0.61472  Biso   1.000  C
  C177     1.0000 0.74521  0.82159  0.92180  Biso   1.000  C
  C178     1.0000 0.73148  0.80398  0.79622  Biso   1.000  C
  C179     1.0000 0.73154  0.80398  0.79622  Biso   1.000  C
  C180     1.0000 0.35272  0.89292  0.77061  Biso   1.000  C
  C181     1.0000 0.33860  0.00939  0.78142  Biso   1.000  C
  C182     1.0000 0.75823  0.05078  0.29708  Biso   1.000  C
  H143     1.0000 0.73503  0.14788  0.29799  Biso   1.000  H
  C183     1.0000 0.75824  0.05078  0.29713  Biso   1.000  C
  H144     1.0000 0.73504  0.14788  0.29804  Biso   1.000  H
  H145     1.0000 0.75849  0.95328  0.28000  Biso   1.000  H
  H146     1.0000 0.75855  0.95328  0.28000  Biso   1.000  H
  C184     1.0000 0.21450  0.77781  0.88912  Biso   1.000  C
  H147     1.0000 0.29551  0.77752  0.98000  Biso   1.000  H
  H148     1.0000 0.21012  0.74841  0.98838  Biso   1.000  H
  H149     1.0000 0.21013  0.74841  0.98843  Biso   1.000  H
  H150     1.0000 0.29242  0.78911  0.94954  Biso   1.000  H
  C185     1.0000 0.19191  0.80349  0.87250  Biso   1.000  C
  H151     1.0000 0.28963  0.86092  0.92069  Biso   1.000  H
  H152     1.0000 0.63370  0.89840  0.36330  Biso   1.000  H
  C186     1.0000 0.61560  0.81949  0.41998  Biso   1.000  C
  H153     1.0000 0.63376  0.89840  0.36330  Biso   1.000  H
  C187     1.0000 0.61561  0.81949  0.42003  Biso   1.000  C
  H154     1.0000 0.57304  0.73951  0.46251  Biso   1.000  H
  O30      1.0000 0.03777  0.01981  0.73490  Biso   1.000  O
  O31      1.0000 0.03783  0.01981  0.73490  Biso   1.000  O
  C188     1.0000 0.88658  0.90970  0.71919  Biso   1.000  C
  H155     1.0000 0.94146  0.95881  0.65408  Biso   1.000  H
  C189     1.0000 0.82429  0.95930  0.60659  Biso   1.000  C
  C190     1.0000 0.88659  0.90970  0.71924  Biso   1.000  C
  H156     1.0000 0.94153  0.95881  0.65413  Biso   1.000  H
  H157     1.0000 0.48977  0.10718  0.70838  Biso   1.000  H
  C191     1.0000 0.40316  0.13458  0.63119  Biso   1.000  C
  H158     1.0000 0.48984  0.10718  0.70843  Biso   1.000  H
  C192     1.0000 0.40322  0.13458  0.63119  Biso   1.000  C
  C193     1.0000 0.43960  0.22982  0.57179  Biso   1.000  C
  H159     1.0000 0.55037  0.26612  0.60922  Biso   1.000  H
  C194     1.0000 0.43961  0.22982  0.57184  Biso   1.000  C
  O32      1.0000 0.78930  0.76421  0.93009  Biso   1.000  O
  O33      1.0000 0.78931  0.76421  0.93014  Biso   1.000  O
  C195     1.0000 0.81059  0.83461  0.77910  Biso   1.000  C
  H160     1.0000 0.74262  0.75859  0.81012  Biso   1.000  H
  C196     1.0000 0.66671  0.80442  0.72980  Biso   1.000  C
  C197     1.0000 0.28349  0.89160  0.72192  Biso   1.000  C
  H161     1.0000 0.38057  0.85432  0.78329  Biso   1.000  H
  H162     1.0000 0.38063  0.85432  0.78329  Biso   1.000  H
  H163     1.0000 0.35699  0.04892  0.80128  Biso   1.000  H
  C198     1.0000 0.26930  0.00812  0.73268  Biso   1.000  C
  H164     1.0000 0.35700  0.04892  0.80133  Biso   1.000  H
  C199     1.0000 0.26931  0.00812  0.73273  Biso   1.000  C
  H165     1.0000 0.80461  0.05171  0.32971  Biso   1.000  H
  C200     1.0000 0.13479  0.74039  0.87220  Biso   1.000  C
  H166     1.0000 0.25709  0.75531  0.87038  Biso   1.000  H
  H167     1.0000 0.20850  0.82130  0.86972  Biso   1.000  H
  H168     1.0000 0.25710  0.75531  0.87043  Biso   1.000  H
  C201     1.0000 0.13782  0.75242  0.90074  Biso   1.000  C
  H169     1.0000 0.21824  0.78451  0.83724  Biso   1.000  H
  H170     1.0000 0.15964  0.84072  0.85391  Biso   1.000  H
  H171     1.0000 0.66512  0.82169  0.44882  Biso   1.000  H
  C202     1.0000 0.05768  0.96390  0.77652  Biso   1.000  C
  C203     1.0000 0.05774  0.96390  0.77652  Biso   1.000  C
  C204     1.0000 0.81408  0.88211  0.73318  Biso   1.000  C
  C205     1.0000 0.95826  0.88582  0.75728  Biso   1.000  C
  C206     1.0000 0.81409  0.88211  0.73323  Biso   1.000  C
  C207     1.0000 0.95833  0.88582  0.75733  Biso   1.000  C
  H172     1.0000 0.83009  0.99741  0.57901  Biso   1.000  H
  H173     1.0000 0.77105  0.96160  0.62048  Biso   1.000  H
  C208     1.0000 0.82709  0.89942  0.56370  Biso   1.000  C
  H174     1.0000 0.77112  0.96160  0.62053  Biso   1.000  H
  H175     1.0000 0.36630  0.10160  0.63670  Biso   1.000  H
  C209     1.0000 0.38440  0.18051  0.58002  Biso   1.000  C
  H176     1.0000 0.42696  0.26049  0.53749  Biso   1.000  H
  H177     1.0000 0.42703  0.26049  0.53754  Biso   1.000  H
  C210     1.0000 0.87222  0.76969  0.92231  Biso   1.000  C
  C211     1.0000 0.88370  0.81152  0.81330  Biso   1.000  C
  H178     1.0000 0.68910  0.78461  0.69272  Biso   1.000  H
  H179     1.0000 0.65031  0.84889  0.71732  Biso   1.000  H
  C212     1.0000 0.59542  0.76548  0.74571  Biso   1.000  C
  C213     1.0000 0.24177  0.94922  0.70292  Biso   1.000  C
  H180     1.0000 0.26497  0.85212  0.70201  Biso   1.000  H
  C214     1.0000 0.24183  0.94922  0.70292  Biso   1.000  C
  H181     1.0000 0.26503  0.85212  0.70201  Biso   1.000  H
  H182     1.0000 0.24151  0.04672  0.72000  Biso   1.000  H
  C215     1.0000 0.07869  0.77742  0.81572  Biso   1.000  C
  H183     1.0000 0.14518  0.69651  0.85720  Biso   1.000  H
  H184     1.0000 0.10861  0.73701  0.91210  Biso   1.000  H
  C216     1.0000 0.05504  0.75218  0.85053  Biso   1.000  C
  H185     1.0000 0.16302  0.70952  0.90251  Biso   1.000  H
  H186     1.0000 0.12909  0.76431  0.94590  Biso   1.000  H
  O34      1.0000 0.03309  0.90568  0.74611  Biso   1.000  O
  H187     1.0000 0.03296  0.96859  0.81688  Biso   1.000  H
  H188     1.0000 0.11617  0.96258  0.79021  Biso   1.000  H
  H189     1.0000 0.03303  0.96859  0.81693  Biso   1.000  H
  H190     1.0000 0.11623  0.96258  0.79021  Biso   1.000  H
  H191     1.0000 0.76538  0.89761  0.70929  Biso   1.000  H
  H192     1.0000 0.76538  0.89761  0.70934  Biso   1.000  H
  C217     1.0000 0.95338  0.83622  0.80441  Biso   1.000  C
  C218     1.0000 0.95344  0.83622  0.80441  Biso   1.000  C
  H193     1.0000 0.77866  0.89840  0.52981  Biso   1.000  H
  H194     1.0000 0.82621  0.86092  0.59189  Biso   1.000  H
  C219     1.0000 0.89991  0.89619  0.52941  Biso   1.000  C
  H195     1.0000 0.77872  0.89840  0.52981  Biso   1.000  H
  H196     1.0000 0.33488  0.17831  0.55118  Biso   1.000  H
  H197     1.0000 0.33489  0.17831  0.55123  Biso   1.000  H
  O35      1.0000 0.88609  0.75722  0.85659  Biso   1.000  O
  O36      1.0000 0.88610  0.75722  0.85664  Biso   1.000  O
  H198     1.0000 0.90393  0.73921  0.95292  Biso   1.000  H
  H199     1.0000 0.89102  0.81352  0.93509  Biso   1.000  H
  H200     1.0000 0.89103  0.81352  0.93514  Biso   1.000  H
  H201     1.0000 0.61439  0.72762  0.77279  Biso   1.000  H
  H202     1.0000 0.56260  0.79209  0.77112  Biso   1.000  H
  C220     1.0000 0.54312  0.74298  0.67721  Biso   1.000  C
  H203     1.0000 0.61440  0.72762  0.77284  Biso   1.000  H
  H204     1.0000 0.19539  0.94829  0.67029  Biso   1.000  H
  O37      1.0000 0.02591  0.81959  0.84770  Biso   1.000  O
  H205     1.0000 0.04647  0.74650  0.78592  Biso   1.000  H
  H206     1.0000 0.11098  0.80320  0.78910  Biso   1.000  H
  H207     1.0000 0.04653  0.74650  0.78592  Biso   1.000  H
  H208     1.0000 0.11104  0.80320  0.78910  Biso   1.000  H
  H209     1.0000 0.06319  0.73750  0.80612  Biso   1.000  H
  H210     1.0000 0.01600  0.72341  0.86679  Biso   1.000  H
  C221     1.0000 0.97311  0.86870  0.55931  Biso   1.000  C
  C222     1.0000 0.89368  0.92491  0.46601  Biso   1.000  C
  C223     1.0000 0.56388  0.68702  0.64428  Biso   1.000  C
  C224     1.0000 0.47489  0.77898  0.65009  Biso   1.000  C
  C225     1.0000 0.56389  0.68702  0.64433  Biso   1.000  C
  C226     1.0000 0.47490  0.77898  0.65014  Biso   1.000  C
  H211     1.0000 0.97726  0.84948  0.60179  Biso   1.000  H
  H212     1.0000 0.97732  0.84948  0.60179  Biso   1.000  H
  C227     1.0000 0.04006  0.87002  0.52572  Biso   1.000  C
  C228     1.0000 0.04012  0.87002  0.52572  Biso   1.000  C
  C229     1.0000 0.96068  0.92618  0.43242  Biso   1.000  C
  H213     1.0000 0.84468  0.94330  0.44601  Biso   1.000  H
  H214     1.0000 0.60946  0.66300  0.66241  Biso   1.000  H
  C230     1.0000 0.51647  0.66711  0.58452  Biso   1.000  C
  H215     1.0000 0.60952  0.66300  0.66241  Biso   1.000  H
  C231     1.0000 0.42747  0.75898  0.59028  Biso   1.000  C
  H216     1.0000 0.46102  0.81641  0.67211  Biso   1.000  H
  C232     1.0000 0.42748  0.75898  0.59033  Biso   1.000  C
  H217     1.0000 0.08911  0.85158  0.54572  Biso   1.000  H
  C233     1.0000 0.03388  0.89869  0.46232  Biso   1.000  C
  H218     1.0000 0.95646  0.94541  0.38988  Biso   1.000  H
  H219     1.0000 0.95647  0.94541  0.38993  Biso   1.000  H
  H220     1.0000 0.53040  0.62959  0.56249  Biso   1.000  H
  C234     1.0000 0.44826  0.70311  0.55749  Biso   1.000  C
  C235     1.0000 0.44832  0.70311  0.55749  Biso   1.000  C
  H221     1.0000 0.38178  0.78309  0.57219  Biso   1.000  H
  H222     1.0000 0.07865  0.89962  0.43979  Biso   1.000  H
  H223     1.0000 0.07871  0.89962  0.43979  Biso   1.000  H
  H224     1.0000 0.41646  0.68971  0.51748  Biso   1.000  H
  H225     1.0000 0.41653  0.68971  0.51753  Biso   1.000  H
  O38      1.0000 0.97415  0.18041  0.15230  Biso   1.000  O
  C236     1.0000 0.04662  0.16378  0.19559  Biso   1.000  C
  C237     1.0000 0.04663  0.16378  0.19564  Biso   1.000  C
  C238     1.0000 0.92131  0.22258  0.18428  Biso   1.000  C
  C239     1.0000 0.92132  0.22258  0.18433  Biso   1.000  C
  C240     1.0000 0.94503  0.24782  0.14952  Biso   1.000  C
  C241     1.0000 0.11630  0.18848  0.18670  Biso   1.000  C
  C242     1.0000 0.04174  0.11418  0.24272  Biso   1.000  C
  O39      1.0000 0.97409  0.18041  0.15230  Biso   1.000  O
  H226     1.0000 0.95353  0.25350  0.21408  Biso   1.000  H
  H227     1.0000 0.88902  0.19680  0.21090  Biso   1.000  H
  C243     1.0000 0.86521  0.25961  0.12780  Biso   1.000  C
  H228     1.0000 0.95354  0.25350  0.21413  Biso   1.000  H
  H229     1.0000 0.93682  0.26250  0.19393  Biso   1.000  H
  H230     1.0000 0.98400  0.27659  0.13321  Biso   1.000  H
  C244     1.0000 0.86219  0.24758  0.09931  Biso   1.000  C
  C245     1.0000 0.18941  0.16539  0.22090  Biso   1.000  C
  O40      1.0000 0.11391  0.24278  0.14341  Biso   1.000  O
  C246     1.0000 0.11342  0.09030  0.28081  Biso   1.000  C
  O41      1.0000 0.96691  0.09432  0.25389  Biso   1.000  O
  O42      1.0000 0.96692  0.09432  0.25394  Biso   1.000  O
  H231     1.0000 0.85482  0.30349  0.14280  Biso   1.000  H
  H232     1.0000 0.89139  0.26299  0.08790  Biso   1.000  H
  C247     1.0000 0.78550  0.22219  0.11088  Biso   1.000  C
  H233     1.0000 0.89145  0.26299  0.08790  Biso   1.000  H
  C248     1.0000 0.78551  0.22219  0.11093  Biso   1.000  C
  H234     1.0000 0.83698  0.29048  0.09749  Biso   1.000  H
  C249     1.0000 0.80809  0.19651  0.12750  Biso   1.000  C
  H235     1.0000 0.87091  0.23569  0.05410  Biso   1.000  H
  C250     1.0000 0.26853  0.19602  0.20383  Biso   1.000  C
  C251     1.0000 0.18592  0.11789  0.26682  Biso   1.000  C
  C252     1.0000 0.26852  0.19602  0.20378  Biso   1.000  C
  C253     1.0000 0.12778  0.23031  0.07769  Biso   1.000  C
  C254     1.0000 0.12785  0.23031  0.07774  Biso   1.000  C
  C255     1.0000 0.11103  0.03708  0.33001  Biso   1.000  C
  C256     1.0000 0.94232  0.03610  0.22348  Biso   1.000  C
  C257     1.0000 0.94233  0.03610  0.22353  Biso   1.000  C
  H236     1.0000 0.74291  0.24469  0.12962  Biso   1.000  H
  H237     1.0000 0.79150  0.17870  0.13028  Biso   1.000  H
  C258     1.0000 0.76271  0.21749  0.03319  Biso   1.000  C
  H238     1.0000 0.79151  0.17870  0.13033  Biso   1.000  H
  C259     1.0000 0.76272  0.21749  0.03324  Biso   1.000  C
  H239     1.0000 0.78183  0.21549  0.16281  Biso   1.000  H
  C260     1.0000 0.74322  0.17469  0.06622  Biso   1.000  C
  H240     1.0000 0.84042  0.15928  0.14609  Biso   1.000  H
  H241     1.0000 0.25738  0.24141  0.18988  Biso   1.000  H
  C261     1.0000 0.33329  0.19558  0.27020  Biso   1.000  C
  C262     1.0000 0.29138  0.15801  0.14402  Biso   1.000  C
  H242     1.0000 0.25745  0.24141  0.18994  Biso   1.000  H
  C263     1.0000 0.33335  0.19558  0.27020  Biso   1.000  C
  C264     1.0000 0.29144  0.15801  0.14402  Biso   1.000  C
  H243     1.0000 0.23462  0.10239  0.29071  Biso   1.000  H
  O43      1.0000 0.21070  0.23579  0.06991  Biso   1.000  O
  H244     1.0000 0.09607  0.26079  0.04708  Biso   1.000  H
  H245     1.0000 0.10898  0.18648  0.06491  Biso   1.000  H
  H246     1.0000 0.09614  0.26079  0.04713  Biso   1.000  H
  H247     1.0000 0.10904  0.18648  0.06491  Biso   1.000  H
  H248     1.0000 0.05854  0.04119  0.34592  Biso   1.000  H
  C265     1.0000 0.17571  0.04070  0.39341  Biso   1.000  C
  C266     1.0000 0.10840  0.97290  0.29339  Biso   1.000  C
  C267     1.0000 0.10841  0.97290  0.29344  Biso   1.000  C
  O44      1.0000 0.96223  0.98019  0.26510  Biso   1.000  O
  H249     1.0000 0.96704  0.03141  0.18312  Biso   1.000  H
  H250     1.0000 0.88383  0.03742  0.20979  Biso   1.000  H
  H251     1.0000 0.88384  0.03742  0.20984  Biso   1.000  H
  H252     1.0000 0.70449  0.22248  0.02000  Biso   1.000  H
  H253     1.0000 0.78988  0.25159  0.01162  Biso   1.000  H
  O45      1.0000 0.78849  0.15341  0.01318  Biso   1.000  O
  H254     1.0000 0.70455  0.22248  0.02000  Biso   1.000  H
  H255     1.0000 0.78994  0.25159  0.01162  Biso   1.000  H
  O46      1.0000 0.78850  0.15341  0.01323  Biso   1.000  O
  H256     1.0000 0.70759  0.21089  0.05051  Biso   1.000  H
  H257     1.0000 0.71043  0.13908  0.07931  Biso   1.000  H
  H258     1.0000 0.31090  0.21539  0.30728  Biso   1.000  H
  H259     1.0000 0.34969  0.15111  0.28268  Biso   1.000  H
  C268     1.0000 0.40458  0.23452  0.25429  Biso   1.000  C
  H260     1.0000 0.31091  0.21539  0.30733  Biso   1.000  H
  H261     1.0000 0.34976  0.15111  0.28273  Biso   1.000  H
  C269     1.0000 0.40465  0.23452  0.25434  Biso   1.000  C
  C270     1.0000 0.34021  0.10209  0.14912  Biso   1.000  C
  C271     1.0000 0.25479  0.17841  0.07820  Biso   1.000  C
  C272     1.0000 0.25485  0.17841  0.07820  Biso   1.000  C
  H262     1.0000 0.22895  0.03840  0.37952  Biso   1.000  H
  C273     1.0000 0.17291  0.10058  0.43630  Biso   1.000  C
  H263     1.0000 0.16991  0.00259  0.42099  Biso   1.000  H
  H264     1.0000 0.16992  0.00259  0.42104  Biso   1.000  H
  C274     1.0000 0.03341  0.94648  0.25909  Biso   1.000  C
  C275     1.0000 0.17890  0.93870  0.28409  Biso   1.000  C
  C276     1.0000 0.03342  0.94648  0.25914  Biso   1.000  C
  C277     1.0000 0.74353  0.12900  0.95302  Biso   1.000  C
  H265     1.0000 0.38561  0.27238  0.22721  Biso   1.000  H
  H266     1.0000 0.43740  0.20791  0.22888  Biso   1.000  H
  C278     1.0000 0.45688  0.25702  0.32279  Biso   1.000  C
  H267     1.0000 0.43741  0.20791  0.22893  Biso   1.000  H
  C279     1.0000 0.45695  0.25702  0.32284  Biso   1.000  C
  H268     1.0000 0.36270  0.08781  0.19201  Biso   1.000  H
  C280     1.0000 0.35679  0.06731  0.09522  Biso   1.000  C
  C281     1.0000 0.35685  0.06731  0.09522  Biso   1.000  C
  C282     1.0000 0.27069  0.14260  0.02581  Biso   1.000  C
  C283     1.0000 0.27075  0.14260  0.02581  Biso   1.000  C
  H269     1.0000 0.22134  0.10160  0.47019  Biso   1.000  H
  H270     1.0000 0.17379  0.13908  0.40811  Biso   1.000  H
  C284     1.0000 0.10009  0.10381  0.47059  Biso   1.000  C
  H271     1.0000 0.22135  0.10160  0.47024  Biso   1.000  H
  H272     1.0000 0.17385  0.13908  0.40811  Biso   1.000  H
  C285     1.0000 0.10016  0.10381  0.47064  Biso   1.000  C
  C286     1.0000 0.03223  0.89380  0.22408  Biso   1.000  C
  C287     1.0000 0.03224  0.89380  0.22413  Biso   1.000  C
  H273     1.0000 0.22880  0.95592  0.30349  Biso   1.000  H
  C288     1.0000 0.17944  0.88078  0.24772  Biso   1.000  C
  H274     1.0000 0.22881  0.95592  0.30354  Biso   1.000  H
  C289     1.0000 0.75828  0.15649  0.89362  Biso   1.000  C
  C290     1.0000 0.69301  0.08052  0.95459  Biso   1.000  C
  C291     1.0000 0.75834  0.15649  0.89362  Biso   1.000  C
  C292     1.0000 0.69302  0.08052  0.95464  Biso   1.000  C
  C293     1.0000 0.43612  0.31298  0.35572  Biso   1.000  C
  C294     1.0000 0.52511  0.22102  0.34991  Biso   1.000  C
  C295     1.0000 0.31828  0.09109  0.03071  Biso   1.000  C
  C296     1.0000 0.40598  0.00558  0.10098  Biso   1.000  C
  C297     1.0000 0.31834  0.09109  0.03071  Biso   1.000  C
  C298     1.0000 0.40605  0.00558  0.10103  Biso   1.000  C
  O47      1.0000 0.22363  0.15400  0.96120  Biso   1.000  O
  C299     1.0000 0.02689  0.13130  0.44069  Biso   1.000  C
  C300     1.0000 0.10632  0.07509  0.53399  Biso   1.000  C
  C301     1.0000 0.02696  0.13130  0.44074  Biso   1.000  C
  C302     1.0000 0.10633  0.07509  0.53404  Biso   1.000  C
  O48      1.0000 0.95903  0.87262  0.18589  Biso   1.000  O
  C303     1.0000 0.09909  0.85911  0.21651  Biso   1.000  C
  C304     1.0000 0.09915  0.85911  0.21651  Biso   1.000  C
  C305     1.0000 0.25328  0.84551  0.23510  Biso   1.000  C
  C306     1.0000 0.25334  0.84551  0.23510  Biso   1.000  C
  O49      1.0000 0.81082  0.21030  0.89291  Biso   1.000  O
  C307     1.0000 0.72211  0.12880  0.83229  Biso   1.000  C
  C308     1.0000 0.65098  0.05161  0.89660  Biso   1.000  C
  C309     1.0000 0.65104  0.05161  0.89660  Biso   1.000  C
  O50      1.0000 0.67629  0.05772  0.01859  Biso   1.000  O
  O51      1.0000 0.67630  0.05772  0.01864  Biso   1.000  O
  H275     1.0000 0.39054  0.33700  0.33759  Biso   1.000  H
  C310     1.0000 0.48353  0.33289  0.41548  Biso   1.000  C
  H276     1.0000 0.39055  0.33700  0.33764  Biso   1.000  H
  C311     1.0000 0.48354  0.33289  0.41553  Biso   1.000  C
  C312     1.0000 0.57253  0.24102  0.40972  Biso   1.000  C
  H277     1.0000 0.53898  0.18359  0.32789  Biso   1.000  H
  H278     1.0000 0.53905  0.18359  0.32794  Biso   1.000  H
  O52      1.0000 0.33328  0.05469  0.97292  Biso   1.000  O
  O53      1.0000 0.33334  0.05469  0.97292  Biso   1.000  O
  H279     1.0000 0.42903  0.00142  0.05910  Biso   1.000  H
  C313     1.0000 0.47749  0.00362  0.15953  Biso   1.000  C
  C314     1.0000 0.47755  0.00362  0.15953  Biso   1.000  C
  C315     1.0000 0.34902  0.94839  0.10340  Biso   1.000  C
  C316     1.0000 0.23769  0.21642  0.92680  Biso   1.000  C
  H280     1.0000 0.02274  0.15052  0.39821  Biso   1.000  H
  C317     1.0000 0.95994  0.12998  0.47428  Biso   1.000  C
  C318     1.0000 0.95995  0.12998  0.47433  Biso   1.000  C
  C319     1.0000 0.03932  0.07382  0.56758  Biso   1.000  C
  H281     1.0000 0.15532  0.05670  0.55399  Biso   1.000  H
  C320     1.0000 0.03933  0.07382  0.56763  Biso   1.000  C
  H282     1.0000 0.15532  0.05670  0.55404  Biso   1.000  H
  C321     1.0000 0.90230  0.84101  0.22782  Biso   1.000  C
  O54      1.0000 0.09510  0.80041  0.17938  Biso   1.000  O
  O55      1.0000 0.09511  0.80041  0.17943  Biso   1.000  O
  C322     1.0000 0.27789  0.87120  0.16771  Biso   1.000  C
  C323     1.0000 0.27795  0.87120  0.16771  Biso   1.000  C
  H283     1.0000 0.23918  0.79909  0.22878  Biso   1.000  H
  C324     1.0000 0.32451  0.85070  0.29440  Biso   1.000  C
  H284     1.0000 0.23925  0.79909  0.22883  Biso   1.000  H
  C325     1.0000 0.89059  0.19631  0.88528  Biso   1.000  C
  C326     1.0000 0.89060  0.19631  0.88533  Biso   1.000  C
  C327     1.0000 0.67147  0.07739  0.83638  Biso   1.000  C
  C328     1.0000 0.74672  0.15449  0.76490  Biso   1.000  C
  C329     1.0000 0.67154  0.07739  0.83643  Biso   1.000  C
  C330     1.0000 0.59402  0.99442  0.89902  Biso   1.000  C
  C331     1.0000 0.71342  0.99878  0.04258  Biso   1.000  C
  C332     1.0000 0.71343  0.99878  0.04263  Biso   1.000  C
  C333     1.0000 0.55174  0.29689  0.44251  Biso   1.000  C
  H285     1.0000 0.46960  0.37041  0.43751  Biso   1.000  H
  H286     1.0000 0.46966  0.37041  0.43751  Biso   1.000  H
  H287     1.0000 0.61822  0.21691  0.42781  Biso   1.000  H
  C334     1.0000 0.28658  0.00122  0.95742  Biso   1.000  C
  C335     1.0000 0.28664  0.00122  0.95742  Biso   1.000  C
  C336     1.0000 0.54481  0.04911  0.14483  Biso   1.000  C
  H288     1.0000 0.45899  0.01688  0.20100  Biso   1.000  H
  H289     1.0000 0.45905  0.01688  0.20100  Biso   1.000  H
  H290     1.0000 0.49823  0.95930  0.16538  Biso   1.000  H
  H291     1.0000 0.49824  0.95930  0.16544  Biso   1.000  H
  C337     1.0000 0.32853  0.92261  0.16362  Biso   1.000  C
  C338     1.0000 0.30699  0.91948  0.04541  Biso   1.000  C
  C339     1.0000 0.30705  0.91948  0.04541  Biso   1.000  C
  C340     1.0000 0.16532  0.21808  0.86432  Biso   1.000  C
  H292     1.0000 0.23481  0.25350  0.95651  Biso   1.000  H
  H293     1.0000 0.29018  0.21642  0.91150  Biso   1.000  H
  H294     1.0000 0.29024  0.21642  0.91150  Biso   1.000  H
  H295     1.0000 0.91089  0.14842  0.45428  Biso   1.000  H
  C341     1.0000 0.96612  0.10131  0.53768  Biso   1.000  C
  H296     1.0000 0.91096  0.14842  0.45433  Biso   1.000  H
  C342     1.0000 0.96613  0.10131  0.53773  Biso   1.000  C
  H297     1.0000 0.04354  0.05459  0.61012  Biso   1.000  H
  H298     1.0000 0.89600  0.86841  0.26611  Biso   1.000  H
  H299     1.0000 0.92340  0.79880  0.24449  Biso   1.000  H
  C343     1.0000 0.81949  0.83250  0.18069  Biso   1.000  C
  H300     1.0000 0.89606  0.86841  0.26611  Biso   1.000  H
  H301     1.0000 0.92341  0.79880  0.24454  Biso   1.000  H
  C344     1.0000 0.81956  0.83250  0.18074  Biso   1.000  C
  C345     1.0000 0.10941  0.80369  0.11472  Biso   1.000  C
  C346     1.0000 0.24172  0.84351  0.10638  Biso   1.000  C
  C347     1.0000 0.24172  0.84351  0.10643  Biso   1.000  C
  H302     1.0000 0.34470  0.89531  0.29799  Biso   1.000  H
  H303     1.0000 0.30569  0.83950  0.33638  Biso   1.000  H
  C348     1.0000 0.39193  0.80501  0.28278  Biso   1.000  C
  H304     1.0000 0.34471  0.89531  0.29804  Biso   1.000  H
  H305     1.0000 0.30576  0.83950  0.33643  Biso   1.000  H
  C349     1.0000 0.39194  0.80501  0.28283  Biso   1.000  C
  O56      1.0000 0.90490  0.19959  0.82062  Biso   1.000  O
  H306     1.0000 0.90398  0.15258  0.90251  Biso   1.000  H
  H307     1.0000 0.92659  0.22669  0.91251  Biso   1.000  H
  H308     1.0000 0.90404  0.15258  0.90251  Biso   1.000  H
  H309     1.0000 0.64839  0.05772  0.79612  Biso   1.000  H
  C350     1.0000 0.82056  0.11922  0.75228  Biso   1.000  C
  C351     1.0000 0.82063  0.11922  0.75233  Biso   1.000  C
  H310     1.0000 0.76082  0.20091  0.77122  Biso   1.000  H
  C352     1.0000 0.67549  0.14930  0.70560  Biso   1.000  C
  C353     1.0000 0.64321  0.93269  0.90478  Biso   1.000  C
  H311     1.0000 0.57097  0.99858  0.94090  Biso   1.000  H
  C354     1.0000 0.52251  0.99638  0.84047  Biso   1.000  C
  C355     1.0000 0.64322  0.93269  0.90483  Biso   1.000  C
  H312     1.0000 0.57103  0.99858  0.94090  Biso   1.000  H
  C356     1.0000 0.52252  0.99638  0.84053  Biso   1.000  C
  O57      1.0000 0.66672  0.94531  0.02708  Biso   1.000  O
  H313     1.0000 0.76342  0.99359  0.02389  Biso   1.000  H
  O58      1.0000 0.66673  0.94531  0.02713  Biso   1.000  O
  H314     1.0000 0.72782  0.00161  0.09128  Biso   1.000  H
  H315     1.0000 0.72783  0.00161  0.09133  Biso   1.000  H
  H316     1.0000 0.58354  0.31029  0.48252  Biso   1.000  H
  O59      1.0000 0.32371  0.94228  0.98141  Biso   1.000  O
  H317     1.0000 0.27218  0.99839  0.90872  Biso   1.000  H
  H318     1.0000 0.27224  0.99839  0.90872  Biso   1.000  H
  H319     1.0000 0.23658  0.00641  0.97611  Biso   1.000  H
  H320     1.0000 0.23664  0.00641  0.97611  Biso   1.000  H
  H321     1.0000 0.52380  0.09329  0.14008  Biso   1.000  H
  H322     1.0000 0.56093  0.03659  0.10219  Biso   1.000  H
  C357     1.0000 0.61969  0.04819  0.19958  Biso   1.000  C
  H323     1.0000 0.52381  0.09329  0.14013  Biso   1.000  H
  H324     1.0000 0.56094  0.03659  0.10224  Biso   1.000  H
  C358     1.0000 0.61976  0.04819  0.19963  Biso   1.000  C
  H325     1.0000 0.35161  0.94228  0.20388  Biso   1.000  H
  H326     1.0000 0.35162  0.94228  0.20393  Biso   1.000  H
  C359     1.0000 0.25647  0.87100  0.04698  Biso   1.000  C
  C360     1.0000 0.25654  0.87100  0.04703  Biso   1.000  C
  C361     1.0000 0.18051  0.16750  0.81931  Biso   1.000  C
  H327     1.0000 0.16362  0.26020  0.84189  Biso   1.000  H
  H328     1.0000 0.11362  0.21089  0.87967  Biso   1.000  H
  H329     1.0000 0.16363  0.26020  0.84194  Biso   1.000  H
  H330     1.0000 0.11363  0.21089  0.87972  Biso   1.000  H
  H331     1.0000 0.92135  0.10038  0.56021  Biso   1.000  H
  H332     1.0000 0.77711  0.81978  0.20630  Biso   1.000  H
  H333     1.0000 0.80350  0.87262  0.15639  Biso   1.000  H
  C362     1.0000 0.83468  0.78192  0.13568  Biso   1.000  C
  C363     1.0000 0.83475  0.78192  0.13573  Biso   1.000  C
  O60      1.0000 0.18918  0.78970  0.10709  Biso   1.000  O
  O61      1.0000 0.18925  0.78970  0.10714  Biso   1.000  O
  H334     1.0000 0.09602  0.84742  0.09749  Biso   1.000  H
  H335     1.0000 0.07341  0.77331  0.08749  Biso   1.000  H
  H336     1.0000 0.07342  0.77331  0.08754  Biso   1.000  H
  H337     1.0000 0.40524  0.81289  0.23803  Biso   1.000  H
  H338     1.0000 0.37272  0.76030  0.28409  Biso   1.000  H
  C364     1.0000 0.46760  0.81279  0.33410  Biso   1.000  C
  C365     1.0000 0.46766  0.81279  0.33410  Biso   1.000  C
  C366     1.0000 0.90091  0.14089  0.78349  Biso   1.000  C
  C367     1.0000 0.82110  0.06130  0.71591  Biso   1.000  C
  H339     1.0000 0.65530  0.10469  0.70201  Biso   1.000  H
  H340     1.0000 0.69431  0.16050  0.66362  Biso   1.000  H
  C368     1.0000 0.60807  0.19499  0.71722  Biso   1.000  C
  C369     1.0000 0.60813  0.19499  0.71722  Biso   1.000  C
  C370     1.0000 0.68172  0.90891  0.96929  Biso   1.000  C
  C371     1.0000 0.65979  0.89791  0.85088  Biso   1.000  C
  C372     1.0000 0.68173  0.90891  0.96934  Biso   1.000  C
  C373     1.0000 0.65980  0.89791  0.85093  Biso   1.000  C
  H341     1.0000 0.54101  0.98312  0.79900  Biso   1.000  H
  C374     1.0000 0.45519  0.95089  0.85517  Biso   1.000  C
  C375     1.0000 0.45520  0.95089  0.85523  Biso   1.000  C
  H342     1.0000 0.50177  0.04070  0.83462  Biso   1.000  H
  H343     1.0000 0.50183  0.04070  0.83462  Biso   1.000  H
  C376     1.0000 0.64728  0.10708  0.22939  Biso   1.000  C
  C377     1.0000 0.64735  0.10708  0.22944  Biso   1.000  C
  C378     1.0000 0.66140  0.99061  0.21858  Biso   1.000  C
  C379     1.0000 0.66141  0.99061  0.21863  Biso   1.000  C
  O62      1.0000 0.21151  0.84659  0.98682  Biso   1.000  O
  C380     1.0000 0.09770  0.15899  0.77218  Biso   1.000  C
  H344     1.0000 0.22289  0.18022  0.79370  Biso   1.000  H
  H345     1.0000 0.19650  0.12738  0.84361  Biso   1.000  H
  C381     1.0000 0.09771  0.15899  0.77223  Biso   1.000  C
  H346     1.0000 0.83638  0.73980  0.15811  Biso   1.000  H
  H347     1.0000 0.88638  0.78911  0.12033  Biso   1.000  H
  C382     1.0000 0.76231  0.78358  0.07320  Biso   1.000  C
  H348     1.0000 0.83644  0.73980  0.15811  Biso   1.000  H
  H349     1.0000 0.88644  0.78911  0.12033  Biso   1.000  H
  C383     1.0000 0.52280  0.86210  0.32582  Biso   1.000  C
  C384     1.0000 0.48650  0.76690  0.38533  Biso   1.000  C
  C385     1.0000 0.52286  0.86210  0.32582  Biso   1.000  C
  C386     1.0000 0.48656  0.76690  0.38533  Biso   1.000  C
  C387     1.0000 0.96777  0.10620  0.77592  Biso   1.000  C
  C388     1.0000 0.96783  0.10620  0.77592  Biso   1.000  C
  C389     1.0000 0.89160  0.02710  0.70661  Biso   1.000  C
  H350     1.0000 0.77120  0.04408  0.69651  Biso   1.000  H
  H351     1.0000 0.59476  0.18711  0.76197  Biso   1.000  H
  H352     1.0000 0.62728  0.23970  0.71591  Biso   1.000  H
  C390     1.0000 0.53240  0.18721  0.66590  Biso   1.000  C
  H353     1.0000 0.59483  0.18711  0.76203  Biso   1.000  H
  C391     1.0000 0.72931  0.85740  0.97419  Biso   1.000  C
  C392     1.0000 0.72932  0.85740  0.97424  Biso   1.000  C
  C393     1.0000 0.70862  0.84199  0.85598  Biso   1.000  C
  H354     1.0000 0.63730  0.91219  0.80799  Biso   1.000  H
  C394     1.0000 0.70862  0.84199  0.85603  Biso   1.000  C
  H355     1.0000 0.47620  0.90671  0.85992  Biso   1.000  H
  H356     1.0000 0.43907  0.96341  0.89781  Biso   1.000  H
  C395     1.0000 0.38031  0.95181  0.80042  Biso   1.000  C
  H357     1.0000 0.43913  0.96341  0.89781  Biso   1.000  H
  H358     1.0000 0.61943  0.14568  0.21671  Biso   1.000  H
  C396     1.0000 0.71651  0.10840  0.27808  Biso   1.000  C
  C397     1.0000 0.71652  0.10840  0.27813  Biso   1.000  C
  H359     1.0000 0.64301  0.95108  0.19872  Biso   1.000  H
  C398     1.0000 0.73070  0.99188  0.26732  Biso   1.000  C
  C399     1.0000 0.73076  0.99188  0.26732  Biso   1.000  C
  C400     1.0000 0.23729  0.78251  0.96681  Biso   1.000  C
  C401     1.0000 0.25685  0.82531  0.93383  Biso   1.000  C
  O63      1.0000 0.04097  0.12738  0.81411  Biso   1.000  O
  H360     1.0000 0.10400  0.13159  0.73389  Biso   1.000  H
  H361     1.0000 0.07660  0.20120  0.75551  Biso   1.000  H
  O64      1.0000 0.04103  0.12738  0.81411  Biso   1.000  O
  H362     1.0000 0.10401  0.13159  0.73394  Biso   1.000  H
  H363     1.0000 0.76519  0.74650  0.04349  Biso   1.000  H
  H364     1.0000 0.70982  0.78358  0.08850  Biso   1.000  H
  O65      1.0000 0.77637  0.84600  0.03880  Biso   1.000  O
  O66      1.0000 0.77643  0.84600  0.03880  Biso   1.000  O
  H365     1.0000 0.51023  0.89282  0.29162  Biso   1.000  H
  C402     1.0000 0.59684  0.86542  0.36881  Biso   1.000  C
  C403     1.0000 0.56040  0.77018  0.42821  Biso   1.000  C
  H366     1.0000 0.44963  0.73388  0.39078  Biso   1.000  H
  C404     1.0000 0.56046  0.77018  0.42821  Biso   1.000  C
  H367     1.0000 0.44963  0.73388  0.39083  Biso   1.000  H
  C405     1.0000 0.96659  0.05352  0.74091  Biso   1.000  C
  C406     1.0000 0.88897  0.96292  0.66999  Biso   1.000  C
  C407     1.0000 0.88904  0.96292  0.67004  Biso   1.000  C
  C408     1.0000 0.47720  0.13790  0.67418  Biso   1.000  C
  C409     1.0000 0.51350  0.23310  0.61467  Biso   1.000  C
  C410     1.0000 0.47721  0.13790  0.67423  Biso   1.000  C
  C411     1.0000 0.51351  0.23310  0.61472  Biso   1.000  C
  C412     1.0000 0.74521  0.82159  0.92180  Biso   1.000  C
  C413     1.0000 0.73148  0.80398  0.79622  Biso   1.000  C
  C414     1.0000 0.73154  0.80398  0.79622  Biso   1.000  C
  C415     1.0000 0.35272  0.89292  0.77061  Biso   1.000  C
  C416     1.0000 0.33860  0.00939  0.78142  Biso   1.000  C
  C417     1.0000 0.75823  0.05078  0.29708  Biso   1.000  C
  H368     1.0000 0.73503  0.14788  0.29799  Biso   1.000  H
  C418     1.0000 0.75824  0.05078  0.29713  Biso   1.000  C
  H369     1.0000 0.73504  0.14788  0.29804  Biso   1.000  H
  H370     1.0000 0.75849  0.95328  0.28000  Biso   1.000  H
  H371     1.0000 0.75855  0.95328  0.28000  Biso   1.000  H
  C419     1.0000 0.21450  0.77781  0.88912  Biso   1.000  C
  H372     1.0000 0.29551  0.77752  0.98000  Biso   1.000  H
  H373     1.0000 0.21012  0.74841  0.98838  Biso   1.000  H
  H374     1.0000 0.21013  0.74841  0.98843  Biso   1.000  H
  H375     1.0000 0.29242  0.78911  0.94954  Biso   1.000  H
  C420     1.0000 0.19191  0.80349  0.87250  Biso   1.000  C
  H376     1.0000 0.28963  0.86092  0.92069  Biso   1.000  H
  H377     1.0000 0.63370  0.89840  0.36330  Biso   1.000  H
  C421     1.0000 0.61560  0.81949  0.41998  Biso   1.000  C
  H378     1.0000 0.63376  0.89840  0.36330  Biso   1.000  H
  C422     1.0000 0.61561  0.81949  0.42003  Biso   1.000  C
  H379     1.0000 0.57304  0.73951  0.46251  Biso   1.000  H
  O67      1.0000 0.03777  0.01981  0.73490  Biso   1.000  O
  O68      1.0000 0.03783  0.01981  0.73490  Biso   1.000  O
  C423     1.0000 0.88658  0.90970  0.71919  Biso   1.000  C
  H380     1.0000 0.94146  0.95881  0.65408  Biso   1.000  H
  C424     1.0000 0.82429  0.95930  0.60659  Biso   1.000  C
  C425     1.0000 0.88659  0.90970  0.71924  Biso   1.000  C
  H381     1.0000 0.94153  0.95881  0.65413  Biso   1.000  H
  H382     1.0000 0.48977  0.10718  0.70838  Biso   1.000  H
  C426     1.0000 0.40316  0.13458  0.63119  Biso   1.000  C
  H383     1.0000 0.48984  0.10718  0.70843  Biso   1.000  H
  C427     1.0000 0.40322  0.13458  0.63119  Biso   1.000  C
  C428     1.0000 0.43960  0.22982  0.57179  Biso   1.000  C
  H384     1.0000 0.55037  0.26612  0.60922  Biso   1.000  H
  C429     1.0000 0.43961  0.22982  0.57184  Biso   1.000  C
  O69      1.0000 0.78930  0.76421  0.93009  Biso   1.000  O
  O70      1.0000 0.78931  0.76421  0.93014  Biso   1.000  O
  C430     1.0000 0.81059  0.83461  0.77910  Biso   1.000  C
  H385     1.0000 0.74262  0.75859  0.81012  Biso   1.000  H
  C431     1.0000 0.66671  0.80442  0.72980  Biso   1.000  C
  C432     1.0000 0.28349  0.89160  0.72192  Biso   1.000  C
  H386     1.0000 0.38057  0.85432  0.78329  Biso   1.000  H
  H387     1.0000 0.38063  0.85432  0.78329  Biso   1.000  H
  H388     1.0000 0.35699  0.04892  0.80128  Biso   1.000  H
  C433     1.0000 0.26930  0.00812  0.73268  Biso   1.000  C
  H389     1.0000 0.35700  0.04892  0.80133  Biso   1.000  H
  C434     1.0000 0.26931  0.00812  0.73273  Biso   1.000  C
  H390     1.0000 0.80461  0.05171  0.32971  Biso   1.000  H
  C435     1.0000 0.13479  0.74039  0.87220  Biso   1.000  C
  H391     1.0000 0.25709  0.75531  0.87038  Biso   1.000  H
  H392     1.0000 0.20850  0.82130  0.86972  Biso   1.000  H
  H393     1.0000 0.25710  0.75531  0.87043  Biso   1.000  H
  C436     1.0000 0.13782  0.75242  0.90074  Biso   1.000  C
  H394     1.0000 0.21824  0.78451  0.83724  Biso   1.000  H
  H395     1.0000 0.15964  0.84072  0.85391  Biso   1.000  H
  H396     1.0000 0.66512  0.82169  0.44882  Biso   1.000  H
  C437     1.0000 0.05768  0.96390  0.77652  Biso   1.000  C
  C438     1.0000 0.05774  0.96390  0.77652  Biso   1.000  C
  C439     1.0000 0.95826  0.88582  0.75728  Biso   1.000  C
  C440     1.0000 0.95833  0.88582  0.75733  Biso   1.000  C
  C441     1.0000 0.81408  0.88211  0.73318  Biso   1.000  C
  C442     1.0000 0.81409  0.88211  0.73323  Biso   1.000  C
  H397     1.0000 0.83009  0.99741  0.57901  Biso   1.000  H
  H398     1.0000 0.77105  0.96160  0.62048  Biso   1.000  H
  C443     1.0000 0.82709  0.89942  0.56370  Biso   1.000  C
  H399     1.0000 0.77112  0.96160  0.62053  Biso   1.000  H
  H400     1.0000 0.36630  0.10160  0.63670  Biso   1.000  H
  C444     1.0000 0.38440  0.18051  0.58002  Biso   1.000  C
  H401     1.0000 0.42696  0.26049  0.53749  Biso   1.000  H
  H402     1.0000 0.42703  0.26049  0.53754  Biso   1.000  H
  C445     1.0000 0.87222  0.76969  0.92231  Biso   1.000  C
  C446     1.0000 0.88370  0.81152  0.81330  Biso   1.000  C
  H403     1.0000 0.68910  0.78461  0.69272  Biso   1.000  H
  H404     1.0000 0.65031  0.84889  0.71732  Biso   1.000  H
  C447     1.0000 0.59542  0.76548  0.74571  Biso   1.000  C
  C448     1.0000 0.24177  0.94922  0.70292  Biso   1.000  C
  H405     1.0000 0.26497  0.85212  0.70201  Biso   1.000  H
  C449     1.0000 0.24183  0.94922  0.70292  Biso   1.000  C
  H406     1.0000 0.26503  0.85212  0.70201  Biso   1.000  H
  H407     1.0000 0.24151  0.04672  0.72000  Biso   1.000  H
  C450     1.0000 0.07869  0.77742  0.81572  Biso   1.000  C
  H408     1.0000 0.14518  0.69651  0.85720  Biso   1.000  H
  H409     1.0000 0.10861  0.73701  0.91210  Biso   1.000  H
  C451     1.0000 0.05504  0.75218  0.85053  Biso   1.000  C
  H410     1.0000 0.16302  0.70952  0.90251  Biso   1.000  H
  H411     1.0000 0.12909  0.76431  0.94590  Biso   1.000  H
  O71      1.0000 0.03309  0.90568  0.74611  Biso   1.000  O
  H412     1.0000 0.03296  0.96859  0.81688  Biso   1.000  H
  H413     1.0000 0.11617  0.96258  0.79021  Biso   1.000  H
  H414     1.0000 0.03303  0.96859  0.81693  Biso   1.000  H
  H415     1.0000 0.11623  0.96258  0.79021  Biso   1.000  H
  C452     1.0000 0.95338  0.83622  0.80441  Biso   1.000  C
  C453     1.0000 0.95344  0.83622  0.80441  Biso   1.000  C
  H416     1.0000 0.76538  0.89761  0.70929  Biso   1.000  H
  H417     1.0000 0.76538  0.89761  0.70934  Biso   1.000  H
  H418     1.0000 0.77866  0.89840  0.52981  Biso   1.000  H
  H419     1.0000 0.82621  0.86092  0.59189  Biso   1.000  H
  C454     1.0000 0.89991  0.89619  0.52941  Biso   1.000  C
  H420     1.0000 0.77872  0.89840  0.52981  Biso   1.000  H
  H421     1.0000 0.33488  0.17831  0.55118  Biso   1.000  H
  H422     1.0000 0.33489  0.17831  0.55123  Biso   1.000  H
  O72      1.0000 0.88609  0.75722  0.85659  Biso   1.000  O
  O73      1.0000 0.88610  0.75722  0.85664  Biso   1.000  O
  H423     1.0000 0.90393  0.73921  0.95292  Biso   1.000  H
  H424     1.0000 0.89102  0.81352  0.93509  Biso   1.000  H
  H425     1.0000 0.89103  0.81352  0.93514  Biso   1.000  H
  H426     1.0000 0.61439  0.72762  0.77279  Biso   1.000  H
  H427     1.0000 0.56260  0.79209  0.77112  Biso   1.000  H
  C455     1.0000 0.54312  0.74298  0.67721  Biso   1.000  C
  H428     1.0000 0.61440  0.72762  0.77284  Biso   1.000  H
  H429     1.0000 0.19539  0.94829  0.67029  Biso   1.000  H
  O74      1.0000 0.02591  0.81959  0.84770  Biso   1.000  O
  H430     1.0000 0.04647  0.74650  0.78592  Biso   1.000  H
  H431     1.0000 0.11098  0.80320  0.78910  Biso   1.000  H
  H432     1.0000 0.04653  0.74650  0.78592  Biso   1.000  H
  H433     1.0000 0.11104  0.80320  0.78910  Biso   1.000  H
  H434     1.0000 0.06319  0.73750  0.80612  Biso   1.000  H
  H435     1.0000 0.01600  0.72341  0.86679  Biso   1.000  H
  C456     1.0000 0.97311  0.86870  0.55931  Biso   1.000  C
  C457     1.0000 0.89368  0.92491  0.46601  Biso   1.000  C
  C458     1.0000 0.56388  0.68702  0.64428  Biso   1.000  C
  C459     1.0000 0.47489  0.77898  0.65009  Biso   1.000  C
  C460     1.0000 0.56389  0.68702  0.64433  Biso   1.000  C
  C461     1.0000 0.47490  0.77898  0.65014  Biso   1.000  C
  H436     1.0000 0.97726  0.84948  0.60179  Biso   1.000  H
  H437     1.0000 0.97732  0.84948  0.60179  Biso   1.000  H
  C462     1.0000 0.04006  0.87002  0.52572  Biso   1.000  C
  C463     1.0000 0.04012  0.87002  0.52572  Biso   1.000  C
  C464     1.0000 0.96068  0.92618  0.43242  Biso   1.000  C
  H438     1.0000 0.84468  0.94330  0.44601  Biso   1.000  H
  H439     1.0000 0.60946  0.66300  0.66241  Biso   1.000  H
  C465     1.0000 0.51647  0.66711  0.58452  Biso   1.000  C
  H440     1.0000 0.60952  0.66300  0.66241  Biso   1.000  H
  C466     1.0000 0.42747  0.75898  0.59028  Biso   1.000  C
  H441     1.0000 0.46102  0.81641  0.67211  Biso   1.000  H
  C467     1.0000 0.42748  0.75898  0.59033  Biso   1.000  C
  H442     1.0000 0.08911  0.85158  0.54572  Biso   1.000  H
  C468     1.0000 0.03388  0.89869  0.46232  Biso   1.000  C
  H443     1.0000 0.95646  0.94541  0.38988  Biso   1.000  H
  H444     1.0000 0.95647  0.94541  0.38993  Biso   1.000  H
  H445     1.0000 0.53040  0.62959  0.56249  Biso   1.000  H
  C469     1.0000 0.44826  0.70311  0.55749  Biso   1.000  C
  C470     1.0000 0.44832  0.70311  0.55749  Biso   1.000  C
  H446     1.0000 0.38178  0.78309  0.57219  Biso   1.000  H
  H447     1.0000 0.07865  0.89962  0.43979  Biso   1.000  H
  H448     1.0000 0.07871  0.89962  0.43979  Biso   1.000  H
  H449     1.0000 0.41646  0.68971  0.51748  Biso   1.000  H
  H450     1.0000 0.41653  0.68971  0.51753  Biso   1.000  H
  O75      1.0000 0.97415  0.18041  0.15230  Biso   1.000  O
  C471     1.0000 0.04662  0.16378  0.19559  Biso   1.000  C
  C472     1.0000 0.04663  0.16378  0.19564  Biso   1.000  C
  C473     1.0000 0.92131  0.22258  0.18428  Biso   1.000  C
  C474     1.0000 0.92132  0.22258  0.18433  Biso   1.000  C
  C475     1.0000 0.94503  0.24782  0.14952  Biso   1.000  C
  C476     1.0000 0.11630  0.18848  0.18670  Biso   1.000  C
  C477     1.0000 0.04174  0.11418  0.24272  Biso   1.000  C
  O76      1.0000 0.97409  0.18041  0.15230  Biso   1.000  O
  H451     1.0000 0.95353  0.25350  0.21408  Biso   1.000  H
  H452     1.0000 0.88902  0.19680  0.21090  Biso   1.000  H
  C478     1.0000 0.86521  0.25961  0.12780  Biso   1.000  C
  H453     1.0000 0.95354  0.25350  0.21413  Biso   1.000  H
  H454     1.0000 0.93682  0.26250  0.19393  Biso   1.000  H
  H455     1.0000 0.98400  0.27659  0.13321  Biso   1.000  H
  C479     1.0000 0.86219  0.24758  0.09931  Biso   1.000  C
  C480     1.0000 0.18941  0.16539  0.22090  Biso   1.000  C
  O77      1.0000 0.11391  0.24278  0.14341  Biso   1.000  O
  C481     1.0000 0.11342  0.09030  0.28081  Biso   1.000  C
  O78      1.0000 0.96691  0.09432  0.25389  Biso   1.000  O
  O79      1.0000 0.96692  0.09432  0.25394  Biso   1.000  O
  H456     1.0000 0.85482  0.30349  0.14280  Biso   1.000  H
  H457     1.0000 0.89139  0.26299  0.08790  Biso   1.000  H
  C482     1.0000 0.78550  0.22219  0.11088  Biso   1.000  C
  H458     1.0000 0.89145  0.26299  0.08790  Biso   1.000  H
  C483     1.0000 0.78551  0.22219  0.11093  Biso   1.000  C
  H459     1.0000 0.83698  0.29048  0.09749  Biso   1.000  H
  C484     1.0000 0.80809  0.19651  0.12750  Biso   1.000  C
  H460     1.0000 0.87091  0.23569  0.05410  Biso   1.000  H
  C485     1.0000 0.26853  0.19602  0.20383  Biso   1.000  C
  C486     1.0000 0.18592  0.11789  0.26682  Biso   1.000  C
  C487     1.0000 0.26852  0.19602  0.20378  Biso   1.000  C
  C488     1.0000 0.12778  0.23031  0.07769  Biso   1.000  C
  C489     1.0000 0.12785  0.23031  0.07774  Biso   1.000  C
  C490     1.0000 0.11103  0.03708  0.33001  Biso   1.000  C
  C491     1.0000 0.94232  0.03610  0.22348  Biso   1.000  C
  C492     1.0000 0.94233  0.03610  0.22353  Biso   1.000  C
  H461     1.0000 0.74291  0.24469  0.12962  Biso   1.000  H
  H462     1.0000 0.79150  0.17870  0.13028  Biso   1.000  H
  C493     1.0000 0.76271  0.21749  0.03319  Biso   1.000  C
  H463     1.0000 0.79151  0.17870  0.13033  Biso   1.000  H
  C494     1.0000 0.76272  0.21749  0.03324  Biso   1.000  C
  H464     1.0000 0.78183  0.21549  0.16281  Biso   1.000  H
  C495     1.0000 0.74322  0.17469  0.06622  Biso   1.000  C
  H465     1.0000 0.84042  0.15928  0.14609  Biso   1.000  H
  H466     1.0000 0.25738  0.24141  0.18988  Biso   1.000  H
  C496     1.0000 0.33329  0.19558  0.27020  Biso   1.000  C
  C497     1.0000 0.29138  0.15801  0.14402  Biso   1.000  C
  H467     1.0000 0.25745  0.24141  0.18994  Biso   1.000  H
  C498     1.0000 0.33335  0.19558  0.27020  Biso   1.000  C
  C499     1.0000 0.29144  0.15801  0.14402  Biso   1.000  C
  H468     1.0000 0.23462  0.10239  0.29071  Biso   1.000  H
  O80      1.0000 0.21070  0.23579  0.06991  Biso   1.000  O
  H469     1.0000 0.09607  0.26079  0.04708  Biso   1.000  H
  H470     1.0000 0.10898  0.18648  0.06491  Biso   1.000  H
  H471     1.0000 0.09614  0.26079  0.04713  Biso   1.000  H
  H472     1.0000 0.10904  0.18648  0.06491  Biso   1.000  H
  H473     1.0000 0.05854  0.04119  0.34592  Biso   1.000  H
  C500     1.0000 0.17571  0.04070  0.39341  Biso   1.000  C
  C501     1.0000 0.10840  0.97290  0.29339  Biso   1.000  C
  C502     1.0000 0.10841  0.97290  0.29344  Biso   1.000  C
  O81      1.0000 0.96223  0.98019  0.26510  Biso   1.000  O
  H474     1.0000 0.96704  0.03141  0.18312  Biso   1.000  H
  H475     1.0000 0.88383  0.03742  0.20979  Biso   1.000  H
  H476     1.0000 0.88384  0.03742  0.20984  Biso   1.000  H
  H477     1.0000 0.70449  0.22248  0.02000  Biso   1.000  H
  H478     1.0000 0.78988  0.25159  0.01162  Biso   1.000  H
  O82      1.0000 0.78849  0.15341  0.01318  Biso   1.000  O
  H479     1.0000 0.70455  0.22248  0.02000  Biso   1.000  H
  H480     1.0000 0.78994  0.25159  0.01162  Biso   1.000  H
  O83      1.0000 0.78850  0.15341  0.01323  Biso   1.000  O
  H481     1.0000 0.70759  0.21089  0.05051  Biso   1.000  H
  H482     1.0000 0.71043  0.13908  0.07931  Biso   1.000  H
  H483     1.0000 0.31090  0.21539  0.30728  Biso   1.000  H
  H484     1.0000 0.34969  0.15111  0.28268  Biso   1.000  H
  C503     1.0000 0.40458  0.23452  0.25429  Biso   1.000  C
  H485     1.0000 0.31091  0.21539  0.30733  Biso   1.000  H
  H486     1.0000 0.34976  0.15111  0.28273  Biso   1.000  H
  C504     1.0000 0.40465  0.23452  0.25434  Biso   1.000  C
  C505     1.0000 0.34021  0.10209  0.14912  Biso   1.000  C
  C506     1.0000 0.25479  0.17841  0.07820  Biso   1.000  C
  C507     1.0000 0.25485  0.17841  0.07820  Biso   1.000  C
  H487     1.0000 0.22895  0.03840  0.37952  Biso   1.000  H
  C508     1.0000 0.17291  0.10058  0.43630  Biso   1.000  C
  H488     1.0000 0.16991  0.00259  0.42099  Biso   1.000  H
  H489     1.0000 0.16992  0.00259  0.42104  Biso   1.000  H
  C509     1.0000 0.03341  0.94648  0.25909  Biso   1.000  C
  C510     1.0000 0.17890  0.93870  0.28409  Biso   1.000  C
  C511     1.0000 0.03342  0.94648  0.25914  Biso   1.000  C
  C512     1.0000 0.74353  0.12900  0.95302  Biso   1.000  C
  H490     1.0000 0.38561  0.27238  0.22721  Biso   1.000  H
  H491     1.0000 0.43740  0.20791  0.22888  Biso   1.000  H
  C513     1.0000 0.45688  0.25702  0.32279  Biso   1.000  C
  H492     1.0000 0.43741  0.20791  0.22893  Biso   1.000  H
  C514     1.0000 0.45695  0.25702  0.32284  Biso   1.000  C
  H493     1.0000 0.36270  0.08781  0.19201  Biso   1.000  H
  C515     1.0000 0.35679  0.06731  0.09522  Biso   1.000  C
  C516     1.0000 0.35685  0.06731  0.09522  Biso   1.000  C
  C517     1.0000 0.27069  0.14260  0.02581  Biso   1.000  C
  C518     1.0000 0.27075  0.14260  0.02581  Biso   1.000  C
  H494     1.0000 0.22134  0.10160  0.47019  Biso   1.000  H
  H495     1.0000 0.17379  0.13908  0.40811  Biso   1.000  H
  C519     1.0000 0.10009  0.10381  0.47059  Biso   1.000  C
  H496     1.0000 0.22135  0.10160  0.47024  Biso   1.000  H
  H497     1.0000 0.17385  0.13908  0.40811  Biso   1.000  H
  C520     1.0000 0.10016  0.10381  0.47064  Biso   1.000  C
  C521     1.0000 0.03223  0.89380  0.22408  Biso   1.000  C
  C522     1.0000 0.03224  0.89380  0.22413  Biso   1.000  C
  H498     1.0000 0.22880  0.95592  0.30349  Biso   1.000  H
  C523     1.0000 0.17944  0.88078  0.24772  Biso   1.000  C
  H499     1.0000 0.22881  0.95592  0.30354  Biso   1.000  H
  C524     1.0000 0.75828  0.15649  0.89362  Biso   1.000  C
  C525     1.0000 0.69301  0.08052  0.95459  Biso   1.000  C
  C526     1.0000 0.75834  0.15649  0.89362  Biso   1.000  C
  C527     1.0000 0.69302  0.08052  0.95464  Biso   1.000  C
  C528     1.0000 0.43612  0.31298  0.35572  Biso   1.000  C
  C529     1.0000 0.52511  0.22102  0.34991  Biso   1.000  C
  C530     1.0000 0.31828  0.09109  0.03071  Biso   1.000  C
  C531     1.0000 0.40598  0.00558  0.10098  Biso   1.000  C
  C532     1.0000 0.31834  0.09109  0.03071  Biso   1.000  C
  C533     1.0000 0.40605  0.00558  0.10103  Biso   1.000  C
  O84      1.0000 0.22363  0.15400  0.96120  Biso   1.000  O
  C534     1.0000 0.02689  0.13130  0.44069  Biso   1.000  C
  C535     1.0000 0.10632  0.07509  0.53399  Biso   1.000  C
  C536     1.0000 0.02696  0.13130  0.44074  Biso   1.000  C
  C537     1.0000 0.10633  0.07509  0.53404  Biso   1.000  C
  O85      1.0000 0.95903  0.87262  0.18589  Biso   1.000  O
  C538     1.0000 0.09909  0.85911  0.21651  Biso   1.000  C
  C539     1.0000 0.09915  0.85911  0.21651  Biso   1.000  C
  C540     1.0000 0.25328  0.84551  0.23510  Biso   1.000  C
  C541     1.0000 0.25334  0.84551  0.23510  Biso   1.000  C
  O86      1.0000 0.81082  0.21030  0.89291  Biso   1.000  O
  C542     1.0000 0.72211  0.12880  0.83229  Biso   1.000  C
  C543     1.0000 0.65098  0.05161  0.89660  Biso   1.000  C
  C544     1.0000 0.65104  0.05161  0.89660  Biso   1.000  C
  O87      1.0000 0.67629  0.05772  0.01859  Biso   1.000  O
  O88      1.0000 0.67630  0.05772  0.01864  Biso   1.000  O
  H500     1.0000 0.39054  0.33700  0.33759  Biso   1.000  H
  C545     1.0000 0.48353  0.33289  0.41548  Biso   1.000  C
  H501     1.0000 0.39055  0.33700  0.33764  Biso   1.000  H
  C546     1.0000 0.48354  0.33289  0.41553  Biso   1.000  C
  C547     1.0000 0.57253  0.24102  0.40972  Biso   1.000  C
  H502     1.0000 0.53898  0.18359  0.32789  Biso   1.000  H
  H503     1.0000 0.53905  0.18359  0.32794  Biso   1.000  H
  O89      1.0000 0.33328  0.05469  0.97292  Biso   1.000  O
  O90      1.0000 0.33334  0.05469  0.97292  Biso   1.000  O
  H504     1.0000 0.42903  0.00142  0.05910  Biso   1.000  H
  C548     1.0000 0.47749  0.00362  0.15953  Biso   1.000  C
  C549     1.0000 0.47755  0.00362  0.15953  Biso   1.000  C
  C550     1.0000 0.34902  0.94839  0.10340  Biso   1.000  C
  C551     1.0000 0.23769  0.21642  0.92680  Biso   1.000  C
  H505     1.0000 0.02274  0.15052  0.39821  Biso   1.000  H
  C552     1.0000 0.95994  0.12998  0.47428  Biso   1.000  C
  C553     1.0000 0.95995  0.12998  0.47433  Biso   1.000  C
  C554     1.0000 0.03932  0.07382  0.56758  Biso   1.000  C
  H506     1.0000 0.15532  0.05670  0.55399  Biso   1.000  H
  C555     1.0000 0.03933  0.07382  0.56763  Biso   1.000  C
  H507     1.0000 0.15532  0.05670  0.55404  Biso   1.000  H
  C556     1.0000 0.90230  0.84101  0.22782  Biso   1.000  C
  O91      1.0000 0.09510  0.80041  0.17938  Biso   1.000  O
  O92      1.0000 0.09511  0.80041  0.17943  Biso   1.000  O
  C557     1.0000 0.27789  0.87120  0.16771  Biso   1.000  C
  C558     1.0000 0.27795  0.87120  0.16771  Biso   1.000  C
  H508     1.0000 0.23918  0.79909  0.22878  Biso   1.000  H
  C559     1.0000 0.32451  0.85070  0.29440  Biso   1.000  C
  H509     1.0000 0.23925  0.79909  0.22883  Biso   1.000  H
  C560     1.0000 0.89059  0.19631  0.88528  Biso   1.000  C
  C561     1.0000 0.89060  0.19631  0.88533  Biso   1.000  C
  C562     1.0000 0.67147  0.07739  0.83638  Biso   1.000  C
  C563     1.0000 0.74672  0.15449  0.76490  Biso   1.000  C
  C564     1.0000 0.67154  0.07739  0.83643  Biso   1.000  C
  C565     1.0000 0.59402  0.99442  0.89902  Biso   1.000  C
  C566     1.0000 0.71342  0.99878  0.04258  Biso   1.000  C
  C567     1.0000 0.71343  0.99878  0.04263  Biso   1.000  C
  C568     1.0000 0.55174  0.29689  0.44251  Biso   1.000  C
  H510     1.0000 0.46960  0.37041  0.43751  Biso   1.000  H
  H511     1.0000 0.46966  0.37041  0.43751  Biso   1.000  H
  H512     1.0000 0.61822  0.21691  0.42781  Biso   1.000  H
  C569     1.0000 0.28658  0.00122  0.95742  Biso   1.000  C
  C570     1.0000 0.28664  0.00122  0.95742  Biso   1.000  C
  C571     1.0000 0.54481  0.04911  0.14483  Biso   1.000  C
  H513     1.0000 0.45899  0.01688  0.20100  Biso   1.000  H
  H514     1.0000 0.45905  0.01688  0.20100  Biso   1.000  H
  H515     1.0000 0.49823  0.95930  0.16538  Biso   1.000  H
  H516     1.0000 0.49824  0.95930  0.16544  Biso   1.000  H
  C572     1.0000 0.32853  0.92261  0.16362  Biso   1.000  C
  C573     1.0000 0.30699  0.91948  0.04541  Biso   1.000  C
  C574     1.0000 0.30705  0.91948  0.04541  Biso   1.000  C
  C575     1.0000 0.16532  0.21808  0.86432  Biso   1.000  C
  H517     1.0000 0.23481  0.25350  0.95651  Biso   1.000  H
  H518     1.0000 0.29018  0.21642  0.91150  Biso   1.000  H
  H519     1.0000 0.29024  0.21642  0.91150  Biso   1.000  H
  H520     1.0000 0.91089  0.14842  0.45428  Biso   1.000  H
  C576     1.0000 0.96612  0.10131  0.53768  Biso   1.000  C
  H521     1.0000 0.91096  0.14842  0.45433  Biso   1.000  H
  C577     1.0000 0.96613  0.10131  0.53773  Biso   1.000  C
  H522     1.0000 0.04354  0.05459  0.61012  Biso   1.000  H
  H523     1.0000 0.89600  0.86841  0.26611  Biso   1.000  H
  H524     1.0000 0.92340  0.79880  0.24449  Biso   1.000  H
  C578     1.0000 0.81949  0.83250  0.18069  Biso   1.000  C
  H525     1.0000 0.89606  0.86841  0.26611  Biso   1.000  H
  H526     1.0000 0.92341  0.79880  0.24454  Biso   1.000  H
  C579     1.0000 0.81956  0.83250  0.18074  Biso   1.000  C
  C580     1.0000 0.10941  0.80369  0.11472  Biso   1.000  C
  C581     1.0000 0.24172  0.84351  0.10638  Biso   1.000  C
  C582     1.0000 0.24172  0.84351  0.10643  Biso   1.000  C
  H527     1.0000 0.34470  0.89531  0.29799  Biso   1.000  H
  H528     1.0000 0.30569  0.83950  0.33638  Biso   1.000  H
  C583     1.0000 0.39193  0.80501  0.28278  Biso   1.000  C
  H529     1.0000 0.34471  0.89531  0.29804  Biso   1.000  H
  H530     1.0000 0.30576  0.83950  0.33643  Biso   1.000  H
  C584     1.0000 0.39194  0.80501  0.28283  Biso   1.000  C
  O93      1.0000 0.90490  0.19959  0.82062  Biso   1.000  O
  H531     1.0000 0.90398  0.15258  0.90251  Biso   1.000  H
  H532     1.0000 0.92659  0.22669  0.91251  Biso   1.000  H
  H533     1.0000 0.90404  0.15258  0.90251  Biso   1.000  H
  H534     1.0000 0.64839  0.05772  0.79612  Biso   1.000  H
  C585     1.0000 0.82056  0.11922  0.75228  Biso   1.000  C
  C586     1.0000 0.82063  0.11922  0.75233  Biso   1.000  C
  H535     1.0000 0.76082  0.20091  0.77122  Biso   1.000  H
  C587     1.0000 0.67549  0.14930  0.70560  Biso   1.000  C
  C588     1.0000 0.64321  0.93269  0.90478  Biso   1.000  C
  H536     1.0000 0.57097  0.99858  0.94090  Biso   1.000  H
  C589     1.0000 0.52251  0.99638  0.84047  Biso   1.000  C
  C590     1.0000 0.64322  0.93269  0.90483  Biso   1.000  C
  H537     1.0000 0.57103  0.99858  0.94090  Biso   1.000  H
  C591     1.0000 0.52252  0.99638  0.84053  Biso   1.000  C
  O94      1.0000 0.66672  0.94531  0.02708  Biso   1.000  O
  H538     1.0000 0.76342  0.99359  0.02389  Biso   1.000  H
  O95      1.0000 0.66673  0.94531  0.02713  Biso   1.000  O
  H539     1.0000 0.72782  0.00161  0.09128  Biso   1.000  H
  H540     1.0000 0.72783  0.00161  0.09133  Biso   1.000  H
  H541     1.0000 0.58354  0.31029  0.48252  Biso   1.000  H
  O96      1.0000 0.32371  0.94228  0.98141  Biso   1.000  O
  H542     1.0000 0.27218  0.99839  0.90872  Biso   1.000  H
  H543     1.0000 0.27224  0.99839  0.90872  Biso   1.000  H
  H544     1.0000 0.23658  0.00641  0.97611  Biso   1.000  H
  H545     1.0000 0.23664  0.00641  0.97611  Biso   1.000  H
  H546     1.0000 0.52380  0.09329  0.14008  Biso   1.000  H
  H547     1.0000 0.56093  0.03659  0.10219  Biso   1.000  H
  C592     1.0000 0.61969  0.04819  0.19958  Biso   1.000  C
  H548     1.0000 0.52381  0.09329  0.14013  Biso   1.000  H
  H549     1.0000 0.56094  0.03659  0.10224  Biso   1.000  H
  C593     1.0000 0.61976  0.04819  0.19963  Biso   1.000  C
  H550     1.0000 0.35161  0.94228  0.20388  Biso   1.000  H
  H551     1.0000 0.35162  0.94228  0.20393  Biso   1.000  H
  C594     1.0000 0.25647  0.87100  0.04698  Biso   1.000  C
  C595     1.0000 0.25654  0.87100  0.04703  Biso   1.000  C
  C596     1.0000 0.18051  0.16750  0.81931  Biso   1.000  C
  H552     1.0000 0.16362  0.26020  0.84189  Biso   1.000  H
  H553     1.0000 0.11362  0.21089  0.87967  Biso   1.000  H
  H554     1.0000 0.16363  0.26020  0.84194  Biso   1.000  H
  H555     1.0000 0.11363  0.21089  0.87972  Biso   1.000  H
  H556     1.0000 0.92135  0.10038  0.56021  Biso   1.000  H
  H557     1.0000 0.77711  0.81978  0.20630  Biso   1.000  H
  H558     1.0000 0.80350  0.87262  0.15639  Biso   1.000  H
  C597     1.0000 0.83468  0.78192  0.13568  Biso   1.000  C
  C598     1.0000 0.83475  0.78192  0.13573  Biso   1.000  C
  O97      1.0000 0.18918  0.78970  0.10709  Biso   1.000  O
  O98      1.0000 0.18925  0.78970  0.10714  Biso   1.000  O
  H559     1.0000 0.09602  0.84742  0.09749  Biso   1.000  H
  H560     1.0000 0.07341  0.77331  0.08749  Biso   1.000  H
  H561     1.0000 0.07342  0.77331  0.08754  Biso   1.000  H
  H562     1.0000 0.40524  0.81289  0.23803  Biso   1.000  H
  H563     1.0000 0.37272  0.76030  0.28409  Biso   1.000  H
  C599     1.0000 0.46760  0.81279  0.33410  Biso   1.000  C
  C600     1.0000 0.46766  0.81279  0.33410  Biso   1.000  C
  C601     1.0000 0.90091  0.14089  0.78349  Biso   1.000  C
  C602     1.0000 0.82110  0.06130  0.71591  Biso   1.000  C
  H564     1.0000 0.65530  0.10469  0.70201  Biso   1.000  H
  H565     1.0000 0.69431  0.16050  0.66362  Biso   1.000  H
  C603     1.0000 0.60807  0.19499  0.71722  Biso   1.000  C
  C604     1.0000 0.60813  0.19499  0.71722  Biso   1.000  C
  C605     1.0000 0.68172  0.90891  0.96929  Biso   1.000  C
  C606     1.0000 0.65979  0.89791  0.85088  Biso   1.000  C
  C607     1.0000 0.68173  0.90891  0.96934  Biso   1.000  C
  C608     1.0000 0.65980  0.89791  0.85093  Biso   1.000  C
  H566     1.0000 0.54101  0.98312  0.79900  Biso   1.000  H
  C609     1.0000 0.45519  0.95089  0.85517  Biso   1.000  C
  C610     1.0000 0.45520  0.95089  0.85523  Biso   1.000  C
  H567     1.0000 0.50177  0.04070  0.83462  Biso   1.000  H
  H568     1.0000 0.50183  0.04070  0.83462  Biso   1.000  H
  C611     1.0000 0.64728  0.10708  0.22939  Biso   1.000  C
  C612     1.0000 0.64735  0.10708  0.22944  Biso   1.000  C
  C613     1.0000 0.66140  0.99061  0.21858  Biso   1.000  C
  C614     1.0000 0.66141  0.99061  0.21863  Biso   1.000  C
  O99      1.0000 0.21151  0.84659  0.98682  Biso   1.000  O
  C615     1.0000 0.09770  0.15899  0.77218  Biso   1.000  C
  H569     1.0000 0.22289  0.18022  0.79370  Biso   1.000  H
  H570     1.0000 0.19650  0.12738  0.84361  Biso   1.000  H
  C616     1.0000 0.09771  0.15899  0.77223  Biso   1.000  C
  H571     1.0000 0.83638  0.73980  0.15811  Biso   1.000  H
  H572     1.0000 0.88638  0.78911  0.12033  Biso   1.000  H
  C617     1.0000 0.76231  0.78358  0.07320  Biso   1.000  C
  H573     1.0000 0.83644  0.73980  0.15811  Biso   1.000  H
  H574     1.0000 0.88644  0.78911  0.12033  Biso   1.000  H
  C618     1.0000 0.52280  0.86210  0.32582  Biso   1.000  C
  C619     1.0000 0.48650  0.76690  0.38533  Biso   1.000  C
  C620     1.0000 0.52286  0.86210  0.32582  Biso   1.000  C
  C621     1.0000 0.48656  0.76690  0.38533  Biso   1.000  C
  C622     1.0000 0.96777  0.10620  0.77592  Biso   1.000  C
  C623     1.0000 0.96783  0.10620  0.77592  Biso   1.000  C
  C624     1.0000 0.89160  0.02710  0.70661  Biso   1.000  C
  H575     1.0000 0.77120  0.04408  0.69651  Biso   1.000  H
  H576     1.0000 0.59476  0.18711  0.76197  Biso   1.000  H
  H577     1.0000 0.62728  0.23970  0.71591  Biso   1.000  H
  C625     1.0000 0.53240  0.18721  0.66590  Biso   1.000  C
  H578     1.0000 0.59483  0.18711  0.76203  Biso   1.000  H
  C626     1.0000 0.72931  0.85740  0.97419  Biso   1.000  C
  C627     1.0000 0.72932  0.85740  0.97424  Biso   1.000  C
  C628     1.0000 0.70862  0.84199  0.85598  Biso   1.000  C
  H579     1.0000 0.63730  0.91219  0.80799  Biso   1.000  H
  C629     1.0000 0.70862  0.84199  0.85603  Biso   1.000  C
  H580     1.0000 0.47620  0.90671  0.85992  Biso   1.000  H
  H581     1.0000 0.43907  0.96341  0.89781  Biso   1.000  H
  C630     1.0000 0.38031  0.95181  0.80042  Biso   1.000  C
  H582     1.0000 0.43913  0.96341  0.89781  Biso   1.000  H
  H583     1.0000 0.61943  0.14568  0.21671  Biso   1.000  H
  C631     1.0000 0.71651  0.10840  0.27808  Biso   1.000  C
  C632     1.0000 0.71652  0.10840  0.27813  Biso   1.000  C
  H584     1.0000 0.64301  0.95108  0.19872  Biso   1.000  H
  C633     1.0000 0.73070  0.99188  0.26732  Biso   1.000  C
  C634     1.0000 0.73076  0.99188  0.26732  Biso   1.000  C
  C635     1.0000 0.23729  0.78251  0.96681  Biso   1.000  C
  C636     1.0000 0.25685  0.82531  0.93383  Biso   1.000  C
  O100     1.0000 0.04097  0.12738  0.81411  Biso   1.000  O
  H585     1.0000 0.10400  0.13159  0.73389  Biso   1.000  H
  H586     1.0000 0.07660  0.20120  0.75551  Biso   1.000  H
  O101     1.0000 0.04103  0.12738  0.81411  Biso   1.000  O
  H587     1.0000 0.10401  0.13159  0.73394  Biso   1.000  H
  H588     1.0000 0.76519  0.74650  0.04349  Biso   1.000  H
  H589     1.0000 0.70982  0.78358  0.08850  Biso   1.000  H
  O102     1.0000 0.77637  0.84600  0.03880  Biso   1.000  O
  O103     1.0000 0.77643  0.84600  0.03880  Biso   1.000  O
  H590     1.0000 0.51023  0.89282  0.29162  Biso   1.000  H
  C637     1.0000 0.59684  0.86542  0.36881  Biso   1.000  C
  C638     1.0000 0.56040  0.77018  0.42821  Biso   1.000  C
  H591     1.0000 0.44963  0.73388  0.39078  Biso   1.000  H
  C639     1.0000 0.56046  0.77018  0.42821  Biso   1.000  C
  H592     1.0000 0.44963  0.73388  0.39083  Biso   1.000  H
  C640     1.0000 0.96659  0.05352  0.74091  Biso   1.000  C
  C641     1.0000 0.88897  0.96292  0.66999  Biso   1.000  C
  C642     1.0000 0.88904  0.96292  0.67004  Biso   1.000  C
  C643     1.0000 0.47720  0.13790  0.67418  Biso   1.000  C
  C644     1.0000 0.51350  0.23310  0.61467  Biso   1.000  C
  C645     1.0000 0.47721  0.13790  0.67423  Biso   1.000  C
  C646     1.0000 0.51351  0.23310  0.61472  Biso   1.000  C
  C647     1.0000 0.74521  0.82159  0.92180  Biso   1.000  C
  C648     1.0000 0.73148  0.80398  0.79622  Biso   1.000  C
  C649     1.0000 0.73154  0.80398  0.79622  Biso   1.000  C
  C650     1.0000 0.35272  0.89292  0.77061  Biso   1.000  C
  C651     1.0000 0.33860  0.00939  0.78142  Biso   1.000  C
  C652     1.0000 0.75823  0.05078  0.29708  Biso   1.000  C
  H593     1.0000 0.73503  0.14788  0.29799  Biso   1.000  H
  C653     1.0000 0.75824  0.05078  0.29713  Biso   1.000  C
  H594     1.0000 0.73504  0.14788  0.29804  Biso   1.000  H
  H595     1.0000 0.75849  0.95328  0.28000  Biso   1.000  H
  H596     1.0000 0.75855  0.95328  0.28000  Biso   1.000  H
  C654     1.0000 0.21450  0.77781  0.88912  Biso   1.000  C
  H597     1.0000 0.29551  0.77752  0.98000  Biso   1.000  H
  H598     1.0000 0.21012  0.74841  0.98838  Biso   1.000  H
  H599     1.0000 0.21013  0.74841  0.98843  Biso   1.000  H
  H600     1.0000 0.29242  0.78911  0.94954  Biso   1.000  H
  C655     1.0000 0.19191  0.80349  0.87250  Biso   1.000  C
  H601     1.0000 0.28963  0.86092  0.92069  Biso   1.000  H
  H602     1.0000 0.63370  0.89840  0.36330  Biso   1.000  H
  C656     1.0000 0.61560  0.81949  0.41998  Biso   1.000  C
  H603     1.0000 0.63376  0.89840  0.36330  Biso   1.000  H
  C657     1.0000 0.61561  0.81949  0.42003  Biso   1.000  C
  H604     1.0000 0.57304  0.73951  0.46251  Biso   1.000  H
  O104     1.0000 0.03777  0.01981  0.73490  Biso   1.000  O
  O105     1.0000 0.03783  0.01981  0.73490  Biso   1.000  O
  C658     1.0000 0.88658  0.90970  0.71919  Biso   1.000  C
  H605     1.0000 0.94146  0.95881  0.65408  Biso   1.000  H
  C659     1.0000 0.82429  0.95930  0.60659  Biso   1.000  C
  C660     1.0000 0.88659  0.90970  0.71924  Biso   1.000  C
  H606     1.0000 0.94153  0.95881  0.65413  Biso   1.000  H
  H607     1.0000 0.48977  0.10718  0.70838  Biso   1.000  H
  C661     1.0000 0.40316  0.13458  0.63119  Biso   1.000  C
  H608     1.0000 0.48984  0.10718  0.70843  Biso   1.000  H
  C662     1.0000 0.40322  0.13458  0.63119  Biso   1.000  C
  C663     1.0000 0.43960  0.22982  0.57179  Biso   1.000  C
  H609     1.0000 0.55037  0.26612  0.60922  Biso   1.000  H
  C664     1.0000 0.43961  0.22982  0.57184  Biso   1.000  C
  O106     1.0000 0.78930  0.76421  0.93009  Biso   1.000  O
  O107     1.0000 0.78931  0.76421  0.93014  Biso   1.000  O
  C665     1.0000 0.81059  0.83461  0.77910  Biso   1.000  C
  H610     1.0000 0.74262  0.75859  0.81012  Biso   1.000  H
  C666     1.0000 0.66671  0.80442  0.72980  Biso   1.000  C
  C667     1.0000 0.28349  0.89160  0.72192  Biso   1.000  C
  H611     1.0000 0.38057  0.85432  0.78329  Biso   1.000  H
  H612     1.0000 0.38063  0.85432  0.78329  Biso   1.000  H
  H613     1.0000 0.35699  0.04892  0.80128  Biso   1.000  H
  C668     1.0000 0.26930  0.00812  0.73268  Biso   1.000  C
  H614     1.0000 0.35700  0.04892  0.80133  Biso   1.000  H
  C669     1.0000 0.26931  0.00812  0.73273  Biso   1.000  C
  H615     1.0000 0.80461  0.05171  0.32971  Biso   1.000  H
  C670     1.0000 0.13479  0.74039  0.87220  Biso   1.000  C
  H616     1.0000 0.25709  0.75531  0.87038  Biso   1.000  H
  H617     1.0000 0.20850  0.82130  0.86972  Biso   1.000  H
  H618     1.0000 0.25710  0.75531  0.87043  Biso   1.000  H
  C671     1.0000 0.13782  0.75242  0.90074  Biso   1.000  C
  H619     1.0000 0.21824  0.78451  0.83724  Biso   1.000  H
  H620     1.0000 0.15964  0.84072  0.85391  Biso   1.000  H
  H621     1.0000 0.66512  0.82169  0.44882  Biso   1.000  H
  C672     1.0000 0.05768  0.96390  0.77652  Biso   1.000  C
  C673     1.0000 0.05774  0.96390  0.77652  Biso   1.000  C
  C674     1.0000 0.95826  0.88582  0.75728  Biso   1.000  C
  C675     1.0000 0.95833  0.88582  0.75733  Biso   1.000  C
  C676     1.0000 0.81408  0.88211  0.73318  Biso   1.000  C
  C677     1.0000 0.81409  0.88211  0.73323  Biso   1.000  C
  H622     1.0000 0.83009  0.99741  0.57901  Biso   1.000  H
  H623     1.0000 0.77105  0.96160  0.62048  Biso   1.000  H
  C678     1.0000 0.82709  0.89942  0.56370  Biso   1.000  C
  H624     1.0000 0.77112  0.96160  0.62053  Biso   1.000  H
  H625     1.0000 0.36630  0.10160  0.63670  Biso   1.000  H
  C679     1.0000 0.38440  0.18051  0.58002  Biso   1.000  C
  H626     1.0000 0.42696  0.26049  0.53749  Biso   1.000  H
  H627     1.0000 0.42703  0.26049  0.53754  Biso   1.000  H
  C680     1.0000 0.87222  0.76969  0.92231  Biso   1.000  C
  C681     1.0000 0.88370  0.81152  0.81330  Biso   1.000  C
  H628     1.0000 0.68910  0.78461  0.69272  Biso   1.000  H
  H629     1.0000 0.65031  0.84889  0.71732  Biso   1.000  H
  C682     1.0000 0.59542  0.76548  0.74571  Biso   1.000  C
  C683     1.0000 0.24177  0.94922  0.70292  Biso   1.000  C
  H630     1.0000 0.26497  0.85212  0.70201  Biso   1.000  H
  C684     1.0000 0.24183  0.94922  0.70292  Biso   1.000  C
  H631     1.0000 0.26503  0.85212  0.70201  Biso   1.000  H
  H632     1.0000 0.24151  0.04672  0.72000  Biso   1.000  H
  C685     1.0000 0.07869  0.77742  0.81572  Biso   1.000  C
  H633     1.0000 0.14518  0.69651  0.85720  Biso   1.000  H
  H634     1.0000 0.10861  0.73701  0.91210  Biso   1.000  H
  C686     1.0000 0.05504  0.75218  0.85053  Biso   1.000  C
  H635     1.0000 0.16302  0.70952  0.90251  Biso   1.000  H
  H636     1.0000 0.12909  0.76431  0.94590  Biso   1.000  H
  O108     1.0000 0.03309  0.90568  0.74611  Biso   1.000  O
  H637     1.0000 0.03296  0.96859  0.81688  Biso   1.000  H
  H638     1.0000 0.11617  0.96258  0.79021  Biso   1.000  H
  H639     1.0000 0.03303  0.96859  0.81693  Biso   1.000  H
  H640     1.0000 0.11623  0.96258  0.79021  Biso   1.000  H
  C687     1.0000 0.95338  0.83622  0.80441  Biso   1.000  C
  C688     1.0000 0.95344  0.83622  0.80441  Biso   1.000  C
  H641     1.0000 0.76538  0.89761  0.70929  Biso   1.000  H
  H642     1.0000 0.76538  0.89761  0.70934  Biso   1.000  H
  H643     1.0000 0.77866  0.89840  0.52981  Biso   1.000  H
  H644     1.0000 0.82621  0.86092  0.59189  Biso   1.000  H
  C689     1.0000 0.89991  0.89619  0.52941  Biso   1.000  C
  H645     1.0000 0.77872  0.89840  0.52981  Biso   1.000  H
  H646     1.0000 0.33488  0.17831  0.55118  Biso   1.000  H
  H647     1.0000 0.33489  0.17831  0.55123  Biso   1.000  H
  O109     1.0000 0.88609  0.75722  0.85659  Biso   1.000  O
  O110     1.0000 0.88610  0.75722  0.85664  Biso   1.000  O
  H648     1.0000 0.90393  0.73921  0.95292  Biso   1.000  H
  H649     1.0000 0.89102  0.81352  0.93509  Biso   1.000  H
  H650     1.0000 0.89103  0.81352  0.93514  Biso   1.000  H
  H651     1.0000 0.61439  0.72762  0.77279  Biso   1.000  H
  H652     1.0000 0.56260  0.79209  0.77112  Biso   1.000  H
  C690     1.0000 0.54312  0.74298  0.67721  Biso   1.000  C
  H653     1.0000 0.61440  0.72762  0.77284  Biso   1.000  H
  H654     1.0000 0.19539  0.94829  0.67029  Biso   1.000  H
  O111     1.0000 0.02591  0.81959  0.84770  Biso   1.000  O
  H655     1.0000 0.04647  0.74650  0.78592  Biso   1.000  H
  H656     1.0000 0.11098  0.80320  0.78910  Biso   1.000  H
  H657     1.0000 0.04653  0.74650  0.78592  Biso   1.000  H
  H658     1.0000 0.11104  0.80320  0.78910  Biso   1.000  H
  H659     1.0000 0.06319  0.73750  0.80612  Biso   1.000  H
  H660     1.0000 0.01600  0.72341  0.86679  Biso   1.000  H
  C691     1.0000 0.97311  0.86870  0.55931  Biso   1.000  C
  C692     1.0000 0.89368  0.92491  0.46601  Biso   1.000  C
  C693     1.0000 0.56388  0.68702  0.64428  Biso   1.000  C
  C694     1.0000 0.47489  0.77898  0.65009  Biso   1.000  C
  C695     1.0000 0.56389  0.68702  0.64433  Biso   1.000  C
  C696     1.0000 0.47490  0.77898  0.65014  Biso   1.000  C
  H661     1.0000 0.97726  0.84948  0.60179  Biso   1.000  H
  H662     1.0000 0.97732  0.84948  0.60179  Biso   1.000  H
  C697     1.0000 0.04006  0.87002  0.52572  Biso   1.000  C
  C698     1.0000 0.04012  0.87002  0.52572  Biso   1.000  C
  C699     1.0000 0.96068  0.92618  0.43242  Biso   1.000  C
  H663     1.0000 0.84468  0.94330  0.44601  Biso   1.000  H
  H664     1.0000 0.60946  0.66300  0.66241  Biso   1.000  H
  C700     1.0000 0.51647  0.66711  0.58452  Biso   1.000  C
  H665     1.0000 0.60952  0.66300  0.66241  Biso   1.000  H
  C701     1.0000 0.42747  0.75898  0.59028  Biso   1.000  C
  H666     1.0000 0.46102  0.81641  0.67211  Biso   1.000  H
  C702     1.0000 0.42748  0.75898  0.59033  Biso   1.000  C
  H667     1.0000 0.08911  0.85158  0.54572  Biso   1.000  H
  C703     1.0000 0.03388  0.89869  0.46232  Biso   1.000  C
  H668     1.0000 0.95646  0.94541  0.38988  Biso   1.000  H
  H669     1.0000 0.95647  0.94541  0.38993  Biso   1.000  H
  H670     1.0000 0.53040  0.62959  0.56249  Biso   1.000  H
  C704     1.0000 0.44826  0.70311  0.55749  Biso   1.000  C
  C705     1.0000 0.44832  0.70311  0.55749  Biso   1.000  C
  H671     1.0000 0.38178  0.78309  0.57219  Biso   1.000  H
  H672     1.0000 0.07865  0.89962  0.43979  Biso   1.000  H
  H673     1.0000 0.07871  0.89962  0.43979  Biso   1.000  H
  H674     1.0000 0.41646  0.68971  0.51748  Biso   1.000  H
  H675     1.0000 0.41653  0.68971  0.51753  Biso   1.000  H
  O112     1.0000 0.97415  0.18041  0.15230  Biso   1.000  O
  C706     1.0000 0.04662  0.16378  0.19559  Biso   1.000  C
  C707     1.0000 0.04663  0.16378  0.19564  Biso   1.000  C
  C708     1.0000 0.92131  0.22258  0.18428  Biso   1.000  C
  C709     1.0000 0.92132  0.22258  0.18433  Biso   1.000  C
  C710     1.0000 0.94503  0.24782  0.14952  Biso   1.000  C
  C711     1.0000 0.11630  0.18848  0.18670  Biso   1.000  C
  C712     1.0000 0.04174  0.11418  0.24272  Biso   1.000  C
  O113     1.0000 0.97409  0.18041  0.15230  Biso   1.000  O
  H676     1.0000 0.95353  0.25350  0.21408  Biso   1.000  H
  H677     1.0000 0.88902  0.19680  0.21090  Biso   1.000  H
  C713     1.0000 0.86521  0.25961  0.12780  Biso   1.000  C
  H678     1.0000 0.95354  0.25350  0.21413  Biso   1.000  H
  H679     1.0000 0.93682  0.26250  0.19393  Biso   1.000  H
  H680     1.0000 0.98400  0.27659  0.13321  Biso   1.000  H
  C714     1.0000 0.86219  0.24758  0.09931  Biso   1.000  C
  C715     1.0000 0.18941  0.16539  0.22090  Biso   1.000  C
  O114     1.0000 0.11391  0.24278  0.14341  Biso   1.000  O
  C716     1.0000 0.11342  0.09030  0.28081  Biso   1.000  C
  O115     1.0000 0.96691  0.09432  0.25389  Biso   1.000  O
  O116     1.0000 0.96692  0.09432  0.25394  Biso   1.000  O
  H681     1.0000 0.85482  0.30349  0.14280  Biso   1.000  H
  H682     1.0000 0.89139  0.26299  0.08790  Biso   1.000  H
  C717     1.0000 0.78550  0.22219  0.11088  Biso   1.000  C
  H683     1.0000 0.89145  0.26299  0.08790  Biso   1.000  H
  C718     1.0000 0.78551  0.22219  0.11093  Biso   1.000  C
  H684     1.0000 0.83698  0.29048  0.09749  Biso   1.000  H
  C719     1.0000 0.80809  0.19651  0.12750  Biso   1.000  C
  H685     1.0000 0.87091  0.23569  0.05410  Biso   1.000  H
  C720     1.0000 0.26853  0.19602  0.20383  Biso   1.000  C
  C721     1.0000 0.18592  0.11789  0.26682  Biso   1.000  C
  C722     1.0000 0.26852  0.19602  0.20378  Biso   1.000  C
  C723     1.0000 0.12778  0.23031  0.07769  Biso   1.000  C
  C724     1.0000 0.12785  0.23031  0.07774  Biso   1.000  C
  C725     1.0000 0.11103  0.03708  0.33001  Biso   1.000  C
  C726     1.0000 0.94232  0.03610  0.22348  Biso   1.000  C
  C727     1.0000 0.94233  0.03610  0.22353  Biso   1.000  C
  H686     1.0000 0.74291  0.24469  0.12962  Biso   1.000  H
  H687     1.0000 0.79150  0.17870  0.13028  Biso   1.000  H
  C728     1.0000 0.76271  0.21749  0.03319  Biso   1.000  C
  H688     1.0000 0.79151  0.17870  0.13033  Biso   1.000  H
  C729     1.0000 0.76272  0.21749  0.03324  Biso   1.000  C
  H689     1.0000 0.78183  0.21549  0.16281  Biso   1.000  H
  C730     1.0000 0.74322  0.17469  0.06622  Biso   1.000  C
  H690     1.0000 0.84042  0.15928  0.14609  Biso   1.000  H
  H691     1.0000 0.25738  0.24141  0.18988  Biso   1.000  H
  C731     1.0000 0.33329  0.19558  0.27020  Biso   1.000  C
  C732     1.0000 0.29138  0.15801  0.14402  Biso   1.000  C
  H692     1.0000 0.25745  0.24141  0.18994  Biso   1.000  H
  C733     1.0000 0.33335  0.19558  0.27020  Biso   1.000  C
  C734     1.0000 0.29144  0.15801  0.14402  Biso   1.000  C
  H693     1.0000 0.23462  0.10239  0.29071  Biso   1.000  H
  O117     1.0000 0.21070  0.23579  0.06991  Biso   1.000  O
  H694     1.0000 0.09607  0.26079  0.04708  Biso   1.000  H
  H695     1.0000 0.10898  0.18648  0.06491  Biso   1.000  H
  H696     1.0000 0.09614  0.26079  0.04713  Biso   1.000  H
  H697     1.0000 0.10904  0.18648  0.06491  Biso   1.000  H
  H698     1.0000 0.05854  0.04119  0.34592  Biso   1.000  H
  C735     1.0000 0.17571  0.04070  0.39341  Biso   1.000  C
  C736     1.0000 0.10840  0.97290  0.29339  Biso   1.000  C
  C737     1.0000 0.10841  0.97290  0.29344  Biso   1.000  C
  O118     1.0000 0.96223  0.98019  0.26510  Biso   1.000  O
  H699     1.0000 0.96704  0.03141  0.18312  Biso   1.000  H
  H700     1.0000 0.88383  0.03742  0.20979  Biso   1.000  H
  H701     1.0000 0.88384  0.03742  0.20984  Biso   1.000  H
  H702     1.0000 0.70449  0.22248  0.02000  Biso   1.000  H
  H703     1.0000 0.78988  0.25159  0.01162  Biso   1.000  H
  O119     1.0000 0.78849  0.15341  0.01318  Biso   1.000  O
  H704     1.0000 0.70455  0.22248  0.02000  Biso   1.000  H
  H705     1.0000 0.78994  0.25159  0.01162  Biso   1.000  H
  O120     1.0000 0.78850  0.15341  0.01323  Biso   1.000  O
  H706     1.0000 0.70759  0.21089  0.05051  Biso   1.000  H
  H707     1.0000 0.71043  0.13908  0.07931  Biso   1.000  H
  H708     1.0000 0.31090  0.21539  0.30728  Biso   1.000  H
  H709     1.0000 0.34969  0.15111  0.28268  Biso   1.000  H
  C738     1.0000 0.40458  0.23452  0.25429  Biso   1.000  C
  H710     1.0000 0.31091  0.21539  0.30733  Biso   1.000  H
  H711     1.0000 0.34976  0.15111  0.28273  Biso   1.000  H
  C739     1.0000 0.40465  0.23452  0.25434  Biso   1.000  C
  C740     1.0000 0.34021  0.10209  0.14912  Biso   1.000  C
  C741     1.0000 0.25479  0.17841  0.07820  Biso   1.000  C
  C742     1.0000 0.25485  0.17841  0.07820  Biso   1.000  C
  H712     1.0000 0.22895  0.03840  0.37952  Biso   1.000  H
  C743     1.0000 0.17291  0.10058  0.43630  Biso   1.000  C
  H713     1.0000 0.16991  0.00259  0.42099  Biso   1.000  H
  H714     1.0000 0.16992  0.00259  0.42104  Biso   1.000  H
  C744     1.0000 0.03341  0.94648  0.25909  Biso   1.000  C
  C745     1.0000 0.17890  0.93870  0.28409  Biso   1.000  C
  C746     1.0000 0.03342  0.94648  0.25914  Biso   1.000  C
  C747     1.0000 0.74353  0.12900  0.95302  Biso   1.000  C
  H715     1.0000 0.38561  0.27238  0.22721  Biso   1.000  H
  H716     1.0000 0.43740  0.20791  0.22888  Biso   1.000  H
  C748     1.0000 0.45688  0.25702  0.32279  Biso   1.000  C
  H717     1.0000 0.43741  0.20791  0.22893  Biso   1.000  H
  C749     1.0000 0.45695  0.25702  0.32284  Biso   1.000  C
  H718     1.0000 0.36270  0.08781  0.19201  Biso   1.000  H
  C750     1.0000 0.35679  0.06731  0.09522  Biso   1.000  C
  C751     1.0000 0.35685  0.06731  0.09522  Biso   1.000  C
  C752     1.0000 0.27069  0.14260  0.02581  Biso   1.000  C
  C753     1.0000 0.27075  0.14260  0.02581  Biso   1.000  C
  H719     1.0000 0.22134  0.10160  0.47019  Biso   1.000  H
  H720     1.0000 0.17379  0.13908  0.40811  Biso   1.000  H
  C754     1.0000 0.10009  0.10381  0.47059  Biso   1.000  C
  H721     1.0000 0.22135  0.10160  0.47024  Biso   1.000  H
  H722     1.0000 0.17385  0.13908  0.40811  Biso   1.000  H
  C755     1.0000 0.10016  0.10381  0.47064  Biso   1.000  C
  C756     1.0000 0.03223  0.89380  0.22408  Biso   1.000  C
  C757     1.0000 0.03224  0.89380  0.22413  Biso   1.000  C
  H723     1.0000 0.22880  0.95592  0.30349  Biso   1.000  H
  C758     1.0000 0.17944  0.88078  0.24772  Biso   1.000  C
  H724     1.0000 0.22881  0.95592  0.30354  Biso   1.000  H
  C759     1.0000 0.75828  0.15649  0.89362  Biso   1.000  C
  C760     1.0000 0.69301  0.08052  0.95459  Biso   1.000  C
  C761     1.0000 0.75834  0.15649  0.89362  Biso   1.000  C
  C762     1.0000 0.69302  0.08052  0.95464  Biso   1.000  C
  C763     1.0000 0.43612  0.31298  0.35572  Biso   1.000  C
  C764     1.0000 0.52511  0.22102  0.34991  Biso   1.000  C
  C765     1.0000 0.31828  0.09109  0.03071  Biso   1.000  C
  C766     1.0000 0.40598  0.00558  0.10098  Biso   1.000  C
  C767     1.0000 0.31834  0.09109  0.03071  Biso   1.000  C
  C768     1.0000 0.40605  0.00558  0.10103  Biso   1.000  C
  O121     1.0000 0.22363  0.15400  0.96120  Biso   1.000  O
  C769     1.0000 0.02689  0.13130  0.44069  Biso   1.000  C
  C770     1.0000 0.10632  0.07509  0.53399  Biso   1.000  C
  C771     1.0000 0.02696  0.13130  0.44074  Biso   1.000  C
  C772     1.0000 0.10633  0.07509  0.53404  Biso   1.000  C
  O122     1.0000 0.95903  0.87262  0.18589  Biso   1.000  O
  C773     1.0000 0.09909  0.85911  0.21651  Biso   1.000  C
  C774     1.0000 0.09915  0.85911  0.21651  Biso   1.000  C
  C775     1.0000 0.25328  0.84551  0.23510  Biso   1.000  C
  C776     1.0000 0.25334  0.84551  0.23510  Biso   1.000  C
  O123     1.0000 0.81082  0.21030  0.89291  Biso   1.000  O
  C777     1.0000 0.72211  0.12880  0.83229  Biso   1.000  C
  C778     1.0000 0.65098  0.05161  0.89660  Biso   1.000  C
  C779     1.0000 0.65104  0.05161  0.89660  Biso   1.000  C
  O124     1.0000 0.67629  0.05772  0.01859  Biso   1.000  O
  O125     1.0000 0.67630  0.05772  0.01864  Biso   1.000  O
  H725     1.0000 0.39054  0.33700  0.33759  Biso   1.000  H
  C780     1.0000 0.48353  0.33289  0.41548  Biso   1.000  C
  H726     1.0000 0.39055  0.33700  0.33764  Biso   1.000  H
  C781     1.0000 0.48354  0.33289  0.41553  Biso   1.000  C
  C782     1.0000 0.57253  0.24102  0.40972  Biso   1.000  C
  H727     1.0000 0.53898  0.18359  0.32789  Biso   1.000  H
  H728     1.0000 0.53905  0.18359  0.32794  Biso   1.000  H
  O126     1.0000 0.33328  0.05469  0.97292  Biso   1.000  O
  O127     1.0000 0.33334  0.05469  0.97292  Biso   1.000  O
  H729     1.0000 0.42903  0.00142  0.05910  Biso   1.000  H
  C783     1.0000 0.47749  0.00362  0.15953  Biso   1.000  C
  C784     1.0000 0.47755  0.00362  0.15953  Biso   1.000  C
  C785     1.0000 0.34902  0.94839  0.10340  Biso   1.000  C
  C786     1.0000 0.23769  0.21642  0.92680  Biso   1.000  C
  H730     1.0000 0.02274  0.15052  0.39821  Biso   1.000  H
  C787     1.0000 0.95994  0.12998  0.47428  Biso   1.000  C
  C788     1.0000 0.95995  0.12998  0.47433  Biso   1.000  C
  C789     1.0000 0.03932  0.07382  0.56758  Biso   1.000  C
  H731     1.0000 0.15532  0.05670  0.55399  Biso   1.000  H
  C790     1.0000 0.03933  0.07382  0.56763  Biso   1.000  C
  H732     1.0000 0.15532  0.05670  0.55404  Biso   1.000  H
  C791     1.0000 0.90230  0.84101  0.22782  Biso   1.000  C
  O128     1.0000 0.09510  0.80041  0.17938  Biso   1.000  O
  O129     1.0000 0.09511  0.80041  0.17943  Biso   1.000  O
  C792     1.0000 0.27789  0.87120  0.16771  Biso   1.000  C
  C793     1.0000 0.27795  0.87120  0.16771  Biso   1.000  C
  H733     1.0000 0.23918  0.79909  0.22878  Biso   1.000  H
  C794     1.0000 0.32451  0.85070  0.29440  Biso   1.000  C
  H734     1.0000 0.23925  0.79909  0.22883  Biso   1.000  H
  C795     1.0000 0.89059  0.19631  0.88528  Biso   1.000  C
  C796     1.0000 0.89060  0.19631  0.88533  Biso   1.000  C
  C797     1.0000 0.67147  0.07739  0.83638  Biso   1.000  C
  C798     1.0000 0.74672  0.15449  0.76490  Biso   1.000  C
  C799     1.0000 0.67154  0.07739  0.83643  Biso   1.000  C
  C800     1.0000 0.59402  0.99442  0.89902  Biso   1.000  C
  C801     1.0000 0.71342  0.99878  0.04258  Biso   1.000  C
  C802     1.0000 0.71343  0.99878  0.04263  Biso   1.000  C
  C803     1.0000 0.55174  0.29689  0.44251  Biso   1.000  C
  H735     1.0000 0.46960  0.37041  0.43751  Biso   1.000  H
  H736     1.0000 0.46966  0.37041  0.43751  Biso   1.000  H
  H737     1.0000 0.61822  0.21691  0.42781  Biso   1.000  H
  C804     1.0000 0.28658  0.00122  0.95742  Biso   1.000  C
  C805     1.0000 0.28664  0.00122  0.95742  Biso   1.000  C
  C806     1.0000 0.54481  0.04911  0.14483  Biso   1.000  C
  H738     1.0000 0.45899  0.01688  0.20100  Biso   1.000  H
  H739     1.0000 0.45905  0.01688  0.20100  Biso   1.000  H
  H740     1.0000 0.49823  0.95930  0.16538  Biso   1.000  H
  H741     1.0000 0.49824  0.95930  0.16544  Biso   1.000  H
  C807     1.0000 0.32853  0.92261  0.16362  Biso   1.000  C
  C808     1.0000 0.30699  0.91948  0.04541  Biso   1.000  C
  C809     1.0000 0.30705  0.91948  0.04541  Biso   1.000  C
  C810     1.0000 0.16532  0.21808  0.86432  Biso   1.000  C
  H742     1.0000 0.23481  0.25350  0.95651  Biso   1.000  H
  H743     1.0000 0.29018  0.21642  0.91150  Biso   1.000  H
  H744     1.0000 0.29024  0.21642  0.91150  Biso   1.000  H
  H745     1.0000 0.91089  0.14842  0.45428  Biso   1.000  H
  C811     1.0000 0.96612  0.10131  0.53768  Biso   1.000  C
  H746     1.0000 0.91096  0.14842  0.45433  Biso   1.000  H
  C812     1.0000 0.96613  0.10131  0.53773  Biso   1.000  C
  H747     1.0000 0.04354  0.05459  0.61012  Biso   1.000  H
  H748     1.0000 0.89600  0.86841  0.26611  Biso   1.000  H
  H749     1.0000 0.92340  0.79880  0.24449  Biso   1.000  H
  C813     1.0000 0.81949  0.83250  0.18069  Biso   1.000  C
  H750     1.0000 0.89606  0.86841  0.26611  Biso   1.000  H
  H751     1.0000 0.92341  0.79880  0.24454  Biso   1.000  H
  C814     1.0000 0.81956  0.83250  0.18074  Biso   1.000  C
  C815     1.0000 0.10941  0.80369  0.11472  Biso   1.000  C
  C816     1.0000 0.24172  0.84351  0.10638  Biso   1.000  C
  C817     1.0000 0.24172  0.84351  0.10643  Biso   1.000  C
  H752     1.0000 0.34470  0.89531  0.29799  Biso   1.000  H
  H753     1.0000 0.30569  0.83950  0.33638  Biso   1.000  H
  C818     1.0000 0.39193  0.80501  0.28278  Biso   1.000  C
  H754     1.0000 0.34471  0.89531  0.29804  Biso   1.000  H
  H755     1.0000 0.30576  0.83950  0.33643  Biso   1.000  H
  C819     1.0000 0.39194  0.80501  0.28283  Biso   1.000  C
  O130     1.0000 0.90490  0.19959  0.82062  Biso   1.000  O
  H756     1.0000 0.90398  0.15258  0.90251  Biso   1.000  H
  H757     1.0000 0.92659  0.22669  0.91251  Biso   1.000  H
  H758     1.0000 0.90404  0.15258  0.90251  Biso   1.000  H
  H759     1.0000 0.64839  0.05772  0.79612  Biso   1.000  H
  C820     1.0000 0.82056  0.11922  0.75228  Biso   1.000  C
  C821     1.0000 0.82063  0.11922  0.75233  Biso   1.000  C
  H760     1.0000 0.76082  0.20091  0.77122  Biso   1.000  H
  C822     1.0000 0.67549  0.14930  0.70560  Biso   1.000  C
  C823     1.0000 0.64321  0.93269  0.90478  Biso   1.000  C
  H761     1.0000 0.57097  0.99858  0.94090  Biso   1.000  H
  C824     1.0000 0.52251  0.99638  0.84047  Biso   1.000  C
  C825     1.0000 0.64322  0.93269  0.90483  Biso   1.000  C
  H762     1.0000 0.57103  0.99858  0.94090  Biso   1.000  H
  C826     1.0000 0.52252  0.99638  0.84053  Biso   1.000  C
  O131     1.0000 0.66672  0.94531  0.02708  Biso   1.000  O
  H763     1.0000 0.76342  0.99359  0.02389  Biso   1.000  H
  O132     1.0000 0.66673  0.94531  0.02713  Biso   1.000  O
  H764     1.0000 0.72782  0.00161  0.09128  Biso   1.000  H
  H765     1.0000 0.72783  0.00161  0.09133  Biso   1.000  H
  H766     1.0000 0.58354  0.31029  0.48252  Biso   1.000  H
  O133     1.0000 0.32371  0.94228  0.98141  Biso   1.000  O
  H767     1.0000 0.27218  0.99839  0.90872  Biso   1.000  H
  H768     1.0000 0.27224  0.99839  0.90872  Biso   1.000  H
  H769     1.0000 0.23658  0.00641  0.97611  Biso   1.000  H
  H770     1.0000 0.23664  0.00641  0.97611  Biso   1.000  H
  H771     1.0000 0.52380  0.09329  0.14008  Biso   1.000  H
  H772     1.0000 0.56093  0.03659  0.10219  Biso   1.000  H
  C827     1.0000 0.61969  0.04819  0.19958  Biso   1.000  C
  H773     1.0000 0.52381  0.09329  0.14013  Biso   1.000  H
  H774     1.0000 0.56094  0.03659  0.10224  Biso   1.000  H
  C828     1.0000 0.61976  0.04819  0.19963  Biso   1.000  C
  H775     1.0000 0.35161  0.94228  0.20388  Biso   1.000  H
  H776     1.0000 0.35162  0.94228  0.20393  Biso   1.000  H
  C829     1.0000 0.25647  0.87100  0.04698  Biso   1.000  C
  C830     1.0000 0.25654  0.87100  0.04703  Biso   1.000  C
  C831     1.0000 0.18051  0.16750  0.81931  Biso   1.000  C
  H777     1.0000 0.16362  0.26020  0.84189  Biso   1.000  H
  H778     1.0000 0.11362  0.21089  0.87967  Biso   1.000  H
  H779     1.0000 0.16363  0.26020  0.84194  Biso   1.000  H
  H780     1.0000 0.11363  0.21089  0.87972  Biso   1.000  H
  H781     1.0000 0.92135  0.10038  0.56021  Biso   1.000  H
  H782     1.0000 0.77711  0.81978  0.20630  Biso   1.000  H
  H783     1.0000 0.80350  0.87262  0.15639  Biso   1.000  H
  C832     1.0000 0.83468  0.78192  0.13568  Biso   1.000  C
  C833     1.0000 0.83475  0.78192  0.13573  Biso   1.000  C
  O134     1.0000 0.18918  0.78970  0.10709  Biso   1.000  O
  O135     1.0000 0.18925  0.78970  0.10714  Biso   1.000  O
  H784     1.0000 0.09602  0.84742  0.09749  Biso   1.000  H
  H785     1.0000 0.07341  0.77331  0.08749  Biso   1.000  H
  H786     1.0000 0.07342  0.77331  0.08754  Biso   1.000  H
  H787     1.0000 0.40524  0.81289  0.23803  Biso   1.000  H
  H788     1.0000 0.37272  0.76030  0.28409  Biso   1.000  H
  C834     1.0000 0.46760  0.81279  0.33410  Biso   1.000  C
  C835     1.0000 0.46766  0.81279  0.33410  Biso   1.000  C
  C836     1.0000 0.90091  0.14089  0.78349  Biso   1.000  C
  C837     1.0000 0.82110  0.06130  0.71591  Biso   1.000  C
  H789     1.0000 0.65530  0.10469  0.70201  Biso   1.000  H
  H790     1.0000 0.69431  0.16050  0.66362  Biso   1.000  H
  C838     1.0000 0.60807  0.19499  0.71722  Biso   1.000  C
  C839     1.0000 0.60813  0.19499  0.71722  Biso   1.000  C
  C840     1.0000 0.68172  0.90891  0.96929  Biso   1.000  C
  C841     1.0000 0.65979  0.89791  0.85088  Biso   1.000  C
  C842     1.0000 0.68173  0.90891  0.96934  Biso   1.000  C
  C843     1.0000 0.65980  0.89791  0.85093  Biso   1.000  C
  H791     1.0000 0.54101  0.98312  0.79900  Biso   1.000  H
  C844     1.0000 0.45519  0.95089  0.85517  Biso   1.000  C
  C845     1.0000 0.45520  0.95089  0.85523  Biso   1.000  C
  H792     1.0000 0.50177  0.04070  0.83462  Biso   1.000  H
  H793     1.0000 0.50183  0.04070  0.83462  Biso   1.000  H
  C846     1.0000 0.64728  0.10708  0.22939  Biso   1.000  C
  C847     1.0000 0.64735  0.10708  0.22944  Biso   1.000  C
  C848     1.0000 0.66140  0.99061  0.21858  Biso   1.000  C
  C849     1.0000 0.66141  0.99061  0.21863  Biso   1.000  C
  O136     1.0000 0.21151  0.84659  0.98682  Biso   1.000  O
  C850     1.0000 0.09770  0.15899  0.77218  Biso   1.000  C
  H794     1.0000 0.22289  0.18022  0.79370  Biso   1.000  H
  H795     1.0000 0.19650  0.12738  0.84361  Biso   1.000  H
  C851     1.0000 0.09771  0.15899  0.77223  Biso   1.000  C
  H796     1.0000 0.83638  0.73980  0.15811  Biso   1.000  H
  H797     1.0000 0.88638  0.78911  0.12033  Biso   1.000  H
  C852     1.0000 0.76231  0.78358  0.07320  Biso   1.000  C
  H798     1.0000 0.83644  0.73980  0.15811  Biso   1.000  H
  H799     1.0000 0.88644  0.78911  0.12033  Biso   1.000  H
  C853     1.0000 0.52280  0.86210  0.32582  Biso   1.000  C
  C854     1.0000 0.48650  0.76690  0.38533  Biso   1.000  C
  C855     1.0000 0.52286  0.86210  0.32582  Biso   1.000  C
  C856     1.0000 0.48656  0.76690  0.38533  Biso   1.000  C
  C857     1.0000 0.96777  0.10620  0.77592  Biso   1.000  C
  C858     1.0000 0.96783  0.10620  0.77592  Biso   1.000  C
  C859     1.0000 0.89160  0.02710  0.70661  Biso   1.000  C
  H800     1.0000 0.77120  0.04408  0.69651  Biso   1.000  H
  H801     1.0000 0.59476  0.18711  0.76197  Biso   1.000  H
  H802     1.0000 0.62728  0.23970  0.71591  Biso   1.000  H
  C860     1.0000 0.53240  0.18721  0.66590  Biso   1.000  C
  H803     1.0000 0.59483  0.18711  0.76203  Biso   1.000  H
  C861     1.0000 0.72931  0.85740  0.97419  Biso   1.000  C
  C862     1.0000 0.72932  0.85740  0.97424  Biso   1.000  C
  C863     1.0000 0.70862  0.84199  0.85598  Biso   1.000  C
  H804     1.0000 0.63730  0.91219  0.80799  Biso   1.000  H
  C864     1.0000 0.70862  0.84199  0.85603  Biso   1.000  C
  H805     1.0000 0.47620  0.90671  0.85992  Biso   1.000  H
  H806     1.0000 0.43907  0.96341  0.89781  Biso   1.000  H
  C865     1.0000 0.38031  0.95181  0.80042  Biso   1.000  C
  H807     1.0000 0.43913  0.96341  0.89781  Biso   1.000  H
  H808     1.0000 0.61943  0.14568  0.21671  Biso   1.000  H
  C866     1.0000 0.71651  0.10840  0.27808  Biso   1.000  C
  C867     1.0000 0.71652  0.10840  0.27813  Biso   1.000  C
  H809     1.0000 0.64301  0.95108  0.19872  Biso   1.000  H
  C868     1.0000 0.73070  0.99188  0.26732  Biso   1.000  C
  C869     1.0000 0.73076  0.99188  0.26732  Biso   1.000  C
  C870     1.0000 0.23729  0.78251  0.96681  Biso   1.000  C
  C871     1.0000 0.25685  0.82531  0.93383  Biso   1.000  C
  O137     1.0000 0.04097  0.12738  0.81411  Biso   1.000  O
  H810     1.0000 0.10400  0.13159  0.73389  Biso   1.000  H
  H811     1.0000 0.07660  0.20120  0.75551  Biso   1.000  H
  O138     1.0000 0.04103  0.12738  0.81411  Biso   1.000  O
  H812     1.0000 0.10401  0.13159  0.73394  Biso   1.000  H
  H813     1.0000 0.76519  0.74650  0.04349  Biso   1.000  H
  H814     1.0000 0.70982  0.78358  0.08850  Biso   1.000  H
  O139     1.0000 0.77637  0.84600  0.03880  Biso   1.000  O
  O140     1.0000 0.77643  0.84600  0.03880  Biso   1.000  O
  H815     1.0000 0.51023  0.89282  0.29162  Biso   1.000  H
  C872     1.0000 0.59684  0.86542  0.36881  Biso   1.000  C
  C873     1.0000 0.56040  0.77018  0.42821  Biso   1.000  C
  H816     1.0000 0.44963  0.73388  0.39078  Biso   1.000  H
  C874     1.0000 0.56046  0.77018  0.42821  Biso   1.000  C
  H817     1.0000 0.44963  0.73388  0.39083  Biso   1.000  H
  C875     1.0000 0.96659  0.05352  0.74091  Biso   1.000  C
  C876     1.0000 0.88897  0.96292  0.66999  Biso   1.000  C
  C877     1.0000 0.88904  0.96292  0.67004  Biso   1.000  C
  C878     1.0000 0.47720  0.13790  0.67418  Biso   1.000  C
  C879     1.0000 0.51350  0.23310  0.61467  Biso   1.000  C
  C880     1.0000 0.47721  0.13790  0.67423  Biso   1.000  C
  C881     1.0000 0.51351  0.23310  0.61472  Biso   1.000  C
  C882     1.0000 0.74521  0.82159  0.92180  Biso   1.000  C
  C883     1.0000 0.73148  0.80398  0.79622  Biso   1.000  C
  C884     1.0000 0.73154  0.80398  0.79622  Biso   1.000  C
  C885     1.0000 0.35272  0.89292  0.77061  Biso   1.000  C
  C886     1.0000 0.33860  0.00939  0.78142  Biso   1.000  C
  C887     1.0000 0.75823  0.05078  0.29708  Biso   1.000  C
  H818     1.0000 0.73503  0.14788  0.29799  Biso   1.000  H
  C888     1.0000 0.75824  0.05078  0.29713  Biso   1.000  C
  H819     1.0000 0.73504  0.14788  0.29804  Biso   1.000  H
  H820     1.0000 0.75849  0.95328  0.28000  Biso   1.000  H
  H821     1.0000 0.75855  0.95328  0.28000  Biso   1.000  H
  C889     1.0000 0.21450  0.77781  0.88912  Biso   1.000  C
  H822     1.0000 0.29551  0.77752  0.98000  Biso   1.000  H
  H823     1.0000 0.21012  0.74841  0.98838  Biso   1.000  H
  H824     1.0000 0.21013  0.74841  0.98843  Biso   1.000  H
  H825     1.0000 0.29242  0.78911  0.94954  Biso   1.000  H
  C890     1.0000 0.19191  0.80349  0.87250  Biso   1.000  C
  H826     1.0000 0.28963  0.86092  0.92069  Biso   1.000  H
  H827     1.0000 0.63370  0.89840  0.36330  Biso   1.000  H
  C891     1.0000 0.61560  0.81949  0.41998  Biso   1.000  C
  H828     1.0000 0.63376  0.89840  0.36330  Biso   1.000  H
  C892     1.0000 0.61561  0.81949  0.42003  Biso   1.000  C
  H829     1.0000 0.57304  0.73951  0.46251  Biso   1.000  H
  O141     1.0000 0.03777  0.01981  0.73490  Biso   1.000  O
  O142     1.0000 0.03783  0.01981  0.73490  Biso   1.000  O
  C893     1.0000 0.88658  0.90970  0.71919  Biso   1.000  C
  H830     1.0000 0.94146  0.95881  0.65408  Biso   1.000  H
  C894     1.0000 0.82429  0.95930  0.60659  Biso   1.000  C
  C895     1.0000 0.88659  0.90970  0.71924  Biso   1.000  C
  H831     1.0000 0.94153  0.95881  0.65413  Biso   1.000  H
  H832     1.0000 0.48977  0.10718  0.70838  Biso   1.000  H
  C896     1.0000 0.40316  0.13458  0.63119  Biso   1.000  C
  H833     1.0000 0.48984  0.10718  0.70843  Biso   1.000  H
  C897     1.0000 0.40322  0.13458  0.63119  Biso   1.000  C
  C898     1.0000 0.43960  0.22982  0.57179  Biso   1.000  C
  H834     1.0000 0.55037  0.26612  0.60922  Biso   1.000  H
  C899     1.0000 0.43961  0.22982  0.57184  Biso   1.000  C
  O143     1.0000 0.78930  0.76421  0.93009  Biso   1.000  O
  O144     1.0000 0.78931  0.76421  0.93014  Biso   1.000  O
  C900     1.0000 0.81059  0.83461  0.77910  Biso   1.000  C
  H835     1.0000 0.74262  0.75859  0.81012  Biso   1.000  H
  C901     1.0000 0.66671  0.80442  0.72980  Biso   1.000  C
  C902     1.0000 0.28349  0.89160  0.72192  Biso   1.000  C
  H836     1.0000 0.38057  0.85432  0.78329  Biso   1.000  H
  H837     1.0000 0.38063  0.85432  0.78329  Biso   1.000  H
  H838     1.0000 0.35699  0.04892  0.80128  Biso   1.000  H
  C903     1.0000 0.26930  0.00812  0.73268  Biso   1.000  C
  H839     1.0000 0.35700  0.04892  0.80133  Biso   1.000  H
  C904     1.0000 0.26931  0.00812  0.73273  Biso   1.000  C
  H840     1.0000 0.80461  0.05171  0.32971  Biso   1.000  H
  C905     1.0000 0.13479  0.74039  0.87220  Biso   1.000  C
  H841     1.0000 0.25709  0.75531  0.87038  Biso   1.000  H
  H842     1.0000 0.20850  0.82130  0.86972  Biso   1.000  H
  H843     1.0000 0.25710  0.75531  0.87043  Biso   1.000  H
  C906     1.0000 0.13782  0.75242  0.90074  Biso   1.000  C
  H844     1.0000 0.21824  0.78451  0.83724  Biso   1.000  H
  H845     1.0000 0.15964  0.84072  0.85391  Biso   1.000  H
  H846     1.0000 0.66512  0.82169  0.44882  Biso   1.000  H
  C907     1.0000 0.05768  0.96390  0.77652  Biso   1.000  C
  C908     1.0000 0.05774  0.96390  0.77652  Biso   1.000  C
  C909     1.0000 0.95826  0.88582  0.75728  Biso   1.000  C
  C910     1.0000 0.95833  0.88582  0.75733  Biso   1.000  C
  C911     1.0000 0.81408  0.88211  0.73318  Biso   1.000  C
  C912     1.0000 0.81409  0.88211  0.73323  Biso   1.000  C
  H847     1.0000 0.83009  0.99741  0.57901  Biso   1.000  H
  H848     1.0000 0.77105  0.96160  0.62048  Biso   1.000  H
  C913     1.0000 0.82709  0.89942  0.56370  Biso   1.000  C
  H849     1.0000 0.77112  0.96160  0.62053  Biso   1.000  H
  H850     1.0000 0.36630  0.10160  0.63670  Biso   1.000  H
  C914     1.0000 0.38440  0.18051  0.58002  Biso   1.000  C
  H851     1.0000 0.42696  0.26049  0.53749  Biso   1.000  H
  H852     1.0000 0.42703  0.26049  0.53754  Biso   1.000  H
  C915     1.0000 0.87222  0.76969  0.92231  Biso   1.000  C
  C916     1.0000 0.88370  0.81152  0.81330  Biso   1.000  C
  H853     1.0000 0.68910  0.78461  0.69272  Biso   1.000  H
  H854     1.0000 0.65031  0.84889  0.71732  Biso   1.000  H
  C917     1.0000 0.59542  0.76548  0.74571  Biso   1.000  C
  C918     1.0000 0.24177  0.94922  0.70292  Biso   1.000  C
  H855     1.0000 0.26497  0.85212  0.70201  Biso   1.000  H
  C919     1.0000 0.24183  0.94922  0.70292  Biso   1.000  C
  H856     1.0000 0.26503  0.85212  0.70201  Biso   1.000  H
  H857     1.0000 0.24151  0.04672  0.72000  Biso   1.000  H
  C920     1.0000 0.07869  0.77742  0.81572  Biso   1.000  C
  H858     1.0000 0.14518  0.69651  0.85720  Biso   1.000  H
  H859     1.0000 0.10861  0.73701  0.91210  Biso   1.000  H
  C921     1.0000 0.05504  0.75218  0.85053  Biso   1.000  C
  H860     1.0000 0.16302  0.70952  0.90251  Biso   1.000  H
  H861     1.0000 0.12909  0.76431  0.94590  Biso   1.000  H
  O145     1.0000 0.03309  0.90568  0.74611  Biso   1.000  O
  H862     1.0000 0.03296  0.96859  0.81688  Biso   1.000  H
  H863     1.0000 0.11617  0.96258  0.79021  Biso   1.000  H
  H864     1.0000 0.03303  0.96859  0.81693  Biso   1.000  H
  H865     1.0000 0.11623  0.96258  0.79021  Biso   1.000  H
  C922     1.0000 0.95338  0.83622  0.80441  Biso   1.000  C
  C923     1.0000 0.95344  0.83622  0.80441  Biso   1.000  C
  H866     1.0000 0.76538  0.89761  0.70929  Biso   1.000  H
  H867     1.0000 0.76538  0.89761  0.70934  Biso   1.000  H
  H868     1.0000 0.77866  0.89840  0.52981  Biso   1.000  H
  H869     1.0000 0.82621  0.86092  0.59189  Biso   1.000  H
  C924     1.0000 0.89991  0.89619  0.52941  Biso   1.000  C
  H870     1.0000 0.77872  0.89840  0.52981  Biso   1.000  H
  H871     1.0000 0.33488  0.17831  0.55118  Biso   1.000  H
  H872     1.0000 0.33489  0.17831  0.55123  Biso   1.000  H
  O146     1.0000 0.88609  0.75722  0.85659  Biso   1.000  O
  O147     1.0000 0.88610  0.75722  0.85664  Biso   1.000  O
  H873     1.0000 0.90393  0.73921  0.95292  Biso   1.000  H
  H874     1.0000 0.89102  0.81352  0.93509  Biso   1.000  H
  H875     1.0000 0.89103  0.81352  0.93514  Biso   1.000  H
  H876     1.0000 0.61439  0.72762  0.77279  Biso   1.000  H
  H877     1.0000 0.56260  0.79209  0.77112  Biso   1.000  H
  C925     1.0000 0.54312  0.74298  0.67721  Biso   1.000  C
  H878     1.0000 0.61440  0.72762  0.77284  Biso   1.000  H
  H879     1.0000 0.19539  0.94829  0.67029  Biso   1.000  H
  O148     1.0000 0.02591  0.81959  0.84770  Biso   1.000  O
  H880     1.0000 0.04647  0.74650  0.78592  Biso   1.000  H
  H881     1.0000 0.11098  0.80320  0.78910  Biso   1.000  H
  H882     1.0000 0.04653  0.74650  0.78592  Biso   1.000  H
  H883     1.0000 0.11104  0.80320  0.78910  Biso   1.000  H
  H884     1.0000 0.06319  0.73750  0.80612  Biso   1.000  H
  H885     1.0000 0.01600  0.72341  0.86679  Biso   1.000  H
  C926     1.0000 0.97311  0.86870  0.55931  Biso   1.000  C
  C927     1.0000 0.89368  0.92491  0.46601  Biso   1.000  C
  C928     1.0000 0.56388  0.68702  0.64428  Biso   1.000  C
  C929     1.0000 0.47489  0.77898  0.65009  Biso   1.000  C
  C930     1.0000 0.56389  0.68702  0.64433  Biso   1.000  C
  C931     1.0000 0.47490  0.77898  0.65014  Biso   1.000  C
  H886     1.0000 0.97726  0.84948  0.60179  Biso   1.000  H
  H887     1.0000 0.97732  0.84948  0.60179  Biso   1.000  H
  C932     1.0000 0.04006  0.87002  0.52572  Biso   1.000  C
  C933     1.0000 0.04012  0.87002  0.52572  Biso   1.000  C
  C934     1.0000 0.96068  0.92618  0.43242  Biso   1.000  C
  H888     1.0000 0.84468  0.94330  0.44601  Biso   1.000  H
  H889     1.0000 0.60946  0.66300  0.66241  Biso   1.000  H
  C935     1.0000 0.51647  0.66711  0.58452  Biso   1.000  C
  H890     1.0000 0.60952  0.66300  0.66241  Biso   1.000  H
  C936     1.0000 0.42747  0.75898  0.59028  Biso   1.000  C
  H891     1.0000 0.46102  0.81641  0.67211  Biso   1.000  H
  C937     1.0000 0.42748  0.75898  0.59033  Biso   1.000  C
  H892     1.0000 0.08911  0.85158  0.54572  Biso   1.000  H
  C938     1.0000 0.03388  0.89869  0.46232  Biso   1.000  C
  H893     1.0000 0.95646  0.94541  0.38988  Biso   1.000  H
  H894     1.0000 0.95647  0.94541  0.38993  Biso   1.000  H
  H895     1.0000 0.53040  0.62959  0.56249  Biso   1.000  H
  C939     1.0000 0.44826  0.70311  0.55749  Biso   1.000  C
  C940     1.0000 0.44832  0.70311  0.55749  Biso   1.000  C
  H896     1.0000 0.38178  0.78309  0.57219  Biso   1.000  H
  H897     1.0000 0.07865  0.89962  0.43979  Biso   1.000  H
  H898     1.0000 0.07871  0.89962  0.43979  Biso   1.000  H
  H899     1.0000 0.41646  0.68971  0.51748  Biso   1.000  H
  H900     1.0000 0.41653  0.68971  0.51753  Biso   1.000  H
  O149     1.0000 0.97415  0.18041  0.15230  Biso   1.000  O
  C941     1.0000 0.04662  0.16378  0.19559  Biso   1.000  C
  C942     1.0000 0.04663  0.16378  0.19564  Biso   1.000  C
  C943     1.0000 0.92131  0.22258  0.18428  Biso   1.000  C
  C944     1.0000 0.92132  0.22258  0.18433  Biso   1.000  C
  C945     1.0000 0.94503  0.24782  0.14952  Biso   1.000  C
  C946     1.0000 0.11630  0.18848  0.18670  Biso   1.000  C
  C947     1.0000 0.04174  0.11418  0.24272  Biso   1.000  C
  O150     1.0000 0.97409  0.18041  0.15230  Biso   1.000  O
  H901     1.0000 0.95353  0.25350  0.21408  Biso   1.000  H
  H902     1.0000 0.88902  0.19680  0.21090  Biso   1.000  H
  C948     1.0000 0.86521  0.25961  0.12780  Biso   1.000  C
  H903     1.0000 0.95354  0.25350  0.21413  Biso   1.000  H
  H904     1.0000 0.93682  0.26250  0.19393  Biso   1.000  H
  H905     1.0000 0.98400  0.27659  0.13321  Biso   1.000  H
  C949     1.0000 0.86219  0.24758  0.09931  Biso   1.000  C
  C950     1.0000 0.18941  0.16539  0.22090  Biso   1.000  C
  O151     1.0000 0.11391  0.24278  0.14341  Biso   1.000  O
  C951     1.0000 0.11342  0.09030  0.28081  Biso   1.000  C
  O152     1.0000 0.96691  0.09432  0.25389  Biso   1.000  O
  O153     1.0000 0.96692  0.09432  0.25394  Biso   1.000  O
  H906     1.0000 0.85482  0.30349  0.14280  Biso   1.000  H
  H907     1.0000 0.89139  0.26299  0.08790  Biso   1.000  H
  C952     1.0000 0.78550  0.22219  0.11088  Biso   1.000  C
  H908     1.0000 0.89145  0.26299  0.08790  Biso   1.000  H
  C953     1.0000 0.78551  0.22219  0.11093  Biso   1.000  C
  H909     1.0000 0.83698  0.29048  0.09749  Biso   1.000  H
  C954     1.0000 0.80809  0.19651  0.12750  Biso   1.000  C
  H910     1.0000 0.87091  0.23569  0.05410  Biso   1.000  H
  C955     1.0000 0.18592  0.11789  0.26682  Biso   1.000  C
  C956     1.0000 0.26852  0.19602  0.20378  Biso   1.000  C
  C957     1.0000 0.26853  0.19602  0.20383  Biso   1.000  C
  C958     1.0000 0.12778  0.23031  0.07769  Biso   1.000  C
  C959     1.0000 0.12785  0.23031  0.07774  Biso   1.000  C
  C960     1.0000 0.11103  0.03708  0.33001  Biso   1.000  C
  C961     1.0000 0.94232  0.03610  0.22348  Biso   1.000  C
  C962     1.0000 0.94233  0.03610  0.22353  Biso   1.000  C
  H911     1.0000 0.74291  0.24469  0.12962  Biso   1.000  H
  H912     1.0000 0.79150  0.17870  0.13028  Biso   1.000  H
  C963     1.0000 0.76271  0.21749  0.03319  Biso   1.000  C
  H913     1.0000 0.79151  0.17870  0.13033  Biso   1.000  H
  C964     1.0000 0.76272  0.21749  0.03324  Biso   1.000  C
  H914     1.0000 0.78183  0.21549  0.16281  Biso   1.000  H
  C965     1.0000 0.74322  0.17469  0.06622  Biso   1.000  C
  H915     1.0000 0.84042  0.15928  0.14609  Biso   1.000  H
  H916     1.0000 0.23462  0.10239  0.29071  Biso   1.000  H
  H917     1.0000 0.25738  0.24141  0.18988  Biso   1.000  H
  C966     1.0000 0.33329  0.19558  0.27020  Biso   1.000  C
  C967     1.0000 0.29138  0.15801  0.14402  Biso   1.000  C
  H918     1.0000 0.25745  0.24141  0.18994  Biso   1.000  H
  C968     1.0000 0.33335  0.19558  0.27020  Biso   1.000  C
  C969     1.0000 0.29144  0.15801  0.14402  Biso   1.000  C
  O154     1.0000 0.21070  0.23579  0.06991  Biso   1.000  O
  H919     1.0000 0.09607  0.26079  0.04708  Biso   1.000  H
  H920     1.0000 0.10898  0.18648  0.06491  Biso   1.000  H
  H921     1.0000 0.09614  0.26079  0.04713  Biso   1.000  H
  H922     1.0000 0.10904  0.18648  0.06491  Biso   1.000  H
  H923     1.0000 0.05854  0.04119  0.34592  Biso   1.000  H
  C970     1.0000 0.17571  0.04070  0.39341  Biso   1.000  C
  C971     1.0000 0.10840  0.97290  0.29339  Biso   1.000  C
  C972     1.0000 0.10841  0.97290  0.29344  Biso   1.000  C
  O155     1.0000 0.96223  0.98019  0.26510  Biso   1.000  O
  H924     1.0000 0.96704  0.03141  0.18312  Biso   1.000  H
  H925     1.0000 0.88383  0.03742  0.20979  Biso   1.000  H
  H926     1.0000 0.88384  0.03742  0.20984  Biso   1.000  H
  H927     1.0000 0.70449  0.22248  0.02000  Biso   1.000  H
  H928     1.0000 0.78988  0.25159  0.01162  Biso   1.000  H
  O156     1.0000 0.78849  0.15341  0.01318  Biso   1.000  O
  H929     1.0000 0.70455  0.22248  0.02000  Biso   1.000  H
  H930     1.0000 0.78994  0.25159  0.01162  Biso   1.000  H
  O157     1.0000 0.78850  0.15341  0.01323  Biso   1.000  O
  H931     1.0000 0.70759  0.21089  0.05051  Biso   1.000  H
  H932     1.0000 0.71043  0.13908  0.07931  Biso   1.000  H
  H933     1.0000 0.31090  0.21539  0.30728  Biso   1.000  H
  H934     1.0000 0.34969  0.15111  0.28268  Biso   1.000  H
  C973     1.0000 0.40458  0.23452  0.25429  Biso   1.000  C
  H935     1.0000 0.31091  0.21539  0.30733  Biso   1.000  H
  H936     1.0000 0.34976  0.15111  0.28273  Biso   1.000  H
  C974     1.0000 0.40465  0.23452  0.25434  Biso   1.000  C
  C975     1.0000 0.34021  0.10209  0.14912  Biso   1.000  C
  C976     1.0000 0.25479  0.17841  0.07820  Biso   1.000  C
  C977     1.0000 0.25485  0.17841  0.07820  Biso   1.000  C
  H937     1.0000 0.22895  0.03840  0.37952  Biso   1.000  H
  C978     1.0000 0.17291  0.10058  0.43630  Biso   1.000  C
  H938     1.0000 0.16991  0.00259  0.42099  Biso   1.000  H
  H939     1.0000 0.16992  0.00259  0.42104  Biso   1.000  H
  C979     1.0000 0.03341  0.94648  0.25909  Biso   1.000  C
  C980     1.0000 0.17890  0.93870  0.28409  Biso   1.000  C
  C981     1.0000 0.03342  0.94648  0.25914  Biso   1.000  C
  C982     1.0000 0.74353  0.12900  0.95302  Biso   1.000  C
  H940     1.0000 0.38561  0.27238  0.22721  Biso   1.000  H
  H941     1.0000 0.43740  0.20791  0.22888  Biso   1.000  H
  C983     1.0000 0.45688  0.25702  0.32279  Biso   1.000  C
  H942     1.0000 0.43741  0.20791  0.22893  Biso   1.000  H
  C984     1.0000 0.45695  0.25702  0.32284  Biso   1.000  C
  H943     1.0000 0.36270  0.08781  0.19201  Biso   1.000  H
  C985     1.0000 0.35679  0.06731  0.09522  Biso   1.000  C
  C986     1.0000 0.35685  0.06731  0.09522  Biso   1.000  C
  C987     1.0000 0.27069  0.14260  0.02581  Biso   1.000  C
  C988     1.0000 0.27075  0.14260  0.02581  Biso   1.000  C
  H944     1.0000 0.22134  0.10160  0.47019  Biso   1.000  H
  H945     1.0000 0.17379  0.13908  0.40811  Biso   1.000  H
  C989     1.0000 0.10009  0.10381  0.47059  Biso   1.000  C
  H946     1.0000 0.22135  0.10160  0.47024  Biso   1.000  H
  H947     1.0000 0.17385  0.13908  0.40811  Biso   1.000  H
  C990     1.0000 0.10016  0.10381  0.47064  Biso   1.000  C
  C991     1.0000 0.03223  0.89380  0.22408  Biso   1.000  C
  C992     1.0000 0.03224  0.89380  0.22413  Biso   1.000  C
  H948     1.0000 0.22880  0.95592  0.30349  Biso   1.000  H
  C993     1.0000 0.17944  0.88078  0.24772  Biso   1.000  C
  H949     1.0000 0.22881  0.95592  0.30354  Biso   1.000  H
  C994     1.0000 0.75828  0.15649  0.89362  Biso   1.000  C
  C995     1.0000 0.69301  0.08052  0.95459  Biso   1.000  C
  C996     1.0000 0.75834  0.15649  0.89362  Biso   1.000  C
  C997     1.0000 0.69302  0.08052  0.95464  Biso   1.000  C
  C998     1.0000 0.43612  0.31298  0.35572  Biso   1.000  C
  C999     1.0000 0.52511  0.22102  0.34991  Biso   1.000  C
  C1000    1.0000 0.31828  0.09109  0.03071  Biso   1.000  C
  C1001    1.0000 0.40598  0.00558  0.10098  Biso   1.000  C
  C1002    1.0000 0.31834  0.09109  0.03071  Biso   1.000  C
  C1003    1.0000 0.40605  0.00558  0.10103  Biso   1.000  C
  O158     1.0000 0.22363  0.15400  0.96120  Biso   1.000  O
  C1004    1.0000 0.02689  0.13130  0.44069  Biso   1.000  C
  C1005    1.0000 0.10632  0.07509  0.53399  Biso   1.000  C
  C1006    1.0000 0.02696  0.13130  0.44074  Biso   1.000  C
  C1007    1.0000 0.10633  0.07509  0.53404  Biso   1.000  C
  O159     1.0000 0.95903  0.87262  0.18589  Biso   1.000  O
  C1008    1.0000 0.09909  0.85911  0.21651  Biso   1.000  C
  C1009    1.0000 0.09915  0.85911  0.21651  Biso   1.000  C
  C1010    1.0000 0.25328  0.84551  0.23510  Biso   1.000  C
  C1011    1.0000 0.25334  0.84551  0.23510  Biso   1.000  C
  O160     1.0000 0.81082  0.21030  0.89291  Biso   1.000  O
  C1012    1.0000 0.72211  0.12880  0.83229  Biso   1.000  C
  C1013    1.0000 0.65098  0.05161  0.89660  Biso   1.000  C
  C1014    1.0000 0.65104  0.05161  0.89660  Biso   1.000  C
  O161     1.0000 0.67629  0.05772  0.01859  Biso   1.000  O
  O162     1.0000 0.67630  0.05772  0.01864  Biso   1.000  O
  H950     1.0000 0.39054  0.33700  0.33759  Biso   1.000  H
  C1015    1.0000 0.48353  0.33289  0.41548  Biso   1.000  C
  H951     1.0000 0.39055  0.33700  0.33764  Biso   1.000  H
  C1016    1.0000 0.48354  0.33289  0.41553  Biso   1.000  C
  C1017    1.0000 0.57253  0.24102  0.40972  Biso   1.000  C
  H952     1.0000 0.53898  0.18359  0.32789  Biso   1.000  H
  H953     1.0000 0.53905  0.18359  0.32794  Biso   1.000  H
  O163     1.0000 0.33328  0.05469  0.97292  Biso   1.000  O
  O164     1.0000 0.33334  0.05469  0.97292  Biso   1.000  O
  H954     1.0000 0.42903  0.00142  0.05910  Biso   1.000  H
  C1018    1.0000 0.34902  0.94839  0.10340  Biso   1.000  C
  C1019    1.0000 0.47749  0.00362  0.15953  Biso   1.000  C
  C1020    1.0000 0.47755  0.00362  0.15953  Biso   1.000  C
  C1021    1.0000 0.23769  0.21642  0.92680  Biso   1.000  C
  H955     1.0000 0.02274  0.15052  0.39821  Biso   1.000  H
  C1022    1.0000 0.95994  0.12998  0.47428  Biso   1.000  C
  C1023    1.0000 0.95995  0.12998  0.47433  Biso   1.000  C
  C1024    1.0000 0.03932  0.07382  0.56758  Biso   1.000  C
  H956     1.0000 0.15532  0.05670  0.55399  Biso   1.000  H
  C1025    1.0000 0.03933  0.07382  0.56763  Biso   1.000  C
  H957     1.0000 0.15532  0.05670  0.55404  Biso   1.000  H
  C1026    1.0000 0.90230  0.84101  0.22782  Biso   1.000  C
  O165     1.0000 0.09510  0.80041  0.17938  Biso   1.000  O
  O166     1.0000 0.09511  0.80041  0.17943  Biso   1.000  O
  H958     1.0000 0.23918  0.79909  0.22878  Biso   1.000  H
  C1027    1.0000 0.32451  0.85070  0.29440  Biso   1.000  C
  C1028    1.0000 0.27789  0.87120  0.16771  Biso   1.000  C
  H959     1.0000 0.23925  0.79909  0.22883  Biso   1.000  H
  C1029    1.0000 0.27795  0.87120  0.16771  Biso   1.000  C
  C1030    1.0000 0.89059  0.19631  0.88528  Biso   1.000  C
  C1031    1.0000 0.89060  0.19631  0.88533  Biso   1.000  C
  C1032    1.0000 0.67147  0.07739  0.83638  Biso   1.000  C
  C1033    1.0000 0.74672  0.15449  0.76490  Biso   1.000  C
  C1034    1.0000 0.67154  0.07739  0.83643  Biso   1.000  C
  C1035    1.0000 0.59402  0.99442  0.89902  Biso   1.000  C
  C1036    1.0000 0.71342  0.99878  0.04258  Biso   1.000  C
  C1037    1.0000 0.71343  0.99878  0.04263  Biso   1.000  C
  C1038    1.0000 0.55174  0.29689  0.44251  Biso   1.000  C
  H960     1.0000 0.46960  0.37041  0.43751  Biso   1.000  H
  H961     1.0000 0.46966  0.37041  0.43751  Biso   1.000  H
  H962     1.0000 0.61822  0.21691  0.42781  Biso   1.000  H
  C1039    1.0000 0.28658  0.00122  0.95742  Biso   1.000  C
  C1040    1.0000 0.28664  0.00122  0.95742  Biso   1.000  C
  C1041    1.0000 0.32853  0.92261  0.16362  Biso   1.000  C
  C1042    1.0000 0.30699  0.91948  0.04541  Biso   1.000  C
  C1043    1.0000 0.30705  0.91948  0.04541  Biso   1.000  C
  C1044    1.0000 0.54481  0.04911  0.14483  Biso   1.000  C
  H963     1.0000 0.49823  0.95930  0.16538  Biso   1.000  H
  H964     1.0000 0.49824  0.95930  0.16544  Biso   1.000  H
  H965     1.0000 0.45899  0.01688  0.20100  Biso   1.000  H
  H966     1.0000 0.45905  0.01688  0.20100  Biso   1.000  H
  C1045    1.0000 0.16532  0.21808  0.86432  Biso   1.000  C
  H967     1.0000 0.23481  0.25350  0.95651  Biso   1.000  H
  H968     1.0000 0.29018  0.21642  0.91150  Biso   1.000  H
  H969     1.0000 0.29024  0.21642  0.91150  Biso   1.000  H
  H970     1.0000 0.91089  0.14842  0.45428  Biso   1.000  H
  C1046    1.0000 0.96612  0.10131  0.53768  Biso   1.000  C
  H971     1.0000 0.91096  0.14842  0.45433  Biso   1.000  H
  C1047    1.0000 0.96613  0.10131  0.53773  Biso   1.000  C
  H972     1.0000 0.04354  0.05459  0.61012  Biso   1.000  H
  H973     1.0000 0.89600  0.86841  0.26611  Biso   1.000  H
  H974     1.0000 0.92340  0.79880  0.24449  Biso   1.000  H
  C1048    1.0000 0.81949  0.83250  0.18069  Biso   1.000  C
  H975     1.0000 0.89606  0.86841  0.26611  Biso   1.000  H
  H976     1.0000 0.92341  0.79880  0.24454  Biso   1.000  H
  C1049    1.0000 0.81956  0.83250  0.18074  Biso   1.000  C
  C1050    1.0000 0.10941  0.80369  0.11472  Biso   1.000  C
  H977     1.0000 0.34470  0.89531  0.29799  Biso   1.000  H
  H978     1.0000 0.30569  0.83950  0.33638  Biso   1.000  H
  C1051    1.0000 0.39193  0.80501  0.28278  Biso   1.000  C
  H979     1.0000 0.34471  0.89531  0.29804  Biso   1.000  H
  H980     1.0000 0.30576  0.83950  0.33643  Biso   1.000  H
  C1052    1.0000 0.39194  0.80501  0.28283  Biso   1.000  C
  C1053    1.0000 0.24172  0.84351  0.10638  Biso   1.000  C
  C1054    1.0000 0.24172  0.84351  0.10643  Biso   1.000  C
  O167     1.0000 0.90490  0.19959  0.82062  Biso   1.000  O
  H981     1.0000 0.90398  0.15258  0.90251  Biso   1.000  H
  H982     1.0000 0.92659  0.22669  0.91251  Biso   1.000  H
  H983     1.0000 0.90404  0.15258  0.90251  Biso   1.000  H
  H984     1.0000 0.64839  0.05772  0.79612  Biso   1.000  H
  C1055    1.0000 0.82056  0.11922  0.75228  Biso   1.000  C
  H985     1.0000 0.76082  0.20091  0.77122  Biso   1.000  H
  C1056    1.0000 0.67549  0.14930  0.70560  Biso   1.000  C
  C1057    1.0000 0.82063  0.11922  0.75233  Biso   1.000  C
  C1058    1.0000 0.64321  0.93269  0.90478  Biso   1.000  C
  H986     1.0000 0.57097  0.99858  0.94090  Biso   1.000  H
  C1059    1.0000 0.52251  0.99638  0.84047  Biso   1.000  C
  C1060    1.0000 0.64322  0.93269  0.90483  Biso   1.000  C
  H987     1.0000 0.57103  0.99858  0.94090  Biso   1.000  H
  C1061    1.0000 0.52252  0.99638  0.84053  Biso   1.000  C
  O168     1.0000 0.66672  0.94531  0.02708  Biso   1.000  O
  H988     1.0000 0.76342  0.99359  0.02389  Biso   1.000  H
  O169     1.0000 0.66673  0.94531  0.02713  Biso   1.000  O
  H989     1.0000 0.72782  0.00161  0.09128  Biso   1.000  H
  H990     1.0000 0.72783  0.00161  0.09133  Biso   1.000  H
  H991     1.0000 0.58354  0.31029  0.48252  Biso   1.000  H
  O170     1.0000 0.32371  0.94228  0.98141  Biso   1.000  O
  H992     1.0000 0.27218  0.99839  0.90872  Biso   1.000  H
  H993     1.0000 0.27224  0.99839  0.90872  Biso   1.000  H
  H994     1.0000 0.23658  0.00641  0.97611  Biso   1.000  H
  H995     1.0000 0.23664  0.00641  0.97611  Biso   1.000  H
  H996     1.0000 0.35161  0.94228  0.20388  Biso   1.000  H
  H997     1.0000 0.35162  0.94228  0.20393  Biso   1.000  H
  C1062    1.0000 0.25647  0.87100  0.04698  Biso   1.000  C
  C1063    1.0000 0.25654  0.87100  0.04703  Biso   1.000  C
  H998     1.0000 0.52380  0.09329  0.14008  Biso   1.000  H
  H999     1.0000 0.56093  0.03659  0.10219  Biso   1.000  H
  C1064    1.0000 0.61969  0.04819  0.19958  Biso   1.000  C
  H1000    1.0000 0.52381  0.09329  0.14013  Biso   1.000  H
  H1001    1.0000 0.56094  0.03659  0.10224  Biso   1.000  H
  C1065    1.0000 0.61976  0.04819  0.19963  Biso   1.000  C
  C1066    1.0000 0.18051  0.16750  0.81931  Biso   1.000  C
  H1002    1.0000 0.16362  0.26020  0.84189  Biso   1.000  H
  H1003    1.0000 0.11362  0.21089  0.87967  Biso   1.000  H
  H1004    1.0000 0.16363  0.26020  0.84194  Biso   1.000  H
  H1005    1.0000 0.11363  0.21089  0.87972  Biso   1.000  H
  H1006    1.0000 0.92135  0.10038  0.56021  Biso   1.000  H
  H1007    1.0000 0.77711  0.81978  0.20630  Biso   1.000  H
  H1008    1.0000 0.80350  0.87262  0.15639  Biso   1.000  H
  C1067    1.0000 0.83468  0.78192  0.13568  Biso   1.000  C
  C1068    1.0000 0.83475  0.78192  0.13573  Biso   1.000  C
  H1009    1.0000 0.09602  0.84742  0.09749  Biso   1.000  H
  H1010    1.0000 0.07341  0.77331  0.08749  Biso   1.000  H
  O171     1.0000 0.18918  0.78970  0.10709  Biso   1.000  O
  H1011    1.0000 0.07342  0.77331  0.08754  Biso   1.000  H
  O172     1.0000 0.18925  0.78970  0.10714  Biso   1.000  O
  H1012    1.0000 0.40524  0.81289  0.23803  Biso   1.000  H
  H1013    1.0000 0.37272  0.76030  0.28409  Biso   1.000  H
  C1069    1.0000 0.46760  0.81279  0.33410  Biso   1.000  C
  C1070    1.0000 0.46766  0.81279  0.33410  Biso   1.000  C
  C1071    1.0000 0.90091  0.14089  0.78349  Biso   1.000  C
  C1072    1.0000 0.82110  0.06130  0.71591  Biso   1.000  C
  H1014    1.0000 0.65530  0.10469  0.70201  Biso   1.000  H
  H1015    1.0000 0.69431  0.16050  0.66362  Biso   1.000  H
  C1073    1.0000 0.60807  0.19499  0.71722  Biso   1.000  C
  C1074    1.0000 0.60813  0.19499  0.71722  Biso   1.000  C
  C1075    1.0000 0.68172  0.90891  0.96929  Biso   1.000  C
  C1076    1.0000 0.65979  0.89791  0.85088  Biso   1.000  C
  C1077    1.0000 0.68173  0.90891  0.96934  Biso   1.000  C
  C1078    1.0000 0.65980  0.89791  0.85093  Biso   1.000  C
  H1016    1.0000 0.54101  0.98312  0.79900  Biso   1.000  H
  C1079    1.0000 0.45519  0.95089  0.85517  Biso   1.000  C
  C1080    1.0000 0.45520  0.95089  0.85523  Biso   1.000  C
  H1017    1.0000 0.50177  0.04070  0.83462  Biso   1.000  H
  H1018    1.0000 0.50183  0.04070  0.83462  Biso   1.000  H
  O173     1.0000 0.21151  0.84659  0.98682  Biso   1.000  O
  C1081    1.0000 0.66140  0.99061  0.21858  Biso   1.000  C
  C1082    1.0000 0.66141  0.99061  0.21863  Biso   1.000  C
  C1083    1.0000 0.64728  0.10708  0.22939  Biso   1.000  C
  C1084    1.0000 0.64735  0.10708  0.22944  Biso   1.000  C
  C1085    1.0000 0.09770  0.15899  0.77218  Biso   1.000  C
  H1019    1.0000 0.22289  0.18022  0.79370  Biso   1.000  H
  H1020    1.0000 0.19650  0.12738  0.84361  Biso   1.000  H
  C1086    1.0000 0.09771  0.15899  0.77223  Biso   1.000  C
  H1021    1.0000 0.83638  0.73980  0.15811  Biso   1.000  H
  H1022    1.0000 0.88638  0.78911  0.12033  Biso   1.000  H
  C1087    1.0000 0.76231  0.78358  0.07320  Biso   1.000  C
  H1023    1.0000 0.83644  0.73980  0.15811  Biso   1.000  H
  H1024    1.0000 0.88644  0.78911  0.12033  Biso   1.000  H
  C1088    1.0000 0.52280  0.86210  0.32582  Biso   1.000  C
  C1089    1.0000 0.48650  0.76690  0.38533  Biso   1.000  C
  C1090    1.0000 0.52286  0.86210  0.32582  Biso   1.000  C
  C1091    1.0000 0.48656  0.76690  0.38533  Biso   1.000  C
  C1092    1.0000 0.96777  0.10620  0.77592  Biso   1.000  C
  C1093    1.0000 0.96783  0.10620  0.77592  Biso   1.000  C
  C1094    1.0000 0.89160  0.02710  0.70661  Biso   1.000  C
  H1025    1.0000 0.77120  0.04408  0.69651  Biso   1.000  H
  H1026    1.0000 0.59476  0.18711  0.76197  Biso   1.000  H
  H1027    1.0000 0.62728  0.23970  0.71591  Biso   1.000  H
  C1095    1.0000 0.53240  0.18721  0.66590  Biso   1.000  C
  H1028    1.0000 0.59483  0.18711  0.76203  Biso   1.000  H
  C1096    1.0000 0.72931  0.85740  0.97419  Biso   1.000  C
  C1097    1.0000 0.72932  0.85740  0.97424  Biso   1.000  C
  C1098    1.0000 0.70862  0.84199  0.85598  Biso   1.000  C
  H1029    1.0000 0.63730  0.91219  0.80799  Biso   1.000  H
  C1099    1.0000 0.70862  0.84199  0.85603  Biso   1.000  C
  H1030    1.0000 0.47620  0.90671  0.85992  Biso   1.000  H
  H1031    1.0000 0.43907  0.96341  0.89781  Biso   1.000  H
  C1100    1.0000 0.38031  0.95181  0.80042  Biso   1.000  C
  H1032    1.0000 0.43913  0.96341  0.89781  Biso   1.000  H
  C1101    1.0000 0.23729  0.78251  0.96681  Biso   1.000  C
  C1102    1.0000 0.25685  0.82531  0.93383  Biso   1.000  C
  H1033    1.0000 0.64301  0.95108  0.19872  Biso   1.000  H
  C1103    1.0000 0.73070  0.99188  0.26732  Biso   1.000  C
  C1104    1.0000 0.73076  0.99188  0.26732  Biso   1.000  C
  H1034    1.0000 0.61943  0.14568  0.21671  Biso   1.000  H
  C1105    1.0000 0.71651  0.10840  0.27808  Biso   1.000  C
  C1106    1.0000 0.71652  0.10840  0.27813  Biso   1.000  C
  O174     1.0000 0.04097  0.12738  0.81411  Biso   1.000  O
  H1035    1.0000 0.10400  0.13159  0.73389  Biso   1.000  H
  H1036    1.0000 0.07660  0.20120  0.75551  Biso   1.000  H
  O175     1.0000 0.04103  0.12738  0.81411  Biso   1.000  O
  H1037    1.0000 0.10401  0.13159  0.73394  Biso   1.000  H
  H1038    1.0000 0.76519  0.74650  0.04349  Biso   1.000  H
  H1039    1.0000 0.70982  0.78358  0.08850  Biso   1.000  H
  O176     1.0000 0.77637  0.84600  0.03880  Biso   1.000  O
  O177     1.0000 0.77643  0.84600  0.03880  Biso   1.000  O
  H1040    1.0000 0.51023  0.89282  0.29162  Biso   1.000  H
  C1107    1.0000 0.59684  0.86542  0.36881  Biso   1.000  C
  C1108    1.0000 0.56040  0.77018  0.42821  Biso   1.000  C
  H1041    1.0000 0.44963  0.73388  0.39078  Biso   1.000  H
  C1109    1.0000 0.56046  0.77018  0.42821  Biso   1.000  C
  H1042    1.0000 0.44963  0.73388  0.39083  Biso   1.000  H
  C1110    1.0000 0.96659  0.05352  0.74091  Biso   1.000  C
  C1111    1.0000 0.88897  0.96292  0.66999  Biso   1.000  C
  C1112    1.0000 0.88904  0.96292  0.67004  Biso   1.000  C
  C1113    1.0000 0.47720  0.13790  0.67418  Biso   1.000  C
  C1114    1.0000 0.51350  0.23310  0.61467  Biso   1.000  C
  C1115    1.0000 0.47721  0.13790  0.67423  Biso   1.000  C
  C1116    1.0000 0.51351  0.23310  0.61472  Biso   1.000  C
  C1117    1.0000 0.74521  0.82159  0.92180  Biso   1.000  C
  C1118    1.0000 0.73148  0.80398  0.79622  Biso   1.000  C
  C1119    1.0000 0.73154  0.80398  0.79622  Biso   1.000  C
  C1120    1.0000 0.35272  0.89292  0.77061  Biso   1.000  C
  C1121    1.0000 0.33860  0.00939  0.78142  Biso   1.000  C
  C1122    1.0000 0.21450  0.77781  0.88912  Biso   1.000  C
  H1043    1.0000 0.29551  0.77752  0.98000  Biso   1.000  H
  H1044    1.0000 0.21012  0.74841  0.98838  Biso   1.000  H
  H1045    1.0000 0.21013  0.74841  0.98843  Biso   1.000  H
  H1046    1.0000 0.29242  0.78911  0.94954  Biso   1.000  H
  C1123    1.0000 0.19191  0.80349  0.87250  Biso   1.000  C
  H1047    1.0000 0.28963  0.86092  0.92069  Biso   1.000  H
  H1048    1.0000 0.75849  0.95328  0.28000  Biso   1.000  H
  H1049    1.0000 0.75855  0.95328  0.28000  Biso   1.000  H
  C1124    1.0000 0.75823  0.05078  0.29708  Biso   1.000  C
  C1125    1.0000 0.75824  0.05078  0.29713  Biso   1.000  C
  H1050    1.0000 0.73503  0.14788  0.29799  Biso   1.000  H
  H1051    1.0000 0.73504  0.14788  0.29804  Biso   1.000  H
  H1052    1.0000 0.63370  0.89840  0.36330  Biso   1.000  H
  C1126    1.0000 0.61560  0.81949  0.41998  Biso   1.000  C
  H1053    1.0000 0.63376  0.89840  0.36330  Biso   1.000  H
  C1127    1.0000 0.61561  0.81949  0.42003  Biso   1.000  C
  H1054    1.0000 0.57304  0.73951  0.46251  Biso   1.000  H
  O178     1.0000 0.03777  0.01981  0.73490  Biso   1.000  O
  O179     1.0000 0.03783  0.01981  0.73490  Biso   1.000  O
  C1128    1.0000 0.88658  0.90970  0.71919  Biso   1.000  C
  H1055    1.0000 0.94146  0.95881  0.65408  Biso   1.000  H
  C1129    1.0000 0.82429  0.95930  0.60659  Biso   1.000  C
  C1130    1.0000 0.88659  0.90970  0.71924  Biso   1.000  C
  H1056    1.0000 0.94153  0.95881  0.65413  Biso   1.000  H
  H1057    1.0000 0.48977  0.10718  0.70838  Biso   1.000  H
  C1131    1.0000 0.40316  0.13458  0.63119  Biso   1.000  C
  H1058    1.0000 0.48984  0.10718  0.70843  Biso   1.000  H
  C1132    1.0000 0.40322  0.13458  0.63119  Biso   1.000  C
  C1133    1.0000 0.43960  0.22982  0.57179  Biso   1.000  C
  H1059    1.0000 0.55037  0.26612  0.60922  Biso   1.000  H
  C1134    1.0000 0.43961  0.22982  0.57184  Biso   1.000  C
  O180     1.0000 0.78930  0.76421  0.93009  Biso   1.000  O
  O181     1.0000 0.78931  0.76421  0.93014  Biso   1.000  O
  C1135    1.0000 0.81059  0.83461  0.77910  Biso   1.000  C
  H1060    1.0000 0.74262  0.75859  0.81012  Biso   1.000  H
  C1136    1.0000 0.66671  0.80442  0.72980  Biso   1.000  C
  C1137    1.0000 0.28349  0.89160  0.72192  Biso   1.000  C
  H1061    1.0000 0.38057  0.85432  0.78329  Biso   1.000  H
  H1062    1.0000 0.38063  0.85432  0.78329  Biso   1.000  H
  H1063    1.0000 0.35699  0.04892  0.80128  Biso   1.000  H
  C1138    1.0000 0.26930  0.00812  0.73268  Biso   1.000  C
  H1064    1.0000 0.35700  0.04892  0.80133  Biso   1.000  H
  C1139    1.0000 0.26931  0.00812  0.73273  Biso   1.000  C
  C1140    1.0000 0.13479  0.74039  0.87220  Biso   1.000  C
  H1065    1.0000 0.25709  0.75531  0.87038  Biso   1.000  H
  H1066    1.0000 0.20850  0.82130  0.86972  Biso   1.000  H
  H1067    1.0000 0.25710  0.75531  0.87043  Biso   1.000  H
  C1141    1.0000 0.13782  0.75242  0.90074  Biso   1.000  C
  H1068    1.0000 0.21824  0.78451  0.83724  Biso   1.000  H
  H1069    1.0000 0.15964  0.84072  0.85391  Biso   1.000  H
  H1070    1.0000 0.80461  0.05171  0.32971  Biso   1.000  H
  H1071    1.0000 0.66512  0.82169  0.44882  Biso   1.000  H
  C1142    1.0000 0.05768  0.96390  0.77652  Biso   1.000  C
  C1143    1.0000 0.05774  0.96390  0.77652  Biso   1.000  C
  C1144    1.0000 0.95826  0.88582  0.75728  Biso   1.000  C
  C1145    1.0000 0.95833  0.88582  0.75733  Biso   1.000  C
  C1146    1.0000 0.81408  0.88211  0.73318  Biso   1.000  C
  C1147    1.0000 0.81409  0.88211  0.73323  Biso   1.000  C
  H1072    1.0000 0.83009  0.99741  0.57901  Biso   1.000  H
  H1073    1.0000 0.77105  0.96160  0.62048  Biso   1.000  H
  C1148    1.0000 0.82709  0.89942  0.56370  Biso   1.000  C
  H1074    1.0000 0.77112  0.96160  0.62053  Biso   1.000  H
  H1075    1.0000 0.36630  0.10160  0.63670  Biso   1.000  H
  C1149    1.0000 0.38440  0.18051  0.58002  Biso   1.000  C
  H1076    1.0000 0.42696  0.26049  0.53749  Biso   1.000  H
  H1077    1.0000 0.42703  0.26049  0.53754  Biso   1.000  H
  C1150    1.0000 0.87222  0.76969  0.92231  Biso   1.000  C
  C1151    1.0000 0.88370  0.81152  0.81330  Biso   1.000  C
  H1078    1.0000 0.68910  0.78461  0.69272  Biso   1.000  H
  H1079    1.0000 0.65031  0.84889  0.71732  Biso   1.000  H
  C1152    1.0000 0.59542  0.76548  0.74571  Biso   1.000  C
  C1153    1.0000 0.24177  0.94922  0.70292  Biso   1.000  C
  H1080    1.0000 0.26497  0.85212  0.70201  Biso   1.000  H
  C1154    1.0000 0.24183  0.94922  0.70292  Biso   1.000  C
  H1081    1.0000 0.26503  0.85212  0.70201  Biso   1.000  H
  H1082    1.0000 0.24151  0.04672  0.72000  Biso   1.000  H
  C1155    1.0000 0.07869  0.77742  0.81572  Biso   1.000  C
  H1083    1.0000 0.14518  0.69651  0.85720  Biso   1.000  H
  H1084    1.0000 0.10861  0.73701  0.91210  Biso   1.000  H
  C1156    1.0000 0.05504  0.75218  0.85053  Biso   1.000  C
  H1085    1.0000 0.16302  0.70952  0.90251  Biso   1.000  H
  H1086    1.0000 0.12909  0.76431  0.94590  Biso   1.000  H
  O182     1.0000 0.03309  0.90568  0.74611  Biso   1.000  O
  H1087    1.0000 0.03296  0.96859  0.81688  Biso   1.000  H
  H1088    1.0000 0.11617  0.96258  0.79021  Biso   1.000  H
  H1089    1.0000 0.03303  0.96859  0.81693  Biso   1.000  H
  H1090    1.0000 0.11623  0.96258  0.79021  Biso   1.000  H
  C1157    1.0000 0.95338  0.83622  0.80441  Biso   1.000  C
  C1158    1.0000 0.95344  0.83622  0.80441  Biso   1.000  C
  H1091    1.0000 0.76538  0.89761  0.70929  Biso   1.000  H
  H1092    1.0000 0.76538  0.89761  0.70934  Biso   1.000  H
  H1093    1.0000 0.77866  0.89840  0.52981  Biso   1.000  H
  H1094    1.0000 0.82621  0.86092  0.59189  Biso   1.000  H
  C1159    1.0000 0.89991  0.89619  0.52941  Biso   1.000  C
  H1095    1.0000 0.77872  0.89840  0.52981  Biso   1.000  H
  H1096    1.0000 0.33488  0.17831  0.55118  Biso   1.000  H
  H1097    1.0000 0.33489  0.17831  0.55123  Biso   1.000  H
  O183     1.0000 0.88609  0.75722  0.85659  Biso   1.000  O
  H1098    1.0000 0.90393  0.73921  0.95292  Biso   1.000  H
  H1099    1.0000 0.89102  0.81352  0.93509  Biso   1.000  H
  O184     1.0000 0.88610  0.75722  0.85664  Biso   1.000  O
  H1100    1.0000 0.89103  0.81352  0.93514  Biso   1.000  H
  H1101    1.0000 0.61439  0.72762  0.77279  Biso   1.000  H
  H1102    1.0000 0.56260  0.79209  0.77112  Biso   1.000  H
  C1160    1.0000 0.54312  0.74298  0.67721  Biso   1.000  C
  H1103    1.0000 0.61440  0.72762  0.77284  Biso   1.000  H
  H1104    1.0000 0.19539  0.94829  0.67029  Biso   1.000  H
  O185     1.0000 0.02591  0.81959  0.84770  Biso   1.000  O
  H1105    1.0000 0.04647  0.74650  0.78592  Biso   1.000  H
  H1106    1.0000 0.11098  0.80320  0.78910  Biso   1.000  H
  H1107    1.0000 0.04653  0.74650  0.78592  Biso   1.000  H
  H1108    1.0000 0.11104  0.80320  0.78910  Biso   1.000  H
  H1109    1.0000 0.06319  0.73750  0.80612  Biso   1.000  H
  H1110    1.0000 0.01600  0.72341  0.86679  Biso   1.000  H
  C1161    1.0000 0.97311  0.86870  0.55931  Biso   1.000  C
  C1162    1.0000 0.89368  0.92491  0.46601  Biso   1.000  C
  C1163    1.0000 0.56388  0.68702  0.64428  Biso   1.000  C
  C1164    1.0000 0.47489  0.77898  0.65009  Biso   1.000  C
  C1165    1.0000 0.56389  0.68702  0.64433  Biso   1.000  C
  C1166    1.0000 0.47490  0.77898  0.65014  Biso   1.000  C
  H1111    1.0000 0.97726  0.84948  0.60179  Biso   1.000  H
  H1112    1.0000 0.97732  0.84948  0.60179  Biso   1.000  H
  C1167    1.0000 0.04006  0.87002  0.52572  Biso   1.000  C
  C1168    1.0000 0.04012  0.87002  0.52572  Biso   1.000  C
  C1169    1.0000 0.96068  0.92618  0.43242  Biso   1.000  C
  H1113    1.0000 0.84468  0.94330  0.44601  Biso   1.000  H
  H1114    1.0000 0.60946  0.66300  0.66241  Biso   1.000  H
  C1170    1.0000 0.51647  0.66711  0.58452  Biso   1.000  C
  H1115    1.0000 0.60952  0.66300  0.66241  Biso   1.000  H
  C1171    1.0000 0.42747  0.75898  0.59028  Biso   1.000  C
  H1116    1.0000 0.46102  0.81641  0.67211  Biso   1.000  H
  C1172    1.0000 0.42748  0.75898  0.59033  Biso   1.000  C
  H1117    1.0000 0.08911  0.85158  0.54572  Biso   1.000  H
  C1173    1.0000 0.03388  0.89869  0.46232  Biso   1.000  C
  H1118    1.0000 0.95646  0.94541  0.38988  Biso   1.000  H
  H1119    1.0000 0.95647  0.94541  0.38993  Biso   1.000  H
  H1120    1.0000 0.53040  0.62959  0.56249  Biso   1.000  H
  C1174    1.0000 0.44826  0.70311  0.55749  Biso   1.000  C
  C1175    1.0000 0.44832  0.70311  0.55749  Biso   1.000  C
  H1121    1.0000 0.38178  0.78309  0.57219  Biso   1.000  H
  H1122    1.0000 0.07865  0.89962  0.43979  Biso   1.000  H
  H1123    1.0000 0.07871  0.89962  0.43979  Biso   1.000  H
  H1124    1.0000 0.41646  0.68971  0.51748  Biso   1.000  H
  H1125    1.0000 0.41653  0.68971  0.51753  Biso   1.000  H
  O186     1.0000 0.97415  0.18041  0.15230  Biso   1.000  O
  C1176    1.0000 0.04662  0.16378  0.19559  Biso   1.000  C
  C1177    1.0000 0.04663  0.16378  0.19564  Biso   1.000  C
  C1178    1.0000 0.92131  0.22258  0.18428  Biso   1.000  C
  C1179    1.0000 0.92132  0.22258  0.18433  Biso   1.000  C
  C1180    1.0000 0.94503  0.24782  0.14952  Biso   1.000  C
  C1181    1.0000 0.11630  0.18848  0.18670  Biso   1.000  C
  C1182    1.0000 0.04174  0.11418  0.24272  Biso   1.000  C
  O187     1.0000 0.97409  0.18041  0.15230  Biso   1.000  O
  H1126    1.0000 0.95353  0.25350  0.21408  Biso   1.000  H
  H1127    1.0000 0.88902  0.19680  0.21090  Biso   1.000  H
  C1183    1.0000 0.86521  0.25961  0.12780  Biso   1.000  C
  H1128    1.0000 0.95354  0.25350  0.21413  Biso   1.000  H
  H1129    1.0000 0.93682  0.26250  0.19393  Biso   1.000  H
  H1130    1.0000 0.98400  0.27659  0.13321  Biso   1.000  H
  C1184    1.0000 0.86219  0.24758  0.09931  Biso   1.000  C
  C1185    1.0000 0.18941  0.16539  0.22090  Biso   1.000  C
  O188     1.0000 0.11391  0.24278  0.14341  Biso   1.000  O
  C1186    1.0000 0.11342  0.09030  0.28081  Biso   1.000  C
  O189     1.0000 0.96691  0.09432  0.25389  Biso   1.000  O
  O190     1.0000 0.96692  0.09432  0.25394  Biso   1.000  O
  H1131    1.0000 0.85482  0.30349  0.14280  Biso   1.000  H
  H1132    1.0000 0.89139  0.26299  0.08790  Biso   1.000  H
  C1187    1.0000 0.78550  0.22219  0.11088  Biso   1.000  C
  H1133    1.0000 0.89145  0.26299  0.08790  Biso   1.000  H
  C1188    1.0000 0.78551  0.22219  0.11093  Biso   1.000  C
  H1134    1.0000 0.83698  0.29048  0.09749  Biso   1.000  H
  C1189    1.0000 0.80809  0.19651  0.12750  Biso   1.000  C
  H1135    1.0000 0.87091  0.23569  0.05410  Biso   1.000  H
  C1190    1.0000 0.18592  0.11789  0.26682  Biso   1.000  C
  C1191    1.0000 0.26852  0.19602  0.20378  Biso   1.000  C
  C1192    1.0000 0.26853  0.19602  0.20383  Biso   1.000  C
  C1193    1.0000 0.12778  0.23031  0.07769  Biso   1.000  C
  C1194    1.0000 0.12785  0.23031  0.07774  Biso   1.000  C
  C1195    1.0000 0.11103  0.03708  0.33001  Biso   1.000  C
  C1196    1.0000 0.94232  0.03610  0.22348  Biso   1.000  C
  C1197    1.0000 0.94233  0.03610  0.22353  Biso   1.000  C
  H1136    1.0000 0.74291  0.24469  0.12962  Biso   1.000  H
  H1137    1.0000 0.79150  0.17870  0.13028  Biso   1.000  H
  C1198    1.0000 0.76271  0.21749  0.03319  Biso   1.000  C
  H1138    1.0000 0.79151  0.17870  0.13033  Biso   1.000  H
  C1199    1.0000 0.76272  0.21749  0.03324  Biso   1.000  C
  H1139    1.0000 0.78183  0.21549  0.16281  Biso   1.000  H
  C1200    1.0000 0.74322  0.17469  0.06622  Biso   1.000  C
  H1140    1.0000 0.84042  0.15928  0.14609  Biso   1.000  H
  H1141    1.0000 0.23462  0.10239  0.29071  Biso   1.000  H
  H1142    1.0000 0.25738  0.24141  0.18988  Biso   1.000  H
  C1201    1.0000 0.33329  0.19558  0.27020  Biso   1.000  C
  C1202    1.0000 0.29138  0.15801  0.14402  Biso   1.000  C
  H1143    1.0000 0.25745  0.24141  0.18994  Biso   1.000  H
  C1203    1.0000 0.33335  0.19558  0.27020  Biso   1.000  C
  C1204    1.0000 0.29144  0.15801  0.14402  Biso   1.000  C
  O191     1.0000 0.21070  0.23579  0.06991  Biso   1.000  O
  H1144    1.0000 0.09607  0.26079  0.04708  Biso   1.000  H
  H1145    1.0000 0.10898  0.18648  0.06491  Biso   1.000  H
  H1146    1.0000 0.09614  0.26079  0.04713  Biso   1.000  H
  H1147    1.0000 0.10904  0.18648  0.06491  Biso   1.000  H
  H1148    1.0000 0.05854  0.04119  0.34592  Biso   1.000  H
  C1205    1.0000 0.17571  0.04070  0.39341  Biso   1.000  C
  C1206    1.0000 0.10840  0.97290  0.29339  Biso   1.000  C
  C1207    1.0000 0.10841  0.97290  0.29344  Biso   1.000  C
  O192     1.0000 0.96223  0.98019  0.26510  Biso   1.000  O
  H1149    1.0000 0.96704  0.03141  0.18312  Biso   1.000  H
  H1150    1.0000 0.88383  0.03742  0.20979  Biso   1.000  H
  H1151    1.0000 0.88384  0.03742  0.20984  Biso   1.000  H
  H1152    1.0000 0.70449  0.22248  0.02000  Biso   1.000  H
  H1153    1.0000 0.78988  0.25159  0.01162  Biso   1.000  H
  O193     1.0000 0.78849  0.15341  0.01318  Biso   1.000  O
  H1154    1.0000 0.70455  0.22248  0.02000  Biso   1.000  H
  H1155    1.0000 0.78994  0.25159  0.01162  Biso   1.000  H
  O194     1.0000 0.78850  0.15341  0.01323  Biso   1.000  O
  H1156    1.0000 0.70759  0.21089  0.05051  Biso   1.000  H
  H1157    1.0000 0.71043  0.13908  0.07931  Biso   1.000  H
  H1158    1.0000 0.31090  0.21539  0.30728  Biso   1.000  H
  H1159    1.0000 0.34969  0.15111  0.28268  Biso   1.000  H
  C1208    1.0000 0.40458  0.23452  0.25429  Biso   1.000  C
  H1160    1.0000 0.31091  0.21539  0.30733  Biso   1.000  H
  H1161    1.0000 0.34976  0.15111  0.28273  Biso   1.000  H
  C1209    1.0000 0.40465  0.23452  0.25434  Biso   1.000  C
  C1210    1.0000 0.34021  0.10209  0.14912  Biso   1.000  C
  C1211    1.0000 0.25479  0.17841  0.07820  Biso   1.000  C
  C1212    1.0000 0.25485  0.17841  0.07820  Biso   1.000  C
  H1162    1.0000 0.22895  0.03840  0.37952  Biso   1.000  H
  C1213    1.0000 0.17291  0.10058  0.43630  Biso   1.000  C
  H1163    1.0000 0.16991  0.00259  0.42099  Biso   1.000  H
  H1164    1.0000 0.16992  0.00259  0.42104  Biso   1.000  H
  C1214    1.0000 0.03341  0.94648  0.25909  Biso   1.000  C
  C1215    1.0000 0.17890  0.93870  0.28409  Biso   1.000  C
  C1216    1.0000 0.03342  0.94648  0.25914  Biso   1.000  C
  C1217    1.0000 0.74353  0.12900  0.95302  Biso   1.000  C
  H1165    1.0000 0.38561  0.27238  0.22721  Biso   1.000  H
  H1166    1.0000 0.43740  0.20791  0.22888  Biso   1.000  H
  C1218    1.0000 0.45688  0.25702  0.32279  Biso   1.000  C
  H1167    1.0000 0.43741  0.20791  0.22893  Biso   1.000  H
  C1219    1.0000 0.45695  0.25702  0.32284  Biso   1.000  C
  H1168    1.0000 0.36270  0.08781  0.19201  Biso   1.000  H
  C1220    1.0000 0.35679  0.06731  0.09522  Biso   1.000  C
  C1221    1.0000 0.35685  0.06731  0.09522  Biso   1.000  C
  C1222    1.0000 0.27069  0.14260  0.02581  Biso   1.000  C
  C1223    1.0000 0.27075  0.14260  0.02581  Biso   1.000  C
  H1169    1.0000 0.22134  0.10160  0.47019  Biso   1.000  H
  H1170    1.0000 0.17379  0.13908  0.40811  Biso   1.000  H
  C1224    1.0000 0.10009  0.10381  0.47059  Biso   1.000  C
  H1171    1.0000 0.22135  0.10160  0.47024  Biso   1.000  H
  H1172    1.0000 0.17385  0.13908  0.40811  Biso   1.000  H
  C1225    1.0000 0.10016  0.10381  0.47064  Biso   1.000  C
  C1226    1.0000 0.03223  0.89380  0.22408  Biso   1.000  C
  C1227    1.0000 0.03224  0.89380  0.22413  Biso   1.000  C
  H1173    1.0000 0.22880  0.95592  0.30349  Biso   1.000  H
  C1228    1.0000 0.17944  0.88078  0.24772  Biso   1.000  C
  H1174    1.0000 0.22881  0.95592  0.30354  Biso   1.000  H
  C1229    1.0000 0.75828  0.15649  0.89362  Biso   1.000  C
  C1230    1.0000 0.69301  0.08052  0.95459  Biso   1.000  C
  C1231    1.0000 0.75834  0.15649  0.89362  Biso   1.000  C
  C1232    1.0000 0.69302  0.08052  0.95464  Biso   1.000  C
  C1233    1.0000 0.43612  0.31298  0.35572  Biso   1.000  C
  C1234    1.0000 0.52511  0.22102  0.34991  Biso   1.000  C
  C1235    1.0000 0.31828  0.09109  0.03071  Biso   1.000  C
  C1236    1.0000 0.40598  0.00558  0.10098  Biso   1.000  C
  C1237    1.0000 0.31834  0.09109  0.03071  Biso   1.000  C
  C1238    1.0000 0.40605  0.00558  0.10103  Biso   1.000  C
  O195     1.0000 0.22363  0.15400  0.96120  Biso   1.000  O
  C1239    1.0000 0.02689  0.13130  0.44069  Biso   1.000  C
  C1240    1.0000 0.10632  0.07509  0.53399  Biso   1.000  C
  C1241    1.0000 0.02696  0.13130  0.44074  Biso   1.000  C
  C1242    1.0000 0.10633  0.07509  0.53404  Biso   1.000  C
  O196     1.0000 0.95903  0.87262  0.18589  Biso   1.000  O
  C1243    1.0000 0.09909  0.85911  0.21651  Biso   1.000  C
  C1244    1.0000 0.09915  0.85911  0.21651  Biso   1.000  C
  C1245    1.0000 0.25328  0.84551  0.23510  Biso   1.000  C
  C1246    1.0000 0.25334  0.84551  0.23510  Biso   1.000  C
  O197     1.0000 0.81082  0.21030  0.89291  Biso   1.000  O
  C1247    1.0000 0.72211  0.12880  0.83229  Biso   1.000  C
  C1248    1.0000 0.65098  0.05161  0.89660  Biso   1.000  C
  C1249    1.0000 0.65104  0.05161  0.89660  Biso   1.000  C
  O198     1.0000 0.67629  0.05772  0.01859  Biso   1.000  O
  O199     1.0000 0.67630  0.05772  0.01864  Biso   1.000  O
  H1175    1.0000 0.39054  0.33700  0.33759  Biso   1.000  H
  C1250    1.0000 0.48353  0.33289  0.41548  Biso   1.000  C
  H1176    1.0000 0.39055  0.33700  0.33764  Biso   1.000  H
  C1251    1.0000 0.48354  0.33289  0.41553  Biso   1.000  C
  C1252    1.0000 0.57253  0.24102  0.40972  Biso   1.000  C
  H1177    1.0000 0.53898  0.18359  0.32789  Biso   1.000  H
  H1178    1.0000 0.53905  0.18359  0.32794  Biso   1.000  H
  O200     1.0000 0.33328  0.05469  0.97292  Biso   1.000  O
  O201     1.0000 0.33334  0.05469  0.97292  Biso   1.000  O
  H1179    1.0000 0.42903  0.00142  0.05910  Biso   1.000  H
  C1253    1.0000 0.34902  0.94839  0.10340  Biso   1.000  C
  C1254    1.0000 0.47749  0.00362  0.15953  Biso   1.000  C
  C1255    1.0000 0.47755  0.00362  0.15953  Biso   1.000  C
  C1256    1.0000 0.23769  0.21642  0.92680  Biso   1.000  C
  H1180    1.0000 0.02274  0.15052  0.39821  Biso   1.000  H
  C1257    1.0000 0.95994  0.12998  0.47428  Biso   1.000  C
  C1258    1.0000 0.95995  0.12998  0.47433  Biso   1.000  C
  C1259    1.0000 0.03932  0.07382  0.56758  Biso   1.000  C
  H1181    1.0000 0.15532  0.05670  0.55399  Biso   1.000  H
  C1260    1.0000 0.03933  0.07382  0.56763  Biso   1.000  C
  H1182    1.0000 0.15532  0.05670  0.55404  Biso   1.000  H
  C1261    1.0000 0.90230  0.84101  0.22782  Biso   1.000  C
  O202     1.0000 0.09510  0.80041  0.17938  Biso   1.000  O
  O203     1.0000 0.09511  0.80041  0.17943  Biso   1.000  O
  H1183    1.0000 0.23918  0.79909  0.22878  Biso   1.000  H
  C1262    1.0000 0.32451  0.85070  0.29440  Biso   1.000  C
  C1263    1.0000 0.27789  0.87120  0.16771  Biso   1.000  C
  H1184    1.0000 0.23925  0.79909  0.22883  Biso   1.000  H
  C1264    1.0000 0.27795  0.87120  0.16771  Biso   1.000  C
  C1265    1.0000 0.89059  0.19631  0.88528  Biso   1.000  C
  C1266    1.0000 0.89060  0.19631  0.88533  Biso   1.000  C
  C1267    1.0000 0.67147  0.07739  0.83638  Biso   1.000  C
  C1268    1.0000 0.74672  0.15449  0.76490  Biso   1.000  C
  C1269    1.0000 0.67154  0.07739  0.83643  Biso   1.000  C
  C1270    1.0000 0.59402  0.99442  0.89902  Biso   1.000  C
  C1271    1.0000 0.71342  0.99878  0.04258  Biso   1.000  C
  C1272    1.0000 0.71343  0.99878  0.04263  Biso   1.000  C
  C1273    1.0000 0.55174  0.29689  0.44251  Biso   1.000  C
  H1185    1.0000 0.46960  0.37041  0.43751  Biso   1.000  H
  H1186    1.0000 0.46966  0.37041  0.43751  Biso   1.000  H
  H1187    1.0000 0.61822  0.21691  0.42781  Biso   1.000  H
  C1274    1.0000 0.28658  0.00122  0.95742  Biso   1.000  C
  C1275    1.0000 0.28664  0.00122  0.95742  Biso   1.000  C
  C1276    1.0000 0.32853  0.92261  0.16362  Biso   1.000  C
  C1277    1.0000 0.30699  0.91948  0.04541  Biso   1.000  C
  C1278    1.0000 0.30705  0.91948  0.04541  Biso   1.000  C
  C1279    1.0000 0.54481  0.04911  0.14483  Biso   1.000  C
  H1188    1.0000 0.49823  0.95930  0.16538  Biso   1.000  H
  H1189    1.0000 0.49824  0.95930  0.16544  Biso   1.000  H
  H1190    1.0000 0.45899  0.01688  0.20100  Biso   1.000  H
  H1191    1.0000 0.45905  0.01688  0.20100  Biso   1.000  H
  C1280    1.0000 0.16532  0.21808  0.86432  Biso   1.000  C
  H1192    1.0000 0.23481  0.25350  0.95651  Biso   1.000  H
  H1193    1.0000 0.29018  0.21642  0.91150  Biso   1.000  H
  H1194    1.0000 0.29024  0.21642  0.91150  Biso   1.000  H
  H1195    1.0000 0.91089  0.14842  0.45428  Biso   1.000  H
  C1281    1.0000 0.96612  0.10131  0.53768  Biso   1.000  C
  H1196    1.0000 0.91096  0.14842  0.45433  Biso   1.000  H
  C1282    1.0000 0.96613  0.10131  0.53773  Biso   1.000  C
  H1197    1.0000 0.04354  0.05459  0.61012  Biso   1.000  H
  H1198    1.0000 0.89600  0.86841  0.26611  Biso   1.000  H
  H1199    1.0000 0.92340  0.79880  0.24449  Biso   1.000  H
  C1283    1.0000 0.81949  0.83250  0.18069  Biso   1.000  C
  H1200    1.0000 0.89606  0.86841  0.26611  Biso   1.000  H
  H1201    1.0000 0.92341  0.79880  0.24454  Biso   1.000  H
  C1284    1.0000 0.81956  0.83250  0.18074  Biso   1.000  C
  C1285    1.0000 0.10941  0.80369  0.11472  Biso   1.000  C
  H1202    1.0000 0.34470  0.89531  0.29799  Biso   1.000  H
  H1203    1.0000 0.30569  0.83950  0.33638  Biso   1.000  H
  C1286    1.0000 0.39193  0.80501  0.28278  Biso   1.000  C
  H1204    1.0000 0.34471  0.89531  0.29804  Biso   1.000  H
  H1205    1.0000 0.30576  0.83950  0.33643  Biso   1.000  H
  C1287    1.0000 0.39194  0.80501  0.28283  Biso   1.000  C
  C1288    1.0000 0.24172  0.84351  0.10638  Biso   1.000  C
  C1289    1.0000 0.24172  0.84351  0.10643  Biso   1.000  C
  O204     1.0000 0.90490  0.19959  0.82062  Biso   1.000  O
  H1206    1.0000 0.90398  0.15258  0.90251  Biso   1.000  H
  H1207    1.0000 0.92659  0.22669  0.91251  Biso   1.000  H
  H1208    1.0000 0.90404  0.15258  0.90251  Biso   1.000  H
  H1209    1.0000 0.64839  0.05772  0.79612  Biso   1.000  H
  C1290    1.0000 0.82056  0.11922  0.75228  Biso   1.000  C
  H1210    1.0000 0.76082  0.20091  0.77122  Biso   1.000  H
  C1291    1.0000 0.67549  0.14930  0.70560  Biso   1.000  C
  C1292    1.0000 0.82063  0.11922  0.75233  Biso   1.000  C
  C1293    1.0000 0.64321  0.93269  0.90478  Biso   1.000  C
  H1211    1.0000 0.57097  0.99858  0.94090  Biso   1.000  H
  C1294    1.0000 0.52251  0.99638  0.84047  Biso   1.000  C
  C1295    1.0000 0.64322  0.93269  0.90483  Biso   1.000  C
  H1212    1.0000 0.57103  0.99858  0.94090  Biso   1.000  H
  C1296    1.0000 0.52252  0.99638  0.84053  Biso   1.000  C
  O205     1.0000 0.66672  0.94531  0.02708  Biso   1.000  O
  H1213    1.0000 0.76342  0.99359  0.02389  Biso   1.000  H
  O206     1.0000 0.66673  0.94531  0.02713  Biso   1.000  O
  H1214    1.0000 0.72782  0.00161  0.09128  Biso   1.000  H
  H1215    1.0000 0.72783  0.00161  0.09133  Biso   1.000  H
  H1216    1.0000 0.58354  0.31029  0.48252  Biso   1.000  H
  O207     1.0000 0.32371  0.94228  0.98141  Biso   1.000  O
  H1217    1.0000 0.27218  0.99839  0.90872  Biso   1.000  H
  H1218    1.0000 0.27224  0.99839  0.90872  Biso   1.000  H
  H1219    1.0000 0.23658  0.00641  0.97611  Biso   1.000  H
  H1220    1.0000 0.23664  0.00641  0.97611  Biso   1.000  H
  H1221    1.0000 0.35161  0.94228  0.20388  Biso   1.000  H
  H1222    1.0000 0.35162  0.94228  0.20393  Biso   1.000  H
  C1297    1.0000 0.25647  0.87100  0.04698  Biso   1.000  C
  C1298    1.0000 0.25654  0.87100  0.04703  Biso   1.000  C
  H1223    1.0000 0.52380  0.09329  0.14008  Biso   1.000  H
  H1224    1.0000 0.56093  0.03659  0.10219  Biso   1.000  H
  C1299    1.0000 0.61969  0.04819  0.19958  Biso   1.000  C
  H1225    1.0000 0.52381  0.09329  0.14013  Biso   1.000  H
  H1226    1.0000 0.56094  0.03659  0.10224  Biso   1.000  H
  C1300    1.0000 0.61976  0.04819  0.19963  Biso   1.000  C
  C1301    1.0000 0.18051  0.16750  0.81931  Biso   1.000  C
  H1227    1.0000 0.16362  0.26020  0.84189  Biso   1.000  H
  H1228    1.0000 0.11362  0.21089  0.87967  Biso   1.000  H
  H1229    1.0000 0.16363  0.26020  0.84194  Biso   1.000  H
  H1230    1.0000 0.11363  0.21089  0.87972  Biso   1.000  H
  H1231    1.0000 0.92135  0.10038  0.56021  Biso   1.000  H
  H1232    1.0000 0.77711  0.81978  0.20630  Biso   1.000  H
  H1233    1.0000 0.80350  0.87262  0.15639  Biso   1.000  H
  C1302    1.0000 0.83468  0.78192  0.13568  Biso   1.000  C
  C1303    1.0000 0.83475  0.78192  0.13573  Biso   1.000  C
  H1234    1.0000 0.09602  0.84742  0.09749  Biso   1.000  H
  H1235    1.0000 0.07341  0.77331  0.08749  Biso   1.000  H
  O208     1.0000 0.18918  0.78970  0.10709  Biso   1.000  O
  H1236    1.0000 0.07342  0.77331  0.08754  Biso   1.000  H
  O209     1.0000 0.18925  0.78970  0.10714  Biso   1.000  O
  H1237    1.0000 0.40524  0.81289  0.23803  Biso   1.000  H
  H1238    1.0000 0.37272  0.76030  0.28409  Biso   1.000  H
  C1304    1.0000 0.46760  0.81279  0.33410  Biso   1.000  C
  C1305    1.0000 0.46766  0.81279  0.33410  Biso   1.000  C
  C1306    1.0000 0.90091  0.14089  0.78349  Biso   1.000  C
  C1307    1.0000 0.82110  0.06130  0.71591  Biso   1.000  C
  H1239    1.0000 0.65530  0.10469  0.70201  Biso   1.000  H
  H1240    1.0000 0.69431  0.16050  0.66362  Biso   1.000  H
  C1308    1.0000 0.60807  0.19499  0.71722  Biso   1.000  C
  C1309    1.0000 0.60813  0.19499  0.71722  Biso   1.000  C
  C1310    1.0000 0.68172  0.90891  0.96929  Biso   1.000  C
  C1311    1.0000 0.65979  0.89791  0.85088  Biso   1.000  C
  C1312    1.0000 0.68173  0.90891  0.96934  Biso   1.000  C
  C1313    1.0000 0.65980  0.89791  0.85093  Biso   1.000  C
  H1241    1.0000 0.54101  0.98312  0.79900  Biso   1.000  H
  C1314    1.0000 0.45519  0.95089  0.85517  Biso   1.000  C
  C1315    1.0000 0.45520  0.95089  0.85523  Biso   1.000  C
  H1242    1.0000 0.50177  0.04070  0.83462  Biso   1.000  H
  H1243    1.0000 0.50183  0.04070  0.83462  Biso   1.000  H
  O210     1.0000 0.21151  0.84659  0.98682  Biso   1.000  O
  C1316    1.0000 0.66140  0.99061  0.21858  Biso   1.000  C
  C1317    1.0000 0.66141  0.99061  0.21863  Biso   1.000  C
  C1318    1.0000 0.64728  0.10708  0.22939  Biso   1.000  C
  C1319    1.0000 0.64735  0.10708  0.22944  Biso   1.000  C
  C1320    1.0000 0.09770  0.15899  0.77218  Biso   1.000  C
  H1244    1.0000 0.22289  0.18022  0.79370  Biso   1.000  H
  H1245    1.0000 0.19650  0.12738  0.84361  Biso   1.000  H
  C1321    1.0000 0.09771  0.15899  0.77223  Biso   1.000  C
  H1246    1.0000 0.83638  0.73980  0.15811  Biso   1.000  H
  H1247    1.0000 0.88638  0.78911  0.12033  Biso   1.000  H
  C1322    1.0000 0.76231  0.78358  0.07320  Biso   1.000  C
  H1248    1.0000 0.83644  0.73980  0.15811  Biso   1.000  H
  H1249    1.0000 0.88644  0.78911  0.12033  Biso   1.000  H
  C1323    1.0000 0.52280  0.86210  0.32582  Biso   1.000  C
  C1324    1.0000 0.48650  0.76690  0.38533  Biso   1.000  C
  C1325    1.0000 0.52286  0.86210  0.32582  Biso   1.000  C
  C1326    1.0000 0.48656  0.76690  0.38533  Biso   1.000  C
  C1327    1.0000 0.96777  0.10620  0.77592  Biso   1.000  C
  C1328    1.0000 0.96783  0.10620  0.77592  Biso   1.000  C
  C1329    1.0000 0.89160  0.02710  0.70661  Biso   1.000  C
  H1250    1.0000 0.77120  0.04408  0.69651  Biso   1.000  H
  H1251    1.0000 0.59476  0.18711  0.76197  Biso   1.000  H
  H1252    1.0000 0.62728  0.23970  0.71591  Biso   1.000  H
  C1330    1.0000 0.53240  0.18721  0.66590  Biso   1.000  C
  H1253    1.0000 0.59483  0.18711  0.76203  Biso   1.000  H
  C1331    1.0000 0.72931  0.85740  0.97419  Biso   1.000  C
  C1332    1.0000 0.72932  0.85740  0.97424  Biso   1.000  C
  C1333    1.0000 0.70862  0.84199  0.85598  Biso   1.000  C
  H1254    1.0000 0.63730  0.91219  0.80799  Biso   1.000  H
  C1334    1.0000 0.70862  0.84199  0.85603  Biso   1.000  C
  H1255    1.0000 0.47620  0.90671  0.85992  Biso   1.000  H
  H1256    1.0000 0.43907  0.96341  0.89781  Biso   1.000  H
  C1335    1.0000 0.38031  0.95181  0.80042  Biso   1.000  C
  H1257    1.0000 0.43913  0.96341  0.89781  Biso   1.000  H
  C1336    1.0000 0.23729  0.78251  0.96681  Biso   1.000  C
  C1337    1.0000 0.25685  0.82531  0.93383  Biso   1.000  C
  H1258    1.0000 0.64301  0.95108  0.19872  Biso   1.000  H
  C1338    1.0000 0.73070  0.99188  0.26732  Biso   1.000  C
  C1339    1.0000 0.73076  0.99188  0.26732  Biso   1.000  C
  H1259    1.0000 0.61943  0.14568  0.21671  Biso   1.000  H
  C1340    1.0000 0.71651  0.10840  0.27808  Biso   1.000  C
  C1341    1.0000 0.71652  0.10840  0.27813  Biso   1.000  C
  O211     1.0000 0.04097  0.12738  0.81411  Biso   1.000  O
  H1260    1.0000 0.10400  0.13159  0.73389  Biso   1.000  H
  H1261    1.0000 0.07660  0.20120  0.75551  Biso   1.000  H
  O212     1.0000 0.04103  0.12738  0.81411  Biso   1.000  O
  H1262    1.0000 0.10401  0.13159  0.73394  Biso   1.000  H
  H1263    1.0000 0.76519  0.74650  0.04349  Biso   1.000  H
  H1264    1.0000 0.70982  0.78358  0.08850  Biso   1.000  H
  O213     1.0000 0.77637  0.84600  0.03880  Biso   1.000  O
  O214     1.0000 0.77643  0.84600  0.03880  Biso   1.000  O
  H1265    1.0000 0.51023  0.89282  0.29162  Biso   1.000  H
  C1342    1.0000 0.59684  0.86542  0.36881  Biso   1.000  C
  C1343    1.0000 0.56040  0.77018  0.42821  Biso   1.000  C
  H1266    1.0000 0.44963  0.73388  0.39078  Biso   1.000  H
  C1344    1.0000 0.56046  0.77018  0.42821  Biso   1.000  C
  H1267    1.0000 0.44963  0.73388  0.39083  Biso   1.000  H
  C1345    1.0000 0.96659  0.05352  0.74091  Biso   1.000  C
  C1346    1.0000 0.88897  0.96292  0.66999  Biso   1.000  C
  C1347    1.0000 0.88904  0.96292  0.67004  Biso   1.000  C
  C1348    1.0000 0.47720  0.13790  0.67418  Biso   1.000  C
  C1349    1.0000 0.51350  0.23310  0.61467  Biso   1.000  C
  C1350    1.0000 0.47721  0.13790  0.67423  Biso   1.000  C
  C1351    1.0000 0.51351  0.23310  0.61472  Biso   1.000  C
  C1352    1.0000 0.74521  0.82159  0.92180  Biso   1.000  C
  C1353    1.0000 0.73148  0.80398  0.79622  Biso   1.000  C
  C1354    1.0000 0.73154  0.80398  0.79622  Biso   1.000  C
  C1355    1.0000 0.35272  0.89292  0.77061  Biso   1.000  C
  C1356    1.0000 0.33860  0.00939  0.78142  Biso   1.000  C
  C1357    1.0000 0.21450  0.77781  0.88912  Biso   1.000  C
  H1268    1.0000 0.29551  0.77752  0.98000  Biso   1.000  H
  H1269    1.0000 0.21012  0.74841  0.98838  Biso   1.000  H
  H1270    1.0000 0.21013  0.74841  0.98843  Biso   1.000  H
  H1271    1.0000 0.29242  0.78911  0.94954  Biso   1.000  H
  C1358    1.0000 0.19191  0.80349  0.87250  Biso   1.000  C
  H1272    1.0000 0.28963  0.86092  0.92069  Biso   1.000  H
  H1273    1.0000 0.75849  0.95328  0.28000  Biso   1.000  H
  H1274    1.0000 0.75855  0.95328  0.28000  Biso   1.000  H
  C1359    1.0000 0.75823  0.05078  0.29708  Biso   1.000  C
  C1360    1.0000 0.75824  0.05078  0.29713  Biso   1.000  C
  H1275    1.0000 0.73503  0.14788  0.29799  Biso   1.000  H
  H1276    1.0000 0.73504  0.14788  0.29804  Biso   1.000  H
  H1277    1.0000 0.63370  0.89840  0.36330  Biso   1.000  H
  C1361    1.0000 0.61560  0.81949  0.41998  Biso   1.000  C
  H1278    1.0000 0.63376  0.89840  0.36330  Biso   1.000  H
  C1362    1.0000 0.61561  0.81949  0.42003  Biso   1.000  C
  H1279    1.0000 0.57304  0.73951  0.46251  Biso   1.000  H
  O215     1.0000 0.03777  0.01981  0.73490  Biso   1.000  O
  O216     1.0000 0.03783  0.01981  0.73490  Biso   1.000  O
  C1363    1.0000 0.88658  0.90970  0.71919  Biso   1.000  C
  H1280    1.0000 0.94146  0.95881  0.65408  Biso   1.000  H
  C1364    1.0000 0.82429  0.95930  0.60659  Biso   1.000  C
  C1365    1.0000 0.88659  0.90970  0.71924  Biso   1.000  C
  H1281    1.0000 0.94153  0.95881  0.65413  Biso   1.000  H
  H1282    1.0000 0.48977  0.10718  0.70838  Biso   1.000  H
  C1366    1.0000 0.40316  0.13458  0.63119  Biso   1.000  C
  H1283    1.0000 0.48984  0.10718  0.70843  Biso   1.000  H
  C1367    1.0000 0.40322  0.13458  0.63119  Biso   1.000  C
  C1368    1.0000 0.43960  0.22982  0.57179  Biso   1.000  C
  H1284    1.0000 0.55037  0.26612  0.60922  Biso   1.000  H
  C1369    1.0000 0.43961  0.22982  0.57184  Biso   1.000  C
  O217     1.0000 0.78930  0.76421  0.93009  Biso   1.000  O
  O218     1.0000 0.78931  0.76421  0.93014  Biso   1.000  O
  C1370    1.0000 0.81059  0.83461  0.77910  Biso   1.000  C
  H1285    1.0000 0.74262  0.75859  0.81012  Biso   1.000  H
  C1371    1.0000 0.66671  0.80442  0.72980  Biso   1.000  C
  C1372    1.0000 0.28349  0.89160  0.72192  Biso   1.000  C
  H1286    1.0000 0.38057  0.85432  0.78329  Biso   1.000  H
  H1287    1.0000 0.38063  0.85432  0.78329  Biso   1.000  H
  H1288    1.0000 0.35699  0.04892  0.80128  Biso   1.000  H
  C1373    1.0000 0.26930  0.00812  0.73268  Biso   1.000  C
  H1289    1.0000 0.35700  0.04892  0.80133  Biso   1.000  H
  C1374    1.0000 0.26931  0.00812  0.73273  Biso   1.000  C
  C1375    1.0000 0.13479  0.74039  0.87220  Biso   1.000  C
  H1290    1.0000 0.25709  0.75531  0.87038  Biso   1.000  H
  H1291    1.0000 0.20850  0.82130  0.86972  Biso   1.000  H
  H1292    1.0000 0.25710  0.75531  0.87043  Biso   1.000  H
  C1376    1.0000 0.13782  0.75242  0.90074  Biso   1.000  C
  H1293    1.0000 0.21824  0.78451  0.83724  Biso   1.000  H
  H1294    1.0000 0.15964  0.84072  0.85391  Biso   1.000  H
  H1295    1.0000 0.80461  0.05171  0.32971  Biso   1.000  H
  H1296    1.0000 0.66512  0.82169  0.44882  Biso   1.000  H
  C1377    1.0000 0.05768  0.96390  0.77652  Biso   1.000  C
  C1378    1.0000 0.05774  0.96390  0.77652  Biso   1.000  C
  C1379    1.0000 0.95826  0.88582  0.75728  Biso   1.000  C
  C1380    1.0000 0.95833  0.88582  0.75733  Biso   1.000  C
  C1381    1.0000 0.81408  0.88211  0.73318  Biso   1.000  C
  C1382    1.0000 0.81409  0.88211  0.73323  Biso   1.000  C
  H1297    1.0000 0.83009  0.99741  0.57901  Biso   1.000  H
  H1298    1.0000 0.77105  0.96160  0.62048  Biso   1.000  H
  C1383    1.0000 0.82709  0.89942  0.56370  Biso   1.000  C
  H1299    1.0000 0.77112  0.96160  0.62053  Biso   1.000  H
  H1300    1.0000 0.36630  0.10160  0.63670  Biso   1.000  H
  C1384    1.0000 0.38440  0.18051  0.58002  Biso   1.000  C
  H1301    1.0000 0.42696  0.26049  0.53749  Biso   1.000  H
  H1302    1.0000 0.42703  0.26049  0.53754  Biso   1.000  H
  C1385    1.0000 0.87222  0.76969  0.92231  Biso   1.000  C
  C1386    1.0000 0.88370  0.81152  0.81330  Biso   1.000  C
  H1303    1.0000 0.68910  0.78461  0.69272  Biso   1.000  H
  H1304    1.0000 0.65031  0.84889  0.71732  Biso   1.000  H
  C1387    1.0000 0.59542  0.76548  0.74571  Biso   1.000  C
  C1388    1.0000 0.24177  0.94922  0.70292  Biso   1.000  C
  H1305    1.0000 0.26497  0.85212  0.70201  Biso   1.000  H
  C1389    1.0000 0.24183  0.94922  0.70292  Biso   1.000  C
  H1306    1.0000 0.26503  0.85212  0.70201  Biso   1.000  H
  H1307    1.0000 0.24151  0.04672  0.72000  Biso   1.000  H
  C1390    1.0000 0.07869  0.77742  0.81572  Biso   1.000  C
  H1308    1.0000 0.14518  0.69651  0.85720  Biso   1.000  H
  H1309    1.0000 0.10861  0.73701  0.91210  Biso   1.000  H
  C1391    1.0000 0.05504  0.75218  0.85053  Biso   1.000  C
  H1310    1.0000 0.16302  0.70952  0.90251  Biso   1.000  H
  H1311    1.0000 0.12909  0.76431  0.94590  Biso   1.000  H
  O219     1.0000 0.03309  0.90568  0.74611  Biso   1.000  O
  H1312    1.0000 0.03296  0.96859  0.81688  Biso   1.000  H
  H1313    1.0000 0.11617  0.96258  0.79021  Biso   1.000  H
  H1314    1.0000 0.03303  0.96859  0.81693  Biso   1.000  H
  H1315    1.0000 0.11623  0.96258  0.79021  Biso   1.000  H
  C1392    1.0000 0.95338  0.83622  0.80441  Biso   1.000  C
  C1393    1.0000 0.95344  0.83622  0.80441  Biso   1.000  C
  H1316    1.0000 0.76538  0.89761  0.70929  Biso   1.000  H
  H1317    1.0000 0.76538  0.89761  0.70934  Biso   1.000  H
  H1318    1.0000 0.77866  0.89840  0.52981  Biso   1.000  H
  H1319    1.0000 0.82621  0.86092  0.59189  Biso   1.000  H
  C1394    1.0000 0.89991  0.89619  0.52941  Biso   1.000  C
  H1320    1.0000 0.77872  0.89840  0.52981  Biso   1.000  H
  H1321    1.0000 0.33488  0.17831  0.55118  Biso   1.000  H
  H1322    1.0000 0.33489  0.17831  0.55123  Biso   1.000  H
  O220     1.0000 0.88609  0.75722  0.85659  Biso   1.000  O
  H1323    1.0000 0.90393  0.73921  0.95292  Biso   1.000  H
  H1324    1.0000 0.89102  0.81352  0.93509  Biso   1.000  H
  O221     1.0000 0.88610  0.75722  0.85664  Biso   1.000  O
  H1325    1.0000 0.89103  0.81352  0.93514  Biso   1.000  H
  H1326    1.0000 0.61439  0.72762  0.77279  Biso   1.000  H
  H1327    1.0000 0.56260  0.79209  0.77112  Biso   1.000  H
  C1395    1.0000 0.54312  0.74298  0.67721  Biso   1.000  C
  H1328    1.0000 0.61440  0.72762  0.77284  Biso   1.000  H
  H1329    1.0000 0.19539  0.94829  0.67029  Biso   1.000  H
  O222     1.0000 0.02591  0.81959  0.84770  Biso   1.000  O
  H1330    1.0000 0.04647  0.74650  0.78592  Biso   1.000  H
  H1331    1.0000 0.11098  0.80320  0.78910  Biso   1.000  H
  H1332    1.0000 0.04653  0.74650  0.78592  Biso   1.000  H
  H1333    1.0000 0.11104  0.80320  0.78910  Biso   1.000  H
  H1334    1.0000 0.06319  0.73750  0.80612  Biso   1.000  H
  H1335    1.0000 0.01600  0.72341  0.86679  Biso   1.000  H
  C1396    1.0000 0.97311  0.86870  0.55931  Biso   1.000  C
  C1397    1.0000 0.89368  0.92491  0.46601  Biso   1.000  C
  C1398    1.0000 0.56388  0.68702  0.64428  Biso   1.000  C
  C1399    1.0000 0.47489  0.77898  0.65009  Biso   1.000  C
  C1400    1.0000 0.56389  0.68702  0.64433  Biso   1.000  C
  C1401    1.0000 0.47490  0.77898  0.65014  Biso   1.000  C
  H1336    1.0000 0.97726  0.84948  0.60179  Biso   1.000  H
  H1337    1.0000 0.97732  0.84948  0.60179  Biso   1.000  H
  C1402    1.0000 0.04006  0.87002  0.52572  Biso   1.000  C
  C1403    1.0000 0.04012  0.87002  0.52572  Biso   1.000  C
  C1404    1.0000 0.96068  0.92618  0.43242  Biso   1.000  C
  H1338    1.0000 0.84468  0.94330  0.44601  Biso   1.000  H
  H1339    1.0000 0.60946  0.66300  0.66241  Biso   1.000  H
  C1405    1.0000 0.51647  0.66711  0.58452  Biso   1.000  C
  H1340    1.0000 0.60952  0.66300  0.66241  Biso   1.000  H
  C1406    1.0000 0.42747  0.75898  0.59028  Biso   1.000  C
  H1341    1.0000 0.46102  0.81641  0.67211  Biso   1.000  H
  C1407    1.0000 0.42748  0.75898  0.59033  Biso   1.000  C
  H1342    1.0000 0.08911  0.85158  0.54572  Biso   1.000  H
  C1408    1.0000 0.03388  0.89869  0.46232  Biso   1.000  C
  H1343    1.0000 0.95646  0.94541  0.38988  Biso   1.000  H
  H1344    1.0000 0.95647  0.94541  0.38993  Biso   1.000  H
  H1345    1.0000 0.53040  0.62959  0.56249  Biso   1.000  H
  C1409    1.0000 0.44826  0.70311  0.55749  Biso   1.000  C
  C1410    1.0000 0.44832  0.70311  0.55749  Biso   1.000  C
  H1346    1.0000 0.38178  0.78309  0.57219  Biso   1.000  H
  H1347    1.0000 0.07865  0.89962  0.43979  Biso   1.000  H
  H1348    1.0000 0.07871  0.89962  0.43979  Biso   1.000  H
  H1349    1.0000 0.41646  0.68971  0.51748  Biso   1.000  H
  H1350    1.0000 0.41653  0.68971  0.51753  Biso   1.000  H
  O223     1.0000 0.97415  0.18041  0.15230  Biso   1.000  O
  C1411    1.0000 0.04662  0.16378  0.19559  Biso   1.000  C
  C1412    1.0000 0.04663  0.16378  0.19564  Biso   1.000  C
  C1413    1.0000 0.92131  0.22258  0.18428  Biso   1.000  C
  C1414    1.0000 0.92132  0.22258  0.18433  Biso   1.000  C
  C1415    1.0000 0.94503  0.24782  0.14952  Biso   1.000  C
  C1416    1.0000 0.11630  0.18848  0.18670  Biso   1.000  C
  C1417    1.0000 0.04174  0.11418  0.24272  Biso   1.000  C
  O224     1.0000 0.97409  0.18041  0.15230  Biso   1.000  O
  H1351    1.0000 0.95353  0.25350  0.21408  Biso   1.000  H
  H1352    1.0000 0.88902  0.19680  0.21090  Biso   1.000  H
  C1418    1.0000 0.86521  0.25961  0.12780  Biso   1.000  C
  H1353    1.0000 0.95354  0.25350  0.21413  Biso   1.000  H
  H1354    1.0000 0.93682  0.26250  0.19393  Biso   1.000  H
  H1355    1.0000 0.98400  0.27659  0.13321  Biso   1.000  H
  C1419    1.0000 0.86219  0.24758  0.09931  Biso   1.000  C
  C1420    1.0000 0.18941  0.16539  0.22090  Biso   1.000  C
  O225     1.0000 0.11391  0.24278  0.14341  Biso   1.000  O
  C1421    1.0000 0.11342  0.09030  0.28081  Biso   1.000  C
  O226     1.0000 0.96691  0.09432  0.25389  Biso   1.000  O
  O227     1.0000 0.96692  0.09432  0.25394  Biso   1.000  O
  H1356    1.0000 0.85482  0.30349  0.14280  Biso   1.000  H
  H1357    1.0000 0.89139  0.26299  0.08790  Biso   1.000  H
  C1422    1.0000 0.78550  0.22219  0.11088  Biso   1.000  C
  H1358    1.0000 0.89145  0.26299  0.08790  Biso   1.000  H
  C1423    1.0000 0.78551  0.22219  0.11093  Biso   1.000  C
  H1359    1.0000 0.83698  0.29048  0.09749  Biso   1.000  H
  C1424    1.0000 0.80809  0.19651  0.12750  Biso   1.000  C
  H1360    1.0000 0.87091  0.23569  0.05410  Biso   1.000  H
  C1425    1.0000 0.18592  0.11789  0.26682  Biso   1.000  C
  C1426    1.0000 0.26852  0.19602  0.20378  Biso   1.000  C
  C1427    1.0000 0.26853  0.19602  0.20383  Biso   1.000  C
  C1428    1.0000 0.12778  0.23031  0.07769  Biso   1.000  C
  C1429    1.0000 0.12785  0.23031  0.07774  Biso   1.000  C
  C1430    1.0000 0.11103  0.03708  0.33001  Biso   1.000  C
  C1431    1.0000 0.94232  0.03610  0.22348  Biso   1.000  C
  C1432    1.0000 0.94233  0.03610  0.22353  Biso   1.000  C
  H1361    1.0000 0.74291  0.24469  0.12962  Biso   1.000  H
  H1362    1.0000 0.79150  0.17870  0.13028  Biso   1.000  H
  C1433    1.0000 0.76271  0.21749  0.03319  Biso   1.000  C
  H1363    1.0000 0.79151  0.17870  0.13033  Biso   1.000  H
  C1434    1.0000 0.76272  0.21749  0.03324  Biso   1.000  C
  H1364    1.0000 0.78183  0.21549  0.16281  Biso   1.000  H
  C1435    1.0000 0.74322  0.17469  0.06622  Biso   1.000  C
  H1365    1.0000 0.84042  0.15928  0.14609  Biso   1.000  H
  H1366    1.0000 0.23462  0.10239  0.29071  Biso   1.000  H
  H1367    1.0000 0.25738  0.24141  0.18988  Biso   1.000  H
  C1436    1.0000 0.33329  0.19558  0.27020  Biso   1.000  C
  C1437    1.0000 0.29138  0.15801  0.14402  Biso   1.000  C
  H1368    1.0000 0.25745  0.24141  0.18994  Biso   1.000  H
  C1438    1.0000 0.33335  0.19558  0.27020  Biso   1.000  C
  C1439    1.0000 0.29144  0.15801  0.14402  Biso   1.000  C
  O228     1.0000 0.21070  0.23579  0.06991  Biso   1.000  O
  H1369    1.0000 0.09607  0.26079  0.04708  Biso   1.000  H
  H1370    1.0000 0.10898  0.18648  0.06491  Biso   1.000  H
  H1371    1.0000 0.09614  0.26079  0.04713  Biso   1.000  H
  H1372    1.0000 0.10904  0.18648  0.06491  Biso   1.000  H
  H1373    1.0000 0.05854  0.04119  0.34592  Biso   1.000  H
  C1440    1.0000 0.17571  0.04070  0.39341  Biso   1.000  C
  C1441    1.0000 0.10840  0.97290  0.29339  Biso   1.000  C
  C1442    1.0000 0.10841  0.97290  0.29344  Biso   1.000  C
  O229     1.0000 0.96223  0.98019  0.26510  Biso   1.000  O
  H1374    1.0000 0.96704  0.03141  0.18312  Biso   1.000  H
  H1375    1.0000 0.88383  0.03742  0.20979  Biso   1.000  H
  H1376    1.0000 0.88384  0.03742  0.20984  Biso   1.000  H
  H1377    1.0000 0.70449  0.22248  0.02000  Biso   1.000  H
  H1378    1.0000 0.78988  0.25159  0.01162  Biso   1.000  H
  O230     1.0000 0.78849  0.15341  0.01318  Biso   1.000  O
  H1379    1.0000 0.70455  0.22248  0.02000  Biso   1.000  H
  H1380    1.0000 0.78994  0.25159  0.01162  Biso   1.000  H
  O231     1.0000 0.78850  0.15341  0.01323  Biso   1.000  O
  H1381    1.0000 0.70759  0.21089  0.05051  Biso   1.000  H
  H1382    1.0000 0.71043  0.13908  0.07931  Biso   1.000  H
  H1383    1.0000 0.31090  0.21539  0.30728  Biso   1.000  H
  H1384    1.0000 0.34969  0.15111  0.28268  Biso   1.000  H
  C1443    1.0000 0.40458  0.23452  0.25429  Biso   1.000  C
  H1385    1.0000 0.31091  0.21539  0.30733  Biso   1.000  H
  H1386    1.0000 0.34976  0.15111  0.28273  Biso   1.000  H
  C1444    1.0000 0.40465  0.23452  0.25434  Biso   1.000  C
  C1445    1.0000 0.34021  0.10209  0.14912  Biso   1.000  C
  C1446    1.0000 0.25479  0.17841  0.07820  Biso   1.000  C
  C1447    1.0000 0.25485  0.17841  0.07820  Biso   1.000  C
  H1387    1.0000 0.22895  0.03840  0.37952  Biso   1.000  H
  C1448    1.0000 0.17291  0.10058  0.43630  Biso   1.000  C
  H1388    1.0000 0.16991  0.00259  0.42099  Biso   1.000  H
  H1389    1.0000 0.16992  0.00259  0.42104  Biso   1.000  H
  C1449    1.0000 0.03341  0.94648  0.25909  Biso   1.000  C
  C1450    1.0000 0.17890  0.93870  0.28409  Biso   1.000  C
  C1451    1.0000 0.03342  0.94648  0.25914  Biso   1.000  C
  C1452    1.0000 0.74353  0.12900  0.95302  Biso   1.000  C
  H1390    1.0000 0.38561  0.27238  0.22721  Biso   1.000  H
  H1391    1.0000 0.43740  0.20791  0.22888  Biso   1.000  H
  C1453    1.0000 0.45688  0.25702  0.32279  Biso   1.000  C
  H1392    1.0000 0.43741  0.20791  0.22893  Biso   1.000  H
  C1454    1.0000 0.45695  0.25702  0.32284  Biso   1.000  C
  H1393    1.0000 0.36270  0.08781  0.19201  Biso   1.000  H
  C1455    1.0000 0.35679  0.06731  0.09522  Biso   1.000  C
  C1456    1.0000 0.35685  0.06731  0.09522  Biso   1.000  C
  C1457    1.0000 0.27069  0.14260  0.02581  Biso   1.000  C
  C1458    1.0000 0.27075  0.14260  0.02581  Biso   1.000  C
  H1394    1.0000 0.22134  0.10160  0.47019  Biso   1.000  H
  H1395    1.0000 0.17379  0.13908  0.40811  Biso   1.000  H
  C1459    1.0000 0.10009  0.10381  0.47059  Biso   1.000  C
  H1396    1.0000 0.22135  0.10160  0.47024  Biso   1.000  H
  H1397    1.0000 0.17385  0.13908  0.40811  Biso   1.000  H
  C1460    1.0000 0.10016  0.10381  0.47064  Biso   1.000  C
  C1461    1.0000 0.03223  0.89380  0.22408  Biso   1.000  C
  C1462    1.0000 0.03224  0.89380  0.22413  Biso   1.000  C
  H1398    1.0000 0.22880  0.95592  0.30349  Biso   1.000  H
  C1463    1.0000 0.17944  0.88078  0.24772  Biso   1.000  C
  H1399    1.0000 0.22881  0.95592  0.30354  Biso   1.000  H
  C1464    1.0000 0.75828  0.15649  0.89362  Biso   1.000  C
  C1465    1.0000 0.69301  0.08052  0.95459  Biso   1.000  C
  C1466    1.0000 0.75834  0.15649  0.89362  Biso   1.000  C
  C1467    1.0000 0.69302  0.08052  0.95464  Biso   1.000  C
  C1468    1.0000 0.43612  0.31298  0.35572  Biso   1.000  C
  C1469    1.0000 0.52511  0.22102  0.34991  Biso   1.000  C
  C1470    1.0000 0.31828  0.09109  0.03071  Biso   1.000  C
  C1471    1.0000 0.40598  0.00558  0.10098  Biso   1.000  C
  C1472    1.0000 0.31834  0.09109  0.03071  Biso   1.000  C
  C1473    1.0000 0.40605  0.00558  0.10103  Biso   1.000  C
  O232     1.0000 0.22363  0.15400  0.96120  Biso   1.000  O
  C1474    1.0000 0.02689  0.13130  0.44069  Biso   1.000  C
  C1475    1.0000 0.10632  0.07509  0.53399  Biso   1.000  C
  C1476    1.0000 0.02696  0.13130  0.44074  Biso   1.000  C
  C1477    1.0000 0.10633  0.07509  0.53404  Biso   1.000  C
  O233     1.0000 0.95903  0.87262  0.18589  Biso   1.000  O
  C1478    1.0000 0.09909  0.85911  0.21651  Biso   1.000  C
  C1479    1.0000 0.09915  0.85911  0.21651  Biso   1.000  C
  C1480    1.0000 0.25328  0.84551  0.23510  Biso   1.000  C
  C1481    1.0000 0.25334  0.84551  0.23510  Biso   1.000  C
  O234     1.0000 0.81082  0.21030  0.89291  Biso   1.000  O
  C1482    1.0000 0.72211  0.12880  0.83229  Biso   1.000  C
  C1483    1.0000 0.65098  0.05161  0.89660  Biso   1.000  C
  C1484    1.0000 0.65104  0.05161  0.89660  Biso   1.000  C
  O235     1.0000 0.67629  0.05772  0.01859  Biso   1.000  O
  O236     1.0000 0.67630  0.05772  0.01864  Biso   1.000  O
  H1400    1.0000 0.39054  0.33700  0.33759  Biso   1.000  H
  C1485    1.0000 0.48353  0.33289  0.41548  Biso   1.000  C
  H1401    1.0000 0.39055  0.33700  0.33764  Biso   1.000  H
  C1486    1.0000 0.48354  0.33289  0.41553  Biso   1.000  C
  C1487    1.0000 0.57253  0.24102  0.40972  Biso   1.000  C
  H1402    1.0000 0.53898  0.18359  0.32789  Biso   1.000  H
  H1403    1.0000 0.53905  0.18359  0.32794  Biso   1.000  H
  O237     1.0000 0.33328  0.05469  0.97292  Biso   1.000  O
  O238     1.0000 0.33334  0.05469  0.97292  Biso   1.000  O
  H1404    1.0000 0.42903  0.00142  0.05910  Biso   1.000  H
  C1488    1.0000 0.34902  0.94839  0.10340  Biso   1.000  C
  C1489    1.0000 0.47749  0.00362  0.15953  Biso   1.000  C
  C1490    1.0000 0.47755  0.00362  0.15953  Biso   1.000  C
  C1491    1.0000 0.23769  0.21642  0.92680  Biso   1.000  C
  H1405    1.0000 0.02274  0.15052  0.39821  Biso   1.000  H
  C1492    1.0000 0.95994  0.12998  0.47428  Biso   1.000  C
  C1493    1.0000 0.95995  0.12998  0.47433  Biso   1.000  C
  C1494    1.0000 0.03932  0.07382  0.56758  Biso   1.000  C
  H1406    1.0000 0.15532  0.05670  0.55399  Biso   1.000  H
  C1495    1.0000 0.03933  0.07382  0.56763  Biso   1.000  C
  H1407    1.0000 0.15532  0.05670  0.55404  Biso   1.000  H
  C1496    1.0000 0.90230  0.84101  0.22782  Biso   1.000  C
  O239     1.0000 0.09510  0.80041  0.17938  Biso   1.000  O
  O240     1.0000 0.09511  0.80041  0.17943  Biso   1.000  O
  H1408    1.0000 0.23918  0.79909  0.22878  Biso   1.000  H
  C1497    1.0000 0.32451  0.85070  0.29440  Biso   1.000  C
  C1498    1.0000 0.27789  0.87120  0.16771  Biso   1.000  C
  H1409    1.0000 0.23925  0.79909  0.22883  Biso   1.000  H
  C1499    1.0000 0.27795  0.87120  0.16771  Biso   1.000  C
  C1500    1.0000 0.89059  0.19631  0.88528  Biso   1.000  C
  C1501    1.0000 0.89060  0.19631  0.88533  Biso   1.000  C
  C1502    1.0000 0.67147  0.07739  0.83638  Biso   1.000  C
  C1503    1.0000 0.74672  0.15449  0.76490  Biso   1.000  C
  C1504    1.0000 0.67154  0.07739  0.83643  Biso   1.000  C
  C1505    1.0000 0.59402  0.99442  0.89902  Biso   1.000  C
  C1506    1.0000 0.71342  0.99878  0.04258  Biso   1.000  C
  C1507    1.0000 0.71343  0.99878  0.04263  Biso   1.000  C
  C1508    1.0000 0.55174  0.29689  0.44251  Biso   1.000  C
  H1410    1.0000 0.46960  0.37041  0.43751  Biso   1.000  H
  H1411    1.0000 0.46966  0.37041  0.43751  Biso   1.000  H
  H1412    1.0000 0.61822  0.21691  0.42781  Biso   1.000  H
  C1509    1.0000 0.28658  0.00122  0.95742  Biso   1.000  C
  C1510    1.0000 0.28664  0.00122  0.95742  Biso   1.000  C
  C1511    1.0000 0.32853  0.92261  0.16362  Biso   1.000  C
  C1512    1.0000 0.30699  0.91948  0.04541  Biso   1.000  C
  C1513    1.0000 0.30705  0.91948  0.04541  Biso   1.000  C
  C1514    1.0000 0.54481  0.04911  0.14483  Biso   1.000  C
  H1413    1.0000 0.49823  0.95930  0.16538  Biso   1.000  H
  H1414    1.0000 0.49824  0.95930  0.16544  Biso   1.000  H
  H1415    1.0000 0.45899  0.01688  0.20100  Biso   1.000  H
  H1416    1.0000 0.45905  0.01688  0.20100  Biso   1.000  H
  C1515    1.0000 0.16532  0.21808  0.86432  Biso   1.000  C
  H1417    1.0000 0.23481  0.25350  0.95651  Biso   1.000  H
  H1418    1.0000 0.29018  0.21642  0.91150  Biso   1.000  H
  H1419    1.0000 0.29024  0.21642  0.91150  Biso   1.000  H
  H1420    1.0000 0.91089  0.14842  0.45428  Biso   1.000  H
  C1516    1.0000 0.96612  0.10131  0.53768  Biso   1.000  C
  H1421    1.0000 0.91096  0.14842  0.45433  Biso   1.000  H
  C1517    1.0000 0.96613  0.10131  0.53773  Biso   1.000  C
  H1422    1.0000 0.04354  0.05459  0.61012  Biso   1.000  H
  H1423    1.0000 0.89600  0.86841  0.26611  Biso   1.000  H
  H1424    1.0000 0.92340  0.79880  0.24449  Biso   1.000  H
  C1518    1.0000 0.81949  0.83250  0.18069  Biso   1.000  C
  H1425    1.0000 0.89606  0.86841  0.26611  Biso   1.000  H
  H1426    1.0000 0.92341  0.79880  0.24454  Biso   1.000  H
  C1519    1.0000 0.81956  0.83250  0.18074  Biso   1.000  C
  C1520    1.0000 0.10941  0.80369  0.11472  Biso   1.000  C
  H1427    1.0000 0.34470  0.89531  0.29799  Biso   1.000  H
  H1428    1.0000 0.30569  0.83950  0.33638  Biso   1.000  H
  C1521    1.0000 0.39193  0.80501  0.28278  Biso   1.000  C
  H1429    1.0000 0.34471  0.89531  0.29804  Biso   1.000  H
  H1430    1.0000 0.30576  0.83950  0.33643  Biso   1.000  H
  C1522    1.0000 0.39194  0.80501  0.28283  Biso   1.000  C
  C1523    1.0000 0.24172  0.84351  0.10638  Biso   1.000  C
  C1524    1.0000 0.24172  0.84351  0.10643  Biso   1.000  C
  O241     1.0000 0.90490  0.19959  0.82062  Biso   1.000  O
  H1431    1.0000 0.90398  0.15258  0.90251  Biso   1.000  H
  H1432    1.0000 0.92659  0.22669  0.91251  Biso   1.000  H
  H1433    1.0000 0.90404  0.15258  0.90251  Biso   1.000  H
  H1434    1.0000 0.64839  0.05772  0.79612  Biso   1.000  H
  C1525    1.0000 0.82056  0.11922  0.75228  Biso   1.000  C
  H1435    1.0000 0.76082  0.20091  0.77122  Biso   1.000  H
  C1526    1.0000 0.67549  0.14930  0.70560  Biso   1.000  C
  C1527    1.0000 0.82063  0.11922  0.75233  Biso   1.000  C
  C1528    1.0000 0.64321  0.93269  0.90478  Biso   1.000  C
  H1436    1.0000 0.57097  0.99858  0.94090  Biso   1.000  H
  C1529    1.0000 0.52251  0.99638  0.84047  Biso   1.000  C
  C1530    1.0000 0.64322  0.93269  0.90483  Biso   1.000  C
  H1437    1.0000 0.57103  0.99858  0.94090  Biso   1.000  H
  C1531    1.0000 0.52252  0.99638  0.84053  Biso   1.000  C
  O242     1.0000 0.66672  0.94531  0.02708  Biso   1.000  O
  H1438    1.0000 0.76342  0.99359  0.02389  Biso   1.000  H
  O243     1.0000 0.66673  0.94531  0.02713  Biso   1.000  O
  H1439    1.0000 0.72782  0.00161  0.09128  Biso   1.000  H
  H1440    1.0000 0.72783  0.00161  0.09133  Biso   1.000  H
  H1441    1.0000 0.58354  0.31029  0.48252  Biso   1.000  H
  O244     1.0000 0.32371  0.94228  0.98141  Biso   1.000  O
  H1442    1.0000 0.27218  0.99839  0.90872  Biso   1.000  H
  H1443    1.0000 0.27224  0.99839  0.90872  Biso   1.000  H
  H1444    1.0000 0.23658  0.00641  0.97611  Biso   1.000  H
  H1445    1.0000 0.23664  0.00641  0.97611  Biso   1.000  H
  H1446    1.0000 0.35161  0.94228  0.20388  Biso   1.000  H
  H1447    1.0000 0.35162  0.94228  0.20393  Biso   1.000  H
  C1532    1.0000 0.25647  0.87100  0.04698  Biso   1.000  C
  C1533    1.0000 0.25654  0.87100  0.04703  Biso   1.000  C
  H1448    1.0000 0.52380  0.09329  0.14008  Biso   1.000  H
  H1449    1.0000 0.56093  0.03659  0.10219  Biso   1.000  H
  C1534    1.0000 0.61969  0.04819  0.19958  Biso   1.000  C
  H1450    1.0000 0.52381  0.09329  0.14013  Biso   1.000  H
  H1451    1.0000 0.56094  0.03659  0.10224  Biso   1.000  H
  C1535    1.0000 0.61976  0.04819  0.19963  Biso   1.000  C
  C1536    1.0000 0.18051  0.16750  0.81931  Biso   1.000  C
  H1452    1.0000 0.16362  0.26020  0.84189  Biso   1.000  H
  H1453    1.0000 0.11362  0.21089  0.87967  Biso   1.000  H
  H1454    1.0000 0.16363  0.26020  0.84194  Biso   1.000  H
  H1455    1.0000 0.11363  0.21089  0.87972  Biso   1.000  H
  H1456    1.0000 0.92135  0.10038  0.56021  Biso   1.000  H
  H1457    1.0000 0.77711  0.81978  0.20630  Biso   1.000  H
  H1458    1.0000 0.80350  0.87262  0.15639  Biso   1.000  H
  C1537    1.0000 0.83468  0.78192  0.13568  Biso   1.000  C
  C1538    1.0000 0.83475  0.78192  0.13573  Biso   1.000  C
  H1459    1.0000 0.09602  0.84742  0.09749  Biso   1.000  H
  H1460    1.0000 0.07341  0.77331  0.08749  Biso   1.000  H
  O245     1.0000 0.18918  0.78970  0.10709  Biso   1.000  O
  H1461    1.0000 0.07342  0.77331  0.08754  Biso   1.000  H
  O246     1.0000 0.18925  0.78970  0.10714  Biso   1.000  O
  H1462    1.0000 0.40524  0.81289  0.23803  Biso   1.000  H
  H1463    1.0000 0.37272  0.76030  0.28409  Biso   1.000  H
  C1539    1.0000 0.46760  0.81279  0.33410  Biso   1.000  C
  C1540    1.0000 0.46766  0.81279  0.33410  Biso   1.000  C
  C1541    1.0000 0.90091  0.14089  0.78349  Biso   1.000  C
  C1542    1.0000 0.82110  0.06130  0.71591  Biso   1.000  C
  H1464    1.0000 0.65530  0.10469  0.70201  Biso   1.000  H
  H1465    1.0000 0.69431  0.16050  0.66362  Biso   1.000  H
  C1543    1.0000 0.60807  0.19499  0.71722  Biso   1.000  C
  C1544    1.0000 0.60813  0.19499  0.71722  Biso   1.000  C
  C1545    1.0000 0.68172  0.90891  0.96929  Biso   1.000  C
  C1546    1.0000 0.65979  0.89791  0.85088  Biso   1.000  C
  C1547    1.0000 0.68173  0.90891  0.96934  Biso   1.000  C
  C1548    1.0000 0.65980  0.89791  0.85093  Biso   1.000  C
  H1466    1.0000 0.54101  0.98312  0.79900  Biso   1.000  H
  C1549    1.0000 0.45519  0.95089  0.85517  Biso   1.000  C
  C1550    1.0000 0.45520  0.95089  0.85523  Biso   1.000  C
  H1467    1.0000 0.50177  0.04070  0.83462  Biso   1.000  H
  H1468    1.0000 0.50183  0.04070  0.83462  Biso   1.000  H
  O247     1.0000 0.21151  0.84659  0.98682  Biso   1.000  O
  C1551    1.0000 0.66140  0.99061  0.21858  Biso   1.000  C
  C1552    1.0000 0.66141  0.99061  0.21863  Biso   1.000  C
  C1553    1.0000 0.64728  0.10708  0.22939  Biso   1.000  C
  C1554    1.0000 0.64735  0.10708  0.22944  Biso   1.000  C
  C1555    1.0000 0.09770  0.15899  0.77218  Biso   1.000  C
  H1469    1.0000 0.22289  0.18022  0.79370  Biso   1.000  H
  H1470    1.0000 0.19650  0.12738  0.84361  Biso   1.000  H
  C1556    1.0000 0.09771  0.15899  0.77223  Biso   1.000  C
  H1471    1.0000 0.83638  0.73980  0.15811  Biso   1.000  H
  H1472    1.0000 0.88638  0.78911  0.12033  Biso   1.000  H
  C1557    1.0000 0.76231  0.78358  0.07320  Biso   1.000  C
  H1473    1.0000 0.83644  0.73980  0.15811  Biso   1.000  H
  H1474    1.0000 0.88644  0.78911  0.12033  Biso   1.000  H
  C1558    1.0000 0.52280  0.86210  0.32582  Biso   1.000  C
  C1559    1.0000 0.48650  0.76690  0.38533  Biso   1.000  C
  C1560    1.0000 0.52286  0.86210  0.32582  Biso   1.000  C
  C1561    1.0000 0.48656  0.76690  0.38533  Biso   1.000  C
  C1562    1.0000 0.96777  0.10620  0.77592  Biso   1.000  C
  C1563    1.0000 0.96783  0.10620  0.77592  Biso   1.000  C
  C1564    1.0000 0.89160  0.02710  0.70661  Biso   1.000  C
  H1475    1.0000 0.77120  0.04408  0.69651  Biso   1.000  H
  H1476    1.0000 0.59476  0.18711  0.76197  Biso   1.000  H
  H1477    1.0000 0.62728  0.23970  0.71591  Biso   1.000  H
  C1565    1.0000 0.53240  0.18721  0.66590  Biso   1.000  C
  H1478    1.0000 0.59483  0.18711  0.76203  Biso   1.000  H
  C1566    1.0000 0.72931  0.85740  0.97419  Biso   1.000  C
  C1567    1.0000 0.72932  0.85740  0.97424  Biso   1.000  C
  C1568    1.0000 0.70862  0.84199  0.85598  Biso   1.000  C
  H1479    1.0000 0.63730  0.91219  0.80799  Biso   1.000  H
  C1569    1.0000 0.70862  0.84199  0.85603  Biso   1.000  C
  H1480    1.0000 0.47620  0.90671  0.85992  Biso   1.000  H
  H1481    1.0000 0.43907  0.96341  0.89781  Biso   1.000  H
  C1570    1.0000 0.38031  0.95181  0.80042  Biso   1.000  C
  H1482    1.0000 0.43913  0.96341  0.89781  Biso   1.000  H
  C1571    1.0000 0.23729  0.78251  0.96681  Biso   1.000  C
  C1572    1.0000 0.25685  0.82531  0.93383  Biso   1.000  C
  H1483    1.0000 0.64301  0.95108  0.19872  Biso   1.000  H
  C1573    1.0000 0.73070  0.99188  0.26732  Biso   1.000  C
  C1574    1.0000 0.73076  0.99188  0.26732  Biso   1.000  C
  H1484    1.0000 0.61943  0.14568  0.21671  Biso   1.000  H
  C1575    1.0000 0.71651  0.10840  0.27808  Biso   1.000  C
  C1576    1.0000 0.71652  0.10840  0.27813  Biso   1.000  C
  O248     1.0000 0.04097  0.12738  0.81411  Biso   1.000  O
  H1485    1.0000 0.10400  0.13159  0.73389  Biso   1.000  H
  H1486    1.0000 0.07660  0.20120  0.75551  Biso   1.000  H
  O249     1.0000 0.04103  0.12738  0.81411  Biso   1.000  O
  H1487    1.0000 0.10401  0.13159  0.73394  Biso   1.000  H
  H1488    1.0000 0.76519  0.74650  0.04349  Biso   1.000  H
  H1489    1.0000 0.70982  0.78358  0.08850  Biso   1.000  H
  O250     1.0000 0.77637  0.84600  0.03880  Biso   1.000  O
  O251     1.0000 0.77643  0.84600  0.03880  Biso   1.000  O
  H1490    1.0000 0.51023  0.89282  0.29162  Biso   1.000  H
  C1577    1.0000 0.59684  0.86542  0.36881  Biso   1.000  C
  C1578    1.0000 0.56040  0.77018  0.42821  Biso   1.000  C
  H1491    1.0000 0.44963  0.73388  0.39078  Biso   1.000  H
  C1579    1.0000 0.56046  0.77018  0.42821  Biso   1.000  C
  H1492    1.0000 0.44963  0.73388  0.39083  Biso   1.000  H
  C1580    1.0000 0.96659  0.05352  0.74091  Biso   1.000  C
  C1581    1.0000 0.88897  0.96292  0.66999  Biso   1.000  C
  C1582    1.0000 0.88904  0.96292  0.67004  Biso   1.000  C
  C1583    1.0000 0.47720  0.13790  0.67418  Biso   1.000  C
  C1584    1.0000 0.51350  0.23310  0.61467  Biso   1.000  C
  C1585    1.0000 0.47721  0.13790  0.67423  Biso   1.000  C
  C1586    1.0000 0.51351  0.23310  0.61472  Biso   1.000  C
  C1587    1.0000 0.74521  0.82159  0.92180  Biso   1.000  C
  C1588    1.0000 0.73148  0.80398  0.79622  Biso   1.000  C
  C1589    1.0000 0.73154  0.80398  0.79622  Biso   1.000  C
  C1590    1.0000 0.35272  0.89292  0.77061  Biso   1.000  C
  C1591    1.0000 0.33860  0.00939  0.78142  Biso   1.000  C
  C1592    1.0000 0.21450  0.77781  0.88912  Biso   1.000  C
  H1493    1.0000 0.29551  0.77752  0.98000  Biso   1.000  H
  H1494    1.0000 0.21012  0.74841  0.98838  Biso   1.000  H
  H1495    1.0000 0.21013  0.74841  0.98843  Biso   1.000  H
  H1496    1.0000 0.29242  0.78911  0.94954  Biso   1.000  H
  C1593    1.0000 0.19191  0.80349  0.87250  Biso   1.000  C
  H1497    1.0000 0.28963  0.86092  0.92069  Biso   1.000  H
  H1498    1.0000 0.75849  0.95328  0.28000  Biso   1.000  H
  H1499    1.0000 0.75855  0.95328  0.28000  Biso   1.000  H
  C1594    1.0000 0.75823  0.05078  0.29708  Biso   1.000  C
  C1595    1.0000 0.75824  0.05078  0.29713  Biso   1.000  C
  H1500    1.0000 0.73503  0.14788  0.29799  Biso   1.000  H
  H1501    1.0000 0.73504  0.14788  0.29804  Biso   1.000  H
  H1502    1.0000 0.63370  0.89840  0.36330  Biso   1.000  H
  C1596    1.0000 0.61560  0.81949  0.41998  Biso   1.000  C
  H1503    1.0000 0.63376  0.89840  0.36330  Biso   1.000  H
  C1597    1.0000 0.61561  0.81949  0.42003  Biso   1.000  C
  H1504    1.0000 0.57304  0.73951  0.46251  Biso   1.000  H
  O252     1.0000 0.03777  0.01981  0.73490  Biso   1.000  O
  O253     1.0000 0.03783  0.01981  0.73490  Biso   1.000  O
  C1598    1.0000 0.88658  0.90970  0.71919  Biso   1.000  C
  H1505    1.0000 0.94146  0.95881  0.65408  Biso   1.000  H
  C1599    1.0000 0.82429  0.95930  0.60659  Biso   1.000  C
  C1600    1.0000 0.88659  0.90970  0.71924  Biso   1.000  C
  H1506    1.0000 0.94153  0.95881  0.65413  Biso   1.000  H
  H1507    1.0000 0.48977  0.10718  0.70838  Biso   1.000  H
  C1601    1.0000 0.40316  0.13458  0.63119  Biso   1.000  C
  H1508    1.0000 0.48984  0.10718  0.70843  Biso   1.000  H
  C1602    1.0000 0.40322  0.13458  0.63119  Biso   1.000  C
  C1603    1.0000 0.43960  0.22982  0.57179  Biso   1.000  C
  H1509    1.0000 0.55037  0.26612  0.60922  Biso   1.000  H
  C1604    1.0000 0.43961  0.22982  0.57184  Biso   1.000  C
  O254     1.0000 0.78930  0.76421  0.93009  Biso   1.000  O
  O255     1.0000 0.78931  0.76421  0.93014  Biso   1.000  O
  C1605    1.0000 0.81059  0.83461  0.77910  Biso   1.000  C
  H1510    1.0000 0.74262  0.75859  0.81012  Biso   1.000  H
  C1606    1.0000 0.66671  0.80442  0.72980  Biso   1.000  C
  C1607    1.0000 0.28349  0.89160  0.72192  Biso   1.000  C
  H1511    1.0000 0.38057  0.85432  0.78329  Biso   1.000  H
  H1512    1.0000 0.38063  0.85432  0.78329  Biso   1.000  H
  H1513    1.0000 0.35699  0.04892  0.80128  Biso   1.000  H
  C1608    1.0000 0.26930  0.00812  0.73268  Biso   1.000  C
  H1514    1.0000 0.35700  0.04892  0.80133  Biso   1.000  H
  C1609    1.0000 0.26931  0.00812  0.73273  Biso   1.000  C
  C1610    1.0000 0.13479  0.74039  0.87220  Biso   1.000  C
  H1515    1.0000 0.25709  0.75531  0.87038  Biso   1.000  H
  H1516    1.0000 0.20850  0.82130  0.86972  Biso   1.000  H
  H1517    1.0000 0.25710  0.75531  0.87043  Biso   1.000  H
  C1611    1.0000 0.13782  0.75242  0.90074  Biso   1.000  C
  H1518    1.0000 0.21824  0.78451  0.83724  Biso   1.000  H
  H1519    1.0000 0.15964  0.84072  0.85391  Biso   1.000  H
  H1520    1.0000 0.80461  0.05171  0.32971  Biso   1.000  H
  H1521    1.0000 0.66512  0.82169  0.44882  Biso   1.000  H
  C1612    1.0000 0.05768  0.96390  0.77652  Biso   1.000  C
  C1613    1.0000 0.05774  0.96390  0.77652  Biso   1.000  C
  C1614    1.0000 0.95826  0.88582  0.75728  Biso   1.000  C
  C1615    1.0000 0.95833  0.88582  0.75733  Biso   1.000  C
  C1616    1.0000 0.81408  0.88211  0.73318  Biso   1.000  C
  C1617    1.0000 0.81409  0.88211  0.73323  Biso   1.000  C
  H1522    1.0000 0.83009  0.99741  0.57901  Biso   1.000  H
  H1523    1.0000 0.77105  0.96160  0.62048  Biso   1.000  H
  C1618    1.0000 0.82709  0.89942  0.56370  Biso   1.000  C
  H1524    1.0000 0.77112  0.96160  0.62053  Biso   1.000  H
  H1525    1.0000 0.36630  0.10160  0.63670  Biso   1.000  H
  C1619    1.0000 0.38440  0.18051  0.58002  Biso   1.000  C
  H1526    1.0000 0.42696  0.26049  0.53749  Biso   1.000  H
  H1527    1.0000 0.42703  0.26049  0.53754  Biso   1.000  H
  C1620    1.0000 0.87222  0.76969  0.92231  Biso   1.000  C
  C1621    1.0000 0.88370  0.81152  0.81330  Biso   1.000  C
  H1528    1.0000 0.68910  0.78461  0.69272  Biso   1.000  H
  H1529    1.0000 0.65031  0.84889  0.71732  Biso   1.000  H
  C1622    1.0000 0.59542  0.76548  0.74571  Biso   1.000  C
  C1623    1.0000 0.24177  0.94922  0.70292  Biso   1.000  C
  H1530    1.0000 0.26497  0.85212  0.70201  Biso   1.000  H
  C1624    1.0000 0.24183  0.94922  0.70292  Biso   1.000  C
  H1531    1.0000 0.26503  0.85212  0.70201  Biso   1.000  H
  H1532    1.0000 0.24151  0.04672  0.72000  Biso   1.000  H
  C1625    1.0000 0.07869  0.77742  0.81572  Biso   1.000  C
  H1533    1.0000 0.14518  0.69651  0.85720  Biso   1.000  H
  H1534    1.0000 0.10861  0.73701  0.91210  Biso   1.000  H
  C1626    1.0000 0.05504  0.75218  0.85053  Biso   1.000  C
  H1535    1.0000 0.16302  0.70952  0.90251  Biso   1.000  H
  H1536    1.0000 0.12909  0.76431  0.94590  Biso   1.000  H
  O256     1.0000 0.03309  0.90568  0.74611  Biso   1.000  O
  H1537    1.0000 0.03296  0.96859  0.81688  Biso   1.000  H
  H1538    1.0000 0.11617  0.96258  0.79021  Biso   1.000  H
  H1539    1.0000 0.03303  0.96859  0.81693  Biso   1.000  H
  H1540    1.0000 0.11623  0.96258  0.79021  Biso   1.000  H
  C1627    1.0000 0.95338  0.83622  0.80441  Biso   1.000  C
  C1628    1.0000 0.95344  0.83622  0.80441  Biso   1.000  C
  H1541    1.0000 0.76538  0.89761  0.70929  Biso   1.000  H
  H1542    1.0000 0.76538  0.89761  0.70934  Biso   1.000  H
  H1543    1.0000 0.77866  0.89840  0.52981  Biso   1.000  H
  H1544    1.0000 0.82621  0.86092  0.59189  Biso   1.000  H
  C1629    1.0000 0.89991  0.89619  0.52941  Biso   1.000  C
  H1545    1.0000 0.77872  0.89840  0.52981  Biso   1.000  H
  H1546    1.0000 0.33488  0.17831  0.55118  Biso   1.000  H
  H1547    1.0000 0.33489  0.17831  0.55123  Biso   1.000  H
  O257     1.0000 0.88609  0.75722  0.85659  Biso   1.000  O
  H1548    1.0000 0.90393  0.73921  0.95292  Biso   1.000  H
  H1549    1.0000 0.89102  0.81352  0.93509  Biso   1.000  H
  O258     1.0000 0.88610  0.75722  0.85664  Biso   1.000  O
  H1550    1.0000 0.89103  0.81352  0.93514  Biso   1.000  H
  H1551    1.0000 0.61439  0.72762  0.77279  Biso   1.000  H
  H1552    1.0000 0.56260  0.79209  0.77112  Biso   1.000  H
  C1630    1.0000 0.54312  0.74298  0.67721  Biso   1.000  C
  H1553    1.0000 0.61440  0.72762  0.77284  Biso   1.000  H
  H1554    1.0000 0.19539  0.94829  0.67029  Biso   1.000  H
  O259     1.0000 0.02591  0.81959  0.84770  Biso   1.000  O
  H1555    1.0000 0.04647  0.74650  0.78592  Biso   1.000  H
  H1556    1.0000 0.11098  0.80320  0.78910  Biso   1.000  H
  H1557    1.0000 0.04653  0.74650  0.78592  Biso   1.000  H
  H1558    1.0000 0.11104  0.80320  0.78910  Biso   1.000  H
  H1559    1.0000 0.06319  0.73750  0.80612  Biso   1.000  H
  H1560    1.0000 0.01600  0.72341  0.86679  Biso   1.000  H
  C1631    1.0000 0.97311  0.86870  0.55931  Biso   1.000  C
  C1632    1.0000 0.89368  0.92491  0.46601  Biso   1.000  C
  C1633    1.0000 0.56388  0.68702  0.64428  Biso   1.000  C
  C1634    1.0000 0.47489  0.77898  0.65009  Biso   1.000  C
  C1635    1.0000 0.56389  0.68702  0.64433  Biso   1.000  C
  C1636    1.0000 0.47490  0.77898  0.65014  Biso   1.000  C
  H1561    1.0000 0.97726  0.84948  0.60179  Biso   1.000  H
  H1562    1.0000 0.97732  0.84948  0.60179  Biso   1.000  H
  C1637    1.0000 0.04006  0.87002  0.52572  Biso   1.000  C
  C1638    1.0000 0.04012  0.87002  0.52572  Biso   1.000  C
  C1639    1.0000 0.96068  0.92618  0.43242  Biso   1.000  C
  H1563    1.0000 0.84468  0.94330  0.44601  Biso   1.000  H
  H1564    1.0000 0.60946  0.66300  0.66241  Biso   1.000  H
  C1640    1.0000 0.51647  0.66711  0.58452  Biso   1.000  C
  H1565    1.0000 0.60952  0.66300  0.66241  Biso   1.000  H
  C1641    1.0000 0.42747  0.75898  0.59028  Biso   1.000  C
  H1566    1.0000 0.46102  0.81641  0.67211  Biso   1.000  H
  C1642    1.0000 0.42748  0.75898  0.59033  Biso   1.000  C
  H1567    1.0000 0.08911  0.85158  0.54572  Biso   1.000  H
  C1643    1.0000 0.03388  0.89869  0.46232  Biso   1.000  C
  H1568    1.0000 0.95646  0.94541  0.38988  Biso   1.000  H
  H1569    1.0000 0.95647  0.94541  0.38993  Biso   1.000  H
  H1570    1.0000 0.53040  0.62959  0.56249  Biso   1.000  H
  C1644    1.0000 0.44826  0.70311  0.55749  Biso   1.000  C
  C1645    1.0000 0.44832  0.70311  0.55749  Biso   1.000  C
  H1571    1.0000 0.38178  0.78309  0.57219  Biso   1.000  H
  H1572    1.0000 0.07865  0.89962  0.43979  Biso   1.000  H
  H1573    1.0000 0.07871  0.89962  0.43979  Biso   1.000  H
  H1574    1.0000 0.41646  0.68971  0.51748  Biso   1.000  H
  H1575    1.0000 0.41653  0.68971  0.51753  Biso   1.000  H
  O260     1.0000 0.97415  0.18041  0.15230  Biso   1.000  O
  C1646    1.0000 0.04662  0.16378  0.19559  Biso   1.000  C
  C1647    1.0000 0.04663  0.16378  0.19564  Biso   1.000  C
  C1648    1.0000 0.92131  0.22258  0.18428  Biso   1.000  C
  C1649    1.0000 0.92132  0.22258  0.18433  Biso   1.000  C
  C1650    1.0000 0.94503  0.24782  0.14952  Biso   1.000  C
  C1651    1.0000 0.11630  0.18848  0.18670  Biso   1.000  C
  C1652    1.0000 0.04174  0.11418  0.24272  Biso   1.000  C
  O261     1.0000 0.97409  0.18041  0.15230  Biso   1.000  O
  H1576    1.0000 0.95353  0.25350  0.21408  Biso   1.000  H
  H1577    1.0000 0.88902  0.19680  0.21090  Biso   1.000  H
  C1653    1.0000 0.86521  0.25961  0.12780  Biso   1.000  C
  H1578    1.0000 0.95354  0.25350  0.21413  Biso   1.000  H
  H1579    1.0000 0.93682  0.26250  0.19393  Biso   1.000  H
  H1580    1.0000 0.98400  0.27659  0.13321  Biso   1.000  H
  C1654    1.0000 0.86219  0.24758  0.09931  Biso   1.000  C
  C1655    1.0000 0.18941  0.16539  0.22090  Biso   1.000  C
  O262     1.0000 0.11391  0.24278  0.14341  Biso   1.000  O
  C1656    1.0000 0.11342  0.09030  0.28081  Biso   1.000  C
  O263     1.0000 0.96691  0.09432  0.25389  Biso   1.000  O
  O264     1.0000 0.96692  0.09432  0.25394  Biso   1.000  O
  H1581    1.0000 0.85482  0.30349  0.14280  Biso   1.000  H
  H1582    1.0000 0.89139  0.26299  0.08790  Biso   1.000  H
  C1657    1.0000 0.78550  0.22219  0.11088  Biso   1.000  C
  H1583    1.0000 0.89145  0.26299  0.08790  Biso   1.000  H
  C1658    1.0000 0.78551  0.22219  0.11093  Biso   1.000  C
  H1584    1.0000 0.83698  0.29048  0.09749  Biso   1.000  H
  C1659    1.0000 0.80809  0.19651  0.12750  Biso   1.000  C
  H1585    1.0000 0.87091  0.23569  0.05410  Biso   1.000  H
  C1660    1.0000 0.18592  0.11789  0.26682  Biso   1.000  C
  C1661    1.0000 0.26852  0.19602  0.20378  Biso   1.000  C
  C1662    1.0000 0.26853  0.19602  0.20383  Biso   1.000  C
  C1663    1.0000 0.12778  0.23031  0.07769  Biso   1.000  C
  C1664    1.0000 0.12785  0.23031  0.07774  Biso   1.000  C
  C1665    1.0000 0.11103  0.03708  0.33001  Biso   1.000  C
  C1666    1.0000 0.94232  0.03610  0.22348  Biso   1.000  C
  C1667    1.0000 0.94233  0.03610  0.22353  Biso   1.000  C
  H1586    1.0000 0.74291  0.24469  0.12962  Biso   1.000  H
  H1587    1.0000 0.79150  0.17870  0.13028  Biso   1.000  H
  C1668    1.0000 0.76271  0.21749  0.03319  Biso   1.000  C
  H1588    1.0000 0.79151  0.17870  0.13033  Biso   1.000  H
  C1669    1.0000 0.76272  0.21749  0.03324  Biso   1.000  C
  H1589    1.0000 0.78183  0.21549  0.16281  Biso   1.000  H
  C1670    1.0000 0.74322  0.17469  0.06622  Biso   1.000  C
  H1590    1.0000 0.84042  0.15928  0.14609  Biso   1.000  H
  H1591    1.0000 0.23462  0.10239  0.29071  Biso   1.000  H
  H1592    1.0000 0.25738  0.24141  0.18988  Biso   1.000  H
  C1671    1.0000 0.33329  0.19558  0.27020  Biso   1.000  C
  C1672    1.0000 0.29138  0.15801  0.14402  Biso   1.000  C
  H1593    1.0000 0.25745  0.24141  0.18994  Biso   1.000  H
  C1673    1.0000 0.33335  0.19558  0.27020  Biso   1.000  C
  C1674    1.0000 0.29144  0.15801  0.14402  Biso   1.000  C
  O265     1.0000 0.21070  0.23579  0.06991  Biso   1.000  O
  H1594    1.0000 0.09607  0.26079  0.04708  Biso   1.000  H
  H1595    1.0000 0.10898  0.18648  0.06491  Biso   1.000  H
  H1596    1.0000 0.09614  0.26079  0.04713  Biso   1.000  H
  H1597    1.0000 0.10904  0.18648  0.06491  Biso   1.000  H
  H1598    1.0000 0.05854  0.04119  0.34592  Biso   1.000  H
  C1675    1.0000 0.17571  0.04070  0.39341  Biso   1.000  C
  C1676    1.0000 0.10840  0.97290  0.29339  Biso   1.000  C
  C1677    1.0000 0.10841  0.97290  0.29344  Biso   1.000  C
  O266     1.0000 0.96223  0.98019  0.26510  Biso   1.000  O
  H1599    1.0000 0.96704  0.03141  0.18312  Biso   1.000  H
  H1600    1.0000 0.88383  0.03742  0.20979  Biso   1.000  H
  H1601    1.0000 0.88384  0.03742  0.20984  Biso   1.000  H
  H1602    1.0000 0.70449  0.22248  0.02000  Biso   1.000  H
  H1603    1.0000 0.78988  0.25159  0.01162  Biso   1.000  H
  O267     1.0000 0.78849  0.15341  0.01318  Biso   1.000  O
  H1604    1.0000 0.70455  0.22248  0.02000  Biso   1.000  H
  H1605    1.0000 0.78994  0.25159  0.01162  Biso   1.000  H
  O268     1.0000 0.78850  0.15341  0.01323  Biso   1.000  O
  H1606    1.0000 0.70759  0.21089  0.05051  Biso   1.000  H
  H1607    1.0000 0.71043  0.13908  0.07931  Biso   1.000  H
  H1608    1.0000 0.31090  0.21539  0.30728  Biso   1.000  H
  H1609    1.0000 0.34969  0.15111  0.28268  Biso   1.000  H
  C1678    1.0000 0.40458  0.23452  0.25429  Biso   1.000  C
  H1610    1.0000 0.31091  0.21539  0.30733  Biso   1.000  H
  H1611    1.0000 0.34976  0.15111  0.28273  Biso   1.000  H
  C1679    1.0000 0.40465  0.23452  0.25434  Biso   1.000  C
  C1680    1.0000 0.34021  0.10209  0.14912  Biso   1.000  C
  C1681    1.0000 0.25479  0.17841  0.07820  Biso   1.000  C
  C1682    1.0000 0.25485  0.17841  0.07820  Biso   1.000  C
  H1612    1.0000 0.22895  0.03840  0.37952  Biso   1.000  H
  C1683    1.0000 0.17291  0.10058  0.43630  Biso   1.000  C
  H1613    1.0000 0.16991  0.00259  0.42099  Biso   1.000  H
  H1614    1.0000 0.16992  0.00259  0.42104  Biso   1.000  H
  C1684    1.0000 0.03341  0.94648  0.25909  Biso   1.000  C
  C1685    1.0000 0.17890  0.93870  0.28409  Biso   1.000  C
  C1686    1.0000 0.03342  0.94648  0.25914  Biso   1.000  C
  C1687    1.0000 0.74353  0.12900  0.95302  Biso   1.000  C
  H1615    1.0000 0.38561  0.27238  0.22721  Biso   1.000  H
  H1616    1.0000 0.43740  0.20791  0.22888  Biso   1.000  H
  C1688    1.0000 0.45688  0.25702  0.32279  Biso   1.000  C
  H1617    1.0000 0.43741  0.20791  0.22893  Biso   1.000  H
  C1689    1.0000 0.45695  0.25702  0.32284  Biso   1.000  C
  H1618    1.0000 0.36270  0.08781  0.19201  Biso   1.000  H
  C1690    1.0000 0.35679  0.06731  0.09522  Biso   1.000  C
  C1691    1.0000 0.35685  0.06731  0.09522  Biso   1.000  C
  C1692    1.0000 0.27069  0.14260  0.02581  Biso   1.000  C
  C1693    1.0000 0.27075  0.14260  0.02581  Biso   1.000  C
  H1619    1.0000 0.22134  0.10160  0.47019  Biso   1.000  H
  H1620    1.0000 0.17379  0.13908  0.40811  Biso   1.000  H
  C1694    1.0000 0.10009  0.10381  0.47059  Biso   1.000  C
  H1621    1.0000 0.22135  0.10160  0.47024  Biso   1.000  H
  H1622    1.0000 0.17385  0.13908  0.40811  Biso   1.000  H
  C1695    1.0000 0.10016  0.10381  0.47064  Biso   1.000  C
  C1696    1.0000 0.03223  0.89380  0.22408  Biso   1.000  C
  C1697    1.0000 0.03224  0.89380  0.22413  Biso   1.000  C
  H1623    1.0000 0.22880  0.95592  0.30349  Biso   1.000  H
  C1698    1.0000 0.17944  0.88078  0.24772  Biso   1.000  C
  H1624    1.0000 0.22881  0.95592  0.30354  Biso   1.000  H
  C1699    1.0000 0.75828  0.15649  0.89362  Biso   1.000  C
  C1700    1.0000 0.69301  0.08052  0.95459  Biso   1.000  C
  C1701    1.0000 0.75834  0.15649  0.89362  Biso   1.000  C
  C1702    1.0000 0.69302  0.08052  0.95464  Biso   1.000  C
  C1703    1.0000 0.43612  0.31298  0.35572  Biso   1.000  C
  C1704    1.0000 0.52511  0.22102  0.34991  Biso   1.000  C
  C1705    1.0000 0.31828  0.09109  0.03071  Biso   1.000  C
  C1706    1.0000 0.40598  0.00558  0.10098  Biso   1.000  C
  C1707    1.0000 0.31834  0.09109  0.03071  Biso   1.000  C
  C1708    1.0000 0.40605  0.00558  0.10103  Biso   1.000  C
  O269     1.0000 0.22363  0.15400  0.96120  Biso   1.000  O
  C1709    1.0000 0.02689  0.13130  0.44069  Biso   1.000  C
  C1710    1.0000 0.10632  0.07509  0.53399  Biso   1.000  C
  C1711    1.0000 0.02696  0.13130  0.44074  Biso   1.000  C
  C1712    1.0000 0.10633  0.07509  0.53404  Biso   1.000  C
  O270     1.0000 0.95903  0.87262  0.18589  Biso   1.000  O
  C1713    1.0000 0.09909  0.85911  0.21651  Biso   1.000  C
  C1714    1.0000 0.09915  0.85911  0.21651  Biso   1.000  C
  C1715    1.0000 0.25328  0.84551  0.23510  Biso   1.000  C
  C1716    1.0000 0.25334  0.84551  0.23510  Biso   1.000  C
  O271     1.0000 0.81082  0.21030  0.89291  Biso   1.000  O
  C1717    1.0000 0.72211  0.12880  0.83229  Biso   1.000  C
  C1718    1.0000 0.65098  0.05161  0.89660  Biso   1.000  C
  C1719    1.0000 0.65104  0.05161  0.89660  Biso   1.000  C
  O272     1.0000 0.67629  0.05772  0.01859  Biso   1.000  O
  O273     1.0000 0.67630  0.05772  0.01864  Biso   1.000  O
  H1625    1.0000 0.39054  0.33700  0.33759  Biso   1.000  H
  C1720    1.0000 0.48353  0.33289  0.41548  Biso   1.000  C
  H1626    1.0000 0.39055  0.33700  0.33764  Biso   1.000  H
  C1721    1.0000 0.48354  0.33289  0.41553  Biso   1.000  C
  C1722    1.0000 0.57253  0.24102  0.40972  Biso   1.000  C
  H1627    1.0000 0.53898  0.18359  0.32789  Biso   1.000  H
  H1628    1.0000 0.53905  0.18359  0.32794  Biso   1.000  H
  O274     1.0000 0.33328  0.05469  0.97292  Biso   1.000  O
  O275     1.0000 0.33334  0.05469  0.97292  Biso   1.000  O
  H1629    1.0000 0.42903  0.00142  0.05910  Biso   1.000  H
  C1723    1.0000 0.34902  0.94839  0.10340  Biso   1.000  C
  C1724    1.0000 0.47749  0.00362  0.15953  Biso   1.000  C
  C1725    1.0000 0.47755  0.00362  0.15953  Biso   1.000  C
  C1726    1.0000 0.23769  0.21642  0.92680  Biso   1.000  C
  H1630    1.0000 0.02274  0.15052  0.39821  Biso   1.000  H
  C1727    1.0000 0.95994  0.12998  0.47428  Biso   1.000  C
  C1728    1.0000 0.95995  0.12998  0.47433  Biso   1.000  C
  C1729    1.0000 0.03932  0.07382  0.56758  Biso   1.000  C
  H1631    1.0000 0.15532  0.05670  0.55399  Biso   1.000  H
  C1730    1.0000 0.03933  0.07382  0.56763  Biso   1.000  C
  H1632    1.0000 0.15532  0.05670  0.55404  Biso   1.000  H
  C1731    1.0000 0.90230  0.84101  0.22782  Biso   1.000  C
  O276     1.0000 0.09510  0.80041  0.17938  Biso   1.000  O
  O277     1.0000 0.09511  0.80041  0.17943  Biso   1.000  O
  H1633    1.0000 0.23918  0.79909  0.22878  Biso   1.000  H
  C1732    1.0000 0.32451  0.85070  0.29440  Biso   1.000  C
  C1733    1.0000 0.27789  0.87120  0.16771  Biso   1.000  C
  H1634    1.0000 0.23925  0.79909  0.22883  Biso   1.000  H
  C1734    1.0000 0.27795  0.87120  0.16771  Biso   1.000  C
  C1735    1.0000 0.89059  0.19631  0.88528  Biso   1.000  C
  C1736    1.0000 0.89060  0.19631  0.88533  Biso   1.000  C
  C1737    1.0000 0.67147  0.07739  0.83638  Biso   1.000  C
  C1738    1.0000 0.74672  0.15449  0.76490  Biso   1.000  C
  C1739    1.0000 0.67154  0.07739  0.83643  Biso   1.000  C
  C1740    1.0000 0.59402  0.99442  0.89902  Biso   1.000  C
  C1741    1.0000 0.71342  0.99878  0.04258  Biso   1.000  C
  C1742    1.0000 0.71343  0.99878  0.04263  Biso   1.000  C
  C1743    1.0000 0.55174  0.29689  0.44251  Biso   1.000  C
  H1635    1.0000 0.46960  0.37041  0.43751  Biso   1.000  H
  H1636    1.0000 0.46966  0.37041  0.43751  Biso   1.000  H
  H1637    1.0000 0.61822  0.21691  0.42781  Biso   1.000  H
  C1744    1.0000 0.28658  0.00122  0.95742  Biso   1.000  C
  C1745    1.0000 0.28664  0.00122  0.95742  Biso   1.000  C
  C1746    1.0000 0.32853  0.92261  0.16362  Biso   1.000  C
  C1747    1.0000 0.30699  0.91948  0.04541  Biso   1.000  C
  C1748    1.0000 0.30705  0.91948  0.04541  Biso   1.000  C
  C1749    1.0000 0.54481  0.04911  0.14483  Biso   1.000  C
  H1638    1.0000 0.49823  0.95930  0.16538  Biso   1.000  H
  H1639    1.0000 0.49824  0.95930  0.16544  Biso   1.000  H
  H1640    1.0000 0.45899  0.01688  0.20100  Biso   1.000  H
  H1641    1.0000 0.45905  0.01688  0.20100  Biso   1.000  H
  C1750    1.0000 0.16532  0.21808  0.86432  Biso   1.000  C
  H1642    1.0000 0.23481  0.25350  0.95651  Biso   1.000  H
  H1643    1.0000 0.29018  0.21642  0.91150  Biso   1.000  H
  H1644    1.0000 0.29024  0.21642  0.91150  Biso   1.000  H
  H1645    1.0000 0.91089  0.14842  0.45428  Biso   1.000  H
  C1751    1.0000 0.96612  0.10131  0.53768  Biso   1.000  C
  H1646    1.0000 0.91096  0.14842  0.45433  Biso   1.000  H
  C1752    1.0000 0.96613  0.10131  0.53773  Biso   1.000  C
  H1647    1.0000 0.04354  0.05459  0.61012  Biso   1.000  H
  H1648    1.0000 0.89600  0.86841  0.26611  Biso   1.000  H
  H1649    1.0000 0.92340  0.79880  0.24449  Biso   1.000  H
  C1753    1.0000 0.81949  0.83250  0.18069  Biso   1.000  C
  H1650    1.0000 0.89606  0.86841  0.26611  Biso   1.000  H
  H1651    1.0000 0.92341  0.79880  0.24454  Biso   1.000  H
  C1754    1.0000 0.81956  0.83250  0.18074  Biso   1.000  C
  C1755    1.0000 0.10941  0.80369  0.11472  Biso   1.000  C
  H1652    1.0000 0.34470  0.89531  0.29799  Biso   1.000  H
  H1653    1.0000 0.30569  0.83950  0.33638  Biso   1.000  H
  C1756    1.0000 0.39193  0.80501  0.28278  Biso   1.000  C
  H1654    1.0000 0.34471  0.89531  0.29804  Biso   1.000  H
  H1655    1.0000 0.30576  0.83950  0.33643  Biso   1.000  H
  C1757    1.0000 0.39194  0.80501  0.28283  Biso   1.000  C
  C1758    1.0000 0.24172  0.84351  0.10638  Biso   1.000  C
  C1759    1.0000 0.24172  0.84351  0.10643  Biso   1.000  C
  O278     1.0000 0.90490  0.19959  0.82062  Biso   1.000  O
  H1656    1.0000 0.90398  0.15258  0.90251  Biso   1.000  H
  H1657    1.0000 0.92659  0.22669  0.91251  Biso   1.000  H
  H1658    1.0000 0.90404  0.15258  0.90251  Biso   1.000  H
  H1659    1.0000 0.64839  0.05772  0.79612  Biso   1.000  H
  C1760    1.0000 0.82056  0.11922  0.75228  Biso   1.000  C
  H1660    1.0000 0.76082  0.20091  0.77122  Biso   1.000  H
  C1761    1.0000 0.67549  0.14930  0.70560  Biso   1.000  C
  C1762    1.0000 0.82063  0.11922  0.75233  Biso   1.000  C
  C1763    1.0000 0.64321  0.93269  0.90478  Biso   1.000  C
  H1661    1.0000 0.57097  0.99858  0.94090  Biso   1.000  H
  C1764    1.0000 0.52251  0.99638  0.84047  Biso   1.000  C
  C1765    1.0000 0.64322  0.93269  0.90483  Biso   1.000  C
  H1662    1.0000 0.57103  0.99858  0.94090  Biso   1.000  H
  C1766    1.0000 0.52252  0.99638  0.84053  Biso   1.000  C
  O279     1.0000 0.66672  0.94531  0.02708  Biso   1.000  O
  H1663    1.0000 0.76342  0.99359  0.02389  Biso   1.000  H
  O280     1.0000 0.66673  0.94531  0.02713  Biso   1.000  O
  H1664    1.0000 0.72782  0.00161  0.09128  Biso   1.000  H
  H1665    1.0000 0.72783  0.00161  0.09133  Biso   1.000  H
  H1666    1.0000 0.58354  0.31029  0.48252  Biso   1.000  H
  O281     1.0000 0.32371  0.94228  0.98141  Biso   1.000  O
  H1667    1.0000 0.27218  0.99839  0.90872  Biso   1.000  H
  H1668    1.0000 0.27224  0.99839  0.90872  Biso   1.000  H
  H1669    1.0000 0.23658  0.00641  0.97611  Biso   1.000  H
  H1670    1.0000 0.23664  0.00641  0.97611  Biso   1.000  H
  H1671    1.0000 0.35161  0.94228  0.20388  Biso   1.000  H
  H1672    1.0000 0.35162  0.94228  0.20393  Biso   1.000  H
  C1767    1.0000 0.25647  0.87100  0.04698  Biso   1.000  C
  C1768    1.0000 0.25654  0.87100  0.04703  Biso   1.000  C
  H1673    1.0000 0.52380  0.09329  0.14008  Biso   1.000  H
  H1674    1.0000 0.56093  0.03659  0.10219  Biso   1.000  H
  C1769    1.0000 0.61969  0.04819  0.19958  Biso   1.000  C
  H1675    1.0000 0.52381  0.09329  0.14013  Biso   1.000  H
  H1676    1.0000 0.56094  0.03659  0.10224  Biso   1.000  H
  C1770    1.0000 0.61976  0.04819  0.19963  Biso   1.000  C
  C1771    1.0000 0.18051  0.16750  0.81931  Biso   1.000  C
  H1677    1.0000 0.16362  0.26020  0.84189  Biso   1.000  H
  H1678    1.0000 0.11362  0.21089  0.87967  Biso   1.000  H
  H1679    1.0000 0.16363  0.26020  0.84194  Biso   1.000  H
  H1680    1.0000 0.11363  0.21089  0.87972  Biso   1.000  H
  H1681    1.0000 0.92135  0.10038  0.56021  Biso   1.000  H
  H1682    1.0000 0.77711  0.81978  0.20630  Biso   1.000  H
  H1683    1.0000 0.80350  0.87262  0.15639  Biso   1.000  H
  C1772    1.0000 0.83468  0.78192  0.13568  Biso   1.000  C
  C1773    1.0000 0.83475  0.78192  0.13573  Biso   1.000  C
  H1684    1.0000 0.09602  0.84742  0.09749  Biso   1.000  H
  H1685    1.0000 0.07341  0.77331  0.08749  Biso   1.000  H
  O282     1.0000 0.18918  0.78970  0.10709  Biso   1.000  O
  H1686    1.0000 0.07342  0.77331  0.08754  Biso   1.000  H
  O283     1.0000 0.18925  0.78970  0.10714  Biso   1.000  O
  H1687    1.0000 0.40524  0.81289  0.23803  Biso   1.000  H
  H1688    1.0000 0.37272  0.76030  0.28409  Biso   1.000  H
  C1774    1.0000 0.46760  0.81279  0.33410  Biso   1.000  C
  C1775    1.0000 0.46766  0.81279  0.33410  Biso   1.000  C
  C1776    1.0000 0.90091  0.14089  0.78349  Biso   1.000  C
  C1777    1.0000 0.82110  0.06130  0.71591  Biso   1.000  C
  H1689    1.0000 0.65530  0.10469  0.70201  Biso   1.000  H
  H1690    1.0000 0.69431  0.16050  0.66362  Biso   1.000  H
  C1778    1.0000 0.60807  0.19499  0.71722  Biso   1.000  C
  C1779    1.0000 0.60813  0.19499  0.71722  Biso   1.000  C
  C1780    1.0000 0.68172  0.90891  0.96929  Biso   1.000  C
  C1781    1.0000 0.65979  0.89791  0.85088  Biso   1.000  C
  C1782    1.0000 0.68173  0.90891  0.96934  Biso   1.000  C
  C1783    1.0000 0.65980  0.89791  0.85093  Biso   1.000  C
  H1691    1.0000 0.54101  0.98312  0.79900  Biso   1.000  H
  C1784    1.0000 0.45519  0.95089  0.85517  Biso   1.000  C
  C1785    1.0000 0.45520  0.95089  0.85523  Biso   1.000  C
  H1692    1.0000 0.50177  0.04070  0.83462  Biso   1.000  H
  H1693    1.0000 0.50183  0.04070  0.83462  Biso   1.000  H
  O284     1.0000 0.21151  0.84659  0.98682  Biso   1.000  O
  C1786    1.0000 0.66140  0.99061  0.21858  Biso   1.000  C
  C1787    1.0000 0.66141  0.99061  0.21863  Biso   1.000  C
  C1788    1.0000 0.64728  0.10708  0.22939  Biso   1.000  C
  C1789    1.0000 0.64735  0.10708  0.22944  Biso   1.000  C
  C1790    1.0000 0.09770  0.15899  0.77218  Biso   1.000  C
  H1694    1.0000 0.22289  0.18022  0.79370  Biso   1.000  H
  H1695    1.0000 0.19650  0.12738  0.84361  Biso   1.000  H
  C1791    1.0000 0.09771  0.15899  0.77223  Biso   1.000  C
  H1696    1.0000 0.83638  0.73980  0.15811  Biso   1.000  H
  H1697    1.0000 0.88638  0.78911  0.12033  Biso   1.000  H
  C1792    1.0000 0.76231  0.78358  0.07320  Biso   1.000  C
  H1698    1.0000 0.83644  0.73980  0.15811  Biso   1.000  H
  H1699    1.0000 0.88644  0.78911  0.12033  Biso   1.000  H
  C1793    1.0000 0.52280  0.86210  0.32582  Biso   1.000  C
  C1794    1.0000 0.48650  0.76690  0.38533  Biso   1.000  C
  C1795    1.0000 0.52286  0.86210  0.32582  Biso   1.000  C
  C1796    1.0000 0.48656  0.76690  0.38533  Biso   1.000  C
  C1797    1.0000 0.96777  0.10620  0.77592  Biso   1.000  C
  C1798    1.0000 0.96783  0.10620  0.77592  Biso   1.000  C
  C1799    1.0000 0.89160  0.02710  0.70661  Biso   1.000  C
  H1700    1.0000 0.77120  0.04408  0.69651  Biso   1.000  H
  H1701    1.0000 0.59476  0.18711  0.76197  Biso   1.000  H
  H1702    1.0000 0.62728  0.23970  0.71591  Biso   1.000  H
  C1800    1.0000 0.53240  0.18721  0.66590  Biso   1.000  C
  H1703    1.0000 0.59483  0.18711  0.76203  Biso   1.000  H
  C1801    1.0000 0.72931  0.85740  0.97419  Biso   1.000  C
  C1802    1.0000 0.72932  0.85740  0.97424  Biso   1.000  C
  C1803    1.0000 0.70862  0.84199  0.85598  Biso   1.000  C
  H1704    1.0000 0.63730  0.91219  0.80799  Biso   1.000  H
  C1804    1.0000 0.70862  0.84199  0.85603  Biso   1.000  C
  H1705    1.0000 0.47620  0.90671  0.85992  Biso   1.000  H
  H1706    1.0000 0.43907  0.96341  0.89781  Biso   1.000  H
  C1805    1.0000 0.38031  0.95181  0.80042  Biso   1.000  C
  H1707    1.0000 0.43913  0.96341  0.89781  Biso   1.000  H
  C1806    1.0000 0.23729  0.78251  0.96681  Biso   1.000  C
  C1807    1.0000 0.25685  0.82531  0.93383  Biso   1.000  C
  H1708    1.0000 0.64301  0.95108  0.19872  Biso   1.000  H
  C1808    1.0000 0.73070  0.99188  0.26732  Biso   1.000  C
  C1809    1.0000 0.73076  0.99188  0.26732  Biso   1.000  C
  H1709    1.0000 0.61943  0.14568  0.21671  Biso   1.000  H
  C1810    1.0000 0.71651  0.10840  0.27808  Biso   1.000  C
  C1811    1.0000 0.71652  0.10840  0.27813  Biso   1.000  C
  O285     1.0000 0.04097  0.12738  0.81411  Biso   1.000  O
  H1710    1.0000 0.10400  0.13159  0.73389  Biso   1.000  H
  H1711    1.0000 0.07660  0.20120  0.75551  Biso   1.000  H
  O286     1.0000 0.04103  0.12738  0.81411  Biso   1.000  O
  H1712    1.0000 0.10401  0.13159  0.73394  Biso   1.000  H
  H1713    1.0000 0.76519  0.74650  0.04349  Biso   1.000  H
  H1714    1.0000 0.70982  0.78358  0.08850  Biso   1.000  H
  O287     1.0000 0.77637  0.84600  0.03880  Biso   1.000  O
  O288     1.0000 0.77643  0.84600  0.03880  Biso   1.000  O
  H1715    1.0000 0.51023  0.89282  0.29162  Biso   1.000  H
  C1812    1.0000 0.59684  0.86542  0.36881  Biso   1.000  C
  C1813    1.0000 0.56040  0.77018  0.42821  Biso   1.000  C
  H1716    1.0000 0.44963  0.73388  0.39078  Biso   1.000  H
  C1814    1.0000 0.56046  0.77018  0.42821  Biso   1.000  C
  H1717    1.0000 0.44963  0.73388  0.39083  Biso   1.000  H
  C1815    1.0000 0.96659  0.05352  0.74091  Biso   1.000  C
  C1816    1.0000 0.88897  0.96292  0.66999  Biso   1.000  C
  C1817    1.0000 0.88904  0.96292  0.67004  Biso   1.000  C
  C1818    1.0000 0.47720  0.13790  0.67418  Biso   1.000  C
  C1819    1.0000 0.51350  0.23310  0.61467  Biso   1.000  C
  C1820    1.0000 0.47721  0.13790  0.67423  Biso   1.000  C
  C1821    1.0000 0.51351  0.23310  0.61472  Biso   1.000  C
  C1822    1.0000 0.74521  0.82159  0.92180  Biso   1.000  C
  C1823    1.0000 0.73148  0.80398  0.79622  Biso   1.000  C
  C1824    1.0000 0.73154  0.80398  0.79622  Biso   1.000  C
  C1825    1.0000 0.35272  0.89292  0.77061  Biso   1.000  C
  C1826    1.0000 0.33860  0.00939  0.78142  Biso   1.000  C
  C1827    1.0000 0.21450  0.77781  0.88912  Biso   1.000  C
  H1718    1.0000 0.29551  0.77752  0.98000  Biso   1.000  H
  H1719    1.0000 0.21012  0.74841  0.98838  Biso   1.000  H
  H1720    1.0000 0.21013  0.74841  0.98843  Biso   1.000  H
  H1721    1.0000 0.29242  0.78911  0.94954  Biso   1.000  H
  C1828    1.0000 0.19191  0.80349  0.87250  Biso   1.000  C
  H1722    1.0000 0.28963  0.86092  0.92069  Biso   1.000  H
  H1723    1.0000 0.75849  0.95328  0.28000  Biso   1.000  H
  H1724    1.0000 0.75855  0.95328  0.28000  Biso   1.000  H
  C1829    1.0000 0.75823  0.05078  0.29708  Biso   1.000  C
  C1830    1.0000 0.75824  0.05078  0.29713  Biso   1.000  C
  H1725    1.0000 0.73503  0.14788  0.29799  Biso   1.000  H
  H1726    1.0000 0.73504  0.14788  0.29804  Biso   1.000  H
  H1727    1.0000 0.63370  0.89840  0.36330  Biso   1.000  H
  C1831    1.0000 0.61560  0.81949  0.41998  Biso   1.000  C
  H1728    1.0000 0.63376  0.89840  0.36330  Biso   1.000  H
  C1832    1.0000 0.61561  0.81949  0.42003  Biso   1.000  C
  H1729    1.0000 0.57304  0.73951  0.46251  Biso   1.000  H
  O289     1.0000 0.03777  0.01981  0.73490  Biso   1.000  O
  O290     1.0000 0.03783  0.01981  0.73490  Biso   1.000  O
  C1833    1.0000 0.88658  0.90970  0.71919  Biso   1.000  C
  H1730    1.0000 0.94146  0.95881  0.65408  Biso   1.000  H
  C1834    1.0000 0.82429  0.95930  0.60659  Biso   1.000  C
  C1835    1.0000 0.88659  0.90970  0.71924  Biso   1.000  C
  H1731    1.0000 0.94153  0.95881  0.65413  Biso   1.000  H
  H1732    1.0000 0.48977  0.10718  0.70838  Biso   1.000  H
  C1836    1.0000 0.40316  0.13458  0.63119  Biso   1.000  C
  H1733    1.0000 0.48984  0.10718  0.70843  Biso   1.000  H
  C1837    1.0000 0.40322  0.13458  0.63119  Biso   1.000  C
  C1838    1.0000 0.43960  0.22982  0.57179  Biso   1.000  C
  H1734    1.0000 0.55037  0.26612  0.60922  Biso   1.000  H
  C1839    1.0000 0.43961  0.22982  0.57184  Biso   1.000  C
  O291     1.0000 0.78930  0.76421  0.93009  Biso   1.000  O
  O292     1.0000 0.78931  0.76421  0.93014  Biso   1.000  O
  C1840    1.0000 0.81059  0.83461  0.77910  Biso   1.000  C
  H1735    1.0000 0.74262  0.75859  0.81012  Biso   1.000  H
  C1841    1.0000 0.66671  0.80442  0.72980  Biso   1.000  C
  C1842    1.0000 0.28349  0.89160  0.72192  Biso   1.000  C
  H1736    1.0000 0.38057  0.85432  0.78329  Biso   1.000  H
  H1737    1.0000 0.38063  0.85432  0.78329  Biso   1.000  H
  H1738    1.0000 0.35699  0.04892  0.80128  Biso   1.000  H
  C1843    1.0000 0.26930  0.00812  0.73268  Biso   1.000  C
  H1739    1.0000 0.35700  0.04892  0.80133  Biso   1.000  H
  C1844    1.0000 0.26931  0.00812  0.73273  Biso   1.000  C
  C1845    1.0000 0.13479  0.74039  0.87220  Biso   1.000  C
  H1740    1.0000 0.25709  0.75531  0.87038  Biso   1.000  H
  H1741    1.0000 0.20850  0.82130  0.86972  Biso   1.000  H
  H1742    1.0000 0.25710  0.75531  0.87043  Biso   1.000  H
  C1846    1.0000 0.13782  0.75242  0.90074  Biso   1.000  C
  H1743    1.0000 0.21824  0.78451  0.83724  Biso   1.000  H
  H1744    1.0000 0.15964  0.84072  0.85391  Biso   1.000  H
  H1745    1.0000 0.80461  0.05171  0.32971  Biso   1.000  H
  H1746    1.0000 0.66512  0.82169  0.44882  Biso   1.000  H
  C1847    1.0000 0.05768  0.96390  0.77652  Biso   1.000  C
  C1848    1.0000 0.05774  0.96390  0.77652  Biso   1.000  C
  C1849    1.0000 0.95826  0.88582  0.75728  Biso   1.000  C
  C1850    1.0000 0.95833  0.88582  0.75733  Biso   1.000  C
  C1851    1.0000 0.81408  0.88211  0.73318  Biso   1.000  C
  C1852    1.0000 0.81409  0.88211  0.73323  Biso   1.000  C
  H1747    1.0000 0.83009  0.99741  0.57901  Biso   1.000  H
  H1748    1.0000 0.77105  0.96160  0.62048  Biso   1.000  H
  C1853    1.0000 0.82709  0.89942  0.56370  Biso   1.000  C
  H1749    1.0000 0.77112  0.96160  0.62053  Biso   1.000  H
  H1750    1.0000 0.36630  0.10160  0.63670  Biso   1.000  H
  C1854    1.0000 0.38440  0.18051  0.58002  Biso   1.000  C
  H1751    1.0000 0.42696  0.26049  0.53749  Biso   1.000  H
  H1752    1.0000 0.42703  0.26049  0.53754  Biso   1.000  H
  C1855    1.0000 0.87222  0.76969  0.92231  Biso   1.000  C
  C1856    1.0000 0.88370  0.81152  0.81330  Biso   1.000  C
  H1753    1.0000 0.68910  0.78461  0.69272  Biso   1.000  H
  H1754    1.0000 0.65031  0.84889  0.71732  Biso   1.000  H
  C1857    1.0000 0.59542  0.76548  0.74571  Biso   1.000  C
  C1858    1.0000 0.24177  0.94922  0.70292  Biso   1.000  C
  H1755    1.0000 0.26497  0.85212  0.70201  Biso   1.000  H
  C1859    1.0000 0.24183  0.94922  0.70292  Biso   1.000  C
  H1756    1.0000 0.26503  0.85212  0.70201  Biso   1.000  H
  H1757    1.0000 0.24151  0.04672  0.72000  Biso   1.000  H
  C1860    1.0000 0.07869  0.77742  0.81572  Biso   1.000  C
  H1758    1.0000 0.14518  0.69651  0.85720  Biso   1.000  H
  H1759    1.0000 0.10861  0.73701  0.91210  Biso   1.000  H
  C1861    1.0000 0.05504  0.75218  0.85053  Biso   1.000  C
  H1760    1.0000 0.16302  0.70952  0.90251  Biso   1.000  H
  H1761    1.0000 0.12909  0.76431  0.94590  Biso   1.000  H
  O293     1.0000 0.03309  0.90568  0.74611  Biso   1.000  O
  H1762    1.0000 0.03296  0.96859  0.81688  Biso   1.000  H
  H1763    1.0000 0.11617  0.96258  0.79021  Biso   1.000  H
  H1764    1.0000 0.03303  0.96859  0.81693  Biso   1.000  H
  H1765    1.0000 0.11623  0.96258  0.79021  Biso   1.000  H
  C1862    1.0000 0.95338  0.83622  0.80441  Biso   1.000  C
  C1863    1.0000 0.95344  0.83622  0.80441  Biso   1.000  C
  H1766    1.0000 0.76538  0.89761  0.70929  Biso   1.000  H
  H1767    1.0000 0.76538  0.89761  0.70934  Biso   1.000  H
  H1768    1.0000 0.77866  0.89840  0.52981  Biso   1.000  H
  H1769    1.0000 0.82621  0.86092  0.59189  Biso   1.000  H
  C1864    1.0000 0.89991  0.89619  0.52941  Biso   1.000  C
  H1770    1.0000 0.77872  0.89840  0.52981  Biso   1.000  H
  H1771    1.0000 0.33488  0.17831  0.55118  Biso   1.000  H
  H1772    1.0000 0.33489  0.17831  0.55123  Biso   1.000  H
  O294     1.0000 0.88609  0.75722  0.85659  Biso   1.000  O
  H1773    1.0000 0.90393  0.73921  0.95292  Biso   1.000  H
  H1774    1.0000 0.89102  0.81352  0.93509  Biso   1.000  H
  O295     1.0000 0.88610  0.75722  0.85664  Biso   1.000  O
  H1775    1.0000 0.89103  0.81352  0.93514  Biso   1.000  H
  H1776    1.0000 0.61439  0.72762  0.77279  Biso   1.000  H
  H1777    1.0000 0.56260  0.79209  0.77112  Biso   1.000  H
  C1865    1.0000 0.54312  0.74298  0.67721  Biso   1.000  C
  H1778    1.0000 0.61440  0.72762  0.77284  Biso   1.000  H
  H1779    1.0000 0.19539  0.94829  0.67029  Biso   1.000  H
  O296     1.0000 0.02591  0.81959  0.84770  Biso   1.000  O
  H1780    1.0000 0.04647  0.74650  0.78592  Biso   1.000  H
  H1781    1.0000 0.11098  0.80320  0.78910  Biso   1.000  H
  H1782    1.0000 0.04653  0.74650  0.78592  Biso   1.000  H
  H1783    1.0000 0.11104  0.80320  0.78910  Biso   1.000  H
  H1784    1.0000 0.06319  0.73750  0.80612  Biso   1.000  H
  H1785    1.0000 0.01600  0.72341  0.86679  Biso   1.000  H
  C1866    1.0000 0.97311  0.86870  0.55931  Biso   1.000  C
  C1867    1.0000 0.89368  0.92491  0.46601  Biso   1.000  C
  C1868    1.0000 0.56388  0.68702  0.64428  Biso   1.000  C
  C1869    1.0000 0.47489  0.77898  0.65009  Biso   1.000  C
  C1870    1.0000 0.56389  0.68702  0.64433  Biso   1.000  C
  C1871    1.0000 0.47490  0.77898  0.65014  Biso   1.000  C
  H1786    1.0000 0.97726  0.84948  0.60179  Biso   1.000  H
  H1787    1.0000 0.97732  0.84948  0.60179  Biso   1.000  H
  C1872    1.0000 0.04006  0.87002  0.52572  Biso   1.000  C
  C1873    1.0000 0.04012  0.87002  0.52572  Biso   1.000  C
  C1874    1.0000 0.96068  0.92618  0.43242  Biso   1.000  C
  H1788    1.0000 0.84468  0.94330  0.44601  Biso   1.000  H
  H1789    1.0000 0.60946  0.66300  0.66241  Biso   1.000  H
  C1875    1.0000 0.51647  0.66711  0.58452  Biso   1.000  C
  H1790    1.0000 0.60952  0.66300  0.66241  Biso   1.000  H
  C1876    1.0000 0.42747  0.75898  0.59028  Biso   1.000  C
  H1791    1.0000 0.46102  0.81641  0.67211  Biso   1.000  H
  C1877    1.0000 0.42748  0.75898  0.59033  Biso   1.000  C
  H1792    1.0000 0.08911  0.85158  0.54572  Biso   1.000  H
  C1878    1.0000 0.03388  0.89869  0.46232  Biso   1.000  C
  H1793    1.0000 0.95646  0.94541  0.38988  Biso   1.000  H
  H1794    1.0000 0.95647  0.94541  0.38993  Biso   1.000  H
  H1795    1.0000 0.53040  0.62959  0.56249  Biso   1.000  H
  C1879    1.0000 0.44826  0.70311  0.55749  Biso   1.000  C
  C1880    1.0000 0.44832  0.70311  0.55749  Biso   1.000  C
  H1796    1.0000 0.38178  0.78309  0.57219  Biso   1.000  H
  H1797    1.0000 0.07865  0.89962  0.43979  Biso   1.000  H
  H1798    1.0000 0.07871  0.89962  0.43979  Biso   1.000  H
  H1799    1.0000 0.41646  0.68971  0.51748  Biso   1.000  H
  H1800    1.0000 0.41653  0.68971  0.51753  Biso   1.000  H
  C1881    1.0000 0.09769  0.34101  0.27222  Biso   1.000  C
  C1882    1.0000 0.18049  0.33250  0.31930  Biso   1.000  C
  O297     1.0000 0.04101  0.37262  0.31410  Biso   1.000  O
  H1801    1.0000 0.10398  0.36841  0.23388  Biso   1.000  H
  H1802    1.0000 0.07658  0.29880  0.25550  Biso   1.000  H
  H1803    1.0000 0.22293  0.31978  0.29369  Biso   1.000  H
  H1804    1.0000 0.19654  0.37262  0.34360  Biso   1.000  H
  C1883    1.0000 0.16530  0.28192  0.36431  Biso   1.000  C
  C1884    1.0000 0.96781  0.39380  0.27591  Biso   1.000  C
  H1805    1.0000 0.16360  0.23980  0.34188  Biso   1.000  H
  H1806    1.0000 0.11361  0.28911  0.37972  Biso   1.000  H
  C1885    1.0000 0.23773  0.28358  0.42680  Biso   1.000  C
  C1886    1.0000 0.90089  0.35911  0.28349  Biso   1.000  C
  C1887    1.0000 0.96663  0.44648  0.24090  Biso   1.000  C
  H1807    1.0000 0.23479  0.24650  0.45650  Biso   1.000  H
  H1808    1.0000 0.29022  0.28358  0.41149  Biso   1.000  H
  O298     1.0000 0.22361  0.34600  0.46120  Biso   1.000  O
  O299     1.0000 0.90494  0.30041  0.32062  Biso   1.000  O
  C1888    1.0000 0.82061  0.38078  0.25232  Biso   1.000  C
  O300     1.0000 0.03781  0.48019  0.23489  Biso   1.000  O
  C1889    1.0000 0.89164  0.47290  0.20660  Biso   1.000  C
  C1890    1.0000 0.27073  0.35740  0.52581  Biso   1.000  C
  C1891    1.0000 0.89064  0.30369  0.38533  Biso   1.000  C
  C1892    1.0000 0.82114  0.43870  0.21590  Biso   1.000  C
  C1893    1.0000 0.74670  0.34551  0.26490  Biso   1.000  C
  C1894    1.0000 0.05772  0.53610  0.27652  Biso   1.000  C
  C1895    1.0000 0.88901  0.53708  0.16998  Biso   1.000  C
  C1896    1.0000 0.31832  0.40891  0.53071  Biso   1.000  C
  C1897    1.0000 0.25483  0.32159  0.57819  Biso   1.000  C
  O301     1.0000 0.81081  0.28970  0.39290  Biso   1.000  O
  H1809    1.0000 0.90402  0.34742  0.40250  Biso   1.000  H
  H1810    1.0000 0.92663  0.27331  0.41250  Biso   1.000  H
  H1811    1.0000 0.77124  0.45592  0.19650  Biso   1.000  H
  C1898    1.0000 0.72209  0.37120  0.33229  Biso   1.000  C
  H1812    1.0000 0.76080  0.29909  0.27121  Biso   1.000  H
  C1899    1.0000 0.67553  0.35070  0.20559  Biso   1.000  C
  O302     1.0000 0.03313  0.59432  0.24611  Biso   1.000  O
  H1813    1.0000 0.03301  0.53141  0.31688  Biso   1.000  H
  H1814    1.0000 0.11621  0.53742  0.29021  Biso   1.000  H
  C1900    1.0000 0.88662  0.59030  0.21918  Biso   1.000  C
  H1815    1.0000 0.94152  0.54119  0.15412  Biso   1.000  H
  C1901    1.0000 0.82428  0.54070  0.10659  Biso   1.000  C
  O303     1.0000 0.33332  0.44531  0.47292  Biso   1.000  O
  C1902    1.0000 0.35683  0.43269  0.59521  Biso   1.000  C
  O304     1.0000 0.21074  0.26421  0.56991  Biso   1.000  O
  C1903    1.0000 0.29143  0.34199  0.64401  Biso   1.000  C
  C1904    1.0000 0.75833  0.34351  0.39361  Biso   1.000  C
  C1905    1.0000 0.67151  0.42261  0.33638  Biso   1.000  C
  H1816    1.0000 0.65534  0.39531  0.20201  Biso   1.000  H
  H1817    1.0000 0.69429  0.33950  0.16362  Biso   1.000  H
  C1906    1.0000 0.60811  0.30501  0.21721  Biso   1.000  C
  C1907    1.0000 0.95831  0.61418  0.25732  Biso   1.000  C
  C1908    1.0000 0.81413  0.61789  0.23323  Biso   1.000  C
  H1818    1.0000 0.83013  0.50259  0.07900  Biso   1.000  H
  H1819    1.0000 0.77110  0.53840  0.12048  Biso   1.000  H
  C1909    1.0000 0.82713  0.60058  0.06370  Biso   1.000  C
  C1910    1.0000 0.28662  0.49878  0.45741  Biso   1.000  C
  C1911    1.0000 0.34025  0.39791  0.64911  Biso   1.000  C
  C1912    1.0000 0.40603  0.49442  0.60102  Biso   1.000  C
  C1913    1.0000 0.12782  0.26969  0.57769  Biso   1.000  C
  C1914    1.0000 0.26851  0.30398  0.70382  Biso   1.000  C
  C1915    1.0000 0.74351  0.37100  0.45302  Biso   1.000  C
  C1916    1.0000 0.65102  0.44839  0.39659  Biso   1.000  C
  H1820    1.0000 0.64844  0.44228  0.29612  Biso   1.000  H
  H1821    1.0000 0.59481  0.31289  0.26202  Biso   1.000  H
  H1822    1.0000 0.62732  0.26030  0.21590  Biso   1.000  H
  C1917    1.0000 0.53238  0.31279  0.16589  Biso   1.000  C
  C1918    1.0000 0.95342  0.66378  0.30440  Biso   1.000  C
  C1919    1.0000 0.81064  0.66539  0.27909  Biso   1.000  C
  H1823    1.0000 0.76542  0.60239  0.20928  Biso   1.000  H
  H1824    1.0000 0.77871  0.60160  0.02980  Biso   1.000  H
  H1825    1.0000 0.82619  0.63908  0.09189  Biso   1.000  H
  C1920    1.0000 0.89989  0.60381  0.02940  Biso   1.000  C
  O305     1.0000 0.32375  0.55772  0.48140  Biso   1.000  O
  H1826    1.0000 0.27222  0.50161  0.40871  Biso   1.000  H
  H1827    1.0000 0.23662  0.49359  0.47610  Biso   1.000  H
  H1828    1.0000 0.36275  0.41219  0.69200  Biso   1.000  H
  C1921    1.0000 0.34900  0.55161  0.60340  Biso   1.000  C
  H1829    1.0000 0.42901  0.49858  0.55910  Biso   1.000  H
  C1922    1.0000 0.47753  0.49638  0.65952  Biso   1.000  C
  H1830    1.0000 0.09612  0.23921  0.54712  Biso   1.000  H
  H1831    1.0000 0.10902  0.31352  0.56491  Biso   1.000  H
  O306     1.0000 0.11395  0.25722  0.64341  Biso   1.000  O
  C1923    1.0000 0.18945  0.33461  0.72089  Biso   1.000  C
  H1832    1.0000 0.25742  0.25859  0.68988  Biso   1.000  H
  C1924    1.0000 0.33333  0.30442  0.77020  Biso   1.000  C
  O307     1.0000 0.78853  0.34659  0.51318  Biso   1.000  O
  C1925    1.0000 0.69299  0.41948  0.45458  Biso   1.000  C
  C1926    1.0000 0.59400  0.50558  0.39902  Biso   1.000  C
  C1927    1.0000 0.47719  0.36210  0.17423  Biso   1.000  C
  C1928    1.0000 0.51349  0.26690  0.11472  Biso   1.000  C
  O308     1.0000 0.02590  0.68041  0.34769  Biso   1.000  O
  C1929    1.0000 0.88368  0.68848  0.31329  Biso   1.000  C
  C1930    1.0000 0.73152  0.69602  0.29622  Biso   1.000  C
  C1931    1.0000 0.89372  0.57509  0.96600  Biso   1.000  C
  C1932    1.0000 0.97309  0.63130  0.05930  Biso   1.000  C
  C1933    1.0000 0.30703  0.58052  0.54541  Biso   1.000  C
  C1934    1.0000 0.32851  0.57739  0.66361  Biso   1.000  C
  H1833    1.0000 0.45903  0.48312  0.70099  Biso   1.000  H
  H1834    1.0000 0.49821  0.54070  0.66538  Biso   1.000  H
  C1935    1.0000 0.54485  0.45089  0.64482  Biso   1.000  C
  C1936    1.0000 0.11634  0.31152  0.68670  Biso   1.000  C
  C1937    1.0000 0.18596  0.38211  0.76681  Biso   1.000  C
  H1835    1.0000 0.31095  0.28461  0.80733  Biso   1.000  H
  H1836    1.0000 0.34974  0.34889  0.78272  Biso   1.000  H
  C1938    1.0000 0.40462  0.26548  0.75428  Biso   1.000  C
  C1939    1.0000 0.76275  0.28251  0.53318  Biso   1.000  C
  C1940    1.0000 0.74320  0.32531  0.56622  Biso   1.000  C
  O309     1.0000 0.67633  0.44228  0.51858  Biso   1.000  O
  C1941    1.0000 0.64320  0.56731  0.40482  Biso   1.000  C
  H1837    1.0000 0.57101  0.50142  0.44089  Biso   1.000  H
  C1942    1.0000 0.52250  0.50362  0.34052  Biso   1.000  C
  H1838    1.0000 0.48982  0.39282  0.20842  Biso   1.000  H
  C1943    1.0000 0.40320  0.36542  0.13119  Biso   1.000  C
  C1944    1.0000 0.43958  0.27018  0.07178  Biso   1.000  C
  H1839    1.0000 0.55042  0.23388  0.10921  Biso   1.000  H
  C1945    1.0000 0.07873  0.72258  0.31572  Biso   1.000  C
  C1946    1.0000 0.05502  0.74782  0.35052  Biso   1.000  C
  O310     1.0000 0.88613  0.74278  0.35658  Biso   1.000  O
  C1947    1.0000 0.70860  0.65801  0.35598  Biso   1.000  C
  H1840    1.0000 0.74260  0.74141  0.31011  Biso   1.000  H
  C1948    1.0000 0.66670  0.69558  0.22979  Biso   1.000  C
  C1949    1.0000 0.96073  0.57382  0.93241  Biso   1.000  C
  H1841    1.0000 0.84473  0.55670  0.94600  Biso   1.000  H
  C1950    1.0000 0.04010  0.62998  0.02571  Biso   1.000  C
  H1842    1.0000 0.97731  0.65052  0.10179  Biso   1.000  H
  C1951    1.0000 0.25653  0.62900  0.54702  Biso   1.000  C
  C1952    1.0000 0.27793  0.62880  0.66770  Biso   1.000  C
  H1843    1.0000 0.35166  0.55772  0.70392  Biso   1.000  H
  H1844    1.0000 0.52385  0.40671  0.64012  Biso   1.000  H
  H1845    1.0000 0.56091  0.46341  0.60219  Biso   1.000  H
  C1953    1.0000 0.61974  0.45181  0.69963  Biso   1.000  C
  C1954    1.0000 0.04660  0.33622  0.69559  Biso   1.000  C
  H1846    1.0000 0.23461  0.39761  0.79071  Biso   1.000  H
  C1955    1.0000 0.11346  0.40970  0.78080  Biso   1.000  C
  H1847    1.0000 0.38565  0.22762  0.72721  Biso   1.000  H
  H1848    1.0000 0.43745  0.29209  0.72893  Biso   1.000  H
  C1956    1.0000 0.45692  0.24298  0.82278  Biso   1.000  C
  C1957    1.0000 0.78556  0.27781  0.61092  Biso   1.000  C
  H1849    1.0000 0.70453  0.27752  0.52000  Biso   1.000  H
  H1850    1.0000 0.78992  0.24841  0.51161  Biso   1.000  H
  H1851    1.0000 0.70763  0.28911  0.55051  Biso   1.000  H
  C1958    1.0000 0.80814  0.30349  0.62749  Biso   1.000  C
  H1852    1.0000 0.71041  0.36092  0.57930  Biso   1.000  H
  C1959    1.0000 0.71341  0.50122  0.54258  Biso   1.000  C
  C1960    1.0000 0.68171  0.59109  0.46928  Biso   1.000  C
  C1961    1.0000 0.65984  0.60209  0.35093  Biso   1.000  C
  H1853    1.0000 0.54099  0.51688  0.29900  Biso   1.000  H
  H1854    1.0000 0.50181  0.45930  0.33461  Biso   1.000  H
  C1962    1.0000 0.45524  0.54911  0.35522  Biso   1.000  C
  H1855    1.0000 0.36628  0.39840  0.13669  Biso   1.000  H
  C1963    1.0000 0.38438  0.31949  0.08002  Biso   1.000  C
  H1856    1.0000 0.42700  0.23951  0.03748  Biso   1.000  H
  C1964    1.0000 0.13483  0.75961  0.37219  Biso   1.000  C
  H1857    1.0000 0.04651  0.75350  0.28591  Biso   1.000  H
  H1858    1.0000 0.11102  0.69680  0.28910  Biso   1.000  H
  H1859    1.0000 0.06323  0.76250  0.30612  Biso   1.000  H
  H1860    1.0000 0.01604  0.77659  0.36679  Biso   1.000  H
  C1965    1.0000 0.13780  0.74758  0.40068  Biso   1.000  C
  C1966    1.0000 0.87220  0.73031  0.42230  Biso   1.000  C
  C1967    1.0000 0.74520  0.67841  0.42180  Biso   1.000  C
  H1861    1.0000 0.68908  0.71539  0.19271  Biso   1.000  H
  H1862    1.0000 0.65029  0.65111  0.21731  Biso   1.000  H
  C1968    1.0000 0.59540  0.73452  0.24570  Biso   1.000  C
  H1863    1.0000 0.95650  0.55459  0.88988  Biso   1.000  H
  C1969    1.0000 0.03392  0.60131  0.96232  Biso   1.000  C
  H1864    1.0000 0.08909  0.64842  0.04572  Biso   1.000  H
  C1970    1.0000 0.24171  0.65649  0.60643  Biso   1.000  C
  O311     1.0000 0.21149  0.65341  0.48681  Biso   1.000  O
  C1971    1.0000 0.25332  0.65449  0.73509  Biso   1.000  C
  C1972    1.0000 0.66145  0.50939  0.71862  Biso   1.000  C
  C1973    1.0000 0.64732  0.39292  0.72938  Biso   1.000  C
  C1974    1.0000 0.04173  0.38582  0.74272  Biso   1.000  C
  O312     1.0000 0.97413  0.31959  0.65230  Biso   1.000  O
  C1975    1.0000 0.11102  0.46292  0.83001  Biso   1.000  C
  C1976    1.0000 0.43616  0.18702  0.85572  Biso   1.000  C
  C1977    1.0000 0.52515  0.27898  0.84991  Biso   1.000  C
  C1978    1.0000 0.86525  0.24039  0.62780  Biso   1.000  C
  H1865    1.0000 0.74295  0.25531  0.62961  Biso   1.000  H
  H1866    1.0000 0.79155  0.32130  0.63032  Biso   1.000  H
  C1979    1.0000 0.86223  0.25242  0.59931  Biso   1.000  C
  H1867    1.0000 0.78181  0.28451  0.66280  Biso   1.000  H
  H1868    1.0000 0.84040  0.34072  0.64608  Biso   1.000  H
  O313     1.0000 0.66671  0.55469  0.52712  Biso   1.000  O
  H1869    1.0000 0.72781  0.49839  0.59132  Biso   1.000  H
  H1870    1.0000 0.76340  0.50641  0.52389  Biso   1.000  H
  C1980    1.0000 0.72929  0.64260  0.47418  Biso   1.000  C
  H1871    1.0000 0.63734  0.58781  0.30799  Biso   1.000  H
  H1872    1.0000 0.47625  0.59329  0.35992  Biso   1.000  H
  H1873    1.0000 0.43912  0.53659  0.39780  Biso   1.000  H
  C1981    1.0000 0.38030  0.54819  0.30041  Biso   1.000  C
  H1874    1.0000 0.33493  0.32169  0.05122  Biso   1.000  H
  C1982    1.0000 0.21454  0.72219  0.38911  Biso   1.000  C
  H1875    1.0000 0.14522  0.80349  0.35719  Biso   1.000  H
  H1876    1.0000 0.10859  0.76299  0.41210  Biso   1.000  H
  H1877    1.0000 0.16300  0.79048  0.40250  Biso   1.000  H
  C1983    1.0000 0.19189  0.69651  0.37250  Biso   1.000  C
  H1878    1.0000 0.12913  0.73569  0.44589  Biso   1.000  H
  O314     1.0000 0.78934  0.73579  0.43008  Biso   1.000  O
  H1879    1.0000 0.90391  0.76079  0.45291  Biso   1.000  H
  H1880    1.0000 0.89100  0.68648  0.43508  Biso   1.000  H
  H1881    1.0000 0.61443  0.77238  0.27278  Biso   1.000  H
  H1882    1.0000 0.56259  0.70791  0.27111  Biso   1.000  H
  C1984    1.0000 0.54310  0.75702  0.17721  Biso   1.000  C
  H1883    1.0000 0.07869  0.60038  0.93979  Biso   1.000  H
  O315     1.0000 0.18922  0.71030  0.60709  Biso   1.000  O
  C1985    1.0000 0.23734  0.71749  0.46681  Biso   1.000  C
  C1986    1.0000 0.25683  0.67469  0.43382  Biso   1.000  C
  C1987    1.0000 0.17942  0.61922  0.74772  Biso   1.000  C
  H1884    1.0000 0.23923  0.70091  0.72883  Biso   1.000  H
  C1988    1.0000 0.32455  0.64930  0.79439  Biso   1.000  C
  H1885    1.0000 0.64305  0.54892  0.69872  Biso   1.000  H
  C1989    1.0000 0.73074  0.50812  0.76732  Biso   1.000  C
  C1990    1.0000 0.71656  0.39160  0.77813  Biso   1.000  C
  H1886    1.0000 0.61941  0.35432  0.71670  Biso   1.000  H
  O316     1.0000 0.96695  0.40568  0.75388  Biso   1.000  O
  C1991    1.0000 0.92136  0.27742  0.68432  Biso   1.000  C
  C1992    1.0000 0.94502  0.25218  0.64952  Biso   1.000  C
  H1887    1.0000 0.05852  0.45881  0.84592  Biso   1.000  H
  C1993    1.0000 0.17575  0.45930  0.89340  Biso   1.000  C
  C1994    1.0000 0.10844  0.52710  0.79338  Biso   1.000  C
  H1888    1.0000 0.39052  0.16300  0.83758  Biso   1.000  H
  C1995    1.0000 0.48352  0.16711  0.91553  Biso   1.000  C
  C1996    1.0000 0.57251  0.25898  0.90972  Biso   1.000  C
  H1889    1.0000 0.53902  0.31641  0.82788  Biso   1.000  H
  H1890    1.0000 0.85480  0.19651  0.64280  Biso   1.000  H
  H1891    1.0000 0.89143  0.23701  0.58789  Biso   1.000  H
  H1892    1.0000 0.83702  0.20952  0.59749  Biso   1.000  H
  H1893    1.0000 0.87095  0.26431  0.55410  Biso   1.000  H
  O317     1.0000 0.77642  0.65400  0.53879  Biso   1.000  O
  C1997    1.0000 0.33864  0.49061  0.28142  Biso   1.000  C
  C1998    1.0000 0.35270  0.60708  0.27061  Biso   1.000  C
  H1894    1.0000 0.25714  0.74469  0.37042  Biso   1.000  H
  H1895    1.0000 0.20854  0.67870  0.36972  Biso   1.000  H
  H1896    1.0000 0.21821  0.71549  0.33719  Biso   1.000  H
  H1897    1.0000 0.15962  0.65928  0.35391  Biso   1.000  H
  C1999    1.0000 0.56393  0.81298  0.14432  Biso   1.000  C
  C2000    1.0000 0.47493  0.72102  0.15008  Biso   1.000  C
  C2001    1.0000 0.10945  0.69631  0.61471  Biso   1.000  C
  H1898    1.0000 0.29549  0.72248  0.47999  Biso   1.000  H
  H1899    1.0000 0.21012  0.75159  0.48843  Biso   1.000  H
  H1900    1.0000 0.29239  0.71089  0.44948  Biso   1.000  H
  H1901    1.0000 0.28961  0.63908  0.42069  Biso   1.000  H
  C2002    1.0000 0.17895  0.56130  0.78409  Biso   1.000  C
  C2003    1.0000 0.09913  0.64089  0.71650  Biso   1.000  C
  H1902    1.0000 0.34474  0.60469  0.79798  Biso   1.000  H
  H1903    1.0000 0.30574  0.66050  0.83642  Biso   1.000  H
  C2004    1.0000 0.39192  0.69499  0.78283  Biso   1.000  C
  H1904    1.0000 0.75854  0.54672  0.78000  Biso   1.000  H
  C2005    1.0000 0.75822  0.44922  0.79712  Biso   1.000  C
  H1905    1.0000 0.73501  0.35212  0.79798  Biso   1.000  H
  C2006    1.0000 0.94231  0.46390  0.72352  Biso   1.000  C
  H1906    1.0000 0.95352  0.24650  0.71413  Biso   1.000  H
  H1907    1.0000 0.88901  0.30320  0.71089  Biso   1.000  H
  H1908    1.0000 0.93686  0.23750  0.69392  Biso   1.000  H
  H1909    1.0000 0.98404  0.22341  0.63320  Biso   1.000  H
  H1910    1.0000 0.16995  0.49741  0.92098  Biso   1.000  H
  H1911    1.0000 0.22893  0.46160  0.87951  Biso   1.000  H
  C2007    1.0000 0.17295  0.39942  0.93629  Biso   1.000  C
  C2008    1.0000 0.03346  0.55352  0.75908  Biso   1.000  C
  H1912    1.0000 0.46964  0.12959  0.93750  Biso   1.000  H
  C2009    1.0000 0.55172  0.20311  0.94250  Biso   1.000  C
  H1913    1.0000 0.61826  0.28309  0.92780  Biso   1.000  H
  C2010    1.0000 0.76229  0.71642  0.57319  Biso   1.000  C
  H1914    1.0000 0.35704  0.45108  0.30132  Biso   1.000  H
  C2011    1.0000 0.26929  0.49188  0.23272  Biso   1.000  C
  C2012    1.0000 0.28353  0.60840  0.22191  Biso   1.000  C
  H1915    1.0000 0.38061  0.64568  0.28329  Biso   1.000  H
  H1916    1.0000 0.60950  0.83700  0.16240  Biso   1.000  H
  C2013    1.0000 0.51652  0.83289  0.08451  Biso   1.000  C
  C2014    1.0000 0.42752  0.74102  0.09032  Biso   1.000  C
  H1917    1.0000 0.46100  0.68359  0.17210  Biso   1.000  H
  O318     1.0000 0.09515  0.69959  0.67942  Biso   1.000  O
  H1918    1.0000 0.09600  0.65258  0.59749  Biso   1.000  H
  H1919    1.0000 0.07339  0.72669  0.58749  Biso   1.000  H
  H1920    1.0000 0.22884  0.54408  0.80349  Biso   1.000  H
  C2015    1.0000 0.03222  0.60620  0.72413  Biso   1.000  C
  H1921    1.0000 0.40523  0.68711  0.73802  Biso   1.000  H
  H1922    1.0000 0.37276  0.73970  0.78409  Biso   1.000  H
  C2016    1.0000 0.46764  0.68721  0.83410  Biso   1.000  C
  H1923    1.0000 0.80465  0.44829  0.82970  Biso   1.000  H
  H1924    1.0000 0.96702  0.46859  0.68311  Biso   1.000  H
  H1925    1.0000 0.88381  0.46258  0.70978  Biso   1.000  H
  O319     1.0000 0.96222  0.51981  0.76509  Biso   1.000  O
  H1926    1.0000 0.22132  0.39840  0.97018  Biso   1.000  H
  H1927    1.0000 0.17383  0.36092  0.90810  Biso   1.000  H
  C2017    1.0000 0.10013  0.39619  0.97059  Biso   1.000  C
  H1928    1.0000 0.58352  0.18971  0.98251  Biso   1.000  H
  C2018    1.0000 0.83473  0.71808  0.63573  Biso   1.000  C
  H1929    1.0000 0.76523  0.75350  0.54349  Biso   1.000  H
  H1930    1.0000 0.70980  0.71642  0.58850  Biso   1.000  H
  H1931    1.0000 0.24149  0.45328  0.21999  Biso   1.000  H
  C2019    1.0000 0.24182  0.55078  0.20292  Biso   1.000  C
  H1932    1.0000 0.26501  0.64788  0.20201  Biso   1.000  H
  H1933    1.0000 0.53039  0.87041  0.06249  Biso   1.000  H
  C2020    1.0000 0.44830  0.79689  0.05749  Biso   1.000  C
  H1934    1.0000 0.38182  0.71691  0.07219  Biso   1.000  H
  O320     1.0000 0.95901  0.62738  0.68589  Biso   1.000  O
  C2021    1.0000 0.52284  0.63790  0.82581  Biso   1.000  C
  C2022    1.0000 0.48654  0.73310  0.88532  Biso   1.000  C
  C2023    1.0000 0.02693  0.36870  0.94068  Biso   1.000  C
  C2024    1.0000 0.10636  0.42491  0.03398  Biso   1.000  C
  C2025    1.0000 0.81953  0.66750  0.68068  Biso   1.000  C
  H1935    1.0000 0.83642  0.76020  0.65810  Biso   1.000  H
  H1936    1.0000 0.88642  0.71089  0.62032  Biso   1.000  H
  H1937    1.0000 0.19543  0.55171  0.17028  Biso   1.000  H
  H1938    1.0000 0.41650  0.81029  0.01748  Biso   1.000  H
  C2026    1.0000 0.90234  0.65899  0.72782  Biso   1.000  C
  H1939    1.0000 0.51021  0.60718  0.79162  Biso   1.000  H
  C2027    1.0000 0.59682  0.63458  0.86880  Biso   1.000  C
  C2028    1.0000 0.56044  0.72982  0.92821  Biso   1.000  C
  H1940    1.0000 0.44962  0.76612  0.89083  Biso   1.000  H
  H1941    1.0000 0.02272  0.34948  0.89820  Biso   1.000  H
  C2029    1.0000 0.95994  0.37002  0.97433  Biso   1.000  C
  C2030    1.0000 0.03937  0.42618  0.06763  Biso   1.000  C
  H1942    1.0000 0.15536  0.44330  0.05399  Biso   1.000  H
  H1943    1.0000 0.77715  0.68022  0.70630  Biso   1.000  H
  H1944    1.0000 0.80355  0.62738  0.65639  Biso   1.000  H
  H1945    1.0000 0.89604  0.63159  0.76611  Biso   1.000  H
  H1946    1.0000 0.92344  0.70120  0.74448  Biso   1.000  H
  H1947    1.0000 0.63374  0.60160  0.86330  Biso   1.000  H
  C2031    1.0000 0.61566  0.68051  0.92002  Biso   1.000  C
  H1948    1.0000 0.57302  0.76049  0.96251  Biso   1.000  H
  H1949    1.0000 0.91094  0.35158  0.95432  Biso   1.000  H
  C2032    1.0000 0.96617  0.39869  0.03772  Biso   1.000  C
  H1950    1.0000 0.04352  0.44541  0.11011  Biso   1.000  H
  H1951    1.0000 0.66516  0.67831  0.94882  Biso   1.000  H
  H1952    1.0000 0.92133  0.39962  0.06020  Biso   1.000  H
  C2033    1.0000 0.09769  0.34101  0.27222  Biso   1.000  C
  C2034    1.0000 0.18049  0.33250  0.31930  Biso   1.000  C
  O321     1.0000 0.04101  0.37262  0.31410  Biso   1.000  O
  H1953    1.0000 0.10398  0.36841  0.23388  Biso   1.000  H
  H1954    1.0000 0.07658  0.29880  0.25550  Biso   1.000  H
  H1955    1.0000 0.22293  0.31978  0.29369  Biso   1.000  H
  H1956    1.0000 0.19654  0.37262  0.34360  Biso   1.000  H
  C2035    1.0000 0.16530  0.28192  0.36431  Biso   1.000  C
  C2036    1.0000 0.96781  0.39380  0.27591  Biso   1.000  C
  H1957    1.0000 0.16360  0.23980  0.34188  Biso   1.000  H
  H1958    1.0000 0.11361  0.28911  0.37972  Biso   1.000  H
  C2037    1.0000 0.23773  0.28358  0.42680  Biso   1.000  C
  C2038    1.0000 0.90089  0.35911  0.28349  Biso   1.000  C
  C2039    1.0000 0.96663  0.44648  0.24090  Biso   1.000  C
  H1959    1.0000 0.23479  0.24650  0.45650  Biso   1.000  H
  H1960    1.0000 0.29022  0.28358  0.41149  Biso   1.000  H
  O322     1.0000 0.22361  0.34600  0.46120  Biso   1.000  O
  O323     1.0000 0.90494  0.30041  0.32062  Biso   1.000  O
  C2040    1.0000 0.82061  0.38078  0.25232  Biso   1.000  C
  O324     1.0000 0.03781  0.48019  0.23489  Biso   1.000  O
  C2041    1.0000 0.89164  0.47290  0.20660  Biso   1.000  C
  C2042    1.0000 0.27073  0.35740  0.52581  Biso   1.000  C
  C2043    1.0000 0.89064  0.30369  0.38533  Biso   1.000  C
  C2044    1.0000 0.82114  0.43870  0.21590  Biso   1.000  C
  C2045    1.0000 0.74670  0.34551  0.26490  Biso   1.000  C
  C2046    1.0000 0.05772  0.53610  0.27652  Biso   1.000  C
  C2047    1.0000 0.88901  0.53708  0.16998  Biso   1.000  C
  C2048    1.0000 0.31832  0.40891  0.53071  Biso   1.000  C
  C2049    1.0000 0.25483  0.32159  0.57819  Biso   1.000  C
  O325     1.0000 0.81081  0.28970  0.39290  Biso   1.000  O
  H1961    1.0000 0.90402  0.34742  0.40250  Biso   1.000  H
  H1962    1.0000 0.92663  0.27331  0.41250  Biso   1.000  H
  H1963    1.0000 0.77124  0.45592  0.19650  Biso   1.000  H
  C2050    1.0000 0.72209  0.37120  0.33229  Biso   1.000  C
  H1964    1.0000 0.76080  0.29909  0.27121  Biso   1.000  H
  C2051    1.0000 0.67553  0.35070  0.20559  Biso   1.000  C
  O326     1.0000 0.03313  0.59432  0.24611  Biso   1.000  O
  H1965    1.0000 0.03301  0.53141  0.31688  Biso   1.000  H
  H1966    1.0000 0.11621  0.53742  0.29021  Biso   1.000  H
  C2052    1.0000 0.88662  0.59030  0.21918  Biso   1.000  C
  H1967    1.0000 0.94152  0.54119  0.15412  Biso   1.000  H
  C2053    1.0000 0.82428  0.54070  0.10659  Biso   1.000  C
  O327     1.0000 0.33332  0.44531  0.47292  Biso   1.000  O
  C2054    1.0000 0.35683  0.43269  0.59521  Biso   1.000  C
  O328     1.0000 0.21074  0.26421  0.56991  Biso   1.000  O
  C2055    1.0000 0.29143  0.34199  0.64401  Biso   1.000  C
  C2056    1.0000 0.75833  0.34351  0.39361  Biso   1.000  C
  C2057    1.0000 0.67151  0.42261  0.33638  Biso   1.000  C
  H1968    1.0000 0.65534  0.39531  0.20201  Biso   1.000  H
  H1969    1.0000 0.69429  0.33950  0.16362  Biso   1.000  H
  C2058    1.0000 0.60811  0.30501  0.21721  Biso   1.000  C
  C2059    1.0000 0.95831  0.61418  0.25732  Biso   1.000  C
  C2060    1.0000 0.81413  0.61789  0.23323  Biso   1.000  C
  H1970    1.0000 0.83013  0.50259  0.07900  Biso   1.000  H
  H1971    1.0000 0.77110  0.53840  0.12048  Biso   1.000  H
  C2061    1.0000 0.82713  0.60058  0.06370  Biso   1.000  C
  C2062    1.0000 0.28662  0.49878  0.45741  Biso   1.000  C
  C2063    1.0000 0.34025  0.39791  0.64911  Biso   1.000  C
  C2064    1.0000 0.40603  0.49442  0.60102  Biso   1.000  C
  C2065    1.0000 0.12782  0.26969  0.57769  Biso   1.000  C
  C2066    1.0000 0.26851  0.30398  0.70382  Biso   1.000  C
  C2067    1.0000 0.74351  0.37100  0.45302  Biso   1.000  C
  C2068    1.0000 0.65102  0.44839  0.39659  Biso   1.000  C
  H1972    1.0000 0.64844  0.44228  0.29612  Biso   1.000  H
  H1973    1.0000 0.59481  0.31289  0.26202  Biso   1.000  H
  H1974    1.0000 0.62732  0.26030  0.21590  Biso   1.000  H
  C2069    1.0000 0.53238  0.31279  0.16589  Biso   1.000  C
  C2070    1.0000 0.95342  0.66378  0.30440  Biso   1.000  C
  C2071    1.0000 0.81064  0.66539  0.27909  Biso   1.000  C
  H1975    1.0000 0.76542  0.60239  0.20928  Biso   1.000  H
  H1976    1.0000 0.77871  0.60160  0.02980  Biso   1.000  H
  H1977    1.0000 0.82619  0.63908  0.09189  Biso   1.000  H
  C2072    1.0000 0.89989  0.60381  0.02940  Biso   1.000  C
  O329     1.0000 0.32375  0.55772  0.48140  Biso   1.000  O
  H1978    1.0000 0.27222  0.50161  0.40871  Biso   1.000  H
  H1979    1.0000 0.23662  0.49359  0.47610  Biso   1.000  H
  H1980    1.0000 0.36275  0.41219  0.69200  Biso   1.000  H
  C2073    1.0000 0.34900  0.55161  0.60340  Biso   1.000  C
  H1981    1.0000 0.42901  0.49858  0.55910  Biso   1.000  H
  C2074    1.0000 0.47753  0.49638  0.65952  Biso   1.000  C
  H1982    1.0000 0.09612  0.23921  0.54712  Biso   1.000  H
  H1983    1.0000 0.10902  0.31352  0.56491  Biso   1.000  H
  O330     1.0000 0.11395  0.25722  0.64341  Biso   1.000  O
  C2075    1.0000 0.18945  0.33461  0.72089  Biso   1.000  C
  H1984    1.0000 0.25742  0.25859  0.68988  Biso   1.000  H
  C2076    1.0000 0.33333  0.30442  0.77020  Biso   1.000  C
  O331     1.0000 0.78853  0.34659  0.51318  Biso   1.000  O
  C2077    1.0000 0.69299  0.41948  0.45458  Biso   1.000  C
  C2078    1.0000 0.59400  0.50558  0.39902  Biso   1.000  C
  C2079    1.0000 0.47719  0.36210  0.17423  Biso   1.000  C
  C2080    1.0000 0.51349  0.26690  0.11472  Biso   1.000  C
  O332     1.0000 0.02590  0.68041  0.34769  Biso   1.000  O
  C2081    1.0000 0.88368  0.68848  0.31329  Biso   1.000  C
  C2082    1.0000 0.73152  0.69602  0.29622  Biso   1.000  C
  C2083    1.0000 0.89372  0.57509  0.96600  Biso   1.000  C
  C2084    1.0000 0.97309  0.63130  0.05930  Biso   1.000  C
  C2085    1.0000 0.30703  0.58052  0.54541  Biso   1.000  C
  C2086    1.0000 0.32851  0.57739  0.66361  Biso   1.000  C
  H1985    1.0000 0.45903  0.48312  0.70099  Biso   1.000  H
  H1986    1.0000 0.49821  0.54070  0.66538  Biso   1.000  H
  C2087    1.0000 0.54485  0.45089  0.64482  Biso   1.000  C
  C2088    1.0000 0.11634  0.31152  0.68670  Biso   1.000  C
  C2089    1.0000 0.18596  0.38211  0.76681  Biso   1.000  C
  H1987    1.0000 0.31095  0.28461  0.80733  Biso   1.000  H
  H1988    1.0000 0.34974  0.34889  0.78272  Biso   1.000  H
  C2090    1.0000 0.40462  0.26548  0.75428  Biso   1.000  C
  C2091    1.0000 0.76275  0.28251  0.53318  Biso   1.000  C
  C2092    1.0000 0.74320  0.32531  0.56622  Biso   1.000  C
  O333     1.0000 0.67633  0.44228  0.51858  Biso   1.000  O
  C2093    1.0000 0.64320  0.56731  0.40482  Biso   1.000  C
  H1989    1.0000 0.57101  0.50142  0.44089  Biso   1.000  H
  C2094    1.0000 0.52250  0.50362  0.34052  Biso   1.000  C
  H1990    1.0000 0.48982  0.39282  0.20842  Biso   1.000  H
  C2095    1.0000 0.40320  0.36542  0.13119  Biso   1.000  C
  C2096    1.0000 0.43958  0.27018  0.07178  Biso   1.000  C
  H1991    1.0000 0.55042  0.23388  0.10921  Biso   1.000  H
  C2097    1.0000 0.07873  0.72258  0.31572  Biso   1.000  C
  C2098    1.0000 0.05502  0.74782  0.35052  Biso   1.000  C
  O334     1.0000 0.88613  0.74278  0.35658  Biso   1.000  O
  C2099    1.0000 0.70860  0.65801  0.35598  Biso   1.000  C
  H1992    1.0000 0.74260  0.74141  0.31011  Biso   1.000  H
  C2100    1.0000 0.66670  0.69558  0.22979  Biso   1.000  C
  C2101    1.0000 0.96073  0.57382  0.93241  Biso   1.000  C
  H1993    1.0000 0.84473  0.55670  0.94600  Biso   1.000  H
  C2102    1.0000 0.04010  0.62998  0.02571  Biso   1.000  C
  H1994    1.0000 0.97731  0.65052  0.10179  Biso   1.000  H
  C2103    1.0000 0.25653  0.62900  0.54702  Biso   1.000  C
  C2104    1.0000 0.27793  0.62880  0.66770  Biso   1.000  C
  H1995    1.0000 0.35166  0.55772  0.70392  Biso   1.000  H
  H1996    1.0000 0.52385  0.40671  0.64012  Biso   1.000  H
  H1997    1.0000 0.56091  0.46341  0.60219  Biso   1.000  H
  C2105    1.0000 0.61974  0.45181  0.69963  Biso   1.000  C
  C2106    1.0000 0.04660  0.33622  0.69559  Biso   1.000  C
  H1998    1.0000 0.23461  0.39761  0.79071  Biso   1.000  H
  C2107    1.0000 0.11346  0.40970  0.78080  Biso   1.000  C
  H1999    1.0000 0.38565  0.22762  0.72721  Biso   1.000  H
  H2000    1.0000 0.43745  0.29209  0.72893  Biso   1.000  H
  C2108    1.0000 0.45692  0.24298  0.82278  Biso   1.000  C
  C2109    1.0000 0.78556  0.27781  0.61092  Biso   1.000  C
  H2001    1.0000 0.70453  0.27752  0.52000  Biso   1.000  H
  H2002    1.0000 0.78992  0.24841  0.51161  Biso   1.000  H
  H2003    1.0000 0.70763  0.28911  0.55051  Biso   1.000  H
  C2110    1.0000 0.80814  0.30349  0.62749  Biso   1.000  C
  H2004    1.0000 0.71041  0.36092  0.57930  Biso   1.000  H
  C2111    1.0000 0.71341  0.50122  0.54258  Biso   1.000  C
  C2112    1.0000 0.68171  0.59109  0.46928  Biso   1.000  C
  C2113    1.0000 0.65984  0.60209  0.35093  Biso   1.000  C
  H2005    1.0000 0.54099  0.51688  0.29900  Biso   1.000  H
  H2006    1.0000 0.50181  0.45930  0.33461  Biso   1.000  H
  C2114    1.0000 0.45524  0.54911  0.35522  Biso   1.000  C
  H2007    1.0000 0.36628  0.39840  0.13669  Biso   1.000  H
  C2115    1.0000 0.38438  0.31949  0.08002  Biso   1.000  C
  H2008    1.0000 0.42700  0.23951  0.03748  Biso   1.000  H
  C2116    1.0000 0.13483  0.75961  0.37219  Biso   1.000  C
  H2009    1.0000 0.04651  0.75350  0.28591  Biso   1.000  H
  H2010    1.0000 0.11102  0.69680  0.28910  Biso   1.000  H
  H2011    1.0000 0.06323  0.76250  0.30612  Biso   1.000  H
  H2012    1.0000 0.01604  0.77659  0.36679  Biso   1.000  H
  C2117    1.0000 0.13780  0.74758  0.40068  Biso   1.000  C
  C2118    1.0000 0.87220  0.73031  0.42230  Biso   1.000  C
  C2119    1.0000 0.74520  0.67841  0.42180  Biso   1.000  C
  H2013    1.0000 0.68908  0.71539  0.19271  Biso   1.000  H
  H2014    1.0000 0.65029  0.65111  0.21731  Biso   1.000  H
  C2120    1.0000 0.59540  0.73452  0.24570  Biso   1.000  C
  H2015    1.0000 0.95650  0.55459  0.88988  Biso   1.000  H
  C2121    1.0000 0.03392  0.60131  0.96232  Biso   1.000  C
  H2016    1.0000 0.08909  0.64842  0.04572  Biso   1.000  H
  C2122    1.0000 0.24171  0.65649  0.60643  Biso   1.000  C
  O335     1.0000 0.21149  0.65341  0.48681  Biso   1.000  O
  C2123    1.0000 0.25332  0.65449  0.73509  Biso   1.000  C
  C2124    1.0000 0.66145  0.50939  0.71862  Biso   1.000  C
  C2125    1.0000 0.64732  0.39292  0.72938  Biso   1.000  C
  C2126    1.0000 0.04173  0.38582  0.74272  Biso   1.000  C
  O336     1.0000 0.97413  0.31959  0.65230  Biso   1.000  O
  C2127    1.0000 0.11102  0.46292  0.83001  Biso   1.000  C
  C2128    1.0000 0.43616  0.18702  0.85572  Biso   1.000  C
  C2129    1.0000 0.52515  0.27898  0.84991  Biso   1.000  C
  C2130    1.0000 0.86525  0.24039  0.62780  Biso   1.000  C
  H2017    1.0000 0.74295  0.25531  0.62961  Biso   1.000  H
  H2018    1.0000 0.79155  0.32130  0.63032  Biso   1.000  H
  C2131    1.0000 0.86223  0.25242  0.59931  Biso   1.000  C
  H2019    1.0000 0.78181  0.28451  0.66280  Biso   1.000  H
  H2020    1.0000 0.84040  0.34072  0.64608  Biso   1.000  H
  O337     1.0000 0.66671  0.55469  0.52712  Biso   1.000  O
  H2021    1.0000 0.72781  0.49839  0.59132  Biso   1.000  H
  H2022    1.0000 0.76340  0.50641  0.52389  Biso   1.000  H
  C2132    1.0000 0.72929  0.64260  0.47418  Biso   1.000  C
  H2023    1.0000 0.63734  0.58781  0.30799  Biso   1.000  H
  H2024    1.0000 0.47625  0.59329  0.35992  Biso   1.000  H
  H2025    1.0000 0.43912  0.53659  0.39780  Biso   1.000  H
  C2133    1.0000 0.38030  0.54819  0.30041  Biso   1.000  C
  H2026    1.0000 0.33493  0.32169  0.05122  Biso   1.000  H
  C2134    1.0000 0.21454  0.72219  0.38911  Biso   1.000  C
  H2027    1.0000 0.14522  0.80349  0.35719  Biso   1.000  H
  H2028    1.0000 0.10859  0.76299  0.41210  Biso   1.000  H
  H2029    1.0000 0.16300  0.79048  0.40250  Biso   1.000  H
  C2135    1.0000 0.19189  0.69651  0.37250  Biso   1.000  C
  H2030    1.0000 0.12913  0.73569  0.44589  Biso   1.000  H
  O338     1.0000 0.78934  0.73579  0.43008  Biso   1.000  O
  H2031    1.0000 0.90391  0.76079  0.45291  Biso   1.000  H
  H2032    1.0000 0.89100  0.68648  0.43508  Biso   1.000  H
  H2033    1.0000 0.61443  0.77238  0.27278  Biso   1.000  H
  H2034    1.0000 0.56259  0.70791  0.27111  Biso   1.000  H
  C2136    1.0000 0.54310  0.75702  0.17721  Biso   1.000  C
  H2035    1.0000 0.07869  0.60038  0.93979  Biso   1.000  H
  O339     1.0000 0.18922  0.71030  0.60709  Biso   1.000  O
  C2137    1.0000 0.23734  0.71749  0.46681  Biso   1.000  C
  C2138    1.0000 0.25683  0.67469  0.43382  Biso   1.000  C
  C2139    1.0000 0.17942  0.61922  0.74772  Biso   1.000  C
  H2036    1.0000 0.23923  0.70091  0.72883  Biso   1.000  H
  C2140    1.0000 0.32455  0.64930  0.79439  Biso   1.000  C
  H2037    1.0000 0.64305  0.54892  0.69872  Biso   1.000  H
  C2141    1.0000 0.73074  0.50812  0.76732  Biso   1.000  C
  C2142    1.0000 0.71656  0.39160  0.77813  Biso   1.000  C
  H2038    1.0000 0.61941  0.35432  0.71670  Biso   1.000  H
  O340     1.0000 0.96695  0.40568  0.75388  Biso   1.000  O
  C2143    1.0000 0.92136  0.27742  0.68432  Biso   1.000  C
  C2144    1.0000 0.94502  0.25218  0.64952  Biso   1.000  C
  H2039    1.0000 0.05852  0.45881  0.84592  Biso   1.000  H
  C2145    1.0000 0.17575  0.45930  0.89340  Biso   1.000  C
  C2146    1.0000 0.10844  0.52710  0.79338  Biso   1.000  C
  H2040    1.0000 0.39052  0.16300  0.83758  Biso   1.000  H
  C2147    1.0000 0.48352  0.16711  0.91553  Biso   1.000  C
  C2148    1.0000 0.57251  0.25898  0.90972  Biso   1.000  C
  H2041    1.0000 0.53902  0.31641  0.82788  Biso   1.000  H
  H2042    1.0000 0.85480  0.19651  0.64280  Biso   1.000  H
  H2043    1.0000 0.89143  0.23701  0.58789  Biso   1.000  H
  H2044    1.0000 0.83702  0.20952  0.59749  Biso   1.000  H
  H2045    1.0000 0.87095  0.26431  0.55410  Biso   1.000  H
  O341     1.0000 0.77642  0.65400  0.53879  Biso   1.000  O
  C2149    1.0000 0.33864  0.49061  0.28142  Biso   1.000  C
  C2150    1.0000 0.35270  0.60708  0.27061  Biso   1.000  C
  H2046    1.0000 0.25714  0.74469  0.37042  Biso   1.000  H
  H2047    1.0000 0.20854  0.67870  0.36972  Biso   1.000  H
  H2048    1.0000 0.21821  0.71549  0.33719  Biso   1.000  H
  H2049    1.0000 0.15962  0.65928  0.35391  Biso   1.000  H
  C2151    1.0000 0.56393  0.81298  0.14432  Biso   1.000  C
  C2152    1.0000 0.47493  0.72102  0.15008  Biso   1.000  C
  C2153    1.0000 0.10945  0.69631  0.61471  Biso   1.000  C
  H2050    1.0000 0.29549  0.72248  0.47999  Biso   1.000  H
  H2051    1.0000 0.21012  0.75159  0.48843  Biso   1.000  H
  H2052    1.0000 0.29239  0.71089  0.44948  Biso   1.000  H
  H2053    1.0000 0.28961  0.63908  0.42069  Biso   1.000  H
  C2154    1.0000 0.17895  0.56130  0.78409  Biso   1.000  C
  C2155    1.0000 0.09913  0.64089  0.71650  Biso   1.000  C
  H2054    1.0000 0.34474  0.60469  0.79798  Biso   1.000  H
  H2055    1.0000 0.30574  0.66050  0.83642  Biso   1.000  H
  C2156    1.0000 0.39192  0.69499  0.78283  Biso   1.000  C
  H2056    1.0000 0.75854  0.54672  0.78000  Biso   1.000  H
  C2157    1.0000 0.75822  0.44922  0.79712  Biso   1.000  C
  H2057    1.0000 0.73501  0.35212  0.79798  Biso   1.000  H
  C2158    1.0000 0.94231  0.46390  0.72352  Biso   1.000  C
  H2058    1.0000 0.95352  0.24650  0.71413  Biso   1.000  H
  H2059    1.0000 0.88901  0.30320  0.71089  Biso   1.000  H
  H2060    1.0000 0.93686  0.23750  0.69392  Biso   1.000  H
  H2061    1.0000 0.98404  0.22341  0.63320  Biso   1.000  H
  H2062    1.0000 0.16995  0.49741  0.92098  Biso   1.000  H
  H2063    1.0000 0.22893  0.46160  0.87951  Biso   1.000  H
  C2159    1.0000 0.17295  0.39942  0.93629  Biso   1.000  C
  C2160    1.0000 0.03346  0.55352  0.75908  Biso   1.000  C
  H2064    1.0000 0.46964  0.12959  0.93750  Biso   1.000  H
  C2161    1.0000 0.55172  0.20311  0.94250  Biso   1.000  C
  H2065    1.0000 0.61826  0.28309  0.92780  Biso   1.000  H
  C2162    1.0000 0.76229  0.71642  0.57319  Biso   1.000  C
  H2066    1.0000 0.35704  0.45108  0.30132  Biso   1.000  H
  C2163    1.0000 0.26929  0.49188  0.23272  Biso   1.000  C
  C2164    1.0000 0.28353  0.60840  0.22191  Biso   1.000  C
  H2067    1.0000 0.38061  0.64568  0.28329  Biso   1.000  H
  H2068    1.0000 0.60950  0.83700  0.16240  Biso   1.000  H
  C2165    1.0000 0.51652  0.83289  0.08451  Biso   1.000  C
  C2166    1.0000 0.42752  0.74102  0.09032  Biso   1.000  C
  H2069    1.0000 0.46100  0.68359  0.17210  Biso   1.000  H
  O342     1.0000 0.09515  0.69959  0.67942  Biso   1.000  O
  H2070    1.0000 0.09600  0.65258  0.59749  Biso   1.000  H
  H2071    1.0000 0.07339  0.72669  0.58749  Biso   1.000  H
  H2072    1.0000 0.22884  0.54408  0.80349  Biso   1.000  H
  C2167    1.0000 0.03222  0.60620  0.72413  Biso   1.000  C
  H2073    1.0000 0.40523  0.68711  0.73802  Biso   1.000  H
  H2074    1.0000 0.37276  0.73970  0.78409  Biso   1.000  H
  C2168    1.0000 0.46764  0.68721  0.83410  Biso   1.000  C
  H2075    1.0000 0.80465  0.44829  0.82970  Biso   1.000  H
  H2076    1.0000 0.96702  0.46859  0.68311  Biso   1.000  H
  H2077    1.0000 0.88381  0.46258  0.70978  Biso   1.000  H
  O343     1.0000 0.96222  0.51981  0.76509  Biso   1.000  O
  H2078    1.0000 0.22132  0.39840  0.97018  Biso   1.000  H
  H2079    1.0000 0.17383  0.36092  0.90810  Biso   1.000  H
  C2169    1.0000 0.10013  0.39619  0.97059  Biso   1.000  C
  H2080    1.0000 0.58352  0.18971  0.98251  Biso   1.000  H
  C2170    1.0000 0.83473  0.71808  0.63573  Biso   1.000  C
  H2081    1.0000 0.76523  0.75350  0.54349  Biso   1.000  H
  H2082    1.0000 0.70980  0.71642  0.58850  Biso   1.000  H
  H2083    1.0000 0.24149  0.45328  0.21999  Biso   1.000  H
  C2171    1.0000 0.24182  0.55078  0.20292  Biso   1.000  C
  H2084    1.0000 0.26501  0.64788  0.20201  Biso   1.000  H
  H2085    1.0000 0.53039  0.87041  0.06249  Biso   1.000  H
  C2172    1.0000 0.44830  0.79689  0.05749  Biso   1.000  C
  H2086    1.0000 0.38182  0.71691  0.07219  Biso   1.000  H
  O344     1.0000 0.95901  0.62738  0.68589  Biso   1.000  O
  C2173    1.0000 0.52284  0.63790  0.82581  Biso   1.000  C
  C2174    1.0000 0.48654  0.73310  0.88532  Biso   1.000  C
  C2175    1.0000 0.02693  0.36870  0.94068  Biso   1.000  C
  C2176    1.0000 0.10636  0.42491  0.03398  Biso   1.000  C
  C2177    1.0000 0.81953  0.66750  0.68068  Biso   1.000  C
  H2087    1.0000 0.83642  0.76020  0.65810  Biso   1.000  H
  H2088    1.0000 0.88642  0.71089  0.62032  Biso   1.000  H
  H2089    1.0000 0.19543  0.55171  0.17028  Biso   1.000  H
  H2090    1.0000 0.41650  0.81029  0.01748  Biso   1.000  H
  C2178    1.0000 0.90234  0.65899  0.72782  Biso   1.000  C
  H2091    1.0000 0.51021  0.60718  0.79162  Biso   1.000  H
  C2179    1.0000 0.59682  0.63458  0.86880  Biso   1.000  C
  C2180    1.0000 0.56044  0.72982  0.92821  Biso   1.000  C
  H2092    1.0000 0.44962  0.76612  0.89083  Biso   1.000  H
  H2093    1.0000 0.02272  0.34948  0.89820  Biso   1.000  H
  C2181    1.0000 0.95994  0.37002  0.97433  Biso   1.000  C
  C2182    1.0000 0.03937  0.42618  0.06763  Biso   1.000  C
  H2094    1.0000 0.15536  0.44330  0.05399  Biso   1.000  H
  H2095    1.0000 0.77715  0.68022  0.70630  Biso   1.000  H
  H2096    1.0000 0.80355  0.62738  0.65639  Biso   1.000  H
  H2097    1.0000 0.89604  0.63159  0.76611  Biso   1.000  H
  H2098    1.0000 0.92344  0.70120  0.74448  Biso   1.000  H
  H2099    1.0000 0.63374  0.60160  0.86330  Biso   1.000  H
  C2183    1.0000 0.61566  0.68051  0.92002  Biso   1.000  C
  H2100    1.0000 0.57302  0.76049  0.96251  Biso   1.000  H
  H2101    1.0000 0.91094  0.35158  0.95432  Biso   1.000  H
  C2184    1.0000 0.96617  0.39869  0.03772  Biso   1.000  C
  H2102    1.0000 0.04352  0.44541  0.11011  Biso   1.000  H
  H2103    1.0000 0.66516  0.67831  0.94882  Biso   1.000  H
  H2104    1.0000 0.92133  0.39962  0.06020  Biso   1.000  H
