data_image0
_cell_length_a       11.314
_cell_length_b       11.314
_cell_length_c       36.7
_cell_angle_alpha    90
_cell_angle_beta     90
_cell_angle_gamma    120

_symmetry_space_group_name_H-M    "P 1"
_symmetry_int_tables_number       1

loop_
  _symmetry_equiv_pos_as_xyz
  'x, y, z'

loop_
  _atom_site_label
  _atom_site_occupancy
  _atom_site_fract_x
  _atom_site_fract_y
  _atom_site_fract_z
  _atom_site_thermal_displace_type
  _atom_site_B_iso_or_equiv
  _atom_site_type_symbol
  O1       1.0000 0.57565  0.91353  0.47913  Biso   1.000  O
  C1       1.0000 0.45213  0.78759  0.47850  Biso   1.000  C
  C2       1.0000 0.63145  0.96752  0.44684  Biso   1.000  C
  C3       1.0000 0.45792  0.66890  0.47866  Biso   1.000  C
  C4       1.0000 0.33109  0.78892  0.47866  Biso   1.000  C
  N1       1.0000 0.56845  0.90180  0.41670  Biso   1.000  N
  N2       1.0000 0.74780  0.08479  0.44913  Biso   1.000  N
  C5       1.0000 0.33544  0.54786  0.47850  Biso   1.000  C
  H1       1.0000 0.54084  0.67033  0.47891  Biso   1.000  H
  C6       1.0000 0.21240  0.66451  0.47850  Biso   1.000  C
  H2       1.0000 0.32961  0.87046  0.47891  Biso   1.000  H
  C7       1.0000 0.63423  0.96477  0.38649  Biso   1.000  C
  C8       1.0000 0.79964  0.13296  0.41670  Biso   1.000  C
  O2       1.0000 0.33790  0.42426  0.47913  Biso   1.000  O
  C9       1.0000 0.21100  0.54204  0.47866  Biso   1.000  C
  O3       1.0000 0.08638  0.66206  0.47913  Biso   1.000  O
  O4       1.0000 0.58030  0.90904  0.35420  Biso   1.000  O
  N3       1.0000 0.75145  0.08112  0.38420  Biso   1.000  N
  Cl1      1.0000 0.95268  0.28595  0.41670  Biso   1.000  Cl
  C10      1.0000 0.33606  0.36843  0.44684  Biso   1.000  C
  H3       1.0000 0.12948  0.45906  0.47891  Biso   1.000  H
  C11      1.0000 0.03241  0.66390  0.44684  Biso   1.000  C
  C12      1.0000 0.45424  0.78545  0.35482  Biso   1.000  C
  N4       1.0000 0.33331  0.43151  0.41670  Biso   1.000  N
  N5       1.0000 0.33698  0.25219  0.44913  Biso   1.000  N
  N6       1.0000 0.09822  0.66665  0.41670  Biso   1.000  N
  N7       1.0000 0.91519  0.66298  0.44913  Biso   1.000  N
  C13      1.0000 0.45568  0.66441  0.35466  Biso   1.000  C
  C14      1.0000 0.33557  0.79116  0.35466  Biso   1.000  C
  C15      1.0000 0.33053  0.36568  0.38649  Biso   1.000  C
  C16      1.0000 0.33328  0.20024  0.41670  Biso   1.000  C
  C17      1.0000 0.03516  0.66941  0.38649  Biso   1.000  C
  C18      1.0000 0.86700  0.66665  0.41670  Biso   1.000  C
  C19      1.0000 0.33119  0.54571  0.35482  Biso   1.000  C
  H4       1.0000 0.53711  0.66288  0.35444  Biso   1.000  H
  C20      1.0000 0.21455  0.66880  0.35482  Biso   1.000  C
  H5       1.0000 0.33707  0.87424  0.35444  Biso   1.000  H
  O5       1.0000 0.32871  0.41967  0.35420  Biso   1.000  O
  N8       1.0000 0.32967  0.24851  0.38420  Biso   1.000  N
  Cl2      1.0000 0.33324  0.04725  0.41670  Biso   1.000  Cl
  O6       1.0000 0.09097  0.67124  0.35420  Biso   1.000  O
  N9       1.0000 0.91886  0.67033  0.38420  Biso   1.000  N
  Cl3      1.0000 0.71400  0.66665  0.41670  Biso   1.000  Cl
  C21      1.0000 0.20877  0.54428  0.35466  Biso   1.000  C
  H6       1.0000 0.12580  0.46284  0.35444  Biso   1.000  H
  N10      1.0000 0.66301  0.74779  0.55087  Biso   1.000  N
  C22      1.0000 0.66387  0.63144  0.55316  Biso   1.000  C
  C23      1.0000 0.66666  0.79964  0.58330  Biso   1.000  C
  O7       1.0000 0.66209  0.57572  0.52087  Biso   1.000  O
  N11      1.0000 0.66668  0.56847  0.58330  Biso   1.000  N
  Cl4      1.0000 0.66666  0.95272  0.58330  Biso   1.000  Cl
  N12      1.0000 0.67032  0.75146  0.61580  Biso   1.000  N
  C24      1.0000 0.66446  0.45212  0.52150  Biso   1.000  C
  C25      1.0000 0.66941  0.63420  0.61351  Biso   1.000  C
  C26      1.0000 0.54207  0.33108  0.52134  Biso   1.000  C
  C27      1.0000 0.78893  0.45784  0.52134  Biso   1.000  C
  O8       1.0000 0.67122  0.58021  0.64580  Biso   1.000  O
  H7       1.0000 0.45910  0.32955  0.52109  Biso   1.000  H
  C28      1.0000 0.54786  0.21239  0.52150  Biso   1.000  C
  C29      1.0000 0.78759  0.33547  0.52150  Biso   1.000  C
  H8       1.0000 0.87051  0.54092  0.52109  Biso   1.000  H
  C30      1.0000 0.66880  0.45427  0.64518  Biso   1.000  C
  O9       1.0000 0.42434  0.08644  0.52087  Biso   1.000  O
  C31      1.0000 0.66885  0.21096  0.52134  Biso   1.000  C
  O10      1.0000 0.91361  0.33792  0.52087  Biso   1.000  O
  C32      1.0000 0.79122  0.45570  0.64534  Biso   1.000  C
  C33      1.0000 0.54431  0.33557  0.64534  Biso   1.000  C
  C34      1.0000 0.36848  0.03235  0.55316  Biso   1.000  C
  H9       1.0000 0.67038  0.12951  0.52109  Biso   1.000  H
  C35      1.0000 0.96758  0.33608  0.55316  Biso   1.000  C
  C36      1.0000 0.78544  0.33118  0.64518  Biso   1.000  C
  H10      1.0000 0.87419  0.53714  0.64556  Biso   1.000  H
  C37      1.0000 0.54566  0.21453  0.64518  Biso   1.000  C
  H11      1.0000 0.46288  0.33710  0.64556  Biso   1.000  H
  N13      1.0000 0.43145  0.09818  0.58330  Biso   1.000  N
  N14      1.0000 0.25219  0.91519  0.55087  Biso   1.000  N
  N15      1.0000 0.90177  0.33333  0.58330  Biso   1.000  N
  N16      1.0000 0.08489  0.33700  0.55087  Biso   1.000  N
  O11      1.0000 0.90902  0.32873  0.64580  Biso   1.000  O
  C38      1.0000 0.66437  0.20871  0.64534  Biso   1.000  C
  O12      1.0000 0.41969  0.09093  0.64580  Biso   1.000  O
  C39      1.0000 0.36576  0.03521  0.61351  Biso   1.000  C
  C40      1.0000 0.20026  0.86702  0.58330  Biso   1.000  C
  C41      1.0000 0.96483  0.33057  0.61351  Biso   1.000  C
  C42      1.0000 0.13299  0.33333  0.58330  Biso   1.000  C
  H12      1.0000 0.66292  0.12574  0.64556  Biso   1.000  H
  N17      1.0000 0.24854  0.91886  0.61580  Biso   1.000  N
  Cl5      1.0000 0.04726  0.71393  0.58330  Biso   1.000  Cl
  N18      1.0000 0.08121  0.32965  0.61580  Biso   1.000  N
  Cl6      1.0000 0.28598  0.33333  0.58330  Biso   1.000  Cl
  O13      1.0000 0.75302  0.75759  0.31245  Biso   1.000  O
  C43      1.0000 0.69908  0.70186  0.28019  Biso   1.000  C
  C44      1.0000 0.69903  0.70176  0.28019  Biso   1.000  C
  C45      1.0000 0.87907  0.88118  0.31183  Biso   1.000  C
  C46      1.0000 0.87899  0.88118  0.31183  Biso   1.000  C
  N19      1.0000 0.58187  0.58552  0.28248  Biso   1.000  N
  N20      1.0000 0.58178  0.58552  0.28248  Biso   1.000  N
  N21      1.0000 0.76486  0.76483  0.24997  Biso   1.000  N
  N22      1.0000 0.76477  0.76483  0.24997  Biso   1.000  N
  O14      1.0000 0.75311  0.75759  0.31245  Biso   1.000  O
  C47      1.0000 0.99775  0.87547  0.31202  Biso   1.000  C
  C48      1.0000 0.99778  0.87536  0.31202  Biso   1.000  C
  C49      1.0000 0.99770  0.87536  0.31202  Biso   1.000  C
  C50      1.0000 0.87764  0.00222  0.31202  Biso   1.000  C
  C51      1.0000 0.53358  0.53367  0.24997  Biso   1.000  C
  C52      1.0000 0.53367  0.53367  0.24997  Biso   1.000  C
  C53      1.0000 0.70186  0.69911  0.21981  Biso   1.000  C
  C54      1.0000 0.70181  0.69901  0.21981  Biso   1.000  C
  C55      1.0000 0.70177  0.69911  0.21981  Biso   1.000  C
  H13      1.0000 0.99625  0.79239  0.31223  Biso   1.000  H
  H14      1.0000 0.99616  0.79239  0.31223  Biso   1.000  H
  C56      1.0000 0.11877  0.99784  0.31183  Biso   1.000  C
  C57      1.0000 0.11886  0.99784  0.31183  Biso   1.000  C
  H15      1.0000 0.79620  0.00375  0.31223  Biso   1.000  H
  H16      1.0000 0.79606  0.00365  0.31223  Biso   1.000  H
  H17      1.0000 0.79611  0.00375  0.31223  Biso   1.000  H
  H18      1.0000 0.79615  0.00365  0.31223  Biso   1.000  H
  C58      1.0000 0.00212  0.12092  0.31183  Biso   1.000  C
  C59      1.0000 0.00221  0.12092  0.31183  Biso   1.000  C
  Cl7      1.0000 0.38064  0.38068  0.24997  Biso   1.000  Cl
  N23      1.0000 0.58551  0.58184  0.21752  Biso   1.000  N
  Cl8      1.0000 0.38059  0.38058  0.24997  Biso   1.000  Cl
  Cl9      1.0000 0.38055  0.38068  0.24997  Biso   1.000  Cl
  O15      1.0000 0.75767  0.75310  0.18755  Biso   1.000  O
  O16      1.0000 0.75762  0.75299  0.18755  Biso   1.000  O
  O17      1.0000 0.75758  0.75310  0.18755  Biso   1.000  O
  O18      1.0000 0.24235  0.99539  0.31245  Biso   1.000  O
  O19      1.0000 0.24243  0.99539  0.31245  Biso   1.000  O
  C60      1.0000 0.12455  0.12235  0.31202  Biso   1.000  C
  C61      1.0000 0.12458  0.12225  0.31202  Biso   1.000  C
  C62      1.0000 0.12464  0.12235  0.31202  Biso   1.000  C
  C63      1.0000 0.12450  0.12225  0.31202  Biso   1.000  C
  O20      1.0000 0.00455  0.24686  0.31245  Biso   1.000  O
  C64      1.0000 0.88118  0.87904  0.18817  Biso   1.000  C
  C65      1.0000 0.88127  0.87904  0.18817  Biso   1.000  C
  C66      1.0000 0.29815  0.99722  0.28019  Biso   1.000  C
  H19      1.0000 0.20752  0.20379  0.31223  Biso   1.000  H
  H20      1.0000 0.20761  0.20379  0.31223  Biso   1.000  H
  C67      1.0000 0.00273  0.30085  0.28019  Biso   1.000  C
  C68      1.0000 0.00264  0.30085  0.28019  Biso   1.000  C
  C69      1.0000 0.87539  0.99773  0.18798  Biso   1.000  C
  C70      1.0000 0.87548  0.99773  0.18798  Biso   1.000  C
  C71      1.0000 0.00218  0.87761  0.18798  Biso   1.000  C
  C72      1.0000 0.00227  0.87761  0.18798  Biso   1.000  C
  N24      1.0000 0.23513  0.99988  0.24997  Biso   1.000  N
  N25      1.0000 0.23510  0.99998  0.24997  Biso   1.000  N
  N26      1.0000 0.23518  0.99998  0.24997  Biso   1.000  N
  N27      1.0000 0.41445  0.99630  0.28248  Biso   1.000  N
  N28      1.0000 0.41454  0.99630  0.28248  Biso   1.000  N
  N29      1.0000 0.00001  0.23512  0.24997  Biso   1.000  N
  N30      1.0000 0.00010  0.23512  0.24997  Biso   1.000  N
  N31      1.0000 0.00365  0.41812  0.28248  Biso   1.000  N
  H21      1.0000 0.79243  0.99620  0.18777  Biso   1.000  H
  H22      1.0000 0.79234  0.99620  0.18777  Biso   1.000  H
  C73      1.0000 0.99787  0.11878  0.18817  Biso   1.000  C
  C74      1.0000 0.99773  0.11867  0.18817  Biso   1.000  C
  C75      1.0000 0.99778  0.11878  0.18817  Biso   1.000  C
  H23      1.0000 0.00370  0.79617  0.18777  Biso   1.000  H
  H24      1.0000 0.00379  0.79617  0.18777  Biso   1.000  H
  C76      1.0000 0.12091  0.00212  0.18817  Biso   1.000  C
  C77      1.0000 0.30091  0.00273  0.21981  Biso   1.000  C
  C78      1.0000 0.46626  0.99988  0.24997  Biso   1.000  C
  C79      1.0000 0.46635  0.99988  0.24997  Biso   1.000  C
  C80      1.0000 0.46631  0.99998  0.24997  Biso   1.000  C
  C81      1.0000 0.99720  0.29809  0.21981  Biso   1.000  C
  C82      1.0000 0.99711  0.29809  0.21981  Biso   1.000  C
  C83      1.0000 0.99998  0.46629  0.24997  Biso   1.000  C
  C84      1.0000 0.00007  0.46629  0.24997  Biso   1.000  C
  O21      1.0000 0.99541  0.24237  0.18755  Biso   1.000  O
  O22      1.0000 0.99536  0.24227  0.18755  Biso   1.000  O
  C85      1.0000 0.12226  0.12449  0.18798  Biso   1.000  C
  C86      1.0000 0.12235  0.12449  0.18798  Biso   1.000  C
  O23      1.0000 0.24694  0.00457  0.18755  Biso   1.000  O
  N32      1.0000 0.41812  0.00365  0.21752  Biso   1.000  N
  N33      1.0000 0.41804  0.00365  0.21752  Biso   1.000  N
  Cl10     1.0000 0.61935  0.99988  0.24997  Biso   1.000  Cl
  Cl11     1.0000 0.61931  0.99998  0.24997  Biso   1.000  Cl
  Cl12     1.0000 0.61940  0.99998  0.24997  Biso   1.000  Cl
  N34      1.0000 0.99633  0.41444  0.21752  Biso   1.000  N
  N35      1.0000 0.99624  0.41444  0.21752  Biso   1.000  N
  Cl13     1.0000 0.00007  0.61938  0.24997  Biso   1.000  Cl
  Cl14     1.0000 0.99998  0.61938  0.24997  Biso   1.000  Cl
  H25      1.0000 0.20384  0.20757  0.18777  Biso   1.000  H
  H26      1.0000 0.20379  0.20747  0.18777  Biso   1.000  H
  O24      1.0000 0.75302  0.75759  0.31245  Biso   1.000  O
  C87      1.0000 0.69908  0.70186  0.28019  Biso   1.000  C
  C88      1.0000 0.69903  0.70176  0.28019  Biso   1.000  C
  C89      1.0000 0.87907  0.88118  0.31183  Biso   1.000  C
  C90      1.0000 0.87899  0.88118  0.31183  Biso   1.000  C
  N36      1.0000 0.58187  0.58552  0.28248  Biso   1.000  N
  N37      1.0000 0.58178  0.58552  0.28248  Biso   1.000  N
  N38      1.0000 0.76486  0.76483  0.24997  Biso   1.000  N
  N39      1.0000 0.76477  0.76483  0.24997  Biso   1.000  N
  O25      1.0000 0.75311  0.75759  0.31245  Biso   1.000  O
  C91      1.0000 0.99775  0.87547  0.31202  Biso   1.000  C
  C92      1.0000 0.99778  0.87536  0.31202  Biso   1.000  C
  C93      1.0000 0.99770  0.87536  0.31202  Biso   1.000  C
  C94      1.0000 0.87764  0.00222  0.31202  Biso   1.000  C
  C95      1.0000 0.53358  0.53367  0.24997  Biso   1.000  C
  C96      1.0000 0.53367  0.53367  0.24997  Biso   1.000  C
  C97      1.0000 0.70181  0.69901  0.21981  Biso   1.000  C
  C98      1.0000 0.70186  0.69911  0.21981  Biso   1.000  C
  C99      1.0000 0.70177  0.69911  0.21981  Biso   1.000  C
  H27      1.0000 0.99625  0.79239  0.31223  Biso   1.000  H
  H28      1.0000 0.99616  0.79239  0.31223  Biso   1.000  H
  C100     1.0000 0.11877  0.99784  0.31183  Biso   1.000  C
  C101     1.0000 0.11886  0.99784  0.31183  Biso   1.000  C
  H29      1.0000 0.79620  0.00375  0.31223  Biso   1.000  H
  H30      1.0000 0.79606  0.00365  0.31223  Biso   1.000  H
  H31      1.0000 0.79611  0.00375  0.31223  Biso   1.000  H
  H32      1.0000 0.79615  0.00365  0.31223  Biso   1.000  H
  C102     1.0000 0.00212  0.12092  0.31183  Biso   1.000  C
  C103     1.0000 0.00221  0.12092  0.31183  Biso   1.000  C
  N40      1.0000 0.58551  0.58184  0.21752  Biso   1.000  N
  Cl15     1.0000 0.38059  0.38058  0.24997  Biso   1.000  Cl
  Cl16     1.0000 0.38064  0.38068  0.24997  Biso   1.000  Cl
  Cl17     1.0000 0.38055  0.38068  0.24997  Biso   1.000  Cl
  O26      1.0000 0.75762  0.75299  0.18755  Biso   1.000  O
  O27      1.0000 0.75767  0.75310  0.18755  Biso   1.000  O
  O28      1.0000 0.75758  0.75310  0.18755  Biso   1.000  O
  O29      1.0000 0.24235  0.99539  0.31245  Biso   1.000  O
  O30      1.0000 0.24243  0.99539  0.31245  Biso   1.000  O
  C104     1.0000 0.12455  0.12235  0.31202  Biso   1.000  C
  C105     1.0000 0.12458  0.12225  0.31202  Biso   1.000  C
  C106     1.0000 0.12464  0.12235  0.31202  Biso   1.000  C
  C107     1.0000 0.12450  0.12225  0.31202  Biso   1.000  C
  O31      1.0000 0.00455  0.24686  0.31245  Biso   1.000  O
  C108     1.0000 0.88118  0.87904  0.18817  Biso   1.000  C
  C109     1.0000 0.88127  0.87904  0.18817  Biso   1.000  C
  C110     1.0000 0.29815  0.99722  0.28019  Biso   1.000  C
  H33      1.0000 0.20752  0.20379  0.31223  Biso   1.000  H
  H34      1.0000 0.20761  0.20379  0.31223  Biso   1.000  H
  C111     1.0000 0.00273  0.30085  0.28019  Biso   1.000  C
  C112     1.0000 0.00264  0.30085  0.28019  Biso   1.000  C
  C113     1.0000 0.87539  0.99773  0.18798  Biso   1.000  C
  C114     1.0000 0.87548  0.99773  0.18798  Biso   1.000  C
  C115     1.0000 0.00218  0.87761  0.18798  Biso   1.000  C
  C116     1.0000 0.00227  0.87761  0.18798  Biso   1.000  C
  N41      1.0000 0.23513  0.99988  0.24997  Biso   1.000  N
  N42      1.0000 0.23510  0.99998  0.24997  Biso   1.000  N
  N43      1.0000 0.23518  0.99998  0.24997  Biso   1.000  N
  N44      1.0000 0.41445  0.99630  0.28248  Biso   1.000  N
  N45      1.0000 0.41454  0.99630  0.28248  Biso   1.000  N
  N46      1.0000 0.00001  0.23512  0.24997  Biso   1.000  N
  N47      1.0000 0.00010  0.23512  0.24997  Biso   1.000  N
  N48      1.0000 0.00365  0.41812  0.28248  Biso   1.000  N
  H35      1.0000 0.79243  0.99620  0.18777  Biso   1.000  H
  H36      1.0000 0.79234  0.99620  0.18777  Biso   1.000  H
  C117     1.0000 0.99787  0.11878  0.18817  Biso   1.000  C
  C118     1.0000 0.99773  0.11867  0.18817  Biso   1.000  C
  C119     1.0000 0.99778  0.11878  0.18817  Biso   1.000  C
  H37      1.0000 0.00370  0.79617  0.18777  Biso   1.000  H
  H38      1.0000 0.00379  0.79617  0.18777  Biso   1.000  H
  C120     1.0000 0.12091  0.00212  0.18817  Biso   1.000  C
  C121     1.0000 0.30091  0.00273  0.21981  Biso   1.000  C
  C122     1.0000 0.46626  0.99988  0.24997  Biso   1.000  C
  C123     1.0000 0.46635  0.99988  0.24997  Biso   1.000  C
  C124     1.0000 0.46631  0.99998  0.24997  Biso   1.000  C
  C125     1.0000 0.99720  0.29809  0.21981  Biso   1.000  C
  C126     1.0000 0.99711  0.29809  0.21981  Biso   1.000  C
  C127     1.0000 0.99998  0.46629  0.24997  Biso   1.000  C
  C128     1.0000 0.00007  0.46629  0.24997  Biso   1.000  C
  O32      1.0000 0.99541  0.24237  0.18755  Biso   1.000  O
  O33      1.0000 0.99536  0.24227  0.18755  Biso   1.000  O
  C129     1.0000 0.12226  0.12449  0.18798  Biso   1.000  C
  C130     1.0000 0.12235  0.12449  0.18798  Biso   1.000  C
  O34      1.0000 0.24694  0.00457  0.18755  Biso   1.000  O
  N49      1.0000 0.41812  0.00365  0.21752  Biso   1.000  N
  N50      1.0000 0.41804  0.00365  0.21752  Biso   1.000  N
  Cl18     1.0000 0.61935  0.99988  0.24997  Biso   1.000  Cl
  Cl19     1.0000 0.61931  0.99998  0.24997  Biso   1.000  Cl
  Cl20     1.0000 0.61940  0.99998  0.24997  Biso   1.000  Cl
  N51      1.0000 0.99633  0.41444  0.21752  Biso   1.000  N
  N52      1.0000 0.99624  0.41444  0.21752  Biso   1.000  N
  Cl21     1.0000 0.00007  0.61938  0.24997  Biso   1.000  Cl
  Cl22     1.0000 0.99998  0.61938  0.24997  Biso   1.000  Cl
  H39      1.0000 0.20384  0.20757  0.18777  Biso   1.000  H
  H40      1.0000 0.20379  0.20747  0.18777  Biso   1.000  H
  O35      1.0000 0.75302  0.75759  0.31245  Biso   1.000  O
  C131     1.0000 0.69908  0.70186  0.28019  Biso   1.000  C
  C132     1.0000 0.69903  0.70176  0.28019  Biso   1.000  C
  C133     1.0000 0.87907  0.88118  0.31183  Biso   1.000  C
  C134     1.0000 0.87899  0.88118  0.31183  Biso   1.000  C
  N53      1.0000 0.58187  0.58552  0.28248  Biso   1.000  N
  N54      1.0000 0.58178  0.58552  0.28248  Biso   1.000  N
  N55      1.0000 0.76486  0.76483  0.24997  Biso   1.000  N
  N56      1.0000 0.76477  0.76483  0.24997  Biso   1.000  N
  O36      1.0000 0.75311  0.75759  0.31245  Biso   1.000  O
  C135     1.0000 0.99775  0.87547  0.31202  Biso   1.000  C
  C136     1.0000 0.99778  0.87536  0.31202  Biso   1.000  C
  C137     1.0000 0.99770  0.87536  0.31202  Biso   1.000  C
  C138     1.0000 0.87764  0.00222  0.31202  Biso   1.000  C
  C139     1.0000 0.53367  0.53367  0.24997  Biso   1.000  C
  C140     1.0000 0.53358  0.53367  0.24997  Biso   1.000  C
  C141     1.0000 0.70186  0.69911  0.21981  Biso   1.000  C
  C142     1.0000 0.70181  0.69901  0.21981  Biso   1.000  C
  C143     1.0000 0.70177  0.69911  0.21981  Biso   1.000  C
  H41      1.0000 0.99625  0.79239  0.31223  Biso   1.000  H
  H42      1.0000 0.99616  0.79239  0.31223  Biso   1.000  H
  C144     1.0000 0.11877  0.99784  0.31183  Biso   1.000  C
  C145     1.0000 0.11886  0.99784  0.31183  Biso   1.000  C
  H43      1.0000 0.79620  0.00375  0.31223  Biso   1.000  H
  H44      1.0000 0.79606  0.00365  0.31223  Biso   1.000  H
  H45      1.0000 0.79611  0.00375  0.31223  Biso   1.000  H
  H46      1.0000 0.79615  0.00365  0.31223  Biso   1.000  H
  C146     1.0000 0.00212  0.12092  0.31183  Biso   1.000  C
  C147     1.0000 0.00221  0.12092  0.31183  Biso   1.000  C
  N57      1.0000 0.58551  0.58184  0.21752  Biso   1.000  N
  Cl23     1.0000 0.38064  0.38068  0.24997  Biso   1.000  Cl
  Cl24     1.0000 0.38059  0.38058  0.24997  Biso   1.000  Cl
  Cl25     1.0000 0.38055  0.38068  0.24997  Biso   1.000  Cl
  O37      1.0000 0.75767  0.75310  0.18755  Biso   1.000  O
  O38      1.0000 0.75762  0.75299  0.18755  Biso   1.000  O
  O39      1.0000 0.75758  0.75310  0.18755  Biso   1.000  O
  O40      1.0000 0.24235  0.99539  0.31245  Biso   1.000  O
  O41      1.0000 0.24243  0.99539  0.31245  Biso   1.000  O
  C148     1.0000 0.12455  0.12235  0.31202  Biso   1.000  C
  C149     1.0000 0.12458  0.12225  0.31202  Biso   1.000  C
  C150     1.0000 0.12464  0.12235  0.31202  Biso   1.000  C
  C151     1.0000 0.12450  0.12225  0.31202  Biso   1.000  C
  O42      1.0000 0.00455  0.24686  0.31245  Biso   1.000  O
  C152     1.0000 0.88118  0.87904  0.18817  Biso   1.000  C
  C153     1.0000 0.88127  0.87904  0.18817  Biso   1.000  C
  C154     1.0000 0.29815  0.99722  0.28019  Biso   1.000  C
  H47      1.0000 0.20752  0.20379  0.31223  Biso   1.000  H
  H48      1.0000 0.20761  0.20379  0.31223  Biso   1.000  H
  C155     1.0000 0.00273  0.30085  0.28019  Biso   1.000  C
  C156     1.0000 0.00264  0.30085  0.28019  Biso   1.000  C
  C157     1.0000 0.87539  0.99773  0.18798  Biso   1.000  C
  C158     1.0000 0.87548  0.99773  0.18798  Biso   1.000  C
  C159     1.0000 0.00218  0.87761  0.18798  Biso   1.000  C
  C160     1.0000 0.00227  0.87761  0.18798  Biso   1.000  C
  N58      1.0000 0.23513  0.99988  0.24997  Biso   1.000  N
  N59      1.0000 0.23510  0.99998  0.24997  Biso   1.000  N
  N60      1.0000 0.23518  0.99998  0.24997  Biso   1.000  N
  N61      1.0000 0.41445  0.99630  0.28248  Biso   1.000  N
  N62      1.0000 0.41454  0.99630  0.28248  Biso   1.000  N
  N63      1.0000 0.00001  0.23512  0.24997  Biso   1.000  N
  N64      1.0000 0.00010  0.23512  0.24997  Biso   1.000  N
  N65      1.0000 0.00365  0.41812  0.28248  Biso   1.000  N
  H49      1.0000 0.79243  0.99620  0.18777  Biso   1.000  H
  H50      1.0000 0.79234  0.99620  0.18777  Biso   1.000  H
  C161     1.0000 0.99787  0.11878  0.18817  Biso   1.000  C
  C162     1.0000 0.99773  0.11867  0.18817  Biso   1.000  C
  C163     1.0000 0.99778  0.11878  0.18817  Biso   1.000  C
  H51      1.0000 0.00370  0.79617  0.18777  Biso   1.000  H
  H52      1.0000 0.00379  0.79617  0.18777  Biso   1.000  H
  C164     1.0000 0.12091  0.00212  0.18817  Biso   1.000  C
  C165     1.0000 0.30091  0.00273  0.21981  Biso   1.000  C
  C166     1.0000 0.46626  0.99988  0.24997  Biso   1.000  C
  C167     1.0000 0.46635  0.99988  0.24997  Biso   1.000  C
  C168     1.0000 0.46631  0.99998  0.24997  Biso   1.000  C
  C169     1.0000 0.99720  0.29809  0.21981  Biso   1.000  C
  C170     1.0000 0.99711  0.29809  0.21981  Biso   1.000  C
  C171     1.0000 0.99998  0.46629  0.24997  Biso   1.000  C
  C172     1.0000 0.00007  0.46629  0.24997  Biso   1.000  C
  O43      1.0000 0.99541  0.24237  0.18755  Biso   1.000  O
  O44      1.0000 0.99536  0.24227  0.18755  Biso   1.000  O
  C173     1.0000 0.12226  0.12449  0.18798  Biso   1.000  C
  C174     1.0000 0.12235  0.12449  0.18798  Biso   1.000  C
  O45      1.0000 0.24694  0.00457  0.18755  Biso   1.000  O
  N66      1.0000 0.41812  0.00365  0.21752  Biso   1.000  N
  N67      1.0000 0.41804  0.00365  0.21752  Biso   1.000  N
  Cl26     1.0000 0.61935  0.99988  0.24997  Biso   1.000  Cl
  Cl27     1.0000 0.61931  0.99998  0.24997  Biso   1.000  Cl
  Cl28     1.0000 0.61940  0.99998  0.24997  Biso   1.000  Cl
  N68      1.0000 0.99633  0.41444  0.21752  Biso   1.000  N
  N69      1.0000 0.99624  0.41444  0.21752  Biso   1.000  N
  Cl29     1.0000 0.00007  0.61938  0.24997  Biso   1.000  Cl
  Cl30     1.0000 0.99998  0.61938  0.24997  Biso   1.000  Cl
  H53      1.0000 0.20384  0.20757  0.18777  Biso   1.000  H
  H54      1.0000 0.20379  0.20747  0.18777  Biso   1.000  H
  O46      1.0000 0.75302  0.75759  0.31245  Biso   1.000  O
  C175     1.0000 0.69908  0.70186  0.28019  Biso   1.000  C
  C176     1.0000 0.69903  0.70176  0.28019  Biso   1.000  C
  C177     1.0000 0.87907  0.88118  0.31183  Biso   1.000  C
  C178     1.0000 0.87899  0.88118  0.31183  Biso   1.000  C
  N70      1.0000 0.58187  0.58552  0.28248  Biso   1.000  N
  N71      1.0000 0.58178  0.58552  0.28248  Biso   1.000  N
  N72      1.0000 0.76486  0.76483  0.24997  Biso   1.000  N
  N73      1.0000 0.76477  0.76483  0.24997  Biso   1.000  N
  O47      1.0000 0.75311  0.75759  0.31245  Biso   1.000  O
  C179     1.0000 0.99775  0.87547  0.31202  Biso   1.000  C
  C180     1.0000 0.99778  0.87536  0.31202  Biso   1.000  C
  C181     1.0000 0.99770  0.87536  0.31202  Biso   1.000  C
  C182     1.0000 0.87764  0.00222  0.31202  Biso   1.000  C
  C183     1.0000 0.53367  0.53367  0.24997  Biso   1.000  C
  C184     1.0000 0.53358  0.53367  0.24997  Biso   1.000  C
  C185     1.0000 0.70186  0.69911  0.21981  Biso   1.000  C
  C186     1.0000 0.70181  0.69901  0.21981  Biso   1.000  C
  C187     1.0000 0.70177  0.69911  0.21981  Biso   1.000  C
  H55      1.0000 0.99625  0.79239  0.31223  Biso   1.000  H
  H56      1.0000 0.99616  0.79239  0.31223  Biso   1.000  H
  C188     1.0000 0.11877  0.99784  0.31183  Biso   1.000  C
  C189     1.0000 0.11886  0.99784  0.31183  Biso   1.000  C
  H57      1.0000 0.79620  0.00375  0.31223  Biso   1.000  H
  H58      1.0000 0.79606  0.00365  0.31223  Biso   1.000  H
  H59      1.0000 0.79611  0.00375  0.31223  Biso   1.000  H
  H60      1.0000 0.79615  0.00365  0.31223  Biso   1.000  H
  C190     1.0000 0.00212  0.12092  0.31183  Biso   1.000  C
  C191     1.0000 0.00221  0.12092  0.31183  Biso   1.000  C
  N74      1.0000 0.58551  0.58184  0.21752  Biso   1.000  N
  Cl31     1.0000 0.38064  0.38068  0.24997  Biso   1.000  Cl
  Cl32     1.0000 0.38059  0.38058  0.24997  Biso   1.000  Cl
  Cl33     1.0000 0.38055  0.38068  0.24997  Biso   1.000  Cl
  O48      1.0000 0.75767  0.75310  0.18755  Biso   1.000  O
  O49      1.0000 0.75762  0.75299  0.18755  Biso   1.000  O
  O50      1.0000 0.75758  0.75310  0.18755  Biso   1.000  O
  O51      1.0000 0.24235  0.99539  0.31245  Biso   1.000  O
  O52      1.0000 0.24243  0.99539  0.31245  Biso   1.000  O
  C192     1.0000 0.12455  0.12235  0.31202  Biso   1.000  C
  C193     1.0000 0.12458  0.12225  0.31202  Biso   1.000  C
  C194     1.0000 0.12464  0.12235  0.31202  Biso   1.000  C
  C195     1.0000 0.12450  0.12225  0.31202  Biso   1.000  C
  O53      1.0000 0.00455  0.24686  0.31245  Biso   1.000  O
  C196     1.0000 0.88118  0.87904  0.18817  Biso   1.000  C
  C197     1.0000 0.88127  0.87904  0.18817  Biso   1.000  C
  C198     1.0000 0.29815  0.99722  0.28019  Biso   1.000  C
  H61      1.0000 0.20752  0.20379  0.31223  Biso   1.000  H
  H62      1.0000 0.20761  0.20379  0.31223  Biso   1.000  H
  C199     1.0000 0.00273  0.30085  0.28019  Biso   1.000  C
  C200     1.0000 0.00264  0.30085  0.28019  Biso   1.000  C
  C201     1.0000 0.87539  0.99773  0.18798  Biso   1.000  C
  C202     1.0000 0.87548  0.99773  0.18798  Biso   1.000  C
  C203     1.0000 0.00218  0.87761  0.18798  Biso   1.000  C
  C204     1.0000 0.00227  0.87761  0.18798  Biso   1.000  C
  N75      1.0000 0.23513  0.99988  0.24997  Biso   1.000  N
  N76      1.0000 0.23510  0.99998  0.24997  Biso   1.000  N
  N77      1.0000 0.23518  0.99998  0.24997  Biso   1.000  N
  N78      1.0000 0.41445  0.99630  0.28248  Biso   1.000  N
  N79      1.0000 0.41454  0.99630  0.28248  Biso   1.000  N
  N80      1.0000 0.00001  0.23512  0.24997  Biso   1.000  N
  N81      1.0000 0.00010  0.23512  0.24997  Biso   1.000  N
  N82      1.0000 0.00365  0.41812  0.28248  Biso   1.000  N
  H63      1.0000 0.79243  0.99620  0.18777  Biso   1.000  H
  H64      1.0000 0.79234  0.99620  0.18777  Biso   1.000  H
  C205     1.0000 0.99787  0.11878  0.18817  Biso   1.000  C
  C206     1.0000 0.99773  0.11867  0.18817  Biso   1.000  C
  C207     1.0000 0.99778  0.11878  0.18817  Biso   1.000  C
  H65      1.0000 0.00370  0.79617  0.18777  Biso   1.000  H
  H66      1.0000 0.00379  0.79617  0.18777  Biso   1.000  H
  C208     1.0000 0.12091  0.00212  0.18817  Biso   1.000  C
  C209     1.0000 0.30091  0.00273  0.21981  Biso   1.000  C
  C210     1.0000 0.46626  0.99988  0.24997  Biso   1.000  C
  C211     1.0000 0.46635  0.99988  0.24997  Biso   1.000  C
  C212     1.0000 0.46631  0.99998  0.24997  Biso   1.000  C
  C213     1.0000 0.99720  0.29809  0.21981  Biso   1.000  C
  C214     1.0000 0.99711  0.29809  0.21981  Biso   1.000  C
  C215     1.0000 0.99998  0.46629  0.24997  Biso   1.000  C
  C216     1.0000 0.00007  0.46629  0.24997  Biso   1.000  C
  O54      1.0000 0.99541  0.24237  0.18755  Biso   1.000  O
  O55      1.0000 0.99536  0.24227  0.18755  Biso   1.000  O
  C217     1.0000 0.12226  0.12449  0.18798  Biso   1.000  C
  C218     1.0000 0.12235  0.12449  0.18798  Biso   1.000  C
  O56      1.0000 0.24694  0.00457  0.18755  Biso   1.000  O
  N83      1.0000 0.41812  0.00365  0.21752  Biso   1.000  N
  N84      1.0000 0.41804  0.00365  0.21752  Biso   1.000  N
  Cl34     1.0000 0.61935  0.99988  0.24997  Biso   1.000  Cl
  Cl35     1.0000 0.61931  0.99998  0.24997  Biso   1.000  Cl
  Cl36     1.0000 0.61940  0.99998  0.24997  Biso   1.000  Cl
  N85      1.0000 0.99633  0.41444  0.21752  Biso   1.000  N
  N86      1.0000 0.99624  0.41444  0.21752  Biso   1.000  N
  Cl37     1.0000 0.00007  0.61938  0.24997  Biso   1.000  Cl
  Cl38     1.0000 0.99998  0.61938  0.24997  Biso   1.000  Cl
  H67      1.0000 0.20384  0.20757  0.18777  Biso   1.000  H
  H68      1.0000 0.20379  0.20747  0.18777  Biso   1.000  H
  O57      1.0000 0.99543  0.75310  0.68755  Biso   1.000  O
  C219     1.0000 0.99785  0.87904  0.68817  Biso   1.000  C
  C220     1.0000 0.99777  0.87904  0.68817  Biso   1.000  C
  C221     1.0000 0.99725  0.69911  0.71981  Biso   1.000  C
  C222     1.0000 0.99720  0.69901  0.71981  Biso   1.000  C
  C223     1.0000 0.12234  0.99773  0.68798  Biso   1.000  C
  C224     1.0000 0.87543  0.87761  0.68798  Biso   1.000  C
  O58      1.0000 0.99538  0.75299  0.68755  Biso   1.000  O
  C225     1.0000 0.87534  0.87761  0.68798  Biso   1.000  C
  N87      1.0000 0.99997  0.76483  0.75003  Biso   1.000  N
  N88      1.0000 0.99633  0.58184  0.71752  Biso   1.000  N
  N89      1.0000 0.99988  0.76483  0.75003  Biso   1.000  N
  N90      1.0000 0.99624  0.58184  0.71752  Biso   1.000  N
  H69      1.0000 0.20378  0.99620  0.68777  Biso   1.000  H
  H70      1.0000 0.20386  0.99620  0.68777  Biso   1.000  H
  C226     1.0000 0.12090  0.11878  0.68817  Biso   1.000  C
  C227     1.0000 0.12094  0.11867  0.68817  Biso   1.000  C
  C228     1.0000 0.12099  0.11878  0.68817  Biso   1.000  C
  C229     1.0000 0.12085  0.11867  0.68817  Biso   1.000  C
  H71      1.0000 0.79246  0.79617  0.68777  Biso   1.000  H
  H72      1.0000 0.79237  0.79617  0.68777  Biso   1.000  H
  C230     1.0000 0.88121  0.00212  0.68817  Biso   1.000  C
  C231     1.0000 0.88112  0.00212  0.68817  Biso   1.000  C
  C232     1.0000 0.00278  0.70186  0.78019  Biso   1.000  C
  C233     1.0000 0.00273  0.70176  0.78019  Biso   1.000  C
  C234     1.0000 0.00282  0.70176  0.78019  Biso   1.000  C
  C235     1.0000 1.00000  0.53367  0.75003  Biso   1.000  C
  C236     1.0000 0.99995  0.53357  0.75003  Biso   1.000  C
  C237     1.0000 0.99991  0.53367  0.75003  Biso   1.000  C
  C238     1.0000 0.99986  0.53357  0.75003  Biso   1.000  C
  O59      1.0000 0.24696  0.24237  0.68755  Biso   1.000  O
  C239     1.0000 0.00223  0.12449  0.68798  Biso   1.000  C
  O60      1.0000 0.24691  0.24227  0.68755  Biso   1.000  O
  O61      1.0000 0.24682  0.24227  0.68755  Biso   1.000  O
  C240     1.0000 0.00214  0.12449  0.68798  Biso   1.000  C
  O62      1.0000 0.75763  0.00457  0.68755  Biso   1.000  O
  O63      1.0000 0.75754  0.00457  0.68755  Biso   1.000  O
  O64      1.0000 0.00457  0.75759  0.81245  Biso   1.000  O
  N91      1.0000 0.00365  0.58552  0.78248  Biso   1.000  N
  N92      1.0000 0.00374  0.58552  0.78248  Biso   1.000  N
  Cl39     1.0000 0.99991  0.38058  0.75003  Biso   1.000  Cl
  Cl40     1.0000 0.99999  0.38058  0.75003  Biso   1.000  Cl
  C241     1.0000 0.30089  0.29809  0.71981  Biso   1.000  C
  H73      1.0000 0.00373  0.20757  0.68777  Biso   1.000  H
  H74      1.0000 0.00368  0.20747  0.68777  Biso   1.000  H
  H75      1.0000 0.00382  0.20757  0.68777  Biso   1.000  H
  C242     1.0000 0.70183  0.00273  0.71981  Biso   1.000  C
  C243     1.0000 0.70174  0.00273  0.71981  Biso   1.000  C
  C244     1.0000 0.00211  0.88118  0.81183  Biso   1.000  C
  C245     1.0000 0.00220  0.88118  0.81183  Biso   1.000  C
  N93      1.0000 0.41811  0.41444  0.71752  Biso   1.000  N
  N94      1.0000 0.23512  0.23512  0.75003  Biso   1.000  N
  N95      1.0000 0.23520  0.23512  0.75003  Biso   1.000  N
  N96      1.0000 0.41820  0.41444  0.71752  Biso   1.000  N
  N97      1.0000 0.58553  0.00365  0.71752  Biso   1.000  N
  N98      1.0000 0.76488  0.99998  0.75003  Biso   1.000  N
  N99      1.0000 0.58544  0.00365  0.71752  Biso   1.000  N
  N100     1.0000 0.76479  0.99998  0.75003  Biso   1.000  N
  C246     1.0000 0.87772  0.87547  0.81202  Biso   1.000  C
  C247     1.0000 0.87767  0.87536  0.81202  Biso   1.000  C
  C248     1.0000 0.87763  0.87547  0.81202  Biso   1.000  C
  C249     1.0000 0.87758  0.87536  0.81202  Biso   1.000  C
  C250     1.0000 0.12459  0.00222  0.81202  Biso   1.000  C
  C251     1.0000 0.12450  0.00222  0.81202  Biso   1.000  C
  C252     1.0000 0.46631  0.46629  0.75003  Biso   1.000  C
  C253     1.0000 0.46639  0.46629  0.75003  Biso   1.000  C
  C254     1.0000 0.29812  0.30085  0.78019  Biso   1.000  C
  C255     1.0000 0.53366  0.99998  0.75003  Biso   1.000  C
  C256     1.0000 0.53358  0.99998  0.75003  Biso   1.000  C
  C257     1.0000 0.69907  0.99722  0.78019  Biso   1.000  C
  C258     1.0000 0.87907  0.99784  0.81183  Biso   1.000  C
  H76      1.0000 0.79614  0.79239  0.81223  Biso   1.000  H
  C259     1.0000 0.11879  0.12092  0.81183  Biso   1.000  C
  C260     1.0000 0.11871  0.12092  0.81183  Biso   1.000  C
  H77      1.0000 0.20755  0.00375  0.81223  Biso   1.000  H
  H78      1.0000 0.20750  0.00365  0.81223  Biso   1.000  H
  H79      1.0000 0.20764  0.00375  0.81223  Biso   1.000  H
  Cl41     1.0000 0.61934  0.61928  0.75003  Biso   1.000  Cl
  N101     1.0000 0.41447  0.41812  0.78248  Biso   1.000  N
  Cl42     1.0000 0.61943  0.61928  0.75003  Biso   1.000  Cl
  O65      1.0000 0.24231  0.24686  0.81245  Biso   1.000  O
  N102     1.0000 0.58185  0.99630  0.78248  Biso   1.000  N
  Cl43     1.0000 0.38067  0.99998  0.75003  Biso   1.000  Cl
  Cl44     1.0000 0.38058  0.99998  0.75003  Biso   1.000  Cl
  O66      1.0000 0.75304  0.99539  0.81245  Biso   1.000  O
  C261     1.0000 0.99780  0.12235  0.81202  Biso   1.000  C
  C262     1.0000 0.99766  0.12225  0.81202  Biso   1.000  C
  C263     1.0000 0.99771  0.12235  0.81202  Biso   1.000  C
  H80      1.0000 0.99627  0.20379  0.81223  Biso   1.000  H
  H81      1.0000 0.99619  0.20379  0.81223  Biso   1.000  H
  O67      1.0000 0.99543  0.75310  0.68755  Biso   1.000  O
  C264     1.0000 0.99785  0.87904  0.68817  Biso   1.000  C
  C265     1.0000 0.99777  0.87904  0.68817  Biso   1.000  C
  C266     1.0000 0.99725  0.69911  0.71981  Biso   1.000  C
  C267     1.0000 0.99720  0.69901  0.71981  Biso   1.000  C
  C268     1.0000 0.12234  0.99773  0.68798  Biso   1.000  C
  C269     1.0000 0.87543  0.87761  0.68798  Biso   1.000  C
  O68      1.0000 0.99538  0.75299  0.68755  Biso   1.000  O
  C270     1.0000 0.87534  0.87761  0.68798  Biso   1.000  C
  N103     1.0000 0.99997  0.76483  0.75003  Biso   1.000  N
  N104     1.0000 0.99633  0.58184  0.71752  Biso   1.000  N
  N105     1.0000 0.99988  0.76483  0.75003  Biso   1.000  N
  N106     1.0000 0.99624  0.58184  0.71752  Biso   1.000  N
  H82      1.0000 0.20378  0.99620  0.68777  Biso   1.000  H
  H83      1.0000 0.20386  0.99620  0.68777  Biso   1.000  H
  C271     1.0000 0.12090  0.11878  0.68817  Biso   1.000  C
  C272     1.0000 0.12094  0.11867  0.68817  Biso   1.000  C
  C273     1.0000 0.12099  0.11878  0.68817  Biso   1.000  C
  C274     1.0000 0.12085  0.11867  0.68817  Biso   1.000  C
  H84      1.0000 0.79246  0.79617  0.68777  Biso   1.000  H
  H85      1.0000 0.79237  0.79617  0.68777  Biso   1.000  H
  C275     1.0000 0.88121  0.00212  0.68817  Biso   1.000  C
  C276     1.0000 0.88112  0.00212  0.68817  Biso   1.000  C
  C277     1.0000 0.00278  0.70186  0.78019  Biso   1.000  C
  C278     1.0000 0.00273  0.70176  0.78019  Biso   1.000  C
  C279     1.0000 0.00282  0.70176  0.78019  Biso   1.000  C
  C280     1.0000 0.99995  0.53357  0.75003  Biso   1.000  C
  C281     1.0000 0.99991  0.53367  0.75003  Biso   1.000  C
  C282     1.0000 0.99986  0.53357  0.75003  Biso   1.000  C
  C283     1.0000 1.00000  0.53367  0.75003  Biso   1.000  C
  O69      1.0000 0.24696  0.24237  0.68755  Biso   1.000  O
  C284     1.0000 0.00223  0.12449  0.68798  Biso   1.000  C
  O70      1.0000 0.24691  0.24227  0.68755  Biso   1.000  O
  O71      1.0000 0.24682  0.24227  0.68755  Biso   1.000  O
  C285     1.0000 0.00214  0.12449  0.68798  Biso   1.000  C
  O72      1.0000 0.75763  0.00457  0.68755  Biso   1.000  O
  O73      1.0000 0.75754  0.00457  0.68755  Biso   1.000  O
  O74      1.0000 0.00457  0.75759  0.81245  Biso   1.000  O
  N107     1.0000 0.00365  0.58552  0.78248  Biso   1.000  N
  N108     1.0000 0.00374  0.58552  0.78248  Biso   1.000  N
  Cl45     1.0000 0.99991  0.38058  0.75003  Biso   1.000  Cl
  Cl46     1.0000 0.99999  0.38058  0.75003  Biso   1.000  Cl
  C286     1.0000 0.30089  0.29809  0.71981  Biso   1.000  C
  H86      1.0000 0.00373  0.20757  0.68777  Biso   1.000  H
  H87      1.0000 0.00368  0.20747  0.68777  Biso   1.000  H
  H88      1.0000 0.00382  0.20757  0.68777  Biso   1.000  H
  C287     1.0000 0.70183  0.00273  0.71981  Biso   1.000  C
  C288     1.0000 0.70174  0.00273  0.71981  Biso   1.000  C
  C289     1.0000 0.00220  0.88118  0.81183  Biso   1.000  C
  C290     1.0000 0.00211  0.88118  0.81183  Biso   1.000  C
  N109     1.0000 0.41811  0.41444  0.71752  Biso   1.000  N
  N110     1.0000 0.23512  0.23512  0.75003  Biso   1.000  N
  N111     1.0000 0.23520  0.23512  0.75003  Biso   1.000  N
  N112     1.0000 0.41820  0.41444  0.71752  Biso   1.000  N
  N113     1.0000 0.58553  0.00365  0.71752  Biso   1.000  N
  N114     1.0000 0.76488  0.99998  0.75003  Biso   1.000  N
  N115     1.0000 0.58544  0.00365  0.71752  Biso   1.000  N
  N116     1.0000 0.76479  0.99998  0.75003  Biso   1.000  N
  C291     1.0000 0.87772  0.87547  0.81202  Biso   1.000  C
  C292     1.0000 0.87767  0.87536  0.81202  Biso   1.000  C
  C293     1.0000 0.87763  0.87547  0.81202  Biso   1.000  C
  C294     1.0000 0.87758  0.87536  0.81202  Biso   1.000  C
  C295     1.0000 0.12459  0.00222  0.81202  Biso   1.000  C
  C296     1.0000 0.12450  0.00222  0.81202  Biso   1.000  C
  C297     1.0000 0.46631  0.46629  0.75003  Biso   1.000  C
  C298     1.0000 0.46639  0.46629  0.75003  Biso   1.000  C
  C299     1.0000 0.29812  0.30085  0.78019  Biso   1.000  C
  C300     1.0000 0.53366  0.99998  0.75003  Biso   1.000  C
  C301     1.0000 0.53358  0.99998  0.75003  Biso   1.000  C
  C302     1.0000 0.69907  0.99722  0.78019  Biso   1.000  C
  C303     1.0000 0.87907  0.99784  0.81183  Biso   1.000  C
  H89      1.0000 0.79614  0.79239  0.81223  Biso   1.000  H
  C304     1.0000 0.11879  0.12092  0.81183  Biso   1.000  C
  C305     1.0000 0.11871  0.12092  0.81183  Biso   1.000  C
  H90      1.0000 0.20755  0.00375  0.81223  Biso   1.000  H
  H91      1.0000 0.20750  0.00365  0.81223  Biso   1.000  H
  H92      1.0000 0.20764  0.00375  0.81223  Biso   1.000  H
  Cl47     1.0000 0.61934  0.61928  0.75003  Biso   1.000  Cl
  N117     1.0000 0.41447  0.41812  0.78248  Biso   1.000  N
  Cl48     1.0000 0.61943  0.61928  0.75003  Biso   1.000  Cl
  O75      1.0000 0.24231  0.24686  0.81245  Biso   1.000  O
  N118     1.0000 0.58185  0.99630  0.78248  Biso   1.000  N
  Cl49     1.0000 0.38067  0.99998  0.75003  Biso   1.000  Cl
  Cl50     1.0000 0.38058  0.99998  0.75003  Biso   1.000  Cl
  O76      1.0000 0.75304  0.99539  0.81245  Biso   1.000  O
  C306     1.0000 0.99780  0.12235  0.81202  Biso   1.000  C
  C307     1.0000 0.99766  0.12225  0.81202  Biso   1.000  C
  C308     1.0000 0.99771  0.12235  0.81202  Biso   1.000  C
  H93      1.0000 0.99627  0.20379  0.81223  Biso   1.000  H
  H94      1.0000 0.99619  0.20379  0.81223  Biso   1.000  H
  O77      1.0000 0.99543  0.75310  0.68755  Biso   1.000  O
  C309     1.0000 0.99785  0.87904  0.68817  Biso   1.000  C
  C310     1.0000 0.99777  0.87904  0.68817  Biso   1.000  C
  C311     1.0000 0.99725  0.69911  0.71981  Biso   1.000  C
  C312     1.0000 0.99720  0.69901  0.71981  Biso   1.000  C
  C313     1.0000 0.12234  0.99773  0.68798  Biso   1.000  C
  C314     1.0000 0.87543  0.87761  0.68798  Biso   1.000  C
  O78      1.0000 0.99538  0.75299  0.68755  Biso   1.000  O
  C315     1.0000 0.87534  0.87761  0.68798  Biso   1.000  C
  N119     1.0000 0.99997  0.76483  0.75003  Biso   1.000  N
  N120     1.0000 0.99633  0.58184  0.71752  Biso   1.000  N
  N121     1.0000 0.99988  0.76483  0.75003  Biso   1.000  N
  N122     1.0000 0.99624  0.58184  0.71752  Biso   1.000  N
  H95      1.0000 0.20378  0.99620  0.68777  Biso   1.000  H
  H96      1.0000 0.20386  0.99620  0.68777  Biso   1.000  H
  C316     1.0000 0.12090  0.11878  0.68817  Biso   1.000  C
  C317     1.0000 0.12094  0.11867  0.68817  Biso   1.000  C
  C318     1.0000 0.12099  0.11878  0.68817  Biso   1.000  C
  C319     1.0000 0.12085  0.11867  0.68817  Biso   1.000  C
  H97      1.0000 0.79246  0.79617  0.68777  Biso   1.000  H
  H98      1.0000 0.79237  0.79617  0.68777  Biso   1.000  H
  C320     1.0000 0.88121  0.00212  0.68817  Biso   1.000  C
  C321     1.0000 0.88112  0.00212  0.68817  Biso   1.000  C
  C322     1.0000 0.00278  0.70186  0.78019  Biso   1.000  C
  C323     1.0000 0.00273  0.70176  0.78019  Biso   1.000  C
  C324     1.0000 0.00282  0.70176  0.78019  Biso   1.000  C
  C325     1.0000 0.99995  0.53357  0.75003  Biso   1.000  C
  C326     1.0000 0.99991  0.53367  0.75003  Biso   1.000  C
  C327     1.0000 0.99986  0.53357  0.75003  Biso   1.000  C
  C328     1.0000 1.00000  0.53367  0.75003  Biso   1.000  C
  O79      1.0000 0.24696  0.24237  0.68755  Biso   1.000  O
  C329     1.0000 0.00223  0.12449  0.68798  Biso   1.000  C
  O80      1.0000 0.24691  0.24227  0.68755  Biso   1.000  O
  O81      1.0000 0.24682  0.24227  0.68755  Biso   1.000  O
  C330     1.0000 0.00214  0.12449  0.68798  Biso   1.000  C
  O82      1.0000 0.75763  0.00457  0.68755  Biso   1.000  O
  O83      1.0000 0.75754  0.00457  0.68755  Biso   1.000  O
  O84      1.0000 0.00457  0.75759  0.81245  Biso   1.000  O
  N123     1.0000 0.00365  0.58552  0.78248  Biso   1.000  N
  N124     1.0000 0.00374  0.58552  0.78248  Biso   1.000  N
  Cl51     1.0000 0.99991  0.38058  0.75003  Biso   1.000  Cl
  Cl52     1.0000 0.99999  0.38058  0.75003  Biso   1.000  Cl
  C331     1.0000 0.30089  0.29809  0.71981  Biso   1.000  C
  H99      1.0000 0.00373  0.20757  0.68777  Biso   1.000  H
  H100     1.0000 0.00368  0.20747  0.68777  Biso   1.000  H
  H101     1.0000 0.00382  0.20757  0.68777  Biso   1.000  H
  C332     1.0000 0.70183  0.00273  0.71981  Biso   1.000  C
  C333     1.0000 0.70174  0.00273  0.71981  Biso   1.000  C
  C334     1.0000 0.00220  0.88118  0.81183  Biso   1.000  C
  C335     1.0000 0.00211  0.88118  0.81183  Biso   1.000  C
  N125     1.0000 0.41811  0.41444  0.71752  Biso   1.000  N
  N126     1.0000 0.23512  0.23512  0.75003  Biso   1.000  N
  N127     1.0000 0.23520  0.23512  0.75003  Biso   1.000  N
  N128     1.0000 0.41820  0.41444  0.71752  Biso   1.000  N
  N129     1.0000 0.58553  0.00365  0.71752  Biso   1.000  N
  N130     1.0000 0.76488  0.99998  0.75003  Biso   1.000  N
  N131     1.0000 0.58544  0.00365  0.71752  Biso   1.000  N
  N132     1.0000 0.76479  0.99998  0.75003  Biso   1.000  N
  C336     1.0000 0.87772  0.87547  0.81202  Biso   1.000  C
  C337     1.0000 0.87767  0.87536  0.81202  Biso   1.000  C
  C338     1.0000 0.87763  0.87547  0.81202  Biso   1.000  C
  C339     1.0000 0.87758  0.87536  0.81202  Biso   1.000  C
  C340     1.0000 0.12459  0.00222  0.81202  Biso   1.000  C
  C341     1.0000 0.12450  0.00222  0.81202  Biso   1.000  C
  C342     1.0000 0.46631  0.46629  0.75003  Biso   1.000  C
  C343     1.0000 0.46639  0.46629  0.75003  Biso   1.000  C
  C344     1.0000 0.29812  0.30085  0.78019  Biso   1.000  C
  C345     1.0000 0.53366  0.99998  0.75003  Biso   1.000  C
  C346     1.0000 0.53358  0.99998  0.75003  Biso   1.000  C
  C347     1.0000 0.69907  0.99722  0.78019  Biso   1.000  C
  C348     1.0000 0.87907  0.99784  0.81183  Biso   1.000  C
  H102     1.0000 0.79614  0.79239  0.81223  Biso   1.000  H
  C349     1.0000 0.11879  0.12092  0.81183  Biso   1.000  C
  C350     1.0000 0.11871  0.12092  0.81183  Biso   1.000  C
  H103     1.0000 0.20755  0.00375  0.81223  Biso   1.000  H
  H104     1.0000 0.20750  0.00365  0.81223  Biso   1.000  H
  H105     1.0000 0.20764  0.00375  0.81223  Biso   1.000  H
  Cl53     1.0000 0.61934  0.61928  0.75003  Biso   1.000  Cl
  N133     1.0000 0.41447  0.41812  0.78248  Biso   1.000  N
  Cl54     1.0000 0.61943  0.61928  0.75003  Biso   1.000  Cl
  O85      1.0000 0.24231  0.24686  0.81245  Biso   1.000  O
  N134     1.0000 0.58185  0.99630  0.78248  Biso   1.000  N
  Cl55     1.0000 0.38067  0.99998  0.75003  Biso   1.000  Cl
  Cl56     1.0000 0.38058  0.99998  0.75003  Biso   1.000  Cl
  O86      1.0000 0.75304  0.99539  0.81245  Biso   1.000  O
  C351     1.0000 0.99780  0.12235  0.81202  Biso   1.000  C
  C352     1.0000 0.99766  0.12225  0.81202  Biso   1.000  C
  C353     1.0000 0.99771  0.12235  0.81202  Biso   1.000  C
  H106     1.0000 0.99627  0.20379  0.81223  Biso   1.000  H
  H107     1.0000 0.99619  0.20379  0.81223  Biso   1.000  H
  O87      1.0000 0.99543  0.75310  0.68755  Biso   1.000  O
  C354     1.0000 0.99785  0.87904  0.68817  Biso   1.000  C
  C355     1.0000 0.99777  0.87904  0.68817  Biso   1.000  C
  C356     1.0000 0.99725  0.69911  0.71981  Biso   1.000  C
  C357     1.0000 0.99720  0.69901  0.71981  Biso   1.000  C
  C358     1.0000 0.12234  0.99773  0.68798  Biso   1.000  C
  C359     1.0000 0.87543  0.87761  0.68798  Biso   1.000  C
  O88      1.0000 0.99538  0.75299  0.68755  Biso   1.000  O
  C360     1.0000 0.87534  0.87761  0.68798  Biso   1.000  C
  N135     1.0000 0.99997  0.76483  0.75003  Biso   1.000  N
  N136     1.0000 0.99633  0.58184  0.71752  Biso   1.000  N
  N137     1.0000 0.99988  0.76483  0.75003  Biso   1.000  N
  N138     1.0000 0.99624  0.58184  0.71752  Biso   1.000  N
  H108     1.0000 0.20378  0.99620  0.68777  Biso   1.000  H
  H109     1.0000 0.20386  0.99620  0.68777  Biso   1.000  H
  C361     1.0000 0.12090  0.11878  0.68817  Biso   1.000  C
  C362     1.0000 0.12094  0.11867  0.68817  Biso   1.000  C
  C363     1.0000 0.12099  0.11878  0.68817  Biso   1.000  C
  C364     1.0000 0.12085  0.11867  0.68817  Biso   1.000  C
  H110     1.0000 0.79246  0.79617  0.68777  Biso   1.000  H
  H111     1.0000 0.79237  0.79617  0.68777  Biso   1.000  H
  C365     1.0000 0.88121  0.00212  0.68817  Biso   1.000  C
  C366     1.0000 0.88112  0.00212  0.68817  Biso   1.000  C
  C367     1.0000 0.00278  0.70186  0.78019  Biso   1.000  C
  C368     1.0000 0.00273  0.70176  0.78019  Biso   1.000  C
  C369     1.0000 0.00282  0.70176  0.78019  Biso   1.000  C
  C370     1.0000 0.99995  0.53357  0.75003  Biso   1.000  C
  C371     1.0000 0.99991  0.53367  0.75003  Biso   1.000  C
  C372     1.0000 0.99986  0.53357  0.75003  Biso   1.000  C
  C373     1.0000 1.00000  0.53367  0.75003  Biso   1.000  C
  O89      1.0000 0.24696  0.24237  0.68755  Biso   1.000  O
  C374     1.0000 0.00223  0.12449  0.68798  Biso   1.000  C
  O90      1.0000 0.24691  0.24227  0.68755  Biso   1.000  O
  O91      1.0000 0.24682  0.24227  0.68755  Biso   1.000  O
  C375     1.0000 0.00214  0.12449  0.68798  Biso   1.000  C
  O92      1.0000 0.75763  0.00457  0.68755  Biso   1.000  O
  O93      1.0000 0.75754  0.00457  0.68755  Biso   1.000  O
  O94      1.0000 0.00457  0.75759  0.81245  Biso   1.000  O
  N139     1.0000 0.00365  0.58552  0.78248  Biso   1.000  N
  N140     1.0000 0.00374  0.58552  0.78248  Biso   1.000  N
  Cl57     1.0000 0.99991  0.38058  0.75003  Biso   1.000  Cl
  Cl58     1.0000 0.99999  0.38058  0.75003  Biso   1.000  Cl
  C376     1.0000 0.30089  0.29809  0.71981  Biso   1.000  C
  H112     1.0000 0.00373  0.20757  0.68777  Biso   1.000  H
  H113     1.0000 0.00368  0.20747  0.68777  Biso   1.000  H
  H114     1.0000 0.00382  0.20757  0.68777  Biso   1.000  H
  C377     1.0000 0.70183  0.00273  0.71981  Biso   1.000  C
  C378     1.0000 0.70174  0.00273  0.71981  Biso   1.000  C
  C379     1.0000 0.00211  0.88118  0.81183  Biso   1.000  C
  C380     1.0000 0.00220  0.88118  0.81183  Biso   1.000  C
  N141     1.0000 0.41811  0.41444  0.71752  Biso   1.000  N
  N142     1.0000 0.23512  0.23512  0.75003  Biso   1.000  N
  N143     1.0000 0.23520  0.23512  0.75003  Biso   1.000  N
  N144     1.0000 0.41820  0.41444  0.71752  Biso   1.000  N
  N145     1.0000 0.58553  0.00365  0.71752  Biso   1.000  N
  N146     1.0000 0.76488  0.99998  0.75003  Biso   1.000  N
  N147     1.0000 0.58544  0.00365  0.71752  Biso   1.000  N
  N148     1.0000 0.76479  0.99998  0.75003  Biso   1.000  N
  C381     1.0000 0.87772  0.87547  0.81202  Biso   1.000  C
  C382     1.0000 0.87767  0.87536  0.81202  Biso   1.000  C
  C383     1.0000 0.87763  0.87547  0.81202  Biso   1.000  C
  C384     1.0000 0.87758  0.87536  0.81202  Biso   1.000  C
  C385     1.0000 0.12459  0.00222  0.81202  Biso   1.000  C
  C386     1.0000 0.12450  0.00222  0.81202  Biso   1.000  C
  C387     1.0000 0.46631  0.46629  0.75003  Biso   1.000  C
  C388     1.0000 0.46639  0.46629  0.75003  Biso   1.000  C
  C389     1.0000 0.29812  0.30085  0.78019  Biso   1.000  C
  C390     1.0000 0.53366  0.99998  0.75003  Biso   1.000  C
  C391     1.0000 0.53358  0.99998  0.75003  Biso   1.000  C
  C392     1.0000 0.69907  0.99722  0.78019  Biso   1.000  C
  C393     1.0000 0.87907  0.99784  0.81183  Biso   1.000  C
  H115     1.0000 0.79614  0.79239  0.81223  Biso   1.000  H
  C394     1.0000 0.11879  0.12092  0.81183  Biso   1.000  C
  C395     1.0000 0.11871  0.12092  0.81183  Biso   1.000  C
  H116     1.0000 0.20755  0.00375  0.81223  Biso   1.000  H
  H117     1.0000 0.20750  0.00365  0.81223  Biso   1.000  H
  H118     1.0000 0.20764  0.00375  0.81223  Biso   1.000  H
  Cl59     1.0000 0.61934  0.61928  0.75003  Biso   1.000  Cl
  N149     1.0000 0.41447  0.41812  0.78248  Biso   1.000  N
  Cl60     1.0000 0.61943  0.61928  0.75003  Biso   1.000  Cl
  O95      1.0000 0.24231  0.24686  0.81245  Biso   1.000  O
  N150     1.0000 0.58185  0.99630  0.78248  Biso   1.000  N
  Cl61     1.0000 0.38067  0.99998  0.75003  Biso   1.000  Cl
  Cl62     1.0000 0.38058  0.99998  0.75003  Biso   1.000  Cl
  O96      1.0000 0.75304  0.99539  0.81245  Biso   1.000  O
  C396     1.0000 0.99780  0.12235  0.81202  Biso   1.000  C
  C397     1.0000 0.99766  0.12225  0.81202  Biso   1.000  C
  C398     1.0000 0.99771  0.12235  0.81202  Biso   1.000  C
  H119     1.0000 0.99627  0.20379  0.81223  Biso   1.000  H
  H120     1.0000 0.99619  0.20379  0.81223  Biso   1.000  H
  C399     1.0000 0.45560  0.79116  0.85466  Biso   1.000  C
  C400     1.0000 0.45425  0.66880  0.85482  Biso   1.000  C
  C401     1.0000 0.33121  0.78545  0.85482  Biso   1.000  C
  H121     1.0000 0.53717  0.87424  0.85444  Biso   1.000  H
  C402     1.0000 0.33551  0.54428  0.85466  Biso   1.000  C
  O97      1.0000 0.58028  0.67124  0.85420  Biso   1.000  O
  C403     1.0000 0.20873  0.66441  0.85466  Biso   1.000  C
  O98      1.0000 0.32875  0.90904  0.85420  Biso   1.000  O
  C404     1.0000 0.21452  0.54571  0.85482  Biso   1.000  C
  H122     1.0000 0.33704  0.46284  0.85444  Biso   1.000  H
  C405     1.0000 0.63424  0.66941  0.88649  Biso   1.000  C
  H123     1.0000 0.12576  0.66288  0.85444  Biso   1.000  H
  C406     1.0000 0.33054  0.96477  0.88649  Biso   1.000  C
  O99      1.0000 0.09095  0.41967  0.85420  Biso   1.000  O
  N151     1.0000 0.56843  0.66665  0.91670  Biso   1.000  N
  N152     1.0000 0.75146  0.67033  0.88420  Biso   1.000  N
  N153     1.0000 0.33335  0.90180  0.91670  Biso   1.000  N
  N154     1.0000 0.32967  0.08112  0.88420  Biso   1.000  N
  C407     1.0000 0.03515  0.36568  0.88649  Biso   1.000  C
  C408     1.0000 0.63149  0.66390  0.94684  Biso   1.000  C
  C409     1.0000 0.79965  0.66665  0.91670  Biso   1.000  C
  C410     1.0000 0.33607  0.96752  0.94684  Biso   1.000  C
  C411     1.0000 0.33332  0.13296  0.91670  Biso   1.000  C
  N155     1.0000 0.09820  0.43151  0.91670  Biso   1.000  N
  N156     1.0000 0.91885  0.24851  0.88420  Biso   1.000  N
  O100     1.0000 0.57568  0.66206  0.97913  Biso   1.000  O
  N157     1.0000 0.74779  0.66298  0.94913  Biso   1.000  N
  Cl63     1.0000 0.95265  0.66665  0.91670  Biso   1.000  Cl
  O101     1.0000 0.33789  0.91353  0.97913  Biso   1.000  O
  N158     1.0000 0.33699  0.08479  0.94913  Biso   1.000  N
  Cl64     1.0000 0.33327  0.28595  0.91670  Biso   1.000  Cl
  C412     1.0000 0.03237  0.36843  0.94684  Biso   1.000  C
  C413     1.0000 0.86696  0.20024  0.91670  Biso   1.000  C
  C414     1.0000 0.45211  0.66451  0.97850  Biso   1.000  C
  C415     1.0000 0.33546  0.78759  0.97850  Biso   1.000  C
  O102     1.0000 0.08636  0.42426  0.97913  Biso   1.000  O
  N159     1.0000 0.91521  0.25219  0.94913  Biso   1.000  N
  Cl65     1.0000 0.71401  0.04725  0.91670  Biso   1.000  Cl
  C416     1.0000 0.33103  0.54204  0.97866  Biso   1.000  C
  C417     1.0000 0.45783  0.78892  0.97866  Biso   1.000  C
  C418     1.0000 0.21097  0.66890  0.97866  Biso   1.000  C
  C419     1.0000 0.21241  0.54786  0.97850  Biso   1.000  C
  H124     1.0000 0.32958  0.45906  0.97891  Biso   1.000  H
  H125     1.0000 0.54085  0.87046  0.97891  Biso   1.000  H
  H126     1.0000 0.12949  0.67033  0.97891  Biso   1.000  H
  O103     1.0000 0.41971  0.32873  0.14580  Biso   1.000  O
  C420     1.0000 0.36574  0.33057  0.11351  Biso   1.000  C
  C421     1.0000 0.54574  0.33118  0.14518  Biso   1.000  C
  N160     1.0000 0.43147  0.33333  0.08330  Biso   1.000  N
  N161     1.0000 0.24853  0.32965  0.11580  Biso   1.000  N
  C422     1.0000 0.54425  0.20871  0.14534  Biso   1.000  C
  C423     1.0000 0.66439  0.45570  0.14534  Biso   1.000  C
  C424     1.0000 0.36850  0.33608  0.05316  Biso   1.000  C
  C425     1.0000 0.20034  0.33333  0.08330  Biso   1.000  C
  C426     1.0000 0.66878  0.21453  0.14518  Biso   1.000  C
  H127     1.0000 0.46282  0.12574  0.14556  Biso   1.000  H
  C427     1.0000 0.78538  0.45427  0.14518  Biso   1.000  C
  H128     1.0000 0.66286  0.53714  0.14556  Biso   1.000  H
  O104     1.0000 0.42431  0.33792  0.02087  Biso   1.000  O
  N162     1.0000 0.25220  0.33700  0.05087  Biso   1.000  N
  Cl66     1.0000 0.04725  0.33333  0.08330  Biso   1.000  Cl
  O105     1.0000 0.67115  0.09093  0.14580  Biso   1.000  O
  C428     1.0000 0.79117  0.33557  0.14534  Biso   1.000  C
  O106     1.0000 0.90898  0.58021  0.14580  Biso   1.000  O
  C429     1.0000 0.54788  0.33547  0.02150  Biso   1.000  C
  C430     1.0000 0.66945  0.03521  0.11351  Biso   1.000  C
  H129     1.0000 0.87423  0.33710  0.14556  Biso   1.000  H
  C431     1.0000 0.96479  0.63420  0.11351  Biso   1.000  C
  C432     1.0000 0.66882  0.45784  0.02134  Biso   1.000  C
  C433     1.0000 0.54202  0.21096  0.02134  Biso   1.000  C
  N163     1.0000 0.66664  0.09818  0.08330  Biso   1.000  N
  N164     1.0000 0.67032  0.91886  0.11580  Biso   1.000  N
  N165     1.0000 0.90179  0.56847  0.08330  Biso   1.000  N
  N166     1.0000 0.08114  0.75146  0.11580  Biso   1.000  N
  H130     1.0000 0.67040  0.54092  0.02109  Biso   1.000  H
  C434     1.0000 0.78758  0.45212  0.02150  Biso   1.000  C
  C435     1.0000 0.66444  0.21239  0.02150  Biso   1.000  C
  H131     1.0000 0.45905  0.12951  0.02109  Biso   1.000  H
  C436     1.0000 0.66387  0.03235  0.05316  Biso   1.000  C
  C437     1.0000 0.66667  0.86702  0.08330  Biso   1.000  C
  C438     1.0000 0.96757  0.63144  0.05316  Biso   1.000  C
  C439     1.0000 0.13298  0.79964  0.08330  Biso   1.000  C
  O107     1.0000 0.91354  0.57572  0.02087  Biso   1.000  O
  C440     1.0000 0.78893  0.33108  0.02134  Biso   1.000  C
  O108     1.0000 0.66210  0.08644  0.02087  Biso   1.000  O
  N167     1.0000 0.66300  0.91519  0.05087  Biso   1.000  N
  Cl67     1.0000 0.66667  0.71393  0.08330  Biso   1.000  Cl
  N168     1.0000 0.08478  0.74779  0.05087  Biso   1.000  N
  Cl68     1.0000 0.28607  0.95272  0.08330  Biso   1.000  Cl
  H132     1.0000 0.87045  0.32955  0.02109  Biso   1.000  H
