data_image0
_cell_length_a       20.59
_cell_length_b       20.59
_cell_length_c       24.977
_cell_angle_alpha    90
_cell_angle_beta     90
_cell_angle_gamma    120

_symmetry_space_group_name_H-M    "P 1"
_symmetry_int_tables_number       1

loop_
  _symmetry_equiv_pos_as_xyz
  'x, y, z'

loop_
  _atom_site_label
  _atom_site_occupancy
  _atom_site_fract_x
  _atom_site_fract_y
  _atom_site_fract_z
  _atom_site_thermal_displace_type
  _atom_site_B_iso_or_equiv
  _atom_site_type_symbol
  N1       1.0000 0.55377  0.48442  0.60544  Biso   1.000  N
  C1       1.0000 0.58540  0.44141  0.60872  Biso   1.000  C
  C2       1.0000 0.54813  0.50927  0.65268  Biso   1.000  C
  O1       1.0000 0.59218  0.41427  0.56164  Biso   1.000  O
  N2       1.0000 0.60690  0.42167  0.65260  Biso   1.000  N
  Cl1      1.0000 0.50823  0.56625  0.65324  Biso   1.000  Cl
  N3       1.0000 0.56750  0.49615  0.70012  Biso   1.000  N
  C3       1.0000 0.62998  0.37294  0.56220  Biso   1.000  C
  C4       1.0000 0.59618  0.45044  0.69672  Biso   1.000  C
  C5       1.0000 0.58799  0.29566  0.56208  Biso   1.000  C
  C6       1.0000 0.70766  0.41202  0.56208  Biso   1.000  C
  O2       1.0000 0.61391  0.43356  0.74408  Biso   1.000  O
  H1       1.0000 0.53475  0.27008  0.56188  Biso   1.000  H
  C7       1.0000 0.62708  0.25707  0.56220  Biso   1.000  C
  C8       1.0000 0.74295  0.37002  0.56220  Biso   1.000  C
  H2       1.0000 0.73534  0.46525  0.56188  Biso   1.000  H
  C9       1.0000 0.64077  0.38208  0.74376  Biso   1.000  C
  O3       1.0000 0.58572  0.17794  0.56164  Biso   1.000  O
  C10      1.0000 0.70436  0.29235  0.56208  Biso   1.000  C
  O4       1.0000 0.82207  0.40782  0.56164  Biso   1.000  O
  C11      1.0000 0.58916  0.30654  0.74392  Biso   1.000  C
  C12      1.0000 0.71737  0.41085  0.74392  Biso   1.000  C
  C13      1.0000 0.55857  0.14396  0.60872  Biso   1.000  C
  H3       1.0000 0.72994  0.26464  0.56188  Biso   1.000  H
  C14      1.0000 0.85602  0.41460  0.60872  Biso   1.000  C
  H4       1.0000 0.53675  0.28837  0.74416  Biso   1.000  H
  C15      1.0000 0.61789  0.25870  0.74376  Biso   1.000  C
  C16      1.0000 0.74128  0.35920  0.74376  Biso   1.000  C
  H5       1.0000 0.75165  0.46328  0.74416  Biso   1.000  H
  N4       1.0000 0.51557  0.06932  0.60544  Biso   1.000  N
  N5       1.0000 0.57829  0.18523  0.65260  Biso   1.000  N
  N6       1.0000 0.93064  0.44623  0.60544  Biso   1.000  N
  N7       1.0000 0.81475  0.39307  0.65260  Biso   1.000  N
  O5       1.0000 0.56648  0.18036  0.74408  Biso   1.000  O
  C17      1.0000 0.69346  0.28259  0.74392  Biso   1.000  C
  O6       1.0000 0.81962  0.38612  0.74408  Biso   1.000  O
  C18      1.0000 0.49073  0.03886  0.65268  Biso   1.000  C
  C19      1.0000 0.54956  0.14575  0.69672  Biso   1.000  C
  C20      1.0000 0.96116  0.45190  0.65268  Biso   1.000  C
  C21      1.0000 0.85427  0.40384  0.69672  Biso   1.000  C
  H6       1.0000 0.71166  0.24838  0.74416  Biso   1.000  H
  N8       1.0000 0.50386  0.07133  0.70012  Biso   1.000  N
  Cl2      1.0000 0.43376  0.94201  0.65324  Biso   1.000  Cl
  N9       1.0000 0.92863  0.43249  0.70012  Biso   1.000  N
  Cl3      1.0000 0.05803  0.49177  0.65324  Biso   1.000  Cl
  N10      1.0000 0.44624  0.51561  0.39456  Biso   1.000  N
  C22      1.0000 0.45189  0.49076  0.34732  Biso   1.000  C
  C23      1.0000 0.41459  0.55856  0.39128  Biso   1.000  C
  N11      1.0000 0.43249  0.50383  0.29988  Biso   1.000  N
  Cl4      1.0000 0.49175  0.43373  0.34680  Biso   1.000  Cl
  N12      1.0000 0.39309  0.57830  0.34740  Biso   1.000  N
  O7       1.0000 0.40781  0.58571  0.43840  Biso   1.000  O
  C24      1.0000 0.40384  0.54959  0.30332  Biso   1.000  C
  C25      1.0000 0.37003  0.62709  0.43780  Biso   1.000  C
  O8       1.0000 0.38610  0.56647  0.25592  Biso   1.000  O
  C26      1.0000 0.41202  0.70437  0.43796  Biso   1.000  C
  C27      1.0000 0.29235  0.58801  0.43796  Biso   1.000  C
  C28      1.0000 0.35922  0.61790  0.25624  Biso   1.000  C
  H7       1.0000 0.46526  0.72995  0.43812  Biso   1.000  H
  C29      1.0000 0.37291  0.74290  0.43780  Biso   1.000  C
  C30      1.0000 0.25706  0.63001  0.43780  Biso   1.000  C
  H8       1.0000 0.26464  0.53473  0.43812  Biso   1.000  H
  C31      1.0000 0.41083  0.69344  0.25608  Biso   1.000  C
  C32      1.0000 0.28262  0.58913  0.25608  Biso   1.000  C
  O9       1.0000 0.41430  0.82209  0.43840  Biso   1.000  O
  C33      1.0000 0.29563  0.70763  0.43796  Biso   1.000  C
  O10      1.0000 0.17794  0.59221  0.43840  Biso   1.000  O
  H9       1.0000 0.46323  0.71161  0.25584  Biso   1.000  H
  C34      1.0000 0.38210  0.74127  0.25624  Biso   1.000  C
  C35      1.0000 0.25871  0.64078  0.25624  Biso   1.000  C
  H10      1.0000 0.24836  0.53675  0.25584  Biso   1.000  H
  C36      1.0000 0.44141  0.85602  0.39128  Biso   1.000  C
  H11      1.0000 0.27004  0.73533  0.43812  Biso   1.000  H
  C37      1.0000 0.14397  0.58537  0.39128  Biso   1.000  C
  O11      1.0000 0.43351  0.81962  0.25592  Biso   1.000  O
  C38      1.0000 0.30653  0.71738  0.25608  Biso   1.000  C
  O12      1.0000 0.18039  0.61391  0.25592  Biso   1.000  O
  N13      1.0000 0.42170  0.81474  0.34740  Biso   1.000  N
  N14      1.0000 0.48442  0.93066  0.39456  Biso   1.000  N
  N15      1.0000 0.18527  0.60696  0.34740  Biso   1.000  N
  N16      1.0000 0.06934  0.55374  0.39456  Biso   1.000  N
  C39      1.0000 0.45045  0.85428  0.30332  Biso   1.000  C
  H12      1.0000 0.28835  0.75165  0.25584  Biso   1.000  H
  C40      1.0000 0.14571  0.59614  0.30332  Biso   1.000  C
  C41      1.0000 0.50926  0.96111  0.34732  Biso   1.000  C
  C42      1.0000 0.03885  0.54813  0.34732  Biso   1.000  C
  N17      1.0000 0.49613  0.92864  0.29988  Biso   1.000  N
  N18      1.0000 0.07138  0.56754  0.29988  Biso   1.000  N
  Cl5      1.0000 0.56626  0.05802  0.34680  Biso   1.000  Cl
  Cl6      1.0000 0.94199  0.50826  0.34680  Biso   1.000  Cl
  N19      1.0000 0.83720  0.73802  0.36678  Biso   1.000  N
  C43      1.0000 0.82404  0.70549  0.31933  Biso   1.000  C
  C44      1.0000 0.82407  0.70555  0.31933  Biso   1.000  C
  C45      1.0000 0.88288  0.81238  0.36337  Biso   1.000  C
  C46      1.0000 0.88291  0.81244  0.36337  Biso   1.000  C
  Cl7      1.0000 0.76707  0.60864  0.31989  Biso   1.000  Cl
  N20      1.0000 0.84891  0.73600  0.27209  Biso   1.000  N
  N21      1.0000 0.91161  0.85187  0.31925  Biso   1.000  N
  N22      1.0000 0.91163  0.85192  0.31925  Biso   1.000  N
  O13      1.0000 0.89979  0.84699  0.41074  Biso   1.000  O
  O14      1.0000 0.89982  0.84704  0.41074  Biso   1.000  O
  C47      1.0000 0.89189  0.81059  0.27541  Biso   1.000  C
  C48      1.0000 0.89192  0.81065  0.27541  Biso   1.000  C
  C49      1.0000 0.95120  0.92533  0.41042  Biso   1.000  C
  C50      1.0000 0.95123  0.92539  0.41042  Biso   1.000  C
  O15      1.0000 0.91903  0.84457  0.22829  Biso   1.000  O
  C51      1.0000 0.92247  0.97317  0.41058  Biso   1.000  C
  C52      1.0000 0.92250  0.97322  0.41058  Biso   1.000  C
  C53      1.0000 0.02677  0.94922  0.41058  Biso   1.000  C
  C54      1.0000 0.02680  0.94928  0.41058  Biso   1.000  C
  C55      1.0000 0.96040  0.92370  0.22889  Biso   1.000  C
  C56      1.0000 0.96042  0.92376  0.22889  Biso   1.000  C
  H13      1.0000 0.87007  0.95500  0.41082  Biso   1.000  H
  H14      1.0000 0.87010  0.95505  0.41082  Biso   1.000  H
  C57      1.0000 0.97411  0.04876  0.41042  Biso   1.000  C
  H15      1.0000 0.04498  0.91501  0.41082  Biso   1.000  H
  C58      1.0000 0.07459  0.02583  0.41042  Biso   1.000  C
  C59      1.0000 0.07462  0.02588  0.41042  Biso   1.000  C
  C60      1.0000 0.92131  0.96229  0.22873  Biso   1.000  C
  C61      1.0000 0.03767  0.95898  0.22873  Biso   1.000  C
  C62      1.0000 0.03770  0.95904  0.22873  Biso   1.000  C
  O16      1.0000 0.94723  0.10019  0.41074  Biso   1.000  O
  C63      1.0000 0.05069  0.07748  0.41058  Biso   1.000  C
  C64      1.0000 0.05071  0.07753  0.41058  Biso   1.000  C
  O17      1.0000 0.15294  0.05275  0.41074  Biso   1.000  O
  H16      1.0000 0.86807  0.93672  0.22853  Biso   1.000  H
  C65      1.0000 0.96330  0.03957  0.22889  Biso   1.000  C
  H17      1.0000 0.06329  0.93133  0.22853  Biso   1.000  H
  C66      1.0000 0.07627  0.03665  0.22889  Biso   1.000  C
  C67      1.0000 0.92949  0.11707  0.36337  Biso   1.000  C
  H18      1.0000 0.08497  0.12991  0.41082  Biso   1.000  H
  C68      1.0000 0.18759  0.07047  0.36337  Biso   1.000  C
  C69      1.0000 0.18762  0.07052  0.36337  Biso   1.000  C
  O18      1.0000 0.92549  0.08090  0.22829  Biso   1.000  O
  O19      1.0000 0.92552  0.08095  0.22829  Biso   1.000  O
  C70      1.0000 0.04098  0.07866  0.22873  Biso   1.000  C
  C71      1.0000 0.04101  0.07871  0.22873  Biso   1.000  C
  O20      1.0000 0.15539  0.07445  0.22829  Biso   1.000  O
  N23      1.0000 0.94022  0.08830  0.31925  Biso   1.000  N
  N24      1.0000 0.94024  0.08836  0.31925  Biso   1.000  N
  N25      1.0000 0.90081  0.16278  0.36678  Biso   1.000  N
  N26      1.0000 0.90084  0.16283  0.36678  Biso   1.000  N
  N27      1.0000 0.14806  0.05970  0.31925  Biso   1.000  N
  N28      1.0000 0.14809  0.05976  0.31925  Biso   1.000  N
  N29      1.0000 0.26195  0.09912  0.36678  Biso   1.000  N
  N30      1.0000 0.26198  0.09918  0.36678  Biso   1.000  N
  C72      1.0000 0.91871  0.10804  0.27541  Biso   1.000  C
  C73      1.0000 0.91874  0.10810  0.27541  Biso   1.000  C
  H19      1.0000 0.06869  0.13193  0.22853  Biso   1.000  H
  C74      1.0000 0.18933  0.08123  0.27541  Biso   1.000  C
  C75      1.0000 0.18936  0.08129  0.27541  Biso   1.000  C
  C76      1.0000 0.88144  0.17590  0.31933  Biso   1.000  C
  C77      1.0000 0.29448  0.11853  0.31933  Biso   1.000  C
  N31      1.0000 0.88709  0.15106  0.27209  Biso   1.000  N
  N32      1.0000 0.26399  0.11292  0.27209  Biso   1.000  N
  Cl8      1.0000 0.84158  0.23293  0.31989  Biso   1.000  Cl
  Cl9      1.0000 0.39134  0.15840  0.31989  Biso   1.000  Cl
  N33      1.0000 0.83720  0.73802  0.36678  Biso   1.000  N
  C78      1.0000 0.82404  0.70549  0.31933  Biso   1.000  C
  C79      1.0000 0.82407  0.70555  0.31933  Biso   1.000  C
  C80      1.0000 0.88288  0.81238  0.36337  Biso   1.000  C
  C81      1.0000 0.88291  0.81244  0.36337  Biso   1.000  C
  Cl10     1.0000 0.76707  0.60864  0.31989  Biso   1.000  Cl
  N34      1.0000 0.84891  0.73600  0.27209  Biso   1.000  N
  N35      1.0000 0.91161  0.85187  0.31925  Biso   1.000  N
  N36      1.0000 0.91163  0.85192  0.31925  Biso   1.000  N
  O21      1.0000 0.89979  0.84699  0.41074  Biso   1.000  O
  O22      1.0000 0.89982  0.84704  0.41074  Biso   1.000  O
  C82      1.0000 0.89189  0.81059  0.27541  Biso   1.000  C
  C83      1.0000 0.89192  0.81065  0.27541  Biso   1.000  C
  C84      1.0000 0.95120  0.92533  0.41042  Biso   1.000  C
  C85      1.0000 0.95123  0.92539  0.41042  Biso   1.000  C
  O23      1.0000 0.91903  0.84457  0.22829  Biso   1.000  O
  C86      1.0000 0.92247  0.97317  0.41058  Biso   1.000  C
  C87      1.0000 0.92250  0.97322  0.41058  Biso   1.000  C
  C88      1.0000 0.02677  0.94922  0.41058  Biso   1.000  C
  C89      1.0000 0.02680  0.94928  0.41058  Biso   1.000  C
  C90      1.0000 0.96040  0.92370  0.22889  Biso   1.000  C
  C91      1.0000 0.96042  0.92376  0.22889  Biso   1.000  C
  H20      1.0000 0.87007  0.95500  0.41082  Biso   1.000  H
  H21      1.0000 0.87010  0.95505  0.41082  Biso   1.000  H
  C92      1.0000 0.97411  0.04876  0.41042  Biso   1.000  C
  H22      1.0000 0.04498  0.91501  0.41082  Biso   1.000  H
  C93      1.0000 0.07459  0.02583  0.41042  Biso   1.000  C
  C94      1.0000 0.07462  0.02588  0.41042  Biso   1.000  C
  C95      1.0000 0.92131  0.96229  0.22873  Biso   1.000  C
  C96      1.0000 0.03767  0.95898  0.22873  Biso   1.000  C
  C97      1.0000 0.03770  0.95904  0.22873  Biso   1.000  C
  O24      1.0000 0.94723  0.10019  0.41074  Biso   1.000  O
  C98      1.0000 0.05069  0.07748  0.41058  Biso   1.000  C
  C99      1.0000 0.05071  0.07753  0.41058  Biso   1.000  C
  O25      1.0000 0.15294  0.05275  0.41074  Biso   1.000  O
  H23      1.0000 0.86807  0.93672  0.22853  Biso   1.000  H
  C100     1.0000 0.96330  0.03957  0.22889  Biso   1.000  C
  H24      1.0000 0.06329  0.93133  0.22853  Biso   1.000  H
  C101     1.0000 0.07627  0.03665  0.22889  Biso   1.000  C
  C102     1.0000 0.92949  0.11707  0.36337  Biso   1.000  C
  H25      1.0000 0.08497  0.12991  0.41082  Biso   1.000  H
  C103     1.0000 0.18759  0.07047  0.36337  Biso   1.000  C
  C104     1.0000 0.18762  0.07052  0.36337  Biso   1.000  C
  O26      1.0000 0.92549  0.08090  0.22829  Biso   1.000  O
  O27      1.0000 0.92552  0.08095  0.22829  Biso   1.000  O
  C105     1.0000 0.04098  0.07866  0.22873  Biso   1.000  C
  C106     1.0000 0.04101  0.07871  0.22873  Biso   1.000  C
  O28      1.0000 0.15539  0.07445  0.22829  Biso   1.000  O
  N37      1.0000 0.94022  0.08830  0.31925  Biso   1.000  N
  N38      1.0000 0.94024  0.08836  0.31925  Biso   1.000  N
  N39      1.0000 0.90081  0.16278  0.36678  Biso   1.000  N
  N40      1.0000 0.90084  0.16283  0.36678  Biso   1.000  N
  N41      1.0000 0.14806  0.05970  0.31925  Biso   1.000  N
  N42      1.0000 0.14809  0.05976  0.31925  Biso   1.000  N
  N43      1.0000 0.26195  0.09912  0.36678  Biso   1.000  N
  N44      1.0000 0.26198  0.09918  0.36678  Biso   1.000  N
  C107     1.0000 0.91871  0.10804  0.27541  Biso   1.000  C
  C108     1.0000 0.91874  0.10810  0.27541  Biso   1.000  C
  H26      1.0000 0.06869  0.13193  0.22853  Biso   1.000  H
  C109     1.0000 0.18933  0.08123  0.27541  Biso   1.000  C
  C110     1.0000 0.18936  0.08129  0.27541  Biso   1.000  C
  C111     1.0000 0.88144  0.17590  0.31933  Biso   1.000  C
  C112     1.0000 0.29448  0.11853  0.31933  Biso   1.000  C
  N45      1.0000 0.88709  0.15106  0.27209  Biso   1.000  N
  N46      1.0000 0.26399  0.11292  0.27209  Biso   1.000  N
  Cl11     1.0000 0.84158  0.23293  0.31989  Biso   1.000  Cl
  Cl12     1.0000 0.39134  0.15840  0.31989  Biso   1.000  Cl
  N47      1.0000 0.83720  0.73802  0.36678  Biso   1.000  N
  C113     1.0000 0.82404  0.70549  0.31933  Biso   1.000  C
  C114     1.0000 0.82407  0.70555  0.31933  Biso   1.000  C
  C115     1.0000 0.88288  0.81238  0.36337  Biso   1.000  C
  C116     1.0000 0.88291  0.81244  0.36337  Biso   1.000  C
  N48      1.0000 0.84891  0.73600  0.27209  Biso   1.000  N
  Cl13     1.0000 0.76707  0.60864  0.31989  Biso   1.000  Cl
  N49      1.0000 0.91161  0.85187  0.31925  Biso   1.000  N
  N50      1.0000 0.91163  0.85192  0.31925  Biso   1.000  N
  O29      1.0000 0.89979  0.84699  0.41074  Biso   1.000  O
  O30      1.0000 0.89982  0.84704  0.41074  Biso   1.000  O
  C117     1.0000 0.89189  0.81059  0.27541  Biso   1.000  C
  C118     1.0000 0.89192  0.81065  0.27541  Biso   1.000  C
  C119     1.0000 0.95120  0.92533  0.41042  Biso   1.000  C
  C120     1.0000 0.95123  0.92539  0.41042  Biso   1.000  C
  O31      1.0000 0.91903  0.84457  0.22829  Biso   1.000  O
  C121     1.0000 0.92247  0.97317  0.41058  Biso   1.000  C
  C122     1.0000 0.92250  0.97322  0.41058  Biso   1.000  C
  C123     1.0000 0.02677  0.94922  0.41058  Biso   1.000  C
  C124     1.0000 0.02680  0.94928  0.41058  Biso   1.000  C
  C125     1.0000 0.96040  0.92370  0.22889  Biso   1.000  C
  C126     1.0000 0.96042  0.92376  0.22889  Biso   1.000  C
  H27      1.0000 0.87007  0.95500  0.41082  Biso   1.000  H
  H28      1.0000 0.87010  0.95505  0.41082  Biso   1.000  H
  C127     1.0000 0.97411  0.04876  0.41042  Biso   1.000  C
  H29      1.0000 0.04498  0.91501  0.41082  Biso   1.000  H
  C128     1.0000 0.07459  0.02583  0.41042  Biso   1.000  C
  C129     1.0000 0.07462  0.02588  0.41042  Biso   1.000  C
  C130     1.0000 0.92131  0.96229  0.22873  Biso   1.000  C
  C131     1.0000 0.03767  0.95898  0.22873  Biso   1.000  C
  C132     1.0000 0.03770  0.95904  0.22873  Biso   1.000  C
  O32      1.0000 0.94723  0.10019  0.41074  Biso   1.000  O
  C133     1.0000 0.05069  0.07748  0.41058  Biso   1.000  C
  C134     1.0000 0.05071  0.07753  0.41058  Biso   1.000  C
  O33      1.0000 0.15294  0.05275  0.41074  Biso   1.000  O
  H30      1.0000 0.86807  0.93672  0.22853  Biso   1.000  H
  C135     1.0000 0.96330  0.03957  0.22889  Biso   1.000  C
  H31      1.0000 0.06329  0.93133  0.22853  Biso   1.000  H
  C136     1.0000 0.07627  0.03665  0.22889  Biso   1.000  C
  C137     1.0000 0.92949  0.11707  0.36337  Biso   1.000  C
  H32      1.0000 0.08497  0.12991  0.41082  Biso   1.000  H
  C138     1.0000 0.18759  0.07047  0.36337  Biso   1.000  C
  C139     1.0000 0.18762  0.07052  0.36337  Biso   1.000  C
  O34      1.0000 0.92549  0.08090  0.22829  Biso   1.000  O
  O35      1.0000 0.92552  0.08095  0.22829  Biso   1.000  O
  C140     1.0000 0.04098  0.07866  0.22873  Biso   1.000  C
  C141     1.0000 0.04101  0.07871  0.22873  Biso   1.000  C
  O36      1.0000 0.15539  0.07445  0.22829  Biso   1.000  O
  N51      1.0000 0.94022  0.08830  0.31925  Biso   1.000  N
  N52      1.0000 0.94024  0.08836  0.31925  Biso   1.000  N
  N53      1.0000 0.90081  0.16278  0.36678  Biso   1.000  N
  N54      1.0000 0.90084  0.16283  0.36678  Biso   1.000  N
  N55      1.0000 0.14806  0.05970  0.31925  Biso   1.000  N
  N56      1.0000 0.14809  0.05976  0.31925  Biso   1.000  N
  N57      1.0000 0.26195  0.09912  0.36678  Biso   1.000  N
  N58      1.0000 0.26198  0.09918  0.36678  Biso   1.000  N
  C142     1.0000 0.91871  0.10804  0.27541  Biso   1.000  C
  C143     1.0000 0.91874  0.10810  0.27541  Biso   1.000  C
  H33      1.0000 0.06869  0.13193  0.22853  Biso   1.000  H
  C144     1.0000 0.18933  0.08123  0.27541  Biso   1.000  C
  C145     1.0000 0.18936  0.08129  0.27541  Biso   1.000  C
  C146     1.0000 0.88144  0.17590  0.31933  Biso   1.000  C
  C147     1.0000 0.29448  0.11853  0.31933  Biso   1.000  C
  N59      1.0000 0.88709  0.15106  0.27209  Biso   1.000  N
  N60      1.0000 0.26399  0.11292  0.27209  Biso   1.000  N
  Cl14     1.0000 0.84158  0.23293  0.31989  Biso   1.000  Cl
  Cl15     1.0000 0.39134  0.15840  0.31989  Biso   1.000  Cl
  N61      1.0000 0.83720  0.73802  0.36678  Biso   1.000  N
  C148     1.0000 0.82404  0.70549  0.31933  Biso   1.000  C
  C149     1.0000 0.82407  0.70555  0.31933  Biso   1.000  C
  C150     1.0000 0.88288  0.81238  0.36337  Biso   1.000  C
  C151     1.0000 0.88291  0.81244  0.36337  Biso   1.000  C
  N62      1.0000 0.84891  0.73600  0.27209  Biso   1.000  N
  Cl16     1.0000 0.76707  0.60864  0.31989  Biso   1.000  Cl
  N63      1.0000 0.91161  0.85187  0.31925  Biso   1.000  N
  N64      1.0000 0.91163  0.85192  0.31925  Biso   1.000  N
  O37      1.0000 0.89979  0.84699  0.41074  Biso   1.000  O
  O38      1.0000 0.89982  0.84704  0.41074  Biso   1.000  O
  C152     1.0000 0.89189  0.81059  0.27541  Biso   1.000  C
  C153     1.0000 0.89192  0.81065  0.27541  Biso   1.000  C
  C154     1.0000 0.95120  0.92533  0.41042  Biso   1.000  C
  C155     1.0000 0.95123  0.92539  0.41042  Biso   1.000  C
  O39      1.0000 0.91903  0.84457  0.22829  Biso   1.000  O
  C156     1.0000 0.92247  0.97317  0.41058  Biso   1.000  C
  C157     1.0000 0.92250  0.97322  0.41058  Biso   1.000  C
  C158     1.0000 0.02677  0.94922  0.41058  Biso   1.000  C
  C159     1.0000 0.02680  0.94928  0.41058  Biso   1.000  C
  C160     1.0000 0.96040  0.92370  0.22889  Biso   1.000  C
  C161     1.0000 0.96042  0.92376  0.22889  Biso   1.000  C
  H34      1.0000 0.87007  0.95500  0.41082  Biso   1.000  H
  H35      1.0000 0.87010  0.95505  0.41082  Biso   1.000  H
  C162     1.0000 0.97411  0.04876  0.41042  Biso   1.000  C
  H36      1.0000 0.04498  0.91501  0.41082  Biso   1.000  H
  C163     1.0000 0.07459  0.02583  0.41042  Biso   1.000  C
  C164     1.0000 0.07462  0.02588  0.41042  Biso   1.000  C
  C165     1.0000 0.92131  0.96229  0.22873  Biso   1.000  C
  C166     1.0000 0.03767  0.95898  0.22873  Biso   1.000  C
  C167     1.0000 0.03770  0.95904  0.22873  Biso   1.000  C
  O40      1.0000 0.94723  0.10019  0.41074  Biso   1.000  O
  C168     1.0000 0.05069  0.07748  0.41058  Biso   1.000  C
  C169     1.0000 0.05071  0.07753  0.41058  Biso   1.000  C
  O41      1.0000 0.15294  0.05275  0.41074  Biso   1.000  O
  H37      1.0000 0.86807  0.93672  0.22853  Biso   1.000  H
  C170     1.0000 0.96330  0.03957  0.22889  Biso   1.000  C
  H38      1.0000 0.06329  0.93133  0.22853  Biso   1.000  H
  C171     1.0000 0.07627  0.03665  0.22889  Biso   1.000  C
  C172     1.0000 0.92949  0.11707  0.36337  Biso   1.000  C
  H39      1.0000 0.08497  0.12991  0.41082  Biso   1.000  H
  C173     1.0000 0.18759  0.07047  0.36337  Biso   1.000  C
  C174     1.0000 0.18762  0.07052  0.36337  Biso   1.000  C
  O42      1.0000 0.92549  0.08090  0.22829  Biso   1.000  O
  O43      1.0000 0.92552  0.08095  0.22829  Biso   1.000  O
  C175     1.0000 0.04098  0.07866  0.22873  Biso   1.000  C
  C176     1.0000 0.04101  0.07871  0.22873  Biso   1.000  C
  O44      1.0000 0.15539  0.07445  0.22829  Biso   1.000  O
  N65      1.0000 0.94022  0.08830  0.31925  Biso   1.000  N
  N66      1.0000 0.94024  0.08836  0.31925  Biso   1.000  N
  N67      1.0000 0.90081  0.16278  0.36678  Biso   1.000  N
  N68      1.0000 0.90084  0.16283  0.36678  Biso   1.000  N
  N69      1.0000 0.14806  0.05970  0.31925  Biso   1.000  N
  N70      1.0000 0.14809  0.05976  0.31925  Biso   1.000  N
  N71      1.0000 0.26195  0.09912  0.36678  Biso   1.000  N
  N72      1.0000 0.26198  0.09918  0.36678  Biso   1.000  N
  C177     1.0000 0.91871  0.10804  0.27541  Biso   1.000  C
  C178     1.0000 0.91874  0.10810  0.27541  Biso   1.000  C
  H40      1.0000 0.06869  0.13193  0.22853  Biso   1.000  H
  C179     1.0000 0.18933  0.08123  0.27541  Biso   1.000  C
  C180     1.0000 0.18936  0.08129  0.27541  Biso   1.000  C
  C181     1.0000 0.88144  0.17590  0.31933  Biso   1.000  C
  C182     1.0000 0.29448  0.11853  0.31933  Biso   1.000  C
  N73      1.0000 0.88709  0.15106  0.27209  Biso   1.000  N
  N74      1.0000 0.26399  0.11292  0.27209  Biso   1.000  N
  Cl17     1.0000 0.84158  0.23293  0.31989  Biso   1.000  Cl
  Cl18     1.0000 0.39134  0.15840  0.31989  Biso   1.000  Cl
  N75      1.0000 0.16282  0.26201  0.63322  Biso   1.000  N
  C183     1.0000 0.11711  0.18759  0.63663  Biso   1.000  C
  C184     1.0000 0.17594  0.29448  0.68067  Biso   1.000  C
  O45      1.0000 0.10019  0.15299  0.58926  Biso   1.000  O
  N76      1.0000 0.08838  0.14811  0.68075  Biso   1.000  N
  N77      1.0000 0.16279  0.26195  0.63322  Biso   1.000  N
  N78      1.0000 0.15107  0.26397  0.72791  Biso   1.000  N
  N79      1.0000 0.15110  0.26403  0.72791  Biso   1.000  N
  Cl19     1.0000 0.23292  0.39133  0.68011  Biso   1.000  Cl
  Cl20     1.0000 0.23294  0.39139  0.68011  Biso   1.000  Cl
  C185     1.0000 0.04878  0.07464  0.58958  Biso   1.000  C
  C186     1.0000 0.10810  0.18938  0.72463  Biso   1.000  C
  C187     1.0000 0.07751  0.02681  0.58942  Biso   1.000  C
  C188     1.0000 0.97322  0.05075  0.58942  Biso   1.000  C
  O46      1.0000 0.08095  0.15540  0.77171  Biso   1.000  O
  O47      1.0000 0.08098  0.15546  0.77171  Biso   1.000  O
  H41      1.0000 0.12992  0.04498  0.58918  Biso   1.000  H
  C189     1.0000 0.02587  0.95121  0.58958  Biso   1.000  C
  C190     1.0000 0.02590  0.95127  0.58958  Biso   1.000  C
  C191     1.0000 0.92539  0.97415  0.58958  Biso   1.000  C
  H42      1.0000 0.95501  0.08496  0.58918  Biso   1.000  H
  H43      1.0000 0.95504  0.08502  0.58918  Biso   1.000  H
  C192     1.0000 0.03959  0.07627  0.77115  Biso   1.000  C
  C193     1.0000 0.94930  0.92250  0.58942  Biso   1.000  C
  O48      1.0000 0.05276  0.89978  0.58926  Biso   1.000  O
  O49      1.0000 0.05279  0.89984  0.58926  Biso   1.000  O
  O50      1.0000 0.84705  0.94723  0.58926  Biso   1.000  O
  C194     1.0000 0.07868  0.03769  0.77127  Biso   1.000  C
  C195     1.0000 0.07871  0.03774  0.77127  Biso   1.000  C
  C196     1.0000 0.96231  0.04099  0.77127  Biso   1.000  C
  H44      1.0000 0.91502  0.87006  0.58918  Biso   1.000  H
  H45      1.0000 0.91505  0.87012  0.58918  Biso   1.000  H
  C197     1.0000 0.07050  0.88290  0.63663  Biso   1.000  C
  C198     1.0000 0.07052  0.88296  0.63663  Biso   1.000  C
  C199     1.0000 0.81240  0.92951  0.63663  Biso   1.000  C
  H46      1.0000 0.13192  0.06326  0.77147  Biso   1.000  H
  H47      1.0000 0.13195  0.06332  0.77147  Biso   1.000  H
  C200     1.0000 0.03669  0.96041  0.77115  Biso   1.000  C
  C201     1.0000 0.92372  0.96332  0.77115  Biso   1.000  C
  C202     1.0000 0.92375  0.96338  0.77115  Biso   1.000  C
  H48      1.0000 0.93670  0.06864  0.77147  Biso   1.000  H
  H49      1.0000 0.93673  0.06870  0.77147  Biso   1.000  H
  N80      1.0000 0.05977  0.91167  0.68075  Biso   1.000  N
  N81      1.0000 0.09917  0.83720  0.63322  Biso   1.000  N
  N82      1.0000 0.85192  0.94027  0.68075  Biso   1.000  N
  N83      1.0000 0.73804  0.90085  0.63322  Biso   1.000  N
  C203     1.0000 0.95901  0.92132  0.77127  Biso   1.000  C
  O51      1.0000 0.07450  0.91908  0.77171  Biso   1.000  O
  O52      1.0000 0.84460  0.92552  0.77171  Biso   1.000  O
  C204     1.0000 0.08127  0.89193  0.72463  Biso   1.000  C
  C205     1.0000 0.11855  0.82408  0.68067  Biso   1.000  C
  C206     1.0000 0.81066  0.91874  0.72463  Biso   1.000  C
  C207     1.0000 0.70551  0.88145  0.68067  Biso   1.000  C
  C208     1.0000 0.70554  0.88150  0.68067  Biso   1.000  C
  H50      1.0000 0.93130  0.86804  0.77147  Biso   1.000  H
  H51      1.0000 0.93133  0.86810  0.77147  Biso   1.000  H
  N84      1.0000 0.11290  0.84892  0.72791  Biso   1.000  N
  N85      1.0000 0.11293  0.84897  0.72791  Biso   1.000  N
  Cl21     1.0000 0.15841  0.76704  0.68011  Biso   1.000  Cl
  Cl22     1.0000 0.15844  0.76710  0.68011  Biso   1.000  Cl
  N86      1.0000 0.73600  0.88705  0.72791  Biso   1.000  N
  N87      1.0000 0.73603  0.88711  0.72791  Biso   1.000  N
  Cl23     1.0000 0.60864  0.84157  0.68011  Biso   1.000  Cl
  Cl24     1.0000 0.60867  0.84163  0.68011  Biso   1.000  Cl
  N88      1.0000 0.16282  0.26201  0.63322  Biso   1.000  N
  C209     1.0000 0.11711  0.18759  0.63663  Biso   1.000  C
  C210     1.0000 0.17594  0.29448  0.68067  Biso   1.000  C
  O53      1.0000 0.10019  0.15299  0.58926  Biso   1.000  O
  N89      1.0000 0.08838  0.14811  0.68075  Biso   1.000  N
  N90      1.0000 0.16279  0.26195  0.63322  Biso   1.000  N
  N91      1.0000 0.15107  0.26397  0.72791  Biso   1.000  N
  N92      1.0000 0.15110  0.26403  0.72791  Biso   1.000  N
  Cl25     1.0000 0.23292  0.39133  0.68011  Biso   1.000  Cl
  Cl26     1.0000 0.23294  0.39139  0.68011  Biso   1.000  Cl
  C211     1.0000 0.04878  0.07464  0.58958  Biso   1.000  C
  C212     1.0000 0.10810  0.18938  0.72463  Biso   1.000  C
  C213     1.0000 0.07751  0.02681  0.58942  Biso   1.000  C
  C214     1.0000 0.97322  0.05075  0.58942  Biso   1.000  C
  O54      1.0000 0.08095  0.15540  0.77171  Biso   1.000  O
  O55      1.0000 0.08098  0.15546  0.77171  Biso   1.000  O
  H52      1.0000 0.12992  0.04498  0.58918  Biso   1.000  H
  C215     1.0000 0.02587  0.95121  0.58958  Biso   1.000  C
  C216     1.0000 0.02590  0.95127  0.58958  Biso   1.000  C
  C217     1.0000 0.92539  0.97415  0.58958  Biso   1.000  C
  H53      1.0000 0.95501  0.08496  0.58918  Biso   1.000  H
  H54      1.0000 0.95504  0.08502  0.58918  Biso   1.000  H
  C218     1.0000 0.03959  0.07627  0.77115  Biso   1.000  C
  C219     1.0000 0.94930  0.92250  0.58942  Biso   1.000  C
  O56      1.0000 0.05276  0.89978  0.58926  Biso   1.000  O
  O57      1.0000 0.05279  0.89984  0.58926  Biso   1.000  O
  O58      1.0000 0.84705  0.94723  0.58926  Biso   1.000  O
  C220     1.0000 0.07868  0.03769  0.77127  Biso   1.000  C
  C221     1.0000 0.07871  0.03774  0.77127  Biso   1.000  C
  C222     1.0000 0.96231  0.04099  0.77127  Biso   1.000  C
  H55      1.0000 0.91502  0.87006  0.58918  Biso   1.000  H
  H56      1.0000 0.91505  0.87012  0.58918  Biso   1.000  H
  C223     1.0000 0.07050  0.88290  0.63663  Biso   1.000  C
  C224     1.0000 0.07052  0.88296  0.63663  Biso   1.000  C
  C225     1.0000 0.81240  0.92951  0.63663  Biso   1.000  C
  H57      1.0000 0.13192  0.06326  0.77147  Biso   1.000  H
  H58      1.0000 0.13195  0.06332  0.77147  Biso   1.000  H
  C226     1.0000 0.03669  0.96041  0.77115  Biso   1.000  C
  C227     1.0000 0.92372  0.96332  0.77115  Biso   1.000  C
  C228     1.0000 0.92375  0.96338  0.77115  Biso   1.000  C
  H59      1.0000 0.93670  0.06864  0.77147  Biso   1.000  H
  H60      1.0000 0.93673  0.06870  0.77147  Biso   1.000  H
  N93      1.0000 0.05977  0.91167  0.68075  Biso   1.000  N
  N94      1.0000 0.09917  0.83720  0.63322  Biso   1.000  N
  N95      1.0000 0.85192  0.94027  0.68075  Biso   1.000  N
  N96      1.0000 0.73804  0.90085  0.63322  Biso   1.000  N
  C229     1.0000 0.95901  0.92132  0.77127  Biso   1.000  C
  O59      1.0000 0.07450  0.91908  0.77171  Biso   1.000  O
  O60      1.0000 0.84460  0.92552  0.77171  Biso   1.000  O
  C230     1.0000 0.08127  0.89193  0.72463  Biso   1.000  C
  C231     1.0000 0.11855  0.82408  0.68067  Biso   1.000  C
  C232     1.0000 0.81066  0.91874  0.72463  Biso   1.000  C
  C233     1.0000 0.70551  0.88145  0.68067  Biso   1.000  C
  C234     1.0000 0.70554  0.88150  0.68067  Biso   1.000  C
  H61      1.0000 0.93130  0.86804  0.77147  Biso   1.000  H
  H62      1.0000 0.93133  0.86810  0.77147  Biso   1.000  H
  N97      1.0000 0.11290  0.84892  0.72791  Biso   1.000  N
  N98      1.0000 0.11293  0.84897  0.72791  Biso   1.000  N
  Cl27     1.0000 0.15841  0.76704  0.68011  Biso   1.000  Cl
  Cl28     1.0000 0.15844  0.76710  0.68011  Biso   1.000  Cl
  N99      1.0000 0.73600  0.88705  0.72791  Biso   1.000  N
  N100     1.0000 0.73603  0.88711  0.72791  Biso   1.000  N
  Cl29     1.0000 0.60864  0.84157  0.68011  Biso   1.000  Cl
  Cl30     1.0000 0.60867  0.84163  0.68011  Biso   1.000  Cl
  N101     1.0000 0.16282  0.26201  0.63322  Biso   1.000  N
  C235     1.0000 0.11711  0.18759  0.63663  Biso   1.000  C
  C236     1.0000 0.17594  0.29448  0.68067  Biso   1.000  C
  O61      1.0000 0.10019  0.15299  0.58926  Biso   1.000  O
  N102     1.0000 0.08838  0.14811  0.68075  Biso   1.000  N
  N103     1.0000 0.16279  0.26195  0.63322  Biso   1.000  N
  N104     1.0000 0.15107  0.26397  0.72791  Biso   1.000  N
  N105     1.0000 0.15110  0.26403  0.72791  Biso   1.000  N
  Cl31     1.0000 0.23292  0.39133  0.68011  Biso   1.000  Cl
  Cl32     1.0000 0.23294  0.39139  0.68011  Biso   1.000  Cl
  C237     1.0000 0.04878  0.07464  0.58958  Biso   1.000  C
  C238     1.0000 0.10810  0.18938  0.72463  Biso   1.000  C
  C239     1.0000 0.07751  0.02681  0.58942  Biso   1.000  C
  C240     1.0000 0.97322  0.05075  0.58942  Biso   1.000  C
  O62      1.0000 0.08095  0.15540  0.77171  Biso   1.000  O
  O63      1.0000 0.08098  0.15546  0.77171  Biso   1.000  O
  H63      1.0000 0.12992  0.04498  0.58918  Biso   1.000  H
  C241     1.0000 0.02587  0.95121  0.58958  Biso   1.000  C
  C242     1.0000 0.02590  0.95127  0.58958  Biso   1.000  C
  C243     1.0000 0.92539  0.97415  0.58958  Biso   1.000  C
  H64      1.0000 0.95501  0.08496  0.58918  Biso   1.000  H
  H65      1.0000 0.95504  0.08502  0.58918  Biso   1.000  H
  C244     1.0000 0.03959  0.07627  0.77115  Biso   1.000  C
  C245     1.0000 0.94930  0.92250  0.58942  Biso   1.000  C
  O64      1.0000 0.05276  0.89978  0.58926  Biso   1.000  O
  O65      1.0000 0.05279  0.89984  0.58926  Biso   1.000  O
  O66      1.0000 0.84705  0.94723  0.58926  Biso   1.000  O
  C246     1.0000 0.96231  0.04099  0.77127  Biso   1.000  C
  C247     1.0000 0.07868  0.03769  0.77127  Biso   1.000  C
  C248     1.0000 0.07871  0.03774  0.77127  Biso   1.000  C
  H66      1.0000 0.91502  0.87006  0.58918  Biso   1.000  H
  H67      1.0000 0.91505  0.87012  0.58918  Biso   1.000  H
  C249     1.0000 0.07050  0.88290  0.63663  Biso   1.000  C
  C250     1.0000 0.07052  0.88296  0.63663  Biso   1.000  C
  C251     1.0000 0.81240  0.92951  0.63663  Biso   1.000  C
  C252     1.0000 0.92372  0.96332  0.77115  Biso   1.000  C
  C253     1.0000 0.92375  0.96338  0.77115  Biso   1.000  C
  H68      1.0000 0.93670  0.06864  0.77147  Biso   1.000  H
  H69      1.0000 0.93673  0.06870  0.77147  Biso   1.000  H
  C254     1.0000 0.03669  0.96041  0.77115  Biso   1.000  C
  H70      1.0000 0.13192  0.06326  0.77147  Biso   1.000  H
  H71      1.0000 0.13195  0.06332  0.77147  Biso   1.000  H
  N106     1.0000 0.05977  0.91167  0.68075  Biso   1.000  N
  N107     1.0000 0.09917  0.83720  0.63322  Biso   1.000  N
  N108     1.0000 0.85192  0.94027  0.68075  Biso   1.000  N
  N109     1.0000 0.73804  0.90085  0.63322  Biso   1.000  N
  O67      1.0000 0.84460  0.92552  0.77171  Biso   1.000  O
  C255     1.0000 0.95901  0.92132  0.77127  Biso   1.000  C
  O68      1.0000 0.07450  0.91908  0.77171  Biso   1.000  O
  C256     1.0000 0.08127  0.89193  0.72463  Biso   1.000  C
  C257     1.0000 0.11855  0.82408  0.68067  Biso   1.000  C
  C258     1.0000 0.81066  0.91874  0.72463  Biso   1.000  C
  C259     1.0000 0.70551  0.88145  0.68067  Biso   1.000  C
  C260     1.0000 0.70554  0.88150  0.68067  Biso   1.000  C
  H72      1.0000 0.93130  0.86804  0.77147  Biso   1.000  H
  H73      1.0000 0.93133  0.86810  0.77147  Biso   1.000  H
  N110     1.0000 0.11290  0.84892  0.72791  Biso   1.000  N
  N111     1.0000 0.11293  0.84897  0.72791  Biso   1.000  N
  Cl33     1.0000 0.15841  0.76704  0.68011  Biso   1.000  Cl
  Cl34     1.0000 0.15844  0.76710  0.68011  Biso   1.000  Cl
  N112     1.0000 0.73600  0.88705  0.72791  Biso   1.000  N
  N113     1.0000 0.73603  0.88711  0.72791  Biso   1.000  N
  Cl35     1.0000 0.60864  0.84157  0.68011  Biso   1.000  Cl
  Cl36     1.0000 0.60867  0.84163  0.68011  Biso   1.000  Cl
  N114     1.0000 0.16282  0.26201  0.63322  Biso   1.000  N
  C261     1.0000 0.11711  0.18759  0.63663  Biso   1.000  C
  C262     1.0000 0.17594  0.29448  0.68067  Biso   1.000  C
  O69      1.0000 0.10019  0.15299  0.58926  Biso   1.000  O
  N115     1.0000 0.08838  0.14811  0.68075  Biso   1.000  N
  N116     1.0000 0.16279  0.26195  0.63322  Biso   1.000  N
  N117     1.0000 0.15107  0.26397  0.72791  Biso   1.000  N
  N118     1.0000 0.15110  0.26403  0.72791  Biso   1.000  N
  Cl37     1.0000 0.23292  0.39133  0.68011  Biso   1.000  Cl
  Cl38     1.0000 0.23294  0.39139  0.68011  Biso   1.000  Cl
  C263     1.0000 0.04878  0.07464  0.58958  Biso   1.000  C
  C264     1.0000 0.10810  0.18938  0.72463  Biso   1.000  C
  C265     1.0000 0.07751  0.02681  0.58942  Biso   1.000  C
  C266     1.0000 0.97322  0.05075  0.58942  Biso   1.000  C
  O70      1.0000 0.08095  0.15540  0.77171  Biso   1.000  O
  O71      1.0000 0.08098  0.15546  0.77171  Biso   1.000  O
  H74      1.0000 0.12992  0.04498  0.58918  Biso   1.000  H
  C267     1.0000 0.02587  0.95121  0.58958  Biso   1.000  C
  C268     1.0000 0.02590  0.95127  0.58958  Biso   1.000  C
  C269     1.0000 0.92539  0.97415  0.58958  Biso   1.000  C
  H75      1.0000 0.95501  0.08496  0.58918  Biso   1.000  H
  H76      1.0000 0.95504  0.08502  0.58918  Biso   1.000  H
  C270     1.0000 0.03959  0.07627  0.77115  Biso   1.000  C
  C271     1.0000 0.94930  0.92250  0.58942  Biso   1.000  C
  O72      1.0000 0.05276  0.89978  0.58926  Biso   1.000  O
  O73      1.0000 0.05279  0.89984  0.58926  Biso   1.000  O
  O74      1.0000 0.84705  0.94723  0.58926  Biso   1.000  O
  C272     1.0000 0.96231  0.04099  0.77127  Biso   1.000  C
  C273     1.0000 0.07868  0.03769  0.77127  Biso   1.000  C
  C274     1.0000 0.07871  0.03774  0.77127  Biso   1.000  C
  H77      1.0000 0.91502  0.87006  0.58918  Biso   1.000  H
  H78      1.0000 0.91505  0.87012  0.58918  Biso   1.000  H
  C275     1.0000 0.07050  0.88290  0.63663  Biso   1.000  C
  C276     1.0000 0.07052  0.88296  0.63663  Biso   1.000  C
  C277     1.0000 0.81240  0.92951  0.63663  Biso   1.000  C
  C278     1.0000 0.92372  0.96332  0.77115  Biso   1.000  C
  C279     1.0000 0.92375  0.96338  0.77115  Biso   1.000  C
  H79      1.0000 0.93670  0.06864  0.77147  Biso   1.000  H
  H80      1.0000 0.93673  0.06870  0.77147  Biso   1.000  H
  C280     1.0000 0.03669  0.96041  0.77115  Biso   1.000  C
  H81      1.0000 0.13192  0.06326  0.77147  Biso   1.000  H
  H82      1.0000 0.13195  0.06332  0.77147  Biso   1.000  H
  N119     1.0000 0.05977  0.91167  0.68075  Biso   1.000  N
  N120     1.0000 0.09917  0.83720  0.63322  Biso   1.000  N
  N121     1.0000 0.85192  0.94027  0.68075  Biso   1.000  N
  N122     1.0000 0.73804  0.90085  0.63322  Biso   1.000  N
  O75      1.0000 0.84460  0.92552  0.77171  Biso   1.000  O
  C281     1.0000 0.95901  0.92132  0.77127  Biso   1.000  C
  O76      1.0000 0.07450  0.91908  0.77171  Biso   1.000  O
  C282     1.0000 0.08127  0.89193  0.72463  Biso   1.000  C
  C283     1.0000 0.11855  0.82408  0.68067  Biso   1.000  C
  C284     1.0000 0.81066  0.91874  0.72463  Biso   1.000  C
  C285     1.0000 0.70551  0.88145  0.68067  Biso   1.000  C
  C286     1.0000 0.70554  0.88150  0.68067  Biso   1.000  C
  H83      1.0000 0.93130  0.86804  0.77147  Biso   1.000  H
  H84      1.0000 0.93133  0.86810  0.77147  Biso   1.000  H
  N123     1.0000 0.11290  0.84892  0.72791  Biso   1.000  N
  N124     1.0000 0.11293  0.84897  0.72791  Biso   1.000  N
  Cl39     1.0000 0.15841  0.76704  0.68011  Biso   1.000  Cl
  Cl40     1.0000 0.15844  0.76710  0.68011  Biso   1.000  Cl
  N125     1.0000 0.73600  0.88705  0.72791  Biso   1.000  N
  N126     1.0000 0.73603  0.88711  0.72791  Biso   1.000  N
  Cl41     1.0000 0.60864  0.84157  0.68011  Biso   1.000  Cl
  Cl42     1.0000 0.60867  0.84163  0.68011  Biso   1.000  Cl
  C287     1.0000 0.37103  0.62569  0.89538  Biso   1.000  C
  C288     1.0000 0.29375  0.59042  0.89554  Biso   1.000  C
  C289     1.0000 0.40959  0.70331  0.89554  Biso   1.000  C
  H85      1.0000 0.39661  0.59799  0.89522  Biso   1.000  H
  O77      1.0000 0.25236  0.51123  0.89494  Biso   1.000  O
  C290     1.0000 0.25464  0.62894  0.89538  Biso   1.000  C
  C291     1.0000 0.37434  0.74537  0.89538  Biso   1.000  C
  O78      1.0000 0.48875  0.74116  0.89494  Biso   1.000  O
  C292     1.0000 0.22525  0.47730  0.94207  Biso   1.000  C
  C293     1.0000 0.29666  0.70628  0.89554  Biso   1.000  C
  H86      1.0000 0.20142  0.60343  0.89522  Biso   1.000  H
  H87      1.0000 0.40201  0.79859  0.89522  Biso   1.000  H
  C294     1.0000 0.52269  0.74795  0.94207  Biso   1.000  C
  N127     1.0000 0.18224  0.40266  0.93878  Biso   1.000  N
  N128     1.0000 0.24496  0.51858  0.98595  Biso   1.000  N
  O79      1.0000 0.25885  0.74761  0.89494  Biso   1.000  O
  N129     1.0000 0.59732  0.77958  0.93878  Biso   1.000  N
  N130     1.0000 0.48142  0.72641  0.98595  Biso   1.000  N
  C295     1.0000 0.15740  0.37221  0.98603  Biso   1.000  C
  C296     1.0000 0.21624  0.47910  0.03003  Biso   1.000  C
  C297     1.0000 0.25207  0.77475  0.94207  Biso   1.000  C
  C298     1.0000 0.62780  0.78519  0.98603  Biso   1.000  C
  C299     1.0000 0.52095  0.73718  0.03003  Biso   1.000  C
  Cl43     1.0000 0.10040  0.27530  0.98655  Biso   1.000  Cl
  N131     1.0000 0.17053  0.40468  0.03347  Biso   1.000  N
  O80      1.0000 0.23315  0.51370  0.07743  Biso   1.000  O
  N132     1.0000 0.22044  0.81777  0.93878  Biso   1.000  N
  N133     1.0000 0.27357  0.75501  0.98595  Biso   1.000  N
  Cl44     1.0000 0.72467  0.82506  0.98655  Biso   1.000  Cl
  N134     1.0000 0.59530  0.76584  0.03347  Biso   1.000  N
  O81      1.0000 0.48630  0.71946  0.07743  Biso   1.000  O
  C300     1.0000 0.28456  0.59204  0.07707  Biso   1.000  C
  C301     1.0000 0.21480  0.84261  0.98603  Biso   1.000  C
  C302     1.0000 0.26282  0.78373  0.03003  Biso   1.000  C
  C303     1.0000 0.40795  0.69254  0.07707  Biso   1.000  C
  C304     1.0000 0.25583  0.63988  0.07727  Biso   1.000  C
  C305     1.0000 0.36013  0.61593  0.07727  Biso   1.000  C
  Cl45     1.0000 0.17490  0.89959  0.98655  Biso   1.000  Cl
  N135     1.0000 0.23417  0.82949  0.03347  Biso   1.000  N
  O82      1.0000 0.28056  0.76685  0.07743  Biso   1.000  O
  C306     1.0000 0.38404  0.74419  0.07727  Biso   1.000  C
  C307     1.0000 0.30744  0.71542  0.07707  Biso   1.000  C
  H88      1.0000 0.20342  0.62171  0.07751  Biso   1.000  H
  H89      1.0000 0.37833  0.58172  0.07751  Biso   1.000  H
  H90      1.0000 0.41832  0.79663  0.07751  Biso   1.000  H
  C308     1.0000 0.62899  0.37434  0.10462  Biso   1.000  C
  C309     1.0000 0.59039  0.29667  0.10446  Biso   1.000  C
  C310     1.0000 0.70626  0.40961  0.10446  Biso   1.000  C
  H91      1.0000 0.60337  0.40199  0.10482  Biso   1.000  H
  O83      1.0000 0.51127  0.25887  0.10506  Biso   1.000  O
  C311     1.0000 0.62568  0.25466  0.10462  Biso   1.000  C
  C312     1.0000 0.74535  0.37103  0.10462  Biso   1.000  C
  O84      1.0000 0.74763  0.48874  0.10506  Biso   1.000  O
  C313     1.0000 0.47733  0.25208  0.05793  Biso   1.000  C
  C314     1.0000 0.70336  0.29375  0.10446  Biso   1.000  C
  H92      1.0000 0.59797  0.20139  0.10482  Biso   1.000  H
  H93      1.0000 0.79859  0.39660  0.10482  Biso   1.000  H
  C315     1.0000 0.77474  0.52267  0.05793  Biso   1.000  C
  N136     1.0000 0.40267  0.22040  0.06126  Biso   1.000  N
  N137     1.0000 0.51860  0.27362  0.01405  Biso   1.000  N
  O85      1.0000 0.74114  0.25236  0.10506  Biso   1.000  O
  N138     1.0000 0.81774  0.59731  0.06126  Biso   1.000  N
  N139     1.0000 0.75503  0.48140  0.01405  Biso   1.000  N
  C316     1.0000 0.37218  0.21479  0.01397  Biso   1.000  C
  C317     1.0000 0.47907  0.26285  0.96997  Biso   1.000  C
  C318     1.0000 0.74795  0.22528  0.05793  Biso   1.000  C
  C319     1.0000 0.84261  0.62782  0.01397  Biso   1.000  C
  C320     1.0000 0.78378  0.52093  0.96997  Biso   1.000  C
  Cl46     1.0000 0.27532  0.17492  0.01345  Biso   1.000  Cl
  N140     1.0000 0.40471  0.23419  0.96653  Biso   1.000  N
  O86      1.0000 0.51372  0.28057  0.92261  Biso   1.000  O
  N141     1.0000 0.77957  0.18226  0.06126  Biso   1.000  N
  N142     1.0000 0.72641  0.24496  0.01405  Biso   1.000  N
  N143     1.0000 0.82946  0.59530  0.96653  Biso   1.000  N
  Cl47     1.0000 0.89959  0.72467  0.01345  Biso   1.000  Cl
  O87      1.0000 0.76687  0.48633  0.92261  Biso   1.000  O
  C321     1.0000 0.59206  0.30749  0.92293  Biso   1.000  C
  C322     1.0000 0.78522  0.15742  0.01397  Biso   1.000  C
  C323     1.0000 0.73717  0.21625  0.96997  Biso   1.000  C
  C324     1.0000 0.71546  0.40799  0.92293  Biso   1.000  C
  C325     1.0000 0.63986  0.38404  0.92277  Biso   1.000  C
  C326     1.0000 0.61594  0.25578  0.92277  Biso   1.000  C
  N144     1.0000 0.76582  0.17049  0.96653  Biso   1.000  N
  Cl48     1.0000 0.82508  0.10038  0.01345  Biso   1.000  Cl
  O88      1.0000 0.71943  0.23313  0.92261  Biso   1.000  O
  C327     1.0000 0.74418  0.36015  0.92277  Biso   1.000  C
  H94      1.0000 0.62168  0.41831  0.92249  Biso   1.000  H
  C328     1.0000 0.69254  0.28455  0.92293  Biso   1.000  C
  H95      1.0000 0.58169  0.20340  0.92249  Biso   1.000  H
  H96      1.0000 0.79659  0.37832  0.92249  Biso   1.000  H
