data_image0
_cell_length_a       23.342
_cell_length_b       23.342
_cell_length_c       11.302
_cell_angle_alpha    90
_cell_angle_beta     90
_cell_angle_gamma    120

_symmetry_space_group_name_H-M    "P 1"
_symmetry_int_tables_number       1

loop_
  _symmetry_equiv_pos_as_xyz
  'x, y, z'

loop_
  _atom_site_label
  _atom_site_occupancy
  _atom_site_fract_x
  _atom_site_fract_y
  _atom_site_fract_z
  _atom_site_thermal_displace_type
  _atom_site_B_iso_or_equiv
  _atom_site_type_symbol
  N1       1.0000 0.84471  0.78512  0.60618  Biso   1.000  N
  C1       1.0000 0.84097  0.74911  0.50062  Biso   1.000  C
  C2       1.0000 0.79073  0.79036  0.65528  Biso   1.000  C
  C3       1.0000 0.90198  0.80397  0.66802  Biso   1.000  C
  C4       1.0000 0.78161  0.68480  0.50513  Biso   1.000  C
  N2       1.0000 0.84441  0.78428  0.39170  Biso   1.000  N
  C5       1.0000 0.90814  0.74911  0.50062  Biso   1.000  C
  N3       1.0000 0.84439  0.78423  0.39170  Biso   1.000  N
  N4       1.0000 0.84468  0.78507  0.60618  Biso   1.000  N
  H1       1.0000 0.74983  0.74925  0.64059  Biso   1.000  H
  H2       1.0000 0.79651  0.79566  0.74022  Biso   1.000  H
  N5       1.0000 0.78427  0.84443  0.60830  Biso   1.000  N
  N6       1.0000 0.78424  0.84438  0.60830  Biso   1.000  N
  N7       1.0000 0.94041  0.78512  0.60618  Biso   1.000  N
  N8       1.0000 0.94039  0.78507  0.60618  Biso   1.000  N
  O1       1.0000 0.91591  0.83182  0.76314  Biso   1.000  O
  C6       1.0000 0.90146  0.80293  0.33295  Biso   1.000  C
  C7       1.0000 0.79038  0.79076  0.34472  Biso   1.000  C
  C8       1.0000 0.90319  0.68480  0.50513  Biso   1.000  C
  N9       1.0000 0.93986  0.78428  0.39170  Biso   1.000  N
  N10      1.0000 0.93984  0.78423  0.39170  Biso   1.000  N
  C9       1.0000 0.74914  0.84102  0.49938  Biso   1.000  C
  C10      1.0000 0.74912  0.84097  0.49938  Biso   1.000  C
  C11      1.0000 0.80293  0.90147  0.66705  Biso   1.000  C
  C12      1.0000 0.99963  0.79036  0.65528  Biso   1.000  C
  O2       1.0000 0.91613  0.83226  0.23624  Biso   1.000  O
  N11      1.0000 0.78510  0.84473  0.39382  Biso   1.000  N
  H3       1.0000 0.74927  0.74985  0.35941  Biso   1.000  H
  H4       1.0000 0.79567  0.79655  0.25978  Biso   1.000  H
  C13      1.0000 0.00038  0.79076  0.34472  Biso   1.000  C
  C14      1.0000 0.74912  0.90815  0.49938  Biso   1.000  C
  C15      1.0000 0.68478  0.78161  0.49487  Biso   1.000  C
  N12      1.0000 0.78425  0.93986  0.60830  Biso   1.000  N
  O3       1.0000 0.83226  0.91616  0.76376  Biso   1.000  O
  O4       1.0000 0.83223  0.91611  0.76376  Biso   1.000  O
  H5       1.0000 0.99942  0.74925  0.64059  Biso   1.000  H
  H6       1.0000 0.99915  0.79566  0.74022  Biso   1.000  H
  N13      1.0000 0.06016  0.84443  0.60830  Biso   1.000  N
  N14      1.0000 0.06014  0.84438  0.60830  Biso   1.000  N
  C16      1.0000 0.80398  0.90201  0.33198  Biso   1.000  C
  C17      1.0000 0.80395  0.90196  0.33198  Biso   1.000  C
  H7       1.0000 0.00058  0.74985  0.35941  Biso   1.000  H
  H8       1.0000 0.00088  0.79655  0.25978  Biso   1.000  H
  N15      1.0000 0.05963  0.84473  0.39382  Biso   1.000  N
  N16      1.0000 0.78508  0.94040  0.39382  Biso   1.000  N
  N17      1.0000 0.78506  0.94035  0.39382  Biso   1.000  N
  C18      1.0000 0.68479  0.90320  0.49487  Biso   1.000  C
  C19      1.0000 0.68476  0.90315  0.49487  Biso   1.000  C
  C20      1.0000 0.79075  0.00041  0.65528  Biso   1.000  C
  C21      1.0000 0.79073  0.00036  0.65528  Biso   1.000  C
  C22      1.0000 0.09187  0.84102  0.49938  Biso   1.000  C
  C23      1.0000 0.09185  0.84097  0.49938  Biso   1.000  C
  C24      1.0000 0.09854  0.90147  0.66705  Biso   1.000  C
  O5       1.0000 0.83179  0.91591  0.23686  Biso   1.000  O
  C25      1.0000 0.09804  0.90201  0.33198  Biso   1.000  C
  C26      1.0000 0.09801  0.90196  0.33198  Biso   1.000  C
  C27      1.0000 0.79036  0.99962  0.34472  Biso   1.000  C
  N18      1.0000 0.84469  0.05962  0.60618  Biso   1.000  N
  H9       1.0000 0.74983  0.00056  0.64059  Biso   1.000  H
  H10      1.0000 0.79657  0.00090  0.74022  Biso   1.000  H
  H11      1.0000 0.79654  0.00085  0.74022  Biso   1.000  H
  C28      1.0000 0.09683  0.78161  0.49487  Biso   1.000  C
  C29      1.0000 0.15903  0.90815  0.49938  Biso   1.000  C
  O6       1.0000 0.08391  0.91616  0.76376  Biso   1.000  O
  N19      1.0000 0.15560  0.93986  0.60830  Biso   1.000  N
  O7       1.0000 0.08388  0.91611  0.76376  Biso   1.000  O
  O8       1.0000 0.08412  0.91591  0.23686  Biso   1.000  O
  N20      1.0000 0.15532  0.94040  0.39382  Biso   1.000  N
  N21      1.0000 0.15529  0.94035  0.39382  Biso   1.000  N
  H12      1.0000 0.74928  0.99947  0.35941  Biso   1.000  H
  H13      1.0000 0.79568  0.99912  0.25978  Biso   1.000  H
  H14      1.0000 0.74926  0.99942  0.35941  Biso   1.000  H
  N22      1.0000 0.84441  0.06017  0.39170  Biso   1.000  N
  C30      1.0000 0.84099  0.09188  0.50062  Biso   1.000  C
  C31      1.0000 0.90197  0.09801  0.66802  Biso   1.000  C
  C32      1.0000 0.21842  0.90320  0.49487  Biso   1.000  C
  C33      1.0000 0.21839  0.90315  0.49487  Biso   1.000  C
  C34      1.0000 0.20965  0.00041  0.65528  Biso   1.000  C
  C35      1.0000 0.20963  0.00036  0.65528  Biso   1.000  C
  C36      1.0000 0.20926  0.99962  0.34472  Biso   1.000  C
  C37      1.0000 0.90147  0.09855  0.33295  Biso   1.000  C
  C38      1.0000 0.78160  0.09682  0.50513  Biso   1.000  C
  C39      1.0000 0.90814  0.15900  0.50062  Biso   1.000  C
  O9       1.0000 0.91589  0.08411  0.76314  Biso   1.000  O
  N23      1.0000 0.94038  0.15529  0.60618  Biso   1.000  N
  H15      1.0000 0.25073  0.00056  0.64059  Biso   1.000  H
  H16      1.0000 0.20433  0.00090  0.74022  Biso   1.000  H
  N24      1.0000 0.21493  0.05962  0.60618  Biso   1.000  N
  H17      1.0000 0.20431  0.00085  0.74022  Biso   1.000  H
  H18      1.0000 0.25018  0.99947  0.35941  Biso   1.000  H
  H19      1.0000 0.20344  0.99912  0.25978  Biso   1.000  H
  H20      1.0000 0.25016  0.99942  0.35941  Biso   1.000  H
  N25      1.0000 0.21576  0.06017  0.39170  Biso   1.000  N
  O10      1.0000 0.91611  0.08386  0.23624  Biso   1.000  O
  N26      1.0000 0.93985  0.15559  0.39170  Biso   1.000  N
  C40      1.0000 0.90318  0.21842  0.50513  Biso   1.000  C
  C41      1.0000 0.90316  0.21837  0.50513  Biso   1.000  C
  C42      1.0000 0.99963  0.20926  0.65528  Biso   1.000  C
  C43      1.0000 0.25089  0.09188  0.50062  Biso   1.000  C
  C44      1.0000 0.19604  0.09801  0.66802  Biso   1.000  C
  C45      1.0000 0.19708  0.09855  0.33295  Biso   1.000  C
  C46      1.0000 0.00038  0.20966  0.34472  Biso   1.000  C
  C47      1.0000 0.00036  0.20961  0.34472  Biso   1.000  C
  H21      1.0000 0.99943  0.25018  0.64059  Biso   1.000  H
  H22      1.0000 0.99913  0.20348  0.74022  Biso   1.000  H
  N27      1.0000 0.06015  0.21575  0.60830  Biso   1.000  N
  C48      1.0000 0.25087  0.15900  0.50062  Biso   1.000  C
  C49      1.0000 0.31523  0.09682  0.50513  Biso   1.000  C
  N28      1.0000 0.21491  0.15529  0.60618  Biso   1.000  N
  O11      1.0000 0.16822  0.08411  0.76314  Biso   1.000  O
  N29      1.0000 0.21574  0.15559  0.39170  Biso   1.000  N
  O12      1.0000 0.16776  0.08386  0.23624  Biso   1.000  O
  H23      1.0000 0.00059  0.25077  0.35941  Biso   1.000  H
  H24      1.0000 0.00086  0.20437  0.25978  Biso   1.000  H
  N30      1.0000 0.05960  0.21490  0.39382  Biso   1.000  N
  H25      1.0000 0.00056  0.25072  0.35941  Biso   1.000  H
  H26      1.0000 0.00084  0.20432  0.25978  Biso   1.000  H
  C50      1.0000 0.09187  0.25092  0.49938  Biso   1.000  C
  C51      1.0000 0.09185  0.25087  0.49938  Biso   1.000  C
  C52      1.0000 0.09855  0.19710  0.66705  Biso   1.000  C
  C53      1.0000 0.09852  0.19705  0.66705  Biso   1.000  C
  C54      1.0000 0.31523  0.21842  0.50513  Biso   1.000  C
  C55      1.0000 0.31521  0.21837  0.50513  Biso   1.000  C
  C56      1.0000 0.20964  0.20926  0.65528  Biso   1.000  C
  C57      1.0000 0.20928  0.20966  0.34472  Biso   1.000  C
  C58      1.0000 0.20925  0.20961  0.34472  Biso   1.000  C
  C59      1.0000 0.09803  0.19606  0.33198  Biso   1.000  C
  C60      1.0000 0.09800  0.19601  0.33198  Biso   1.000  C
  C61      1.0000 0.09682  0.31523  0.49487  Biso   1.000  C
  C62      1.0000 0.15905  0.25092  0.49938  Biso   1.000  C
  C63      1.0000 0.15902  0.25087  0.49938  Biso   1.000  C
  N31      1.0000 0.15560  0.21575  0.60830  Biso   1.000  N
  O13      1.0000 0.08388  0.16776  0.76376  Biso   1.000  O
  H27      1.0000 0.25074  0.25018  0.64059  Biso   1.000  H
  H28      1.0000 0.20434  0.20348  0.74022  Biso   1.000  H
  N32      1.0000 0.15531  0.21490  0.39382  Biso   1.000  N
  H29      1.0000 0.25018  0.25077  0.35941  Biso   1.000  H
  H30      1.0000 0.20350  0.20437  0.25978  Biso   1.000  H
  H31      1.0000 0.25016  0.25072  0.35941  Biso   1.000  H
  H32      1.0000 0.20348  0.20432  0.25978  Biso   1.000  H
  O14      1.0000 0.08410  0.16821  0.23686  Biso   1.000  O
  C64      1.0000 0.21841  0.31523  0.49487  Biso   1.000  C
  N33      1.0000 0.84471  0.78512  0.60618  Biso   1.000  N
  C65      1.0000 0.84097  0.74911  0.50062  Biso   1.000  C
  C66      1.0000 0.79073  0.79036  0.65528  Biso   1.000  C
  C67      1.0000 0.90198  0.80397  0.66802  Biso   1.000  C
  C68      1.0000 0.78161  0.68480  0.50513  Biso   1.000  C
  C69      1.0000 0.90814  0.74911  0.50062  Biso   1.000  C
  N34      1.0000 0.84441  0.78428  0.39170  Biso   1.000  N
  N35      1.0000 0.84439  0.78423  0.39170  Biso   1.000  N
  N36      1.0000 0.84468  0.78507  0.60618  Biso   1.000  N
  H33      1.0000 0.74983  0.74925  0.64059  Biso   1.000  H
  H34      1.0000 0.79651  0.79566  0.74022  Biso   1.000  H
  N37      1.0000 0.78427  0.84443  0.60830  Biso   1.000  N
  N38      1.0000 0.78424  0.84438  0.60830  Biso   1.000  N
  N39      1.0000 0.94041  0.78512  0.60618  Biso   1.000  N
  N40      1.0000 0.94039  0.78507  0.60618  Biso   1.000  N
  O15      1.0000 0.91591  0.83182  0.76314  Biso   1.000  O
  C70      1.0000 0.90319  0.68480  0.50513  Biso   1.000  C
  N41      1.0000 0.93986  0.78428  0.39170  Biso   1.000  N
  N42      1.0000 0.93984  0.78423  0.39170  Biso   1.000  N
  C71      1.0000 0.90146  0.80293  0.33295  Biso   1.000  C
  C72      1.0000 0.79038  0.79076  0.34472  Biso   1.000  C
  C73      1.0000 0.74914  0.84102  0.49938  Biso   1.000  C
  C74      1.0000 0.74912  0.84097  0.49938  Biso   1.000  C
  C75      1.0000 0.80293  0.90147  0.66705  Biso   1.000  C
  C76      1.0000 0.99963  0.79036  0.65528  Biso   1.000  C
  C77      1.0000 0.00038  0.79076  0.34472  Biso   1.000  C
  O16      1.0000 0.91613  0.83226  0.23624  Biso   1.000  O
  N43      1.0000 0.78510  0.84473  0.39382  Biso   1.000  N
  H35      1.0000 0.74927  0.74985  0.35941  Biso   1.000  H
  H36      1.0000 0.79567  0.79655  0.25978  Biso   1.000  H
  C78      1.0000 0.74912  0.90815  0.49938  Biso   1.000  C
  C79      1.0000 0.68478  0.78161  0.49487  Biso   1.000  C
  N44      1.0000 0.78425  0.93986  0.60830  Biso   1.000  N
  O17      1.0000 0.83226  0.91616  0.76376  Biso   1.000  O
  O18      1.0000 0.83223  0.91611  0.76376  Biso   1.000  O
  H37      1.0000 0.99942  0.74925  0.64059  Biso   1.000  H
  H38      1.0000 0.99915  0.79566  0.74022  Biso   1.000  H
  N45      1.0000 0.06016  0.84443  0.60830  Biso   1.000  N
  N46      1.0000 0.06014  0.84438  0.60830  Biso   1.000  N
  H39      1.0000 0.00058  0.74985  0.35941  Biso   1.000  H
  H40      1.0000 0.00088  0.79655  0.25978  Biso   1.000  H
  N47      1.0000 0.05963  0.84473  0.39382  Biso   1.000  N
  C80      1.0000 0.80398  0.90201  0.33198  Biso   1.000  C
  C81      1.0000 0.80395  0.90196  0.33198  Biso   1.000  C
  N48      1.0000 0.78508  0.94040  0.39382  Biso   1.000  N
  N49      1.0000 0.78506  0.94035  0.39382  Biso   1.000  N
  C82      1.0000 0.68479  0.90320  0.49487  Biso   1.000  C
  C83      1.0000 0.68476  0.90315  0.49487  Biso   1.000  C
  C84      1.0000 0.79075  0.00041  0.65528  Biso   1.000  C
  C85      1.0000 0.79073  0.00036  0.65528  Biso   1.000  C
  C86      1.0000 0.09187  0.84102  0.49938  Biso   1.000  C
  C87      1.0000 0.09185  0.84097  0.49938  Biso   1.000  C
  C88      1.0000 0.09854  0.90147  0.66705  Biso   1.000  C
  C89      1.0000 0.09804  0.90201  0.33198  Biso   1.000  C
  C90      1.0000 0.09801  0.90196  0.33198  Biso   1.000  C
  O19      1.0000 0.83179  0.91591  0.23686  Biso   1.000  O
  C91      1.0000 0.79036  0.99962  0.34472  Biso   1.000  C
  N50      1.0000 0.84469  0.05962  0.60618  Biso   1.000  N
  H41      1.0000 0.74983  0.00056  0.64059  Biso   1.000  H
  H42      1.0000 0.79657  0.00090  0.74022  Biso   1.000  H
  H43      1.0000 0.79654  0.00085  0.74022  Biso   1.000  H
  C92      1.0000 0.09683  0.78161  0.49487  Biso   1.000  C
  C93      1.0000 0.15903  0.90815  0.49938  Biso   1.000  C
  O20      1.0000 0.08391  0.91616  0.76376  Biso   1.000  O
  N51      1.0000 0.15560  0.93986  0.60830  Biso   1.000  N
  O21      1.0000 0.08388  0.91611  0.76376  Biso   1.000  O
  O22      1.0000 0.08412  0.91591  0.23686  Biso   1.000  O
  N52      1.0000 0.15532  0.94040  0.39382  Biso   1.000  N
  N53      1.0000 0.15529  0.94035  0.39382  Biso   1.000  N
  H44      1.0000 0.79568  0.99912  0.25978  Biso   1.000  H
  H45      1.0000 0.74928  0.99947  0.35941  Biso   1.000  H
  H46      1.0000 0.74926  0.99942  0.35941  Biso   1.000  H
  N54      1.0000 0.84441  0.06017  0.39170  Biso   1.000  N
  C94      1.0000 0.84099  0.09188  0.50062  Biso   1.000  C
  C95      1.0000 0.90197  0.09801  0.66802  Biso   1.000  C
  C96      1.0000 0.21842  0.90320  0.49487  Biso   1.000  C
  C97      1.0000 0.21839  0.90315  0.49487  Biso   1.000  C
  C98      1.0000 0.20965  0.00041  0.65528  Biso   1.000  C
  C99      1.0000 0.20963  0.00036  0.65528  Biso   1.000  C
  C100     1.0000 0.20926  0.99962  0.34472  Biso   1.000  C
  C101     1.0000 0.90147  0.09855  0.33295  Biso   1.000  C
  C102     1.0000 0.78160  0.09682  0.50513  Biso   1.000  C
  C103     1.0000 0.90814  0.15900  0.50062  Biso   1.000  C
  O23      1.0000 0.91589  0.08411  0.76314  Biso   1.000  O
  N55      1.0000 0.94038  0.15529  0.60618  Biso   1.000  N
  H47      1.0000 0.25073  0.00056  0.64059  Biso   1.000  H
  H48      1.0000 0.20433  0.00090  0.74022  Biso   1.000  H
  N56      1.0000 0.21493  0.05962  0.60618  Biso   1.000  N
  H49      1.0000 0.20431  0.00085  0.74022  Biso   1.000  H
  H50      1.0000 0.25018  0.99947  0.35941  Biso   1.000  H
  H51      1.0000 0.20344  0.99912  0.25978  Biso   1.000  H
  H52      1.0000 0.25016  0.99942  0.35941  Biso   1.000  H
  N57      1.0000 0.21576  0.06017  0.39170  Biso   1.000  N
  O24      1.0000 0.91611  0.08386  0.23624  Biso   1.000  O
  N58      1.0000 0.93985  0.15559  0.39170  Biso   1.000  N
  C104     1.0000 0.90318  0.21842  0.50513  Biso   1.000  C
  C105     1.0000 0.90316  0.21837  0.50513  Biso   1.000  C
  C106     1.0000 0.99963  0.20926  0.65528  Biso   1.000  C
  C107     1.0000 0.25089  0.09188  0.50062  Biso   1.000  C
  C108     1.0000 0.19604  0.09801  0.66802  Biso   1.000  C
  C109     1.0000 0.19708  0.09855  0.33295  Biso   1.000  C
  C110     1.0000 0.00038  0.20966  0.34472  Biso   1.000  C
  C111     1.0000 0.00036  0.20961  0.34472  Biso   1.000  C
  H53      1.0000 0.99943  0.25018  0.64059  Biso   1.000  H
  H54      1.0000 0.99913  0.20348  0.74022  Biso   1.000  H
  N59      1.0000 0.06015  0.21575  0.60830  Biso   1.000  N
  C112     1.0000 0.25087  0.15900  0.50062  Biso   1.000  C
  C113     1.0000 0.31523  0.09682  0.50513  Biso   1.000  C
  N60      1.0000 0.21491  0.15529  0.60618  Biso   1.000  N
  O25      1.0000 0.16822  0.08411  0.76314  Biso   1.000  O
  N61      1.0000 0.21574  0.15559  0.39170  Biso   1.000  N
  O26      1.0000 0.16776  0.08386  0.23624  Biso   1.000  O
  H55      1.0000 0.00059  0.25077  0.35941  Biso   1.000  H
  H56      1.0000 0.00086  0.20437  0.25978  Biso   1.000  H
  N62      1.0000 0.05960  0.21490  0.39382  Biso   1.000  N
  H57      1.0000 0.00056  0.25072  0.35941  Biso   1.000  H
  H58      1.0000 0.00084  0.20432  0.25978  Biso   1.000  H
  C114     1.0000 0.09187  0.25092  0.49938  Biso   1.000  C
  C115     1.0000 0.09185  0.25087  0.49938  Biso   1.000  C
  C116     1.0000 0.09855  0.19710  0.66705  Biso   1.000  C
  C117     1.0000 0.09852  0.19705  0.66705  Biso   1.000  C
  C118     1.0000 0.31523  0.21842  0.50513  Biso   1.000  C
  C119     1.0000 0.31521  0.21837  0.50513  Biso   1.000  C
  C120     1.0000 0.20964  0.20926  0.65528  Biso   1.000  C
  C121     1.0000 0.20928  0.20966  0.34472  Biso   1.000  C
  C122     1.0000 0.20925  0.20961  0.34472  Biso   1.000  C
  C123     1.0000 0.09803  0.19606  0.33198  Biso   1.000  C
  C124     1.0000 0.09800  0.19601  0.33198  Biso   1.000  C
  C125     1.0000 0.15905  0.25092  0.49938  Biso   1.000  C
  C126     1.0000 0.15902  0.25087  0.49938  Biso   1.000  C
  C127     1.0000 0.09682  0.31523  0.49487  Biso   1.000  C
  N63      1.0000 0.15560  0.21575  0.60830  Biso   1.000  N
  O27      1.0000 0.08388  0.16776  0.76376  Biso   1.000  O
  H59      1.0000 0.25074  0.25018  0.64059  Biso   1.000  H
  H60      1.0000 0.20434  0.20348  0.74022  Biso   1.000  H
  N64      1.0000 0.15531  0.21490  0.39382  Biso   1.000  N
  H61      1.0000 0.25018  0.25077  0.35941  Biso   1.000  H
  H62      1.0000 0.20350  0.20437  0.25978  Biso   1.000  H
  H63      1.0000 0.25016  0.25072  0.35941  Biso   1.000  H
  H64      1.0000 0.20348  0.20432  0.25978  Biso   1.000  H
  O28      1.0000 0.08410  0.16821  0.23686  Biso   1.000  O
  C128     1.0000 0.21841  0.31523  0.49487  Biso   1.000  C
  N65      1.0000 0.84471  0.78512  0.60618  Biso   1.000  N
  C129     1.0000 0.84097  0.74911  0.50062  Biso   1.000  C
  C130     1.0000 0.79073  0.79036  0.65528  Biso   1.000  C
  C131     1.0000 0.90198  0.80397  0.66802  Biso   1.000  C
  C132     1.0000 0.78161  0.68480  0.50513  Biso   1.000  C
  C133     1.0000 0.90814  0.74911  0.50062  Biso   1.000  C
  N66      1.0000 0.84441  0.78428  0.39170  Biso   1.000  N
  N67      1.0000 0.84439  0.78423  0.39170  Biso   1.000  N
  N68      1.0000 0.84468  0.78507  0.60618  Biso   1.000  N
  H65      1.0000 0.74983  0.74925  0.64059  Biso   1.000  H
  H66      1.0000 0.79651  0.79566  0.74022  Biso   1.000  H
  N69      1.0000 0.78427  0.84443  0.60830  Biso   1.000  N
  N70      1.0000 0.78424  0.84438  0.60830  Biso   1.000  N
  N71      1.0000 0.94041  0.78512  0.60618  Biso   1.000  N
  N72      1.0000 0.94039  0.78507  0.60618  Biso   1.000  N
  O29      1.0000 0.91591  0.83182  0.76314  Biso   1.000  O
  C134     1.0000 0.90319  0.68480  0.50513  Biso   1.000  C
  N73      1.0000 0.93986  0.78428  0.39170  Biso   1.000  N
  N74      1.0000 0.93984  0.78423  0.39170  Biso   1.000  N
  C135     1.0000 0.90146  0.80293  0.33295  Biso   1.000  C
  C136     1.0000 0.79038  0.79076  0.34472  Biso   1.000  C
  C137     1.0000 0.74914  0.84102  0.49938  Biso   1.000  C
  C138     1.0000 0.74912  0.84097  0.49938  Biso   1.000  C
  C139     1.0000 0.80293  0.90147  0.66705  Biso   1.000  C
  C140     1.0000 0.99963  0.79036  0.65528  Biso   1.000  C
  C141     1.0000 0.00038  0.79076  0.34472  Biso   1.000  C
  O30      1.0000 0.91613  0.83226  0.23624  Biso   1.000  O
  N75      1.0000 0.78510  0.84473  0.39382  Biso   1.000  N
  H67      1.0000 0.74927  0.74985  0.35941  Biso   1.000  H
  H68      1.0000 0.79567  0.79655  0.25978  Biso   1.000  H
  C142     1.0000 0.74912  0.90815  0.49938  Biso   1.000  C
  C143     1.0000 0.68478  0.78161  0.49487  Biso   1.000  C
  N76      1.0000 0.78425  0.93986  0.60830  Biso   1.000  N
  O31      1.0000 0.83226  0.91616  0.76376  Biso   1.000  O
  O32      1.0000 0.83223  0.91611  0.76376  Biso   1.000  O
  H69      1.0000 0.99942  0.74925  0.64059  Biso   1.000  H
  H70      1.0000 0.99915  0.79566  0.74022  Biso   1.000  H
  N77      1.0000 0.06016  0.84443  0.60830  Biso   1.000  N
  N78      1.0000 0.06014  0.84438  0.60830  Biso   1.000  N
  H71      1.0000 0.00058  0.74985  0.35941  Biso   1.000  H
  H72      1.0000 0.00088  0.79655  0.25978  Biso   1.000  H
  N79      1.0000 0.05963  0.84473  0.39382  Biso   1.000  N
  C144     1.0000 0.80398  0.90201  0.33198  Biso   1.000  C
  C145     1.0000 0.80395  0.90196  0.33198  Biso   1.000  C
  N80      1.0000 0.78508  0.94040  0.39382  Biso   1.000  N
  N81      1.0000 0.78506  0.94035  0.39382  Biso   1.000  N
  C146     1.0000 0.68479  0.90320  0.49487  Biso   1.000  C
  C147     1.0000 0.68476  0.90315  0.49487  Biso   1.000  C
  C148     1.0000 0.79075  0.00041  0.65528  Biso   1.000  C
  C149     1.0000 0.79073  0.00036  0.65528  Biso   1.000  C
  C150     1.0000 0.09187  0.84102  0.49938  Biso   1.000  C
  C151     1.0000 0.09185  0.84097  0.49938  Biso   1.000  C
  C152     1.0000 0.09854  0.90147  0.66705  Biso   1.000  C
  C153     1.0000 0.09804  0.90201  0.33198  Biso   1.000  C
  C154     1.0000 0.09801  0.90196  0.33198  Biso   1.000  C
  O33      1.0000 0.83179  0.91591  0.23686  Biso   1.000  O
  C155     1.0000 0.79036  0.99962  0.34472  Biso   1.000  C
  N82      1.0000 0.84469  0.05962  0.60618  Biso   1.000  N
  H73      1.0000 0.74983  0.00056  0.64059  Biso   1.000  H
  H74      1.0000 0.79657  0.00090  0.74022  Biso   1.000  H
  H75      1.0000 0.79654  0.00085  0.74022  Biso   1.000  H
  C156     1.0000 0.09683  0.78161  0.49487  Biso   1.000  C
  C157     1.0000 0.15903  0.90815  0.49938  Biso   1.000  C
  O34      1.0000 0.08391  0.91616  0.76376  Biso   1.000  O
  N83      1.0000 0.15560  0.93986  0.60830  Biso   1.000  N
  O35      1.0000 0.08388  0.91611  0.76376  Biso   1.000  O
  O36      1.0000 0.08412  0.91591  0.23686  Biso   1.000  O
  N84      1.0000 0.15532  0.94040  0.39382  Biso   1.000  N
  N85      1.0000 0.15529  0.94035  0.39382  Biso   1.000  N
  H76      1.0000 0.79568  0.99912  0.25978  Biso   1.000  H
  H77      1.0000 0.74928  0.99947  0.35941  Biso   1.000  H
  H78      1.0000 0.74926  0.99942  0.35941  Biso   1.000  H
  N86      1.0000 0.84441  0.06017  0.39170  Biso   1.000  N
  C158     1.0000 0.84099  0.09188  0.50062  Biso   1.000  C
  C159     1.0000 0.90197  0.09801  0.66802  Biso   1.000  C
  C160     1.0000 0.21842  0.90320  0.49487  Biso   1.000  C
  C161     1.0000 0.21839  0.90315  0.49487  Biso   1.000  C
  C162     1.0000 0.20965  0.00041  0.65528  Biso   1.000  C
  C163     1.0000 0.20963  0.00036  0.65528  Biso   1.000  C
  C164     1.0000 0.20926  0.99962  0.34472  Biso   1.000  C
  C165     1.0000 0.90147  0.09855  0.33295  Biso   1.000  C
  C166     1.0000 0.78160  0.09682  0.50513  Biso   1.000  C
  C167     1.0000 0.90814  0.15900  0.50062  Biso   1.000  C
  O37      1.0000 0.91589  0.08411  0.76314  Biso   1.000  O
  N87      1.0000 0.94038  0.15529  0.60618  Biso   1.000  N
  H79      1.0000 0.25073  0.00056  0.64059  Biso   1.000  H
  H80      1.0000 0.20433  0.00090  0.74022  Biso   1.000  H
  N88      1.0000 0.21493  0.05962  0.60618  Biso   1.000  N
  H81      1.0000 0.20431  0.00085  0.74022  Biso   1.000  H
  H82      1.0000 0.25018  0.99947  0.35941  Biso   1.000  H
  H83      1.0000 0.20344  0.99912  0.25978  Biso   1.000  H
  H84      1.0000 0.25016  0.99942  0.35941  Biso   1.000  H
  N89      1.0000 0.21576  0.06017  0.39170  Biso   1.000  N
  O38      1.0000 0.91611  0.08386  0.23624  Biso   1.000  O
  N90      1.0000 0.93985  0.15559  0.39170  Biso   1.000  N
  C168     1.0000 0.90318  0.21842  0.50513  Biso   1.000  C
  C169     1.0000 0.90316  0.21837  0.50513  Biso   1.000  C
  C170     1.0000 0.99963  0.20926  0.65528  Biso   1.000  C
  C171     1.0000 0.25089  0.09188  0.50062  Biso   1.000  C
  C172     1.0000 0.19604  0.09801  0.66802  Biso   1.000  C
  C173     1.0000 0.19708  0.09855  0.33295  Biso   1.000  C
  C174     1.0000 0.00038  0.20966  0.34472  Biso   1.000  C
  C175     1.0000 0.00036  0.20961  0.34472  Biso   1.000  C
  H85      1.0000 0.99943  0.25018  0.64059  Biso   1.000  H
  H86      1.0000 0.99913  0.20348  0.74022  Biso   1.000  H
  N91      1.0000 0.06015  0.21575  0.60830  Biso   1.000  N
  C176     1.0000 0.25087  0.15900  0.50062  Biso   1.000  C
  C177     1.0000 0.31523  0.09682  0.50513  Biso   1.000  C
  N92      1.0000 0.21491  0.15529  0.60618  Biso   1.000  N
  O39      1.0000 0.16822  0.08411  0.76314  Biso   1.000  O
  N93      1.0000 0.21574  0.15559  0.39170  Biso   1.000  N
  O40      1.0000 0.16776  0.08386  0.23624  Biso   1.000  O
  H87      1.0000 0.00059  0.25077  0.35941  Biso   1.000  H
  H88      1.0000 0.00086  0.20437  0.25978  Biso   1.000  H
  N94      1.0000 0.05960  0.21490  0.39382  Biso   1.000  N
  H89      1.0000 0.00056  0.25072  0.35941  Biso   1.000  H
  H90      1.0000 0.00084  0.20432  0.25978  Biso   1.000  H
  C178     1.0000 0.09187  0.25092  0.49938  Biso   1.000  C
  C179     1.0000 0.09185  0.25087  0.49938  Biso   1.000  C
  C180     1.0000 0.09855  0.19710  0.66705  Biso   1.000  C
  C181     1.0000 0.09852  0.19705  0.66705  Biso   1.000  C
  C182     1.0000 0.31523  0.21842  0.50513  Biso   1.000  C
  C183     1.0000 0.31521  0.21837  0.50513  Biso   1.000  C
  C184     1.0000 0.20964  0.20926  0.65528  Biso   1.000  C
  C185     1.0000 0.20928  0.20966  0.34472  Biso   1.000  C
  C186     1.0000 0.20925  0.20961  0.34472  Biso   1.000  C
  C187     1.0000 0.09803  0.19606  0.33198  Biso   1.000  C
  C188     1.0000 0.09800  0.19601  0.33198  Biso   1.000  C
  C189     1.0000 0.15905  0.25092  0.49938  Biso   1.000  C
  C190     1.0000 0.15902  0.25087  0.49938  Biso   1.000  C
  C191     1.0000 0.09682  0.31523  0.49487  Biso   1.000  C
  N95      1.0000 0.15560  0.21575  0.60830  Biso   1.000  N
  O41      1.0000 0.08388  0.16776  0.76376  Biso   1.000  O
  H91      1.0000 0.25074  0.25018  0.64059  Biso   1.000  H
  H92      1.0000 0.20434  0.20348  0.74022  Biso   1.000  H
  N96      1.0000 0.15531  0.21490  0.39382  Biso   1.000  N
  H93      1.0000 0.25018  0.25077  0.35941  Biso   1.000  H
  H94      1.0000 0.20350  0.20437  0.25978  Biso   1.000  H
  H95      1.0000 0.25016  0.25072  0.35941  Biso   1.000  H
  H96      1.0000 0.20348  0.20432  0.25978  Biso   1.000  H
  O42      1.0000 0.08410  0.16821  0.23686  Biso   1.000  O
  C192     1.0000 0.21841  0.31523  0.49487  Biso   1.000  C
  N97      1.0000 0.84471  0.78512  0.60618  Biso   1.000  N
  C193     1.0000 0.84097  0.74911  0.50062  Biso   1.000  C
  C194     1.0000 0.79073  0.79036  0.65528  Biso   1.000  C
  C195     1.0000 0.90198  0.80397  0.66802  Biso   1.000  C
  C196     1.0000 0.78161  0.68480  0.50513  Biso   1.000  C
  C197     1.0000 0.90814  0.74911  0.50062  Biso   1.000  C
  N98      1.0000 0.84441  0.78428  0.39170  Biso   1.000  N
  N99      1.0000 0.84439  0.78423  0.39170  Biso   1.000  N
  N100     1.0000 0.84468  0.78507  0.60618  Biso   1.000  N
  H97      1.0000 0.74983  0.74925  0.64059  Biso   1.000  H
  H98      1.0000 0.79651  0.79566  0.74022  Biso   1.000  H
  N101     1.0000 0.78427  0.84443  0.60830  Biso   1.000  N
  N102     1.0000 0.78424  0.84438  0.60830  Biso   1.000  N
  N103     1.0000 0.94041  0.78512  0.60618  Biso   1.000  N
  N104     1.0000 0.94039  0.78507  0.60618  Biso   1.000  N
  O43      1.0000 0.91591  0.83182  0.76314  Biso   1.000  O
  C198     1.0000 0.90319  0.68480  0.50513  Biso   1.000  C
  N105     1.0000 0.93986  0.78428  0.39170  Biso   1.000  N
  N106     1.0000 0.93984  0.78423  0.39170  Biso   1.000  N
  C199     1.0000 0.90146  0.80293  0.33295  Biso   1.000  C
  C200     1.0000 0.79038  0.79076  0.34472  Biso   1.000  C
  C201     1.0000 0.74914  0.84102  0.49938  Biso   1.000  C
  C202     1.0000 0.74912  0.84097  0.49938  Biso   1.000  C
  C203     1.0000 0.80293  0.90147  0.66705  Biso   1.000  C
  C204     1.0000 0.99963  0.79036  0.65528  Biso   1.000  C
  C205     1.0000 0.00038  0.79076  0.34472  Biso   1.000  C
  O44      1.0000 0.91613  0.83226  0.23624  Biso   1.000  O
  N107     1.0000 0.78510  0.84473  0.39382  Biso   1.000  N
  H99      1.0000 0.74927  0.74985  0.35941  Biso   1.000  H
  H100     1.0000 0.79567  0.79655  0.25978  Biso   1.000  H
  C206     1.0000 0.74912  0.90815  0.49938  Biso   1.000  C
  C207     1.0000 0.68478  0.78161  0.49487  Biso   1.000  C
  N108     1.0000 0.78425  0.93986  0.60830  Biso   1.000  N
  O45      1.0000 0.83226  0.91616  0.76376  Biso   1.000  O
  O46      1.0000 0.83223  0.91611  0.76376  Biso   1.000  O
  H101     1.0000 0.99942  0.74925  0.64059  Biso   1.000  H
  H102     1.0000 0.99915  0.79566  0.74022  Biso   1.000  H
  N109     1.0000 0.06016  0.84443  0.60830  Biso   1.000  N
  N110     1.0000 0.06014  0.84438  0.60830  Biso   1.000  N
  H103     1.0000 0.00058  0.74985  0.35941  Biso   1.000  H
  H104     1.0000 0.00088  0.79655  0.25978  Biso   1.000  H
  N111     1.0000 0.05963  0.84473  0.39382  Biso   1.000  N
  C208     1.0000 0.80398  0.90201  0.33198  Biso   1.000  C
  C209     1.0000 0.80395  0.90196  0.33198  Biso   1.000  C
  N112     1.0000 0.78508  0.94040  0.39382  Biso   1.000  N
  N113     1.0000 0.78506  0.94035  0.39382  Biso   1.000  N
  C210     1.0000 0.68479  0.90320  0.49487  Biso   1.000  C
  C211     1.0000 0.68476  0.90315  0.49487  Biso   1.000  C
  C212     1.0000 0.79075  0.00041  0.65528  Biso   1.000  C
  C213     1.0000 0.79073  0.00036  0.65528  Biso   1.000  C
  C214     1.0000 0.09187  0.84102  0.49938  Biso   1.000  C
  C215     1.0000 0.09185  0.84097  0.49938  Biso   1.000  C
  C216     1.0000 0.09854  0.90147  0.66705  Biso   1.000  C
  C217     1.0000 0.09804  0.90201  0.33198  Biso   1.000  C
  C218     1.0000 0.09801  0.90196  0.33198  Biso   1.000  C
  O47      1.0000 0.83179  0.91591  0.23686  Biso   1.000  O
  C219     1.0000 0.79036  0.99962  0.34472  Biso   1.000  C
  N114     1.0000 0.84469  0.05962  0.60618  Biso   1.000  N
  H105     1.0000 0.74983  0.00056  0.64059  Biso   1.000  H
  H106     1.0000 0.79657  0.00090  0.74022  Biso   1.000  H
  H107     1.0000 0.79654  0.00085  0.74022  Biso   1.000  H
  C220     1.0000 0.09683  0.78161  0.49487  Biso   1.000  C
  C221     1.0000 0.15903  0.90815  0.49938  Biso   1.000  C
  O48      1.0000 0.08391  0.91616  0.76376  Biso   1.000  O
  N115     1.0000 0.15560  0.93986  0.60830  Biso   1.000  N
  O49      1.0000 0.08388  0.91611  0.76376  Biso   1.000  O
  O50      1.0000 0.08412  0.91591  0.23686  Biso   1.000  O
  N116     1.0000 0.15532  0.94040  0.39382  Biso   1.000  N
  N117     1.0000 0.15529  0.94035  0.39382  Biso   1.000  N
  H108     1.0000 0.79568  0.99912  0.25978  Biso   1.000  H
  H109     1.0000 0.74928  0.99947  0.35941  Biso   1.000  H
  H110     1.0000 0.74926  0.99942  0.35941  Biso   1.000  H
  N118     1.0000 0.84441  0.06017  0.39170  Biso   1.000  N
  C222     1.0000 0.84099  0.09188  0.50062  Biso   1.000  C
  C223     1.0000 0.90197  0.09801  0.66802  Biso   1.000  C
  C224     1.0000 0.21842  0.90320  0.49487  Biso   1.000  C
  C225     1.0000 0.21839  0.90315  0.49487  Biso   1.000  C
  C226     1.0000 0.20965  0.00041  0.65528  Biso   1.000  C
  C227     1.0000 0.20963  0.00036  0.65528  Biso   1.000  C
  C228     1.0000 0.20926  0.99962  0.34472  Biso   1.000  C
  C229     1.0000 0.90147  0.09855  0.33295  Biso   1.000  C
  C230     1.0000 0.78160  0.09682  0.50513  Biso   1.000  C
  C231     1.0000 0.90814  0.15900  0.50062  Biso   1.000  C
  O51      1.0000 0.91589  0.08411  0.76314  Biso   1.000  O
  N119     1.0000 0.94038  0.15529  0.60618  Biso   1.000  N
  H111     1.0000 0.25073  0.00056  0.64059  Biso   1.000  H
  H112     1.0000 0.20433  0.00090  0.74022  Biso   1.000  H
  N120     1.0000 0.21493  0.05962  0.60618  Biso   1.000  N
  H113     1.0000 0.20431  0.00085  0.74022  Biso   1.000  H
  H114     1.0000 0.25018  0.99947  0.35941  Biso   1.000  H
  H115     1.0000 0.20344  0.99912  0.25978  Biso   1.000  H
  H116     1.0000 0.25016  0.99942  0.35941  Biso   1.000  H
  N121     1.0000 0.21576  0.06017  0.39170  Biso   1.000  N
  O52      1.0000 0.91611  0.08386  0.23624  Biso   1.000  O
  N122     1.0000 0.93985  0.15559  0.39170  Biso   1.000  N
  C232     1.0000 0.90318  0.21842  0.50513  Biso   1.000  C
  C233     1.0000 0.90316  0.21837  0.50513  Biso   1.000  C
  C234     1.0000 0.99963  0.20926  0.65528  Biso   1.000  C
  C235     1.0000 0.25089  0.09188  0.50062  Biso   1.000  C
  C236     1.0000 0.19604  0.09801  0.66802  Biso   1.000  C
  C237     1.0000 0.19708  0.09855  0.33295  Biso   1.000  C
  C238     1.0000 0.00038  0.20966  0.34472  Biso   1.000  C
  C239     1.0000 0.00036  0.20961  0.34472  Biso   1.000  C
  H117     1.0000 0.99943  0.25018  0.64059  Biso   1.000  H
  H118     1.0000 0.99913  0.20348  0.74022  Biso   1.000  H
  N123     1.0000 0.06015  0.21575  0.60830  Biso   1.000  N
  C240     1.0000 0.25087  0.15900  0.50062  Biso   1.000  C
  C241     1.0000 0.31523  0.09682  0.50513  Biso   1.000  C
  N124     1.0000 0.21491  0.15529  0.60618  Biso   1.000  N
  O53      1.0000 0.16822  0.08411  0.76314  Biso   1.000  O
  N125     1.0000 0.21574  0.15559  0.39170  Biso   1.000  N
  O54      1.0000 0.16776  0.08386  0.23624  Biso   1.000  O
  H119     1.0000 0.00059  0.25077  0.35941  Biso   1.000  H
  H120     1.0000 0.00086  0.20437  0.25978  Biso   1.000  H
  N126     1.0000 0.05960  0.21490  0.39382  Biso   1.000  N
  H121     1.0000 0.00056  0.25072  0.35941  Biso   1.000  H
  H122     1.0000 0.00084  0.20432  0.25978  Biso   1.000  H
  C242     1.0000 0.09187  0.25092  0.49938  Biso   1.000  C
  C243     1.0000 0.09185  0.25087  0.49938  Biso   1.000  C
  C244     1.0000 0.09855  0.19710  0.66705  Biso   1.000  C
  C245     1.0000 0.09852  0.19705  0.66705  Biso   1.000  C
  C246     1.0000 0.31523  0.21842  0.50513  Biso   1.000  C
  C247     1.0000 0.31521  0.21837  0.50513  Biso   1.000  C
  C248     1.0000 0.20964  0.20926  0.65528  Biso   1.000  C
  C249     1.0000 0.20928  0.20966  0.34472  Biso   1.000  C
  C250     1.0000 0.20925  0.20961  0.34472  Biso   1.000  C
  C251     1.0000 0.09803  0.19606  0.33198  Biso   1.000  C
  C252     1.0000 0.09800  0.19601  0.33198  Biso   1.000  C
  C253     1.0000 0.15905  0.25092  0.49938  Biso   1.000  C
  C254     1.0000 0.15902  0.25087  0.49938  Biso   1.000  C
  C255     1.0000 0.09682  0.31523  0.49487  Biso   1.000  C
  N127     1.0000 0.15560  0.21575  0.60830  Biso   1.000  N
  O55      1.0000 0.08388  0.16776  0.76376  Biso   1.000  O
  H123     1.0000 0.25074  0.25018  0.64059  Biso   1.000  H
  H124     1.0000 0.20434  0.20348  0.74022  Biso   1.000  H
  N128     1.0000 0.15531  0.21490  0.39382  Biso   1.000  N
  H125     1.0000 0.25018  0.25077  0.35941  Biso   1.000  H
  H126     1.0000 0.20350  0.20437  0.25978  Biso   1.000  H
  H127     1.0000 0.25016  0.25072  0.35941  Biso   1.000  H
  H128     1.0000 0.20348  0.20432  0.25978  Biso   1.000  H
  O56      1.0000 0.08410  0.16821  0.23686  Biso   1.000  O
  C256     1.0000 0.21841  0.31523  0.49487  Biso   1.000  C
  C257     1.0000 0.76348  0.64854  0.82817  Biso   1.000  C
  C258     1.0000 0.75853  0.58423  0.83268  Biso   1.000  C
  N129     1.0000 0.72628  0.54826  0.72722  Biso   1.000  N
  N130     1.0000 0.72683  0.54910  0.94160  Biso   1.000  N
  C259     1.0000 0.82570  0.58423  0.83268  Biso   1.000  C
  C260     1.0000 0.66704  0.54297  0.67811  Biso   1.000  C
  C261     1.0000 0.76468  0.52937  0.66528  Biso   1.000  C
  C262     1.0000 0.66628  0.54257  0.98859  Biso   1.000  C
  C263     1.0000 0.76520  0.53040  0.00044  Biso   1.000  C
  N131     1.0000 0.82198  0.54826  0.72722  Biso   1.000  N
  C264     1.0000 0.88506  0.64854  0.82817  Biso   1.000  C
  N132     1.0000 0.82228  0.54910  0.94160  Biso   1.000  N
  N133     1.0000 0.60653  0.48895  0.72509  Biso   1.000  N
  H129     1.0000 0.66724  0.58408  0.69280  Biso   1.000  H
  H130     1.0000 0.66752  0.53768  0.59308  Biso   1.000  H
  O57      1.0000 0.75078  0.50156  0.57016  Biso   1.000  O
  N134     1.0000 0.60704  0.48860  0.93948  Biso   1.000  N
  H131     1.0000 0.66609  0.58348  0.97390  Biso   1.000  H
  H132     1.0000 0.66579  0.53679  0.07362  Biso   1.000  H
  O58      1.0000 0.75053  0.50107  0.09706  Biso   1.000  O
  C265     1.0000 0.87593  0.54297  0.67811  Biso   1.000  C
  C266     1.0000 0.87629  0.54257  0.98859  Biso   1.000  C
  C267     1.0000 0.56813  0.43186  0.66625  Biso   1.000  C
  C268     1.0000 0.57482  0.49236  0.83392  Biso   1.000  C
  C269     1.0000 0.56865  0.43137  0.00133  Biso   1.000  C
  H133     1.0000 0.91684  0.58408  0.69280  Biso   1.000  H
  H134     1.0000 0.87016  0.53768  0.59308  Biso   1.000  H
  N135     1.0000 0.88242  0.48895  0.72509  Biso   1.000  N
  N136     1.0000 0.88156  0.48860  0.93948  Biso   1.000  N
  H135     1.0000 0.91740  0.58348  0.97390  Biso   1.000  H
  H136     1.0000 0.87100  0.53679  0.07362  Biso   1.000  H
  N137     1.0000 0.51106  0.39347  0.72509  Biso   1.000  N
  O59      1.0000 0.58279  0.41722  0.56955  Biso   1.000  O
  C270     1.0000 0.50764  0.42518  0.83392  Biso   1.000  C
  C271     1.0000 0.56984  0.55173  0.83844  Biso   1.000  C
  N138     1.0000 0.51137  0.39298  0.93948  Biso   1.000  N
  O60      1.0000 0.58254  0.41742  0.09644  Biso   1.000  O
  C272     1.0000 0.86373  0.43186  0.66625  Biso   1.000  C
  C273     1.0000 0.91755  0.49236  0.83392  Biso   1.000  C
  C274     1.0000 0.86272  0.43137  0.00133  Biso   1.000  C
  C275     1.0000 0.45704  0.33297  0.67811  Biso   1.000  C
  C276     1.0000 0.44828  0.43018  0.83844  Biso   1.000  C
  C277     1.0000 0.45741  0.33372  0.98859  Biso   1.000  C
  N139     1.0000 0.88241  0.39347  0.72509  Biso   1.000  N
  O61      1.0000 0.83443  0.41722  0.56955  Biso   1.000  O
  C278     1.0000 0.91754  0.42518  0.83392  Biso   1.000  C
  C279     1.0000 0.98189  0.55173  0.83844  Biso   1.000  C
  N140     1.0000 0.88161  0.39298  0.93948  Biso   1.000  N
  O62      1.0000 0.83488  0.41742  0.09644  Biso   1.000  O
  N141     1.0000 0.45174  0.27371  0.72722  Biso   1.000  N
  H137     1.0000 0.41594  0.33278  0.69280  Biso   1.000  H
  H138     1.0000 0.46236  0.33248  0.59308  Biso   1.000  H
  N142     1.0000 0.45091  0.27317  0.94160  Biso   1.000  N
  H139     1.0000 0.41651  0.33391  0.97390  Biso   1.000  H
  H140     1.0000 0.46322  0.33421  0.07362  Biso   1.000  H
  C280     1.0000 0.87594  0.33297  0.67811  Biso   1.000  C
  C281     1.0000 0.98191  0.43018  0.83844  Biso   1.000  C
  C282     1.0000 0.87631  0.33372  0.98859  Biso   1.000  C
  C283     1.0000 0.47063  0.23532  0.66528  Biso   1.000  C
  C284     1.0000 0.41578  0.24146  0.83268  Biso   1.000  C
  C285     1.0000 0.46959  0.23478  0.00044  Biso   1.000  C
  N143     1.0000 0.82197  0.27371  0.72722  Biso   1.000  N
  H141     1.0000 0.91684  0.33278  0.69280  Biso   1.000  H
  H142     1.0000 0.87012  0.33248  0.59308  Biso   1.000  H
  N144     1.0000 0.82226  0.27317  0.94160  Biso   1.000  N
  H143     1.0000 0.91741  0.33391  0.97390  Biso   1.000  H
  H144     1.0000 0.87099  0.33421  0.07362  Biso   1.000  H
  N145     1.0000 0.45176  0.17804  0.72722  Biso   1.000  N
  O63      1.0000 0.49844  0.24922  0.57016  Biso   1.000  O
  C286     1.0000 0.41580  0.17433  0.83268  Biso   1.000  C
  C287     1.0000 0.35144  0.23651  0.82817  Biso   1.000  C
  N146     1.0000 0.45092  0.17774  0.94160  Biso   1.000  N
  O64      1.0000 0.49891  0.24947  0.09706  Biso   1.000  O
  C288     1.0000 0.76469  0.23532  0.66528  Biso   1.000  C
  C289     1.0000 0.82568  0.24146  0.83268  Biso   1.000  C
  C290     1.0000 0.76519  0.23478  0.00044  Biso   1.000  C
  C291     1.0000 0.45703  0.12407  0.67811  Biso   1.000  C
  C292     1.0000 0.35146  0.11497  0.82817  Biso   1.000  C
  C293     1.0000 0.45741  0.12372  0.98859  Biso   1.000  C
  N147     1.0000 0.72628  0.17804  0.72722  Biso   1.000  N
  O65      1.0000 0.75078  0.24922  0.57016  Biso   1.000  O
  C294     1.0000 0.75853  0.17433  0.83268  Biso   1.000  C
  C295     1.0000 0.88507  0.23651  0.82817  Biso   1.000  C
  N148     1.0000 0.72682  0.17774  0.94160  Biso   1.000  N
  O66      1.0000 0.75056  0.24947  0.09706  Biso   1.000  O
  H145     1.0000 0.41593  0.08316  0.69280  Biso   1.000  H
  H146     1.0000 0.46232  0.12986  0.59308  Biso   1.000  H
  N149     1.0000 0.51107  0.11759  0.72509  Biso   1.000  N
  N150     1.0000 0.51136  0.11843  0.93948  Biso   1.000  N
  H147     1.0000 0.41651  0.08261  0.97390  Biso   1.000  H
  H148     1.0000 0.46319  0.12901  0.07362  Biso   1.000  H
  C296     1.0000 0.66704  0.12407  0.67811  Biso   1.000  C
  C297     1.0000 0.76351  0.11497  0.82817  Biso   1.000  C
  C298     1.0000 0.66631  0.12372  0.98859  Biso   1.000  C
  C299     1.0000 0.56814  0.13629  0.66625  Biso   1.000  C
  C300     1.0000 0.50764  0.08246  0.83392  Biso   1.000  C
  C301     1.0000 0.56866  0.13733  0.00133  Biso   1.000  C
  N151     1.0000 0.60652  0.11759  0.72509  Biso   1.000  N
  H149     1.0000 0.66723  0.08316  0.69280  Biso   1.000  H
  H150     1.0000 0.66753  0.12986  0.59308  Biso   1.000  H
  N152     1.0000 0.60707  0.11843  0.93948  Biso   1.000  N
  H151     1.0000 0.66610  0.08261  0.97390  Biso   1.000  H
  H152     1.0000 0.66583  0.12901  0.07362  Biso   1.000  H
  O67      1.0000 0.58279  0.16557  0.56955  Biso   1.000  O
  C302     1.0000 0.57482  0.08246  0.83392  Biso   1.000  C
  C303     1.0000 0.44826  0.01811  0.83844  Biso   1.000  C
  O68      1.0000 0.58256  0.16513  0.09644  Biso   1.000  O
  C304     1.0000 0.56984  0.01811  0.83844  Biso   1.000  C
  C305     1.0000 0.64857  0.76350  0.17183  Biso   1.000  C
  C306     1.0000 0.58423  0.75855  0.16732  Biso   1.000  C
  N153     1.0000 0.54907  0.72680  0.05840  Biso   1.000  N
  N154     1.0000 0.54827  0.72630  0.27278  Biso   1.000  N
  C307     1.0000 0.58421  0.82568  0.16732  Biso   1.000  C
  C308     1.0000 0.54260  0.66630  0.01141  Biso   1.000  C
  C309     1.0000 0.53039  0.76518  0.99956  Biso   1.000  C
  C310     1.0000 0.54297  0.66704  0.32189  Biso   1.000  C
  C311     1.0000 0.52938  0.76469  0.33472  Biso   1.000  C
  N155     1.0000 0.54908  0.82227  0.05840  Biso   1.000  N
  N156     1.0000 0.54825  0.82197  0.27278  Biso   1.000  N
  C312     1.0000 0.64855  0.88505  0.17183  Biso   1.000  C
  N157     1.0000 0.48863  0.60703  0.06052  Biso   1.000  N
  H153     1.0000 0.58350  0.66610  0.02610  Biso   1.000  H
  H154     1.0000 0.53678  0.66580  0.92638  Biso   1.000  H
  O69      1.0000 0.50109  0.75054  0.90294  Biso   1.000  O
  N158     1.0000 0.48894  0.60654  0.27491  Biso   1.000  N
  H155     1.0000 0.58407  0.66724  0.30720  Biso   1.000  H
  H156     1.0000 0.53765  0.66753  0.40692  Biso   1.000  H
  O70      1.0000 0.50156  0.75079  0.42984  Biso   1.000  O
  C313     1.0000 0.54259  0.87629  0.01141  Biso   1.000  C
  C314     1.0000 0.54298  0.87594  0.32189  Biso   1.000  C
  C315     1.0000 0.43135  0.56864  0.99867  Biso   1.000  C
  C316     1.0000 0.49234  0.57478  0.16608  Biso   1.000  C
  C317     1.0000 0.43188  0.56815  0.33375  Biso   1.000  C
  N159     1.0000 0.48865  0.88158  0.06052  Biso   1.000  N
  H157     1.0000 0.58350  0.91740  0.02610  Biso   1.000  H
  H158     1.0000 0.53682  0.87100  0.92638  Biso   1.000  H
  H159     1.0000 0.58408  0.91685  0.30720  Biso   1.000  H
  H160     1.0000 0.53768  0.87016  0.40692  Biso   1.000  H
  N160     1.0000 0.48894  0.88242  0.27491  Biso   1.000  N
  N161     1.0000 0.39294  0.51136  0.06052  Biso   1.000  N
  O71      1.0000 0.41744  0.58254  0.90356  Biso   1.000  O
  C318     1.0000 0.42519  0.50765  0.16608  Biso   1.000  C
  C319     1.0000 0.55173  0.56983  0.16156  Biso   1.000  C
  N162     1.0000 0.39348  0.51106  0.27491  Biso   1.000  N
  O72      1.0000 0.41722  0.58279  0.43045  Biso   1.000  O
  C320     1.0000 0.49236  0.91755  0.16608  Biso   1.000  C
  C321     1.0000 0.43134  0.86269  0.99867  Biso   1.000  C
  C322     1.0000 0.43186  0.86373  0.33375  Biso   1.000  C
  C323     1.0000 0.33370  0.45739  0.01141  Biso   1.000  C
  C324     1.0000 0.43017  0.44829  0.16156  Biso   1.000  C
  C325     1.0000 0.33297  0.45704  0.32189  Biso   1.000  C
  C326     1.0000 0.42519  0.91755  0.16608  Biso   1.000  C
  C327     1.0000 0.55174  0.98191  0.16156  Biso   1.000  C
  N163     1.0000 0.39294  0.88158  0.06052  Biso   1.000  N
  O73      1.0000 0.41744  0.83488  0.90356  Biso   1.000  O
  N164     1.0000 0.39349  0.88242  0.27491  Biso   1.000  N
  O74      1.0000 0.41720  0.83439  0.43045  Biso   1.000  O
  N165     1.0000 0.27318  0.45091  0.05840  Biso   1.000  N
  H161     1.0000 0.33389  0.41648  0.02610  Biso   1.000  H
  H162     1.0000 0.33419  0.46318  0.92638  Biso   1.000  H
  N166     1.0000 0.27373  0.45175  0.27278  Biso   1.000  N
  H163     1.0000 0.33276  0.41593  0.30720  Biso   1.000  H
  H164     1.0000 0.33249  0.46234  0.40692  Biso   1.000  H
  C328     1.0000 0.43016  0.98191  0.16156  Biso   1.000  C
  C329     1.0000 0.33370  0.87629  0.01141  Biso   1.000  C
  C330     1.0000 0.33297  0.87594  0.32189  Biso   1.000  C
  C331     1.0000 0.24148  0.41579  0.16732  Biso   1.000  C
  C332     1.0000 0.23480  0.46961  0.99956  Biso   1.000  C
  C333     1.0000 0.23532  0.47065  0.33472  Biso   1.000  C
  N167     1.0000 0.27319  0.82227  0.05840  Biso   1.000  N
  H165     1.0000 0.33390  0.91740  0.02610  Biso   1.000  H
  H166     1.0000 0.33418  0.87100  0.92638  Biso   1.000  H
  N168     1.0000 0.27372  0.82197  0.27278  Biso   1.000  N
  H167     1.0000 0.33277  0.91685  0.30720  Biso   1.000  H
  H168     1.0000 0.33247  0.87016  0.40692  Biso   1.000  H
  C334     1.0000 0.23650  0.35143  0.17183  Biso   1.000  C
  C335     1.0000 0.17431  0.41579  0.16732  Biso   1.000  C
  N169     1.0000 0.17773  0.45091  0.05840  Biso   1.000  N
  O75      1.0000 0.24947  0.49894  0.90294  Biso   1.000  O
  N170     1.0000 0.17802  0.45175  0.27278  Biso   1.000  N
  O76      1.0000 0.24922  0.49845  0.42984  Biso   1.000  O
  C336     1.0000 0.23479  0.76518  0.99956  Biso   1.000  C
  C337     1.0000 0.24148  0.82568  0.16732  Biso   1.000  C
  C338     1.0000 0.23531  0.76469  0.33472  Biso   1.000  C
  C339     1.0000 0.11492  0.35143  0.17183  Biso   1.000  C
  C340     1.0000 0.12369  0.45739  0.01141  Biso   1.000  C
  C341     1.0000 0.12407  0.45704  0.32189  Biso   1.000  C
  N171     1.0000 0.17772  0.72680  0.05840  Biso   1.000  N
  O77      1.0000 0.24945  0.75054  0.90294  Biso   1.000  O
  C342     1.0000 0.17432  0.75855  0.16732  Biso   1.000  C
  C343     1.0000 0.23650  0.88505  0.17183  Biso   1.000  C
  N172     1.0000 0.17803  0.72630  0.27278  Biso   1.000  N
  O78      1.0000 0.24923  0.75079  0.42984  Biso   1.000  O
  N173     1.0000 0.11842  0.51136  0.06052  Biso   1.000  N
  H169     1.0000 0.08259  0.41648  0.02610  Biso   1.000  H
  H170     1.0000 0.12898  0.46318  0.92638  Biso   1.000  H
  H171     1.0000 0.08317  0.41593  0.30720  Biso   1.000  H
  H172     1.0000 0.12985  0.46234  0.40692  Biso   1.000  H
  N174     1.0000 0.11758  0.51106  0.27491  Biso   1.000  N
  C344     1.0000 0.12370  0.66630  0.01141  Biso   1.000  C
  C345     1.0000 0.11494  0.76350  0.17183  Biso   1.000  C
  C346     1.0000 0.12407  0.66704  0.32189  Biso   1.000  C
  C347     1.0000 0.08246  0.50765  0.16608  Biso   1.000  C
  C348     1.0000 0.13729  0.56864  0.99867  Biso   1.000  C
  C349     1.0000 0.13627  0.56815  0.33375  Biso   1.000  C
  N175     1.0000 0.11840  0.60703  0.06052  Biso   1.000  N
  H173     1.0000 0.08260  0.66610  0.02610  Biso   1.000  H
  H174     1.0000 0.12902  0.66580  0.92638  Biso   1.000  H
  N176     1.0000 0.11759  0.60654  0.27491  Biso   1.000  N
  H175     1.0000 0.08317  0.66724  0.30720  Biso   1.000  H
  H176     1.0000 0.12988  0.66753  0.40692  Biso   1.000  H
  C350     1.0000 0.08244  0.57478  0.16608  Biso   1.000  C
  C351     1.0000 0.01812  0.44829  0.16156  Biso   1.000  C
  O79      1.0000 0.16510  0.58254  0.90356  Biso   1.000  O
  O80      1.0000 0.16557  0.58279  0.43045  Biso   1.000  O
  C352     1.0000 0.01810  0.56983  0.16156  Biso   1.000  C
