data_image0
_cell_length_a       12.098
_cell_length_b       12.371
_cell_length_c       12.602
_cell_angle_alpha    106.44
_cell_angle_beta     109.96
_cell_angle_gamma    91.16

_symmetry_space_group_name_H-M    "P 1"
_symmetry_int_tables_number       1

loop_
  _symmetry_equiv_pos_as_xyz
  'x, y, z'

loop_
  _atom_site_label
  _atom_site_occupancy
  _atom_site_fract_x
  _atom_site_fract_y
  _atom_site_fract_z
  _atom_site_thermal_displace_type
  _atom_site_B_iso_or_equiv
  _atom_site_type_symbol
  O1       1.0000 0.26029  0.24090  0.00087  Biso   1.000  O
  C1       1.0000 0.20940  0.19660  0.89499  Biso   1.000  C
  C2       1.0000 0.20937  0.19657  0.89490  Biso   1.000  C
  C3       1.0000 0.20940  0.19651  0.89499  Biso   1.000  C
  C4       1.0000 0.20937  0.19649  0.89490  Biso   1.000  C
  N1       1.0000 0.11546  0.23265  0.82327  Biso   1.000  N
  N2       1.0000 0.11543  0.23262  0.82318  Biso   1.000  N
  N3       1.0000 0.23797  0.10293  0.82807  Biso   1.000  N
  C5       1.0000 0.08087  0.16484  0.69831  Biso   1.000  C
  C6       1.0000 0.08090  0.16487  0.69840  Biso   1.000  C
  C7       1.0000 0.08395  0.34532  0.86339  Biso   1.000  C
  C8       1.0000 0.08392  0.34538  0.86330  Biso   1.000  C
  C9       1.0000 0.08392  0.34530  0.86330  Biso   1.000  C
  C10      1.0000 0.16347  0.07363  0.70346  Biso   1.000  C
  C11      1.0000 0.34564  0.05629  0.87599  Biso   1.000  C
  C12      1.0000 0.34560  0.05626  0.87590  Biso   1.000  C
  C13      1.0000 0.34555  0.05621  0.87599  Biso   1.000  C
  C14      1.0000 0.34552  0.05626  0.87590  Biso   1.000  C
  C15      1.0000 0.34563  0.05621  0.87599  Biso   1.000  C
  H1       1.0000 0.09046  0.21017  0.64896  Biso   1.000  H
  H2       1.0000 0.09046  0.21009  0.64896  Biso   1.000  H
  N4       1.0000 0.96619  0.10308  0.65207  Biso   1.000  N
  N5       1.0000 0.96615  0.10305  0.65198  Biso   1.000  N
  N6       1.0000 0.96619  0.10299  0.65207  Biso   1.000  N
  H3       1.0000 0.06997  0.38052  0.80109  Biso   1.000  H
  H4       1.0000 0.15005  0.39130  0.93200  Biso   1.000  H
  H5       1.0000 0.06994  0.38057  0.80100  Biso   1.000  H
  H6       1.0000 0.15002  0.39128  0.93191  Biso   1.000  H
  H7       1.0000 0.15005  0.39122  0.93200  Biso   1.000  H
  H8       1.0000 0.06994  0.38049  0.80100  Biso   1.000  H
  H9       1.0000 0.15002  0.39120  0.93191  Biso   1.000  H
  N7       1.0000 0.98132  0.34464  0.89419  Biso   1.000  N
  N8       1.0000 0.98120  0.34461  0.89410  Biso   1.000  N
  N9       1.0000 0.98124  0.34464  0.89419  Biso   1.000  N
  N10      1.0000 0.98129  0.34461  0.89410  Biso   1.000  N
  H10      1.0000 0.21103  0.07452  0.65447  Biso   1.000  H
  H11      1.0000 0.21112  0.07452  0.65447  Biso   1.000  H
  N11      1.0000 0.08638  0.96743  0.65952  Biso   1.000  N
  H12      1.0000 0.39822  0.11335  0.94708  Biso   1.000  H
  H13      1.0000 0.38470  0.03994  0.81875  Biso   1.000  H
  H14      1.0000 0.39818  0.11332  0.94700  Biso   1.000  H
  N12      1.0000 0.32859  0.95599  0.90457  Biso   1.000  N
  N13      1.0000 0.32860  0.95607  0.90457  Biso   1.000  N
  C16      1.0000 0.96687  0.98749  0.62562  Biso   1.000  C
  C17      1.0000 0.85600  0.15395  0.63050  Biso   1.000  C
  C18      1.0000 0.85597  0.15392  0.63041  Biso   1.000  C
  C19      1.0000 0.85935  0.31772  0.80774  Biso   1.000  C
  C20      1.0000 0.98758  0.36985  0.00797  Biso   1.000  C
  C21      1.0000 0.12051  0.85891  0.63840  Biso   1.000  C
  C22      1.0000 0.12048  0.85888  0.63831  Biso   1.000  C
  C23      1.0000 0.29140  0.84384  0.81999  Biso   1.000  C
  C24      1.0000 0.29137  0.84381  0.81990  Biso   1.000  C
  C25      1.0000 0.36042  0.95239  0.01800  Biso   1.000  C
  C26      1.0000 0.36039  0.95244  0.01791  Biso   1.000  C
  C27      1.0000 0.36039  0.95236  0.01791  Biso   1.000  C
  O2       1.0000 0.88077  0.91442  0.57974  Biso   1.000  O
  N14      1.0000 0.82916  0.20062  0.73594  Biso   1.000  N
  H15      1.0000 0.79116  0.09655  0.57308  Biso   1.000  H
  H16      1.0000 0.86144  0.21387  0.59607  Biso   1.000  H
  H17      1.0000 0.79113  0.09653  0.57299  Biso   1.000  H
  H18      1.0000 0.86141  0.21384  0.59598  Biso   1.000  H
  H19      1.0000 0.86144  0.21379  0.59607  Biso   1.000  H
  H20      1.0000 0.84146  0.36946  0.75955  Biso   1.000  H
  C28      1.0000 0.78445  0.33095  0.88806  Biso   1.000  C
  N15      1.0000 0.87279  0.36242  0.00637  Biso   1.000  N
  N16      1.0000 0.87271  0.36242  0.00637  Biso   1.000  N
  O3       1.0000 0.07699  0.39565  0.09610  Biso   1.000  O
  O4       1.0000 0.07695  0.39562  0.09601  Biso   1.000  O
  N17      1.0000 0.16633  0.82465  0.74437  Biso   1.000  N
  H21      1.0000 0.11462  0.81303  0.56358  Biso   1.000  H
  N18      1.0000 0.16630  0.82462  0.74428  Biso   1.000  N
  H22      1.0000 0.11458  0.81301  0.56349  Biso   1.000  H
  N19      1.0000 0.16633  0.82457  0.74437  Biso   1.000  N
  C29      1.0000 0.30268  0.76481  0.89676  Biso   1.000  C
  H23      1.0000 0.34204  0.82604  0.77260  Biso   1.000  H
  H24      1.0000 0.34201  0.82601  0.77251  Biso   1.000  H
  C30      1.0000 0.30276  0.76481  0.89676  Biso   1.000  C
  N20      1.0000 0.34820  0.84195  0.01471  Biso   1.000  N
  N21      1.0000 0.34817  0.84192  0.01463  Biso   1.000  N
  O5       1.0000 0.40251  0.03307  0.10773  Biso   1.000  O
  O6       1.0000 0.40248  0.03304  0.10764  Biso   1.000  O
  O7       1.0000 0.40251  0.03299  0.10773  Biso   1.000  O
  C31      1.0000 0.73998  0.14686  0.75538  Biso   1.000  C
  C32      1.0000 0.73995  0.14683  0.75529  Biso   1.000  C
  N22      1.0000 0.71866  0.21983  0.84830  Biso   1.000  N
  N23      1.0000 0.71863  0.21981  0.84821  Biso   1.000  N
  H25      1.0000 0.73172  0.38932  0.87795  Biso   1.000  H
  H26      1.0000 0.73180  0.38932  0.87795  Biso   1.000  H
  C33      1.0000 0.84952  0.38668  0.11501  Biso   1.000  C
  C34      1.0000 0.84948  0.38665  0.11492  Biso   1.000  C
  C35      1.0000 0.84943  0.38660  0.11501  Biso   1.000  C
  C36      1.0000 0.84940  0.38665  0.11492  Biso   1.000  C
  C37      1.0000 0.84951  0.38660  0.11501  Biso   1.000  C
  C38      1.0000 0.10426  0.74501  0.76763  Biso   1.000  C
  C39      1.0000 0.10434  0.74501  0.76763  Biso   1.000  C
  N24      1.0000 0.18261  0.71294  0.85966  Biso   1.000  N
  H27      1.0000 0.35613  0.70832  0.88345  Biso   1.000  H
  C40      1.0000 0.37937  0.80462  0.11989  Biso   1.000  C
  O8       1.0000 0.68975  0.05117  0.69778  Biso   1.000  O
  O9       1.0000 0.68971  0.05115  0.69769  Biso   1.000  O
  O10      1.0000 0.68975  0.05109  0.69778  Biso   1.000  O
  C41      1.0000 0.62071  0.19545  0.88016  Biso   1.000  C
  C42      1.0000 0.62062  0.19545  0.88016  Biso   1.000  C
  N25      1.0000 0.81739  0.28721  0.14039  Biso   1.000  N
  H28      1.0000 0.91968  0.43007  0.18033  Biso   1.000  H
  H29      1.0000 0.78580  0.43361  0.11021  Biso   1.000  H
  H30      1.0000 0.91965  0.43005  0.18024  Biso   1.000  H
  H31      1.0000 0.78577  0.43367  0.11012  Biso   1.000  H
  H32      1.0000 0.78577  0.43358  0.11012  Biso   1.000  H
  O11      1.0000 0.99924  0.70875  0.71659  Biso   1.000  O
  O12      1.0000 0.99920  0.70872  0.71650  Biso   1.000  O
  O13      1.0000 0.99923  0.70867  0.71659  Biso   1.000  O
  C43      1.0000 0.15048  0.61347  0.88505  Biso   1.000  C
  C44      1.0000 0.15049  0.61355  0.88505  Biso   1.000  C
  C45      1.0000 0.15057  0.61347  0.88505  Biso   1.000  C
  C46      1.0000 0.15057  0.61355  0.88505  Biso   1.000  C
  N26      1.0000 0.28142  0.78024  0.15175  Biso   1.000  N
  H33      1.0000 0.43607  0.86334  0.18619  Biso   1.000  H
  H34      1.0000 0.41834  0.73695  0.10648  Biso   1.000  H
  H35      1.0000 0.41834  0.73687  0.10648  Biso   1.000  H
  H36      1.0000 0.43615  0.86334  0.18619  Biso   1.000  H
  N27      1.0000 0.65188  0.15812  0.98534  Biso   1.000  N
  H37      1.0000 0.56401  0.13673  0.81387  Biso   1.000  H
  H38      1.0000 0.58174  0.26312  0.89357  Biso   1.000  H
  H39      1.0000 0.56393  0.13673  0.81387  Biso   1.000  H
  C47      1.0000 0.89574  0.25514  0.23243  Biso   1.000  C
  C48      1.0000 0.69732  0.23534  0.10329  Biso   1.000  C
  C49      1.0000 0.89571  0.25512  0.23234  Biso   1.000  C
  C50      1.0000 0.89565  0.25514  0.23243  Biso   1.000  C
  C51      1.0000 0.69723  0.23534  0.10329  Biso   1.000  C
  C52      1.0000 0.89562  0.25512  0.23234  Biso   1.000  C
  N28      1.0000 0.12721  0.63773  0.99368  Biso   1.000  N
  H40      1.0000 0.08032  0.57008  0.81972  Biso   1.000  H
  H41      1.0000 0.21420  0.56654  0.88984  Biso   1.000  H
  N29      1.0000 0.12717  0.63770  0.99359  Biso   1.000  N
  H42      1.0000 0.21420  0.56646  0.88984  Biso   1.000  H
  N30      1.0000 0.12729  0.63773  0.99368  Biso   1.000  N
  C53      1.0000 0.26010  0.85321  0.24467  Biso   1.000  C
  C54      1.0000 0.21564  0.66913  0.11199  Biso   1.000  C
  C55      1.0000 0.63966  0.04768  0.98205  Biso   1.000  C
  C56      1.0000 0.63966  0.04760  0.98205  Biso   1.000  C
  N31      1.0000 0.83367  0.17550  0.25568  Biso   1.000  N
  N32      1.0000 0.83367  0.17558  0.25568  Biso   1.000  N
  O14      1.0000 0.00076  0.29140  0.28346  Biso   1.000  O
  O15      1.0000 0.00077  0.29148  0.28346  Biso   1.000  O
  H43      1.0000 0.64387  0.29183  0.11660  Biso   1.000  H
  C57      1.0000 0.70860  0.15631  0.18006  Biso   1.000  C
  H44      1.0000 0.64384  0.29180  0.11651  Biso   1.000  H
  C58      1.0000 0.01242  0.63030  0.99208  Biso   1.000  C
  C59      1.0000 0.01238  0.63028  0.99199  Biso   1.000  C
  O16      1.0000 0.31033  0.94890  0.30227  Biso   1.000  O
  N33      1.0000 0.17092  0.79945  0.26411  Biso   1.000  N
  N34      1.0000 0.17089  0.79942  0.26402  Biso   1.000  N
  C60      1.0000 0.14073  0.68235  0.19231  Biso   1.000  C
  H45      1.0000 0.26836  0.61075  0.12211  Biso   1.000  H
  C61      1.0000 0.14070  0.68232  0.19222  Biso   1.000  C
  H46      1.0000 0.26833  0.61072  0.12202  Biso   1.000  H
  H47      1.0000 0.26828  0.61075  0.12211  Biso   1.000  H
  H48      1.0000 0.26825  0.61072  0.12202  Biso   1.000  H
  O17      1.0000 0.59749  0.96708  0.89232  Biso   1.000  O
  N35      1.0000 0.67141  0.04417  0.09548  Biso   1.000  N
  N36      1.0000 0.67140  0.04408  0.09548  Biso   1.000  N
  C62      1.0000 0.87949  0.14124  0.36165  Biso   1.000  C
  H49      1.0000 0.65796  0.17412  0.22746  Biso   1.000  H
  O18      1.0000 0.92301  0.60451  0.90395  Biso   1.000  O
  N37      1.0000 0.01876  0.65543  0.10586  Biso   1.000  N
  N38      1.0000 0.01884  0.65543  0.10586  Biso   1.000  N
  C63      1.0000 0.14408  0.84613  0.36955  Biso   1.000  C
  H50      1.0000 0.15862  0.63061  0.24050  Biso   1.000  H
  H51      1.0000 0.15859  0.63058  0.24041  Biso   1.000  H
  C64      1.0000 0.65444  0.94378  0.12406  Biso   1.000  C
  C65      1.0000 0.65445  0.94386  0.12406  Biso   1.000  C
  C66      1.0000 0.65453  0.94378  0.12406  Biso   1.000  C
  C67      1.0000 0.65453  0.94386  0.12406  Biso   1.000  C
  N39      1.0000 0.91362  0.03272  0.34053  Biso   1.000  N
  H52      1.0000 0.88538  0.18712  0.43647  Biso   1.000  H
  N40      1.0000 0.91359  0.03270  0.34044  Biso   1.000  N
  C68      1.0000 0.91613  0.65475  0.13666  Biso   1.000  C
  C69      1.0000 0.91612  0.65467  0.13666  Biso   1.000  C
  N41      1.0000 0.03389  0.89700  0.34798  Biso   1.000  N
  H53      1.0000 0.20892  0.90352  0.42697  Biso   1.000  H
  H54      1.0000 0.13864  0.78620  0.40399  Biso   1.000  H
  N42      1.0000 0.03390  0.89708  0.34798  Biso   1.000  N
  N43      1.0000 0.76211  0.89714  0.17198  Biso   1.000  N
  H55      1.0000 0.60186  0.88672  0.05297  Biso   1.000  H
  H56      1.0000 0.61538  0.96013  0.18130  Biso   1.000  H
  H57      1.0000 0.61534  0.96011  0.18121  Biso   1.000  H
  C70      1.0000 0.83661  0.92644  0.29659  Biso   1.000  C
  C71      1.0000 0.03313  0.01266  0.37443  Biso   1.000  C
  C72      1.0000 0.03310  0.01264  0.37434  Biso   1.000  C
  N44      1.0000 0.88462  0.76742  0.17678  Biso   1.000  N
  H58      1.0000 0.93011  0.61955  0.19897  Biso   1.000  H
  H59      1.0000 0.85003  0.60877  0.06805  Biso   1.000  H
  H60      1.0000 0.85003  0.60885  0.06805  Biso   1.000  H
  H61      1.0000 0.93011  0.61947  0.19897  Biso   1.000  H
  C73      1.0000 0.91918  0.83520  0.30165  Biso   1.000  C
  C74      1.0000 0.79068  0.80347  0.10506  Biso   1.000  C
  C75      1.0000 0.79068  0.80356  0.10506  Biso   1.000  C
  H62      1.0000 0.78905  0.92556  0.34559  Biso   1.000  H
  H63      1.0000 0.78896  0.92556  0.34559  Biso   1.000  H
  O19      1.0000 0.11923  0.08573  0.42032  Biso   1.000  O
  O20      1.0000 0.11920  0.08570  0.42023  Biso   1.000  O
  H64      1.0000 0.90962  0.78990  0.35109  Biso   1.000  H
  H65      1.0000 0.90962  0.78998  0.35109  Biso   1.000  H
  O21      1.0000 0.73971  0.75926  0.99918  Biso   1.000  O
  O22      1.0000 0.73968  0.75923  0.99909  Biso   1.000  O
  O23      1.0000 0.73971  0.75917  0.99918  Biso   1.000  O
  O24      1.0000 0.26029  0.24090  0.00087  Biso   1.000  O
  C76      1.0000 0.20940  0.19660  0.89499  Biso   1.000  C
  C77      1.0000 0.20937  0.19657  0.89490  Biso   1.000  C
  C78      1.0000 0.20940  0.19651  0.89499  Biso   1.000  C
  C79      1.0000 0.20937  0.19649  0.89490  Biso   1.000  C
  N45      1.0000 0.11546  0.23265  0.82327  Biso   1.000  N
  N46      1.0000 0.11543  0.23262  0.82318  Biso   1.000  N
  N47      1.0000 0.23797  0.10293  0.82807  Biso   1.000  N
  C80      1.0000 0.08087  0.16484  0.69831  Biso   1.000  C
  C81      1.0000 0.08090  0.16487  0.69840  Biso   1.000  C
  C82      1.0000 0.08395  0.34532  0.86339  Biso   1.000  C
  C83      1.0000 0.08392  0.34538  0.86330  Biso   1.000  C
  C84      1.0000 0.08392  0.34530  0.86330  Biso   1.000  C
  C85      1.0000 0.16347  0.07363  0.70346  Biso   1.000  C
  C86      1.0000 0.34564  0.05629  0.87599  Biso   1.000  C
  C87      1.0000 0.34560  0.05626  0.87590  Biso   1.000  C
  C88      1.0000 0.34555  0.05621  0.87599  Biso   1.000  C
  C89      1.0000 0.34552  0.05626  0.87590  Biso   1.000  C
  C90      1.0000 0.34563  0.05621  0.87599  Biso   1.000  C
  H66      1.0000 0.09046  0.21017  0.64896  Biso   1.000  H
  H67      1.0000 0.09046  0.21009  0.64896  Biso   1.000  H
  N48      1.0000 0.96619  0.10308  0.65207  Biso   1.000  N
  N49      1.0000 0.96615  0.10305  0.65198  Biso   1.000  N
  N50      1.0000 0.96619  0.10299  0.65207  Biso   1.000  N
  H68      1.0000 0.06997  0.38052  0.80109  Biso   1.000  H
  H69      1.0000 0.15005  0.39130  0.93200  Biso   1.000  H
  H70      1.0000 0.06994  0.38057  0.80100  Biso   1.000  H
  H71      1.0000 0.15002  0.39128  0.93191  Biso   1.000  H
  H72      1.0000 0.15005  0.39122  0.93200  Biso   1.000  H
  H73      1.0000 0.06994  0.38049  0.80100  Biso   1.000  H
  H74      1.0000 0.15002  0.39120  0.93191  Biso   1.000  H
  N51      1.0000 0.98132  0.34464  0.89419  Biso   1.000  N
  N52      1.0000 0.98120  0.34461  0.89410  Biso   1.000  N
  N53      1.0000 0.98124  0.34464  0.89419  Biso   1.000  N
  N54      1.0000 0.98129  0.34461  0.89410  Biso   1.000  N
  H75      1.0000 0.21103  0.07452  0.65447  Biso   1.000  H
  H76      1.0000 0.21112  0.07452  0.65447  Biso   1.000  H
  N55      1.0000 0.08638  0.96743  0.65952  Biso   1.000  N
  H77      1.0000 0.38470  0.03994  0.81875  Biso   1.000  H
  H78      1.0000 0.39822  0.11335  0.94708  Biso   1.000  H
  H79      1.0000 0.39818  0.11332  0.94700  Biso   1.000  H
  N56      1.0000 0.32859  0.95599  0.90457  Biso   1.000  N
  N57      1.0000 0.32860  0.95607  0.90457  Biso   1.000  N
  C91      1.0000 0.96687  0.98749  0.62562  Biso   1.000  C
  C92      1.0000 0.85600  0.15395  0.63050  Biso   1.000  C
  C93      1.0000 0.85597  0.15392  0.63041  Biso   1.000  C
  C94      1.0000 0.85935  0.31772  0.80774  Biso   1.000  C
  C95      1.0000 0.98758  0.36985  0.00797  Biso   1.000  C
  C96      1.0000 0.12051  0.85891  0.63840  Biso   1.000  C
  C97      1.0000 0.12048  0.85888  0.63831  Biso   1.000  C
  C98      1.0000 0.29140  0.84384  0.81999  Biso   1.000  C
  C99      1.0000 0.29137  0.84381  0.81990  Biso   1.000  C
  C100     1.0000 0.36042  0.95239  0.01800  Biso   1.000  C
  C101     1.0000 0.36039  0.95244  0.01791  Biso   1.000  C
  C102     1.0000 0.36039  0.95236  0.01791  Biso   1.000  C
  O25      1.0000 0.88077  0.91442  0.57974  Biso   1.000  O
  N58      1.0000 0.82916  0.20062  0.73594  Biso   1.000  N
  H80      1.0000 0.79116  0.09655  0.57308  Biso   1.000  H
  H81      1.0000 0.86144  0.21387  0.59607  Biso   1.000  H
  H82      1.0000 0.79113  0.09653  0.57299  Biso   1.000  H
  H83      1.0000 0.86141  0.21384  0.59598  Biso   1.000  H
  H84      1.0000 0.86144  0.21379  0.59607  Biso   1.000  H
  H85      1.0000 0.84146  0.36946  0.75955  Biso   1.000  H
  C103     1.0000 0.78445  0.33095  0.88806  Biso   1.000  C
  N59      1.0000 0.87279  0.36242  0.00637  Biso   1.000  N
  N60      1.0000 0.87271  0.36242  0.00637  Biso   1.000  N
  O26      1.0000 0.07699  0.39565  0.09610  Biso   1.000  O
  O27      1.0000 0.07695  0.39562  0.09601  Biso   1.000  O
  N61      1.0000 0.16633  0.82465  0.74437  Biso   1.000  N
  H86      1.0000 0.11462  0.81303  0.56358  Biso   1.000  H
  N62      1.0000 0.16630  0.82462  0.74428  Biso   1.000  N
  H87      1.0000 0.11458  0.81301  0.56349  Biso   1.000  H
  N63      1.0000 0.16633  0.82457  0.74437  Biso   1.000  N
  C104     1.0000 0.30268  0.76481  0.89676  Biso   1.000  C
  H88      1.0000 0.34204  0.82604  0.77260  Biso   1.000  H
  H89      1.0000 0.34201  0.82601  0.77251  Biso   1.000  H
  C105     1.0000 0.30276  0.76481  0.89676  Biso   1.000  C
  N64      1.0000 0.34820  0.84195  0.01471  Biso   1.000  N
  N65      1.0000 0.34817  0.84192  0.01463  Biso   1.000  N
  O28      1.0000 0.40251  0.03307  0.10773  Biso   1.000  O
  O29      1.0000 0.40248  0.03304  0.10764  Biso   1.000  O
  O30      1.0000 0.40251  0.03299  0.10773  Biso   1.000  O
  C106     1.0000 0.73998  0.14686  0.75538  Biso   1.000  C
  C107     1.0000 0.73995  0.14683  0.75529  Biso   1.000  C
  N66      1.0000 0.71866  0.21983  0.84830  Biso   1.000  N
  N67      1.0000 0.71863  0.21981  0.84821  Biso   1.000  N
  H90      1.0000 0.73172  0.38932  0.87795  Biso   1.000  H
  H91      1.0000 0.73180  0.38932  0.87795  Biso   1.000  H
  C108     1.0000 0.84952  0.38668  0.11501  Biso   1.000  C
  C109     1.0000 0.84948  0.38665  0.11492  Biso   1.000  C
  C110     1.0000 0.84943  0.38660  0.11501  Biso   1.000  C
  C111     1.0000 0.84940  0.38665  0.11492  Biso   1.000  C
  C112     1.0000 0.84951  0.38660  0.11501  Biso   1.000  C
  C113     1.0000 0.10426  0.74501  0.76763  Biso   1.000  C
  C114     1.0000 0.10434  0.74501  0.76763  Biso   1.000  C
  N68      1.0000 0.18261  0.71294  0.85966  Biso   1.000  N
  H92      1.0000 0.35613  0.70832  0.88345  Biso   1.000  H
  C115     1.0000 0.37937  0.80462  0.11989  Biso   1.000  C
  O31      1.0000 0.68975  0.05117  0.69778  Biso   1.000  O
  O32      1.0000 0.68971  0.05115  0.69769  Biso   1.000  O
  O33      1.0000 0.68975  0.05109  0.69778  Biso   1.000  O
  C116     1.0000 0.62071  0.19545  0.88016  Biso   1.000  C
  C117     1.0000 0.62062  0.19545  0.88016  Biso   1.000  C
  N69      1.0000 0.81739  0.28721  0.14039  Biso   1.000  N
  H93      1.0000 0.91968  0.43007  0.18033  Biso   1.000  H
  H94      1.0000 0.78580  0.43361  0.11021  Biso   1.000  H
  H95      1.0000 0.91965  0.43005  0.18024  Biso   1.000  H
  H96      1.0000 0.78577  0.43367  0.11012  Biso   1.000  H
  H97      1.0000 0.78577  0.43358  0.11012  Biso   1.000  H
  O34      1.0000 0.99924  0.70875  0.71659  Biso   1.000  O
  O35      1.0000 0.99920  0.70872  0.71650  Biso   1.000  O
  O36      1.0000 0.99923  0.70867  0.71659  Biso   1.000  O
  C118     1.0000 0.15048  0.61347  0.88505  Biso   1.000  C
  C119     1.0000 0.15049  0.61355  0.88505  Biso   1.000  C
  C120     1.0000 0.15057  0.61347  0.88505  Biso   1.000  C
  C121     1.0000 0.15057  0.61355  0.88505  Biso   1.000  C
  N70      1.0000 0.28142  0.78024  0.15175  Biso   1.000  N
  H98      1.0000 0.43607  0.86334  0.18619  Biso   1.000  H
  H99      1.0000 0.41834  0.73695  0.10648  Biso   1.000  H
  H100     1.0000 0.41834  0.73687  0.10648  Biso   1.000  H
  H101     1.0000 0.43615  0.86334  0.18619  Biso   1.000  H
  N71      1.0000 0.65188  0.15812  0.98534  Biso   1.000  N
  H102     1.0000 0.56401  0.13673  0.81387  Biso   1.000  H
  H103     1.0000 0.58174  0.26312  0.89357  Biso   1.000  H
  H104     1.0000 0.56393  0.13673  0.81387  Biso   1.000  H
  C122     1.0000 0.89574  0.25514  0.23243  Biso   1.000  C
  C123     1.0000 0.69732  0.23534  0.10329  Biso   1.000  C
  C124     1.0000 0.89571  0.25512  0.23234  Biso   1.000  C
  C125     1.0000 0.89565  0.25514  0.23243  Biso   1.000  C
  C126     1.0000 0.69723  0.23534  0.10329  Biso   1.000  C
  C127     1.0000 0.89562  0.25512  0.23234  Biso   1.000  C
  N72      1.0000 0.12721  0.63773  0.99368  Biso   1.000  N
  H105     1.0000 0.08032  0.57008  0.81972  Biso   1.000  H
  H106     1.0000 0.21420  0.56654  0.88984  Biso   1.000  H
  N73      1.0000 0.12717  0.63770  0.99359  Biso   1.000  N
  H107     1.0000 0.21420  0.56646  0.88984  Biso   1.000  H
  N74      1.0000 0.12729  0.63773  0.99368  Biso   1.000  N
  C128     1.0000 0.26010  0.85321  0.24467  Biso   1.000  C
  C129     1.0000 0.21564  0.66913  0.11199  Biso   1.000  C
  C130     1.0000 0.63966  0.04768  0.98205  Biso   1.000  C
  C131     1.0000 0.63966  0.04760  0.98205  Biso   1.000  C
  N75      1.0000 0.83367  0.17550  0.25568  Biso   1.000  N
  N76      1.0000 0.83367  0.17558  0.25568  Biso   1.000  N
  O37      1.0000 0.00076  0.29140  0.28346  Biso   1.000  O
  O38      1.0000 0.00077  0.29148  0.28346  Biso   1.000  O
  H108     1.0000 0.64387  0.29183  0.11660  Biso   1.000  H
  C132     1.0000 0.70860  0.15631  0.18006  Biso   1.000  C
  H109     1.0000 0.64384  0.29180  0.11651  Biso   1.000  H
  C133     1.0000 0.01242  0.63030  0.99208  Biso   1.000  C
  C134     1.0000 0.01238  0.63028  0.99199  Biso   1.000  C
  O39      1.0000 0.31033  0.94890  0.30227  Biso   1.000  O
  N77      1.0000 0.17092  0.79945  0.26411  Biso   1.000  N
  N78      1.0000 0.17089  0.79942  0.26402  Biso   1.000  N
  C135     1.0000 0.14073  0.68235  0.19231  Biso   1.000  C
  H110     1.0000 0.26836  0.61075  0.12211  Biso   1.000  H
  C136     1.0000 0.14070  0.68232  0.19222  Biso   1.000  C
  H111     1.0000 0.26833  0.61072  0.12202  Biso   1.000  H
  H112     1.0000 0.26828  0.61075  0.12211  Biso   1.000  H
  H113     1.0000 0.26825  0.61072  0.12202  Biso   1.000  H
  O40      1.0000 0.59749  0.96708  0.89232  Biso   1.000  O
  N79      1.0000 0.67141  0.04417  0.09548  Biso   1.000  N
  N80      1.0000 0.67140  0.04408  0.09548  Biso   1.000  N
  C137     1.0000 0.87949  0.14124  0.36165  Biso   1.000  C
  H114     1.0000 0.65796  0.17412  0.22746  Biso   1.000  H
  O41      1.0000 0.92301  0.60451  0.90395  Biso   1.000  O
  N81      1.0000 0.01876  0.65543  0.10586  Biso   1.000  N
  N82      1.0000 0.01884  0.65543  0.10586  Biso   1.000  N
  C138     1.0000 0.14408  0.84613  0.36955  Biso   1.000  C
  H115     1.0000 0.15862  0.63061  0.24050  Biso   1.000  H
  H116     1.0000 0.15859  0.63058  0.24041  Biso   1.000  H
  C139     1.0000 0.65444  0.94378  0.12406  Biso   1.000  C
  C140     1.0000 0.65445  0.94386  0.12406  Biso   1.000  C
  C141     1.0000 0.65453  0.94378  0.12406  Biso   1.000  C
  C142     1.0000 0.65453  0.94386  0.12406  Biso   1.000  C
  N83      1.0000 0.91362  0.03272  0.34053  Biso   1.000  N
  H117     1.0000 0.88538  0.18712  0.43647  Biso   1.000  H
  N84      1.0000 0.91359  0.03270  0.34044  Biso   1.000  N
  C143     1.0000 0.91613  0.65475  0.13666  Biso   1.000  C
  C144     1.0000 0.91612  0.65467  0.13666  Biso   1.000  C
  N85      1.0000 0.03389  0.89700  0.34798  Biso   1.000  N
  H118     1.0000 0.20892  0.90352  0.42697  Biso   1.000  H
  H119     1.0000 0.13864  0.78620  0.40399  Biso   1.000  H
  N86      1.0000 0.03390  0.89708  0.34798  Biso   1.000  N
  N87      1.0000 0.76211  0.89714  0.17198  Biso   1.000  N
  H120     1.0000 0.60186  0.88672  0.05297  Biso   1.000  H
  H121     1.0000 0.61538  0.96013  0.18130  Biso   1.000  H
  H122     1.0000 0.61534  0.96011  0.18121  Biso   1.000  H
  C145     1.0000 0.83661  0.92644  0.29659  Biso   1.000  C
  C146     1.0000 0.03313  0.01266  0.37443  Biso   1.000  C
  C147     1.0000 0.03310  0.01264  0.37434  Biso   1.000  C
  N88      1.0000 0.88462  0.76742  0.17678  Biso   1.000  N
  H123     1.0000 0.93011  0.61955  0.19897  Biso   1.000  H
  H124     1.0000 0.85003  0.60877  0.06805  Biso   1.000  H
  H125     1.0000 0.85003  0.60885  0.06805  Biso   1.000  H
  H126     1.0000 0.93011  0.61947  0.19897  Biso   1.000  H
  C148     1.0000 0.91918  0.83520  0.30165  Biso   1.000  C
  C149     1.0000 0.79068  0.80347  0.10506  Biso   1.000  C
  C150     1.0000 0.79068  0.80356  0.10506  Biso   1.000  C
  H127     1.0000 0.78905  0.92556  0.34559  Biso   1.000  H
  H128     1.0000 0.78896  0.92556  0.34559  Biso   1.000  H
  O42      1.0000 0.11923  0.08573  0.42032  Biso   1.000  O
  O43      1.0000 0.11920  0.08570  0.42023  Biso   1.000  O
  H129     1.0000 0.90962  0.78990  0.35109  Biso   1.000  H
  H130     1.0000 0.90962  0.78998  0.35109  Biso   1.000  H
  O44      1.0000 0.73971  0.75926  0.99918  Biso   1.000  O
  O45      1.0000 0.73968  0.75923  0.99909  Biso   1.000  O
  O46      1.0000 0.73971  0.75917  0.99918  Biso   1.000  O
  O47      1.0000 0.26029  0.24090  0.00087  Biso   1.000  O
  C151     1.0000 0.20940  0.19660  0.89499  Biso   1.000  C
  C152     1.0000 0.20937  0.19657  0.89490  Biso   1.000  C
  C153     1.0000 0.20940  0.19651  0.89499  Biso   1.000  C
  C154     1.0000 0.20937  0.19649  0.89490  Biso   1.000  C
  N89      1.0000 0.11546  0.23265  0.82327  Biso   1.000  N
  N90      1.0000 0.11543  0.23262  0.82318  Biso   1.000  N
  N91      1.0000 0.23797  0.10293  0.82807  Biso   1.000  N
  C155     1.0000 0.08087  0.16484  0.69831  Biso   1.000  C
  C156     1.0000 0.08090  0.16487  0.69840  Biso   1.000  C
  C157     1.0000 0.08395  0.34532  0.86339  Biso   1.000  C
  C158     1.0000 0.08392  0.34538  0.86330  Biso   1.000  C
  C159     1.0000 0.08392  0.34530  0.86330  Biso   1.000  C
  C160     1.0000 0.16347  0.07363  0.70346  Biso   1.000  C
  C161     1.0000 0.34560  0.05626  0.87590  Biso   1.000  C
  C162     1.0000 0.34564  0.05629  0.87599  Biso   1.000  C
  C163     1.0000 0.34555  0.05621  0.87599  Biso   1.000  C
  C164     1.0000 0.34552  0.05626  0.87590  Biso   1.000  C
  C165     1.0000 0.34563  0.05621  0.87599  Biso   1.000  C
  H131     1.0000 0.09046  0.21017  0.64896  Biso   1.000  H
  N92      1.0000 0.96619  0.10308  0.65207  Biso   1.000  N
  N93      1.0000 0.96615  0.10305  0.65198  Biso   1.000  N
  N94      1.0000 0.96619  0.10299  0.65207  Biso   1.000  N
  H132     1.0000 0.09046  0.21009  0.64896  Biso   1.000  H
  H133     1.0000 0.06997  0.38052  0.80109  Biso   1.000  H
  N95      1.0000 0.98132  0.34464  0.89419  Biso   1.000  N
  N96      1.0000 0.98120  0.34461  0.89410  Biso   1.000  N
  N97      1.0000 0.98124  0.34464  0.89419  Biso   1.000  N
  N98      1.0000 0.98129  0.34461  0.89410  Biso   1.000  N
  H134     1.0000 0.15005  0.39130  0.93200  Biso   1.000  H
  H135     1.0000 0.06994  0.38057  0.80100  Biso   1.000  H
  H136     1.0000 0.15002  0.39128  0.93191  Biso   1.000  H
  H137     1.0000 0.15005  0.39122  0.93200  Biso   1.000  H
  H138     1.0000 0.06994  0.38049  0.80100  Biso   1.000  H
  H139     1.0000 0.15002  0.39120  0.93191  Biso   1.000  H
  H140     1.0000 0.21103  0.07452  0.65447  Biso   1.000  H
  N99      1.0000 0.08638  0.96743  0.65952  Biso   1.000  N
  H141     1.0000 0.21112  0.07452  0.65447  Biso   1.000  H
  H142     1.0000 0.38470  0.03994  0.81875  Biso   1.000  H
  H143     1.0000 0.39822  0.11335  0.94708  Biso   1.000  H
  H144     1.0000 0.39818  0.11332  0.94700  Biso   1.000  H
  N100     1.0000 0.32859  0.95599  0.90457  Biso   1.000  N
  N101     1.0000 0.32860  0.95607  0.90457  Biso   1.000  N
  C166     1.0000 0.96687  0.98749  0.62562  Biso   1.000  C
  C167     1.0000 0.85600  0.15395  0.63050  Biso   1.000  C
  C168     1.0000 0.85597  0.15392  0.63041  Biso   1.000  C
  C169     1.0000 0.85935  0.31772  0.80774  Biso   1.000  C
  C170     1.0000 0.98758  0.36985  0.00797  Biso   1.000  C
  C171     1.0000 0.12051  0.85891  0.63840  Biso   1.000  C
  C172     1.0000 0.12048  0.85888  0.63831  Biso   1.000  C
  C173     1.0000 0.29140  0.84384  0.81999  Biso   1.000  C
  C174     1.0000 0.29137  0.84381  0.81990  Biso   1.000  C
  C175     1.0000 0.36042  0.95239  0.01800  Biso   1.000  C
  C176     1.0000 0.36039  0.95244  0.01791  Biso   1.000  C
  C177     1.0000 0.36039  0.95236  0.01791  Biso   1.000  C
  O48      1.0000 0.88077  0.91442  0.57974  Biso   1.000  O
  N102     1.0000 0.82916  0.20062  0.73594  Biso   1.000  N
  H145     1.0000 0.79116  0.09655  0.57308  Biso   1.000  H
  H146     1.0000 0.86144  0.21387  0.59607  Biso   1.000  H
  H147     1.0000 0.79113  0.09653  0.57299  Biso   1.000  H
  H148     1.0000 0.86141  0.21384  0.59598  Biso   1.000  H
  H149     1.0000 0.86144  0.21379  0.59607  Biso   1.000  H
  H150     1.0000 0.84146  0.36946  0.75955  Biso   1.000  H
  C178     1.0000 0.78445  0.33095  0.88806  Biso   1.000  C
  N103     1.0000 0.87279  0.36242  0.00637  Biso   1.000  N
  N104     1.0000 0.87271  0.36242  0.00637  Biso   1.000  N
  O49      1.0000 0.07699  0.39565  0.09610  Biso   1.000  O
  O50      1.0000 0.07695  0.39562  0.09601  Biso   1.000  O
  N105     1.0000 0.16633  0.82465  0.74437  Biso   1.000  N
  H151     1.0000 0.11462  0.81303  0.56358  Biso   1.000  H
  N106     1.0000 0.16630  0.82462  0.74428  Biso   1.000  N
  H152     1.0000 0.11458  0.81301  0.56349  Biso   1.000  H
  N107     1.0000 0.16633  0.82457  0.74437  Biso   1.000  N
  C179     1.0000 0.30268  0.76481  0.89676  Biso   1.000  C
  H153     1.0000 0.34204  0.82604  0.77260  Biso   1.000  H
  H154     1.0000 0.34201  0.82601  0.77251  Biso   1.000  H
  C180     1.0000 0.30276  0.76481  0.89676  Biso   1.000  C
  N108     1.0000 0.34820  0.84195  0.01471  Biso   1.000  N
  N109     1.0000 0.34817  0.84192  0.01463  Biso   1.000  N
  O51      1.0000 0.40251  0.03307  0.10773  Biso   1.000  O
  O52      1.0000 0.40248  0.03304  0.10764  Biso   1.000  O
  O53      1.0000 0.40251  0.03299  0.10773  Biso   1.000  O
  C181     1.0000 0.73998  0.14686  0.75538  Biso   1.000  C
  C182     1.0000 0.73995  0.14683  0.75529  Biso   1.000  C
  N110     1.0000 0.71866  0.21983  0.84830  Biso   1.000  N
  N111     1.0000 0.71863  0.21981  0.84821  Biso   1.000  N
  H155     1.0000 0.73172  0.38932  0.87795  Biso   1.000  H
  H156     1.0000 0.73180  0.38932  0.87795  Biso   1.000  H
  C183     1.0000 0.84952  0.38668  0.11501  Biso   1.000  C
  C184     1.0000 0.84948  0.38665  0.11492  Biso   1.000  C
  C185     1.0000 0.84943  0.38660  0.11501  Biso   1.000  C
  C186     1.0000 0.84940  0.38665  0.11492  Biso   1.000  C
  C187     1.0000 0.84951  0.38660  0.11501  Biso   1.000  C
  C188     1.0000 0.10426  0.74501  0.76763  Biso   1.000  C
  C189     1.0000 0.10434  0.74501  0.76763  Biso   1.000  C
  N112     1.0000 0.18261  0.71294  0.85966  Biso   1.000  N
  H157     1.0000 0.35613  0.70832  0.88345  Biso   1.000  H
  C190     1.0000 0.37937  0.80462  0.11989  Biso   1.000  C
  O54      1.0000 0.68975  0.05117  0.69778  Biso   1.000  O
  O55      1.0000 0.68971  0.05115  0.69769  Biso   1.000  O
  O56      1.0000 0.68975  0.05109  0.69778  Biso   1.000  O
  C191     1.0000 0.62071  0.19545  0.88016  Biso   1.000  C
  C192     1.0000 0.62062  0.19545  0.88016  Biso   1.000  C
  N113     1.0000 0.81739  0.28721  0.14039  Biso   1.000  N
  H158     1.0000 0.91968  0.43007  0.18033  Biso   1.000  H
  H159     1.0000 0.78580  0.43361  0.11021  Biso   1.000  H
  H160     1.0000 0.91965  0.43005  0.18024  Biso   1.000  H
  H161     1.0000 0.78577  0.43367  0.11012  Biso   1.000  H
  H162     1.0000 0.78577  0.43358  0.11012  Biso   1.000  H
  O57      1.0000 0.99924  0.70875  0.71659  Biso   1.000  O
  O58      1.0000 0.99920  0.70872  0.71650  Biso   1.000  O
  O59      1.0000 0.99923  0.70867  0.71659  Biso   1.000  O
  C193     1.0000 0.15048  0.61347  0.88505  Biso   1.000  C
  C194     1.0000 0.15049  0.61355  0.88505  Biso   1.000  C
  C195     1.0000 0.15057  0.61347  0.88505  Biso   1.000  C
  C196     1.0000 0.15057  0.61355  0.88505  Biso   1.000  C
  N114     1.0000 0.28142  0.78024  0.15175  Biso   1.000  N
  H163     1.0000 0.43607  0.86334  0.18619  Biso   1.000  H
  H164     1.0000 0.41834  0.73695  0.10648  Biso   1.000  H
  H165     1.0000 0.41834  0.73687  0.10648  Biso   1.000  H
  H166     1.0000 0.43615  0.86334  0.18619  Biso   1.000  H
  N115     1.0000 0.65188  0.15812  0.98534  Biso   1.000  N
  H167     1.0000 0.56401  0.13673  0.81387  Biso   1.000  H
  H168     1.0000 0.58174  0.26312  0.89357  Biso   1.000  H
  H169     1.0000 0.56393  0.13673  0.81387  Biso   1.000  H
  C197     1.0000 0.89574  0.25514  0.23243  Biso   1.000  C
  C198     1.0000 0.69732  0.23534  0.10329  Biso   1.000  C
  C199     1.0000 0.89571  0.25512  0.23234  Biso   1.000  C
  C200     1.0000 0.89565  0.25514  0.23243  Biso   1.000  C
  C201     1.0000 0.69723  0.23534  0.10329  Biso   1.000  C
  C202     1.0000 0.89562  0.25512  0.23234  Biso   1.000  C
  N116     1.0000 0.12721  0.63773  0.99368  Biso   1.000  N
  H170     1.0000 0.08032  0.57008  0.81972  Biso   1.000  H
  H171     1.0000 0.21420  0.56654  0.88984  Biso   1.000  H
  N117     1.0000 0.12717  0.63770  0.99359  Biso   1.000  N
  H172     1.0000 0.21420  0.56646  0.88984  Biso   1.000  H
  N118     1.0000 0.12729  0.63773  0.99368  Biso   1.000  N
  C203     1.0000 0.26010  0.85321  0.24467  Biso   1.000  C
  C204     1.0000 0.21564  0.66913  0.11199  Biso   1.000  C
  C205     1.0000 0.63966  0.04768  0.98205  Biso   1.000  C
  C206     1.0000 0.63966  0.04760  0.98205  Biso   1.000  C
  N119     1.0000 0.83367  0.17550  0.25568  Biso   1.000  N
  N120     1.0000 0.83367  0.17558  0.25568  Biso   1.000  N
  O60      1.0000 0.00076  0.29140  0.28346  Biso   1.000  O
  O61      1.0000 0.00077  0.29148  0.28346  Biso   1.000  O
  H173     1.0000 0.64387  0.29183  0.11660  Biso   1.000  H
  C207     1.0000 0.70860  0.15631  0.18006  Biso   1.000  C
  H174     1.0000 0.64384  0.29180  0.11651  Biso   1.000  H
  C208     1.0000 0.01242  0.63030  0.99208  Biso   1.000  C
  C209     1.0000 0.01238  0.63028  0.99199  Biso   1.000  C
  O62      1.0000 0.31033  0.94890  0.30227  Biso   1.000  O
  N121     1.0000 0.17092  0.79945  0.26411  Biso   1.000  N
  N122     1.0000 0.17089  0.79942  0.26402  Biso   1.000  N
  C210     1.0000 0.14073  0.68235  0.19231  Biso   1.000  C
  H175     1.0000 0.26836  0.61075  0.12211  Biso   1.000  H
  C211     1.0000 0.14070  0.68232  0.19222  Biso   1.000  C
  H176     1.0000 0.26833  0.61072  0.12202  Biso   1.000  H
  H177     1.0000 0.26828  0.61075  0.12211  Biso   1.000  H
  H178     1.0000 0.26825  0.61072  0.12202  Biso   1.000  H
  O63      1.0000 0.59749  0.96708  0.89232  Biso   1.000  O
  N123     1.0000 0.67141  0.04417  0.09548  Biso   1.000  N
  N124     1.0000 0.67140  0.04408  0.09548  Biso   1.000  N
  C212     1.0000 0.87949  0.14124  0.36165  Biso   1.000  C
  H179     1.0000 0.65796  0.17412  0.22746  Biso   1.000  H
  O64      1.0000 0.92301  0.60451  0.90395  Biso   1.000  O
  N125     1.0000 0.01876  0.65543  0.10586  Biso   1.000  N
  N126     1.0000 0.01884  0.65543  0.10586  Biso   1.000  N
  C213     1.0000 0.14408  0.84613  0.36955  Biso   1.000  C
  H180     1.0000 0.15862  0.63061  0.24050  Biso   1.000  H
  H181     1.0000 0.15859  0.63058  0.24041  Biso   1.000  H
  C214     1.0000 0.65444  0.94378  0.12406  Biso   1.000  C
  C215     1.0000 0.65445  0.94386  0.12406  Biso   1.000  C
  C216     1.0000 0.65453  0.94378  0.12406  Biso   1.000  C
  C217     1.0000 0.65453  0.94386  0.12406  Biso   1.000  C
  N127     1.0000 0.91362  0.03272  0.34053  Biso   1.000  N
  H182     1.0000 0.88538  0.18712  0.43647  Biso   1.000  H
  N128     1.0000 0.91359  0.03270  0.34044  Biso   1.000  N
  C218     1.0000 0.91613  0.65475  0.13666  Biso   1.000  C
  C219     1.0000 0.91612  0.65467  0.13666  Biso   1.000  C
  N129     1.0000 0.03389  0.89700  0.34798  Biso   1.000  N
  H183     1.0000 0.20892  0.90352  0.42697  Biso   1.000  H
  H184     1.0000 0.13864  0.78620  0.40399  Biso   1.000  H
  N130     1.0000 0.03390  0.89708  0.34798  Biso   1.000  N
  N131     1.0000 0.76211  0.89714  0.17198  Biso   1.000  N
  H185     1.0000 0.60186  0.88672  0.05297  Biso   1.000  H
  H186     1.0000 0.61538  0.96013  0.18130  Biso   1.000  H
  H187     1.0000 0.61534  0.96011  0.18121  Biso   1.000  H
  C220     1.0000 0.83661  0.92644  0.29659  Biso   1.000  C
  C221     1.0000 0.03313  0.01266  0.37443  Biso   1.000  C
  C222     1.0000 0.03310  0.01264  0.37434  Biso   1.000  C
  N132     1.0000 0.88462  0.76742  0.17678  Biso   1.000  N
  H188     1.0000 0.93011  0.61955  0.19897  Biso   1.000  H
  H189     1.0000 0.85003  0.60877  0.06805  Biso   1.000  H
  H190     1.0000 0.85003  0.60885  0.06805  Biso   1.000  H
  H191     1.0000 0.93011  0.61947  0.19897  Biso   1.000  H
  C223     1.0000 0.91918  0.83520  0.30165  Biso   1.000  C
  C224     1.0000 0.79068  0.80347  0.10506  Biso   1.000  C
  C225     1.0000 0.79068  0.80356  0.10506  Biso   1.000  C
  H192     1.0000 0.78905  0.92556  0.34559  Biso   1.000  H
  H193     1.0000 0.78896  0.92556  0.34559  Biso   1.000  H
  O65      1.0000 0.11923  0.08573  0.42032  Biso   1.000  O
  O66      1.0000 0.11920  0.08570  0.42023  Biso   1.000  O
  H194     1.0000 0.90962  0.78990  0.35109  Biso   1.000  H
  H195     1.0000 0.90962  0.78998  0.35109  Biso   1.000  H
  O67      1.0000 0.73971  0.75926  0.99918  Biso   1.000  O
  O68      1.0000 0.73968  0.75923  0.99909  Biso   1.000  O
  O69      1.0000 0.73971  0.75917  0.99918  Biso   1.000  O
  O70      1.0000 0.26029  0.24090  0.00087  Biso   1.000  O
  C226     1.0000 0.20940  0.19660  0.89499  Biso   1.000  C
  C227     1.0000 0.20937  0.19657  0.89490  Biso   1.000  C
  C228     1.0000 0.20940  0.19651  0.89499  Biso   1.000  C
  C229     1.0000 0.20937  0.19649  0.89490  Biso   1.000  C
  N133     1.0000 0.11546  0.23265  0.82327  Biso   1.000  N
  N134     1.0000 0.11543  0.23262  0.82318  Biso   1.000  N
  N135     1.0000 0.23797  0.10293  0.82807  Biso   1.000  N
  C230     1.0000 0.08087  0.16484  0.69831  Biso   1.000  C
  C231     1.0000 0.08090  0.16487  0.69840  Biso   1.000  C
  C232     1.0000 0.08395  0.34532  0.86339  Biso   1.000  C
  C233     1.0000 0.08392  0.34538  0.86330  Biso   1.000  C
  C234     1.0000 0.08392  0.34530  0.86330  Biso   1.000  C
  C235     1.0000 0.16347  0.07363  0.70346  Biso   1.000  C
  C236     1.0000 0.34564  0.05629  0.87599  Biso   1.000  C
  C237     1.0000 0.34560  0.05626  0.87590  Biso   1.000  C
  C238     1.0000 0.34555  0.05621  0.87599  Biso   1.000  C
  C239     1.0000 0.34552  0.05626  0.87590  Biso   1.000  C
  C240     1.0000 0.34563  0.05621  0.87599  Biso   1.000  C
  H196     1.0000 0.09046  0.21017  0.64896  Biso   1.000  H
  N136     1.0000 0.96619  0.10308  0.65207  Biso   1.000  N
  N137     1.0000 0.96615  0.10305  0.65198  Biso   1.000  N
  N138     1.0000 0.96619  0.10299  0.65207  Biso   1.000  N
  H197     1.0000 0.09046  0.21009  0.64896  Biso   1.000  H
  H198     1.0000 0.06997  0.38052  0.80109  Biso   1.000  H
  N139     1.0000 0.98132  0.34464  0.89419  Biso   1.000  N
  N140     1.0000 0.98120  0.34461  0.89410  Biso   1.000  N
  N141     1.0000 0.98124  0.34464  0.89419  Biso   1.000  N
  N142     1.0000 0.98129  0.34461  0.89410  Biso   1.000  N
  H199     1.0000 0.15005  0.39130  0.93200  Biso   1.000  H
  H200     1.0000 0.06994  0.38057  0.80100  Biso   1.000  H
  H201     1.0000 0.15002  0.39128  0.93191  Biso   1.000  H
  H202     1.0000 0.15005  0.39122  0.93200  Biso   1.000  H
  H203     1.0000 0.06994  0.38049  0.80100  Biso   1.000  H
  H204     1.0000 0.15002  0.39120  0.93191  Biso   1.000  H
  H205     1.0000 0.21103  0.07452  0.65447  Biso   1.000  H
  N143     1.0000 0.08638  0.96743  0.65952  Biso   1.000  N
  H206     1.0000 0.21112  0.07452  0.65447  Biso   1.000  H
  H207     1.0000 0.38470  0.03994  0.81875  Biso   1.000  H
  H208     1.0000 0.39822  0.11335  0.94708  Biso   1.000  H
  H209     1.0000 0.39818  0.11332  0.94700  Biso   1.000  H
  N144     1.0000 0.32859  0.95599  0.90457  Biso   1.000  N
  N145     1.0000 0.32860  0.95607  0.90457  Biso   1.000  N
  C241     1.0000 0.96687  0.98749  0.62562  Biso   1.000  C
  C242     1.0000 0.85600  0.15395  0.63050  Biso   1.000  C
  C243     1.0000 0.85597  0.15392  0.63041  Biso   1.000  C
  C244     1.0000 0.85935  0.31772  0.80774  Biso   1.000  C
  C245     1.0000 0.98758  0.36985  0.00797  Biso   1.000  C
  C246     1.0000 0.12051  0.85891  0.63840  Biso   1.000  C
  C247     1.0000 0.12048  0.85888  0.63831  Biso   1.000  C
  C248     1.0000 0.29140  0.84384  0.81999  Biso   1.000  C
  C249     1.0000 0.29137  0.84381  0.81990  Biso   1.000  C
  C250     1.0000 0.36042  0.95239  0.01800  Biso   1.000  C
  C251     1.0000 0.36039  0.95244  0.01791  Biso   1.000  C
  C252     1.0000 0.36039  0.95236  0.01791  Biso   1.000  C
  O71      1.0000 0.88077  0.91442  0.57974  Biso   1.000  O
  N146     1.0000 0.82916  0.20062  0.73594  Biso   1.000  N
  H210     1.0000 0.79116  0.09655  0.57308  Biso   1.000  H
  H211     1.0000 0.86144  0.21387  0.59607  Biso   1.000  H
  H212     1.0000 0.79113  0.09653  0.57299  Biso   1.000  H
  H213     1.0000 0.86141  0.21384  0.59598  Biso   1.000  H
  H214     1.0000 0.86144  0.21379  0.59607  Biso   1.000  H
  H215     1.0000 0.84146  0.36946  0.75955  Biso   1.000  H
  C253     1.0000 0.78445  0.33095  0.88806  Biso   1.000  C
  N147     1.0000 0.87279  0.36242  0.00637  Biso   1.000  N
  N148     1.0000 0.87271  0.36242  0.00637  Biso   1.000  N
  O72      1.0000 0.07699  0.39565  0.09610  Biso   1.000  O
  O73      1.0000 0.07695  0.39562  0.09601  Biso   1.000  O
  N149     1.0000 0.16633  0.82465  0.74437  Biso   1.000  N
  H216     1.0000 0.11462  0.81303  0.56358  Biso   1.000  H
  N150     1.0000 0.16630  0.82462  0.74428  Biso   1.000  N
  H217     1.0000 0.11458  0.81301  0.56349  Biso   1.000  H
  N151     1.0000 0.16633  0.82457  0.74437  Biso   1.000  N
  C254     1.0000 0.30268  0.76481  0.89676  Biso   1.000  C
  H218     1.0000 0.34204  0.82604  0.77260  Biso   1.000  H
  H219     1.0000 0.34201  0.82601  0.77251  Biso   1.000  H
  C255     1.0000 0.30276  0.76481  0.89676  Biso   1.000  C
  N152     1.0000 0.34820  0.84195  0.01471  Biso   1.000  N
  N153     1.0000 0.34817  0.84192  0.01463  Biso   1.000  N
  O74      1.0000 0.40251  0.03307  0.10773  Biso   1.000  O
  O75      1.0000 0.40248  0.03304  0.10764  Biso   1.000  O
  O76      1.0000 0.40251  0.03299  0.10773  Biso   1.000  O
  C256     1.0000 0.73998  0.14686  0.75538  Biso   1.000  C
  C257     1.0000 0.73995  0.14683  0.75529  Biso   1.000  C
  N154     1.0000 0.71866  0.21983  0.84830  Biso   1.000  N
  N155     1.0000 0.71863  0.21981  0.84821  Biso   1.000  N
  H220     1.0000 0.73172  0.38932  0.87795  Biso   1.000  H
  H221     1.0000 0.73180  0.38932  0.87795  Biso   1.000  H
  C258     1.0000 0.84952  0.38668  0.11501  Biso   1.000  C
  C259     1.0000 0.84948  0.38665  0.11492  Biso   1.000  C
  C260     1.0000 0.84943  0.38660  0.11501  Biso   1.000  C
  C261     1.0000 0.84940  0.38665  0.11492  Biso   1.000  C
  C262     1.0000 0.84951  0.38660  0.11501  Biso   1.000  C
  C263     1.0000 0.10426  0.74501  0.76763  Biso   1.000  C
  C264     1.0000 0.10434  0.74501  0.76763  Biso   1.000  C
  N156     1.0000 0.18261  0.71294  0.85966  Biso   1.000  N
  H222     1.0000 0.35613  0.70832  0.88345  Biso   1.000  H
  C265     1.0000 0.37937  0.80462  0.11989  Biso   1.000  C
  O77      1.0000 0.68975  0.05117  0.69778  Biso   1.000  O
  O78      1.0000 0.68971  0.05115  0.69769  Biso   1.000  O
  O79      1.0000 0.68975  0.05109  0.69778  Biso   1.000  O
  C266     1.0000 0.62071  0.19545  0.88016  Biso   1.000  C
  C267     1.0000 0.62062  0.19545  0.88016  Biso   1.000  C
  N157     1.0000 0.81739  0.28721  0.14039  Biso   1.000  N
  H223     1.0000 0.91968  0.43007  0.18033  Biso   1.000  H
  H224     1.0000 0.78580  0.43361  0.11021  Biso   1.000  H
  H225     1.0000 0.91965  0.43005  0.18024  Biso   1.000  H
  H226     1.0000 0.78577  0.43367  0.11012  Biso   1.000  H
  H227     1.0000 0.78577  0.43358  0.11012  Biso   1.000  H
  O80      1.0000 0.99924  0.70875  0.71659  Biso   1.000  O
  O81      1.0000 0.99920  0.70872  0.71650  Biso   1.000  O
  O82      1.0000 0.99923  0.70867  0.71659  Biso   1.000  O
  C268     1.0000 0.15048  0.61347  0.88505  Biso   1.000  C
  C269     1.0000 0.15049  0.61355  0.88505  Biso   1.000  C
  C270     1.0000 0.15057  0.61347  0.88505  Biso   1.000  C
  C271     1.0000 0.15057  0.61355  0.88505  Biso   1.000  C
  N158     1.0000 0.28142  0.78024  0.15175  Biso   1.000  N
  H228     1.0000 0.43607  0.86334  0.18619  Biso   1.000  H
  H229     1.0000 0.41834  0.73695  0.10648  Biso   1.000  H
  H230     1.0000 0.41834  0.73687  0.10648  Biso   1.000  H
  H231     1.0000 0.43615  0.86334  0.18619  Biso   1.000  H
  N159     1.0000 0.65188  0.15812  0.98534  Biso   1.000  N
  H232     1.0000 0.56401  0.13673  0.81387  Biso   1.000  H
  H233     1.0000 0.58174  0.26312  0.89357  Biso   1.000  H
  H234     1.0000 0.56393  0.13673  0.81387  Biso   1.000  H
  C272     1.0000 0.89574  0.25514  0.23243  Biso   1.000  C
  C273     1.0000 0.69732  0.23534  0.10329  Biso   1.000  C
  C274     1.0000 0.89571  0.25512  0.23234  Biso   1.000  C
  C275     1.0000 0.89565  0.25514  0.23243  Biso   1.000  C
  C276     1.0000 0.69723  0.23534  0.10329  Biso   1.000  C
  C277     1.0000 0.89562  0.25512  0.23234  Biso   1.000  C
  N160     1.0000 0.12721  0.63773  0.99368  Biso   1.000  N
  H235     1.0000 0.08032  0.57008  0.81972  Biso   1.000  H
  H236     1.0000 0.21420  0.56654  0.88984  Biso   1.000  H
  N161     1.0000 0.12717  0.63770  0.99359  Biso   1.000  N
  H237     1.0000 0.21420  0.56646  0.88984  Biso   1.000  H
  N162     1.0000 0.12729  0.63773  0.99368  Biso   1.000  N
  C278     1.0000 0.26010  0.85321  0.24467  Biso   1.000  C
  C279     1.0000 0.21564  0.66913  0.11199  Biso   1.000  C
  C280     1.0000 0.63966  0.04768  0.98205  Biso   1.000  C
  C281     1.0000 0.63966  0.04760  0.98205  Biso   1.000  C
  N163     1.0000 0.83367  0.17550  0.25568  Biso   1.000  N
  N164     1.0000 0.83367  0.17558  0.25568  Biso   1.000  N
  O83      1.0000 0.00076  0.29140  0.28346  Biso   1.000  O
  O84      1.0000 0.00077  0.29148  0.28346  Biso   1.000  O
  H238     1.0000 0.64387  0.29183  0.11660  Biso   1.000  H
  C282     1.0000 0.70860  0.15631  0.18006  Biso   1.000  C
  H239     1.0000 0.64384  0.29180  0.11651  Biso   1.000  H
  C283     1.0000 0.01242  0.63030  0.99208  Biso   1.000  C
  C284     1.0000 0.01238  0.63028  0.99199  Biso   1.000  C
  O85      1.0000 0.31033  0.94890  0.30227  Biso   1.000  O
  N165     1.0000 0.17092  0.79945  0.26411  Biso   1.000  N
  N166     1.0000 0.17089  0.79942  0.26402  Biso   1.000  N
  C285     1.0000 0.14073  0.68235  0.19231  Biso   1.000  C
  H240     1.0000 0.26836  0.61075  0.12211  Biso   1.000  H
  C286     1.0000 0.14070  0.68232  0.19222  Biso   1.000  C
  H241     1.0000 0.26833  0.61072  0.12202  Biso   1.000  H
  H242     1.0000 0.26828  0.61075  0.12211  Biso   1.000  H
  H243     1.0000 0.26825  0.61072  0.12202  Biso   1.000  H
  O86      1.0000 0.59749  0.96708  0.89232  Biso   1.000  O
  N167     1.0000 0.67141  0.04417  0.09548  Biso   1.000  N
  N168     1.0000 0.67140  0.04408  0.09548  Biso   1.000  N
  C287     1.0000 0.87949  0.14124  0.36165  Biso   1.000  C
  H244     1.0000 0.65796  0.17412  0.22746  Biso   1.000  H
  O87      1.0000 0.92301  0.60451  0.90395  Biso   1.000  O
  N169     1.0000 0.01876  0.65543  0.10586  Biso   1.000  N
  N170     1.0000 0.01884  0.65543  0.10586  Biso   1.000  N
  C288     1.0000 0.14408  0.84613  0.36955  Biso   1.000  C
  H245     1.0000 0.15862  0.63061  0.24050  Biso   1.000  H
  H246     1.0000 0.15859  0.63058  0.24041  Biso   1.000  H
  C289     1.0000 0.65444  0.94378  0.12406  Biso   1.000  C
  C290     1.0000 0.65445  0.94386  0.12406  Biso   1.000  C
  C291     1.0000 0.65453  0.94378  0.12406  Biso   1.000  C
  C292     1.0000 0.65453  0.94386  0.12406  Biso   1.000  C
  N171     1.0000 0.91362  0.03272  0.34053  Biso   1.000  N
  H247     1.0000 0.88538  0.18712  0.43647  Biso   1.000  H
  N172     1.0000 0.91359  0.03270  0.34044  Biso   1.000  N
  C293     1.0000 0.91613  0.65475  0.13666  Biso   1.000  C
  C294     1.0000 0.91612  0.65467  0.13666  Biso   1.000  C
  N173     1.0000 0.03389  0.89700  0.34798  Biso   1.000  N
  H248     1.0000 0.20892  0.90352  0.42697  Biso   1.000  H
  H249     1.0000 0.13864  0.78620  0.40399  Biso   1.000  H
  N174     1.0000 0.03390  0.89708  0.34798  Biso   1.000  N
  N175     1.0000 0.76211  0.89714  0.17198  Biso   1.000  N
  H250     1.0000 0.60186  0.88672  0.05297  Biso   1.000  H
  H251     1.0000 0.61538  0.96013  0.18130  Biso   1.000  H
  H252     1.0000 0.61534  0.96011  0.18121  Biso   1.000  H
  C295     1.0000 0.83661  0.92644  0.29659  Biso   1.000  C
  C296     1.0000 0.03313  0.01266  0.37443  Biso   1.000  C
  C297     1.0000 0.03310  0.01264  0.37434  Biso   1.000  C
  N176     1.0000 0.88462  0.76742  0.17678  Biso   1.000  N
  H253     1.0000 0.93011  0.61955  0.19897  Biso   1.000  H
  H254     1.0000 0.85003  0.60877  0.06805  Biso   1.000  H
  H255     1.0000 0.85003  0.60885  0.06805  Biso   1.000  H
  H256     1.0000 0.93011  0.61947  0.19897  Biso   1.000  H
  C298     1.0000 0.91918  0.83520  0.30165  Biso   1.000  C
  C299     1.0000 0.79068  0.80347  0.10506  Biso   1.000  C
  C300     1.0000 0.79068  0.80356  0.10506  Biso   1.000  C
  H257     1.0000 0.78905  0.92556  0.34559  Biso   1.000  H
  H258     1.0000 0.78896  0.92556  0.34559  Biso   1.000  H
  O88      1.0000 0.11923  0.08573  0.42032  Biso   1.000  O
  O89      1.0000 0.11920  0.08570  0.42023  Biso   1.000  O
  H259     1.0000 0.90962  0.78990  0.35109  Biso   1.000  H
  H260     1.0000 0.90962  0.78998  0.35109  Biso   1.000  H
  O90      1.0000 0.73971  0.75926  0.99918  Biso   1.000  O
  O91      1.0000 0.73968  0.75923  0.99909  Biso   1.000  O
  O92      1.0000 0.73971  0.75917  0.99918  Biso   1.000  O
  O93      1.0000 0.26029  0.24090  0.00087  Biso   1.000  O
  C301     1.0000 0.20940  0.19660  0.89499  Biso   1.000  C
  C302     1.0000 0.20937  0.19657  0.89490  Biso   1.000  C
  C303     1.0000 0.20940  0.19651  0.89499  Biso   1.000  C
  C304     1.0000 0.20937  0.19649  0.89490  Biso   1.000  C
  N177     1.0000 0.23797  0.10293  0.82807  Biso   1.000  N
  N178     1.0000 0.11546  0.23265  0.82327  Biso   1.000  N
  N179     1.0000 0.11543  0.23262  0.82318  Biso   1.000  N
  C305     1.0000 0.16347  0.07363  0.70346  Biso   1.000  C
  C306     1.0000 0.34564  0.05629  0.87599  Biso   1.000  C
  C307     1.0000 0.34560  0.05626  0.87590  Biso   1.000  C
  C308     1.0000 0.34555  0.05621  0.87599  Biso   1.000  C
  C309     1.0000 0.34552  0.05626  0.87590  Biso   1.000  C
  C310     1.0000 0.34563  0.05621  0.87599  Biso   1.000  C
  C311     1.0000 0.08090  0.16487  0.69840  Biso   1.000  C
  C312     1.0000 0.08087  0.16484  0.69831  Biso   1.000  C
  C313     1.0000 0.08395  0.34532  0.86339  Biso   1.000  C
  C314     1.0000 0.08392  0.34538  0.86330  Biso   1.000  C
  C315     1.0000 0.08392  0.34530  0.86330  Biso   1.000  C
  H261     1.0000 0.21103  0.07452  0.65447  Biso   1.000  H
  N180     1.0000 0.08638  0.96743  0.65952  Biso   1.000  N
  H262     1.0000 0.21112  0.07452  0.65447  Biso   1.000  H
  H263     1.0000 0.38470  0.03994  0.81875  Biso   1.000  H
  N181     1.0000 0.32859  0.95599  0.90457  Biso   1.000  N
  N182     1.0000 0.32860  0.95607  0.90457  Biso   1.000  N
  H264     1.0000 0.39822  0.11335  0.94708  Biso   1.000  H
  H265     1.0000 0.39818  0.11332  0.94700  Biso   1.000  H
  H266     1.0000 0.09046  0.21017  0.64896  Biso   1.000  H
  N183     1.0000 0.96619  0.10308  0.65207  Biso   1.000  N
  N184     1.0000 0.96615  0.10305  0.65198  Biso   1.000  N
  N185     1.0000 0.96619  0.10299  0.65207  Biso   1.000  N
  H267     1.0000 0.09046  0.21009  0.64896  Biso   1.000  H
  N186     1.0000 0.98132  0.34464  0.89419  Biso   1.000  N
  N187     1.0000 0.98120  0.34461  0.89410  Biso   1.000  N
  N188     1.0000 0.98124  0.34464  0.89419  Biso   1.000  N
  N189     1.0000 0.98129  0.34461  0.89410  Biso   1.000  N
  H268     1.0000 0.06997  0.38052  0.80109  Biso   1.000  H
  H269     1.0000 0.15005  0.39130  0.93200  Biso   1.000  H
  H270     1.0000 0.06994  0.38057  0.80100  Biso   1.000  H
  H271     1.0000 0.15002  0.39128  0.93191  Biso   1.000  H
  H272     1.0000 0.15005  0.39122  0.93200  Biso   1.000  H
  H273     1.0000 0.06994  0.38049  0.80100  Biso   1.000  H
  H274     1.0000 0.15002  0.39120  0.93191  Biso   1.000  H
  C316     1.0000 0.96687  0.98749  0.62562  Biso   1.000  C
  C317     1.0000 0.12051  0.85891  0.63840  Biso   1.000  C
  C318     1.0000 0.12048  0.85888  0.63831  Biso   1.000  C
  C319     1.0000 0.29140  0.84384  0.81999  Biso   1.000  C
  C320     1.0000 0.29137  0.84381  0.81990  Biso   1.000  C
  C321     1.0000 0.36042  0.95239  0.01800  Biso   1.000  C
  C322     1.0000 0.36039  0.95244  0.01791  Biso   1.000  C
  C323     1.0000 0.36039  0.95236  0.01791  Biso   1.000  C
  C324     1.0000 0.85600  0.15395  0.63050  Biso   1.000  C
  C325     1.0000 0.85597  0.15392  0.63041  Biso   1.000  C
  C326     1.0000 0.85935  0.31772  0.80774  Biso   1.000  C
  C327     1.0000 0.98758  0.36985  0.00797  Biso   1.000  C
  O94      1.0000 0.88077  0.91442  0.57974  Biso   1.000  O
  N190     1.0000 0.16633  0.82465  0.74437  Biso   1.000  N
  H275     1.0000 0.11462  0.81303  0.56358  Biso   1.000  H
  N191     1.0000 0.16630  0.82462  0.74428  Biso   1.000  N
  H276     1.0000 0.11458  0.81301  0.56349  Biso   1.000  H
  N192     1.0000 0.16633  0.82457  0.74437  Biso   1.000  N
  C328     1.0000 0.30268  0.76481  0.89676  Biso   1.000  C
  H277     1.0000 0.34204  0.82604  0.77260  Biso   1.000  H
  H278     1.0000 0.34201  0.82601  0.77251  Biso   1.000  H
  C329     1.0000 0.30276  0.76481  0.89676  Biso   1.000  C
  N193     1.0000 0.34820  0.84195  0.01471  Biso   1.000  N
  N194     1.0000 0.34817  0.84192  0.01463  Biso   1.000  N
  O95      1.0000 0.40251  0.03307  0.10773  Biso   1.000  O
  O96      1.0000 0.40248  0.03304  0.10764  Biso   1.000  O
  O97      1.0000 0.40251  0.03299  0.10773  Biso   1.000  O
  N195     1.0000 0.82916  0.20062  0.73594  Biso   1.000  N
  H279     1.0000 0.79116  0.09655  0.57308  Biso   1.000  H
  H280     1.0000 0.86144  0.21387  0.59607  Biso   1.000  H
  H281     1.0000 0.79113  0.09653  0.57299  Biso   1.000  H
  H282     1.0000 0.86141  0.21384  0.59598  Biso   1.000  H
  H283     1.0000 0.86144  0.21379  0.59607  Biso   1.000  H
  H284     1.0000 0.84146  0.36946  0.75955  Biso   1.000  H
  C330     1.0000 0.78445  0.33095  0.88806  Biso   1.000  C
  N196     1.0000 0.87279  0.36242  0.00637  Biso   1.000  N
  N197     1.0000 0.87271  0.36242  0.00637  Biso   1.000  N
  O98      1.0000 0.07699  0.39565  0.09610  Biso   1.000  O
  O99      1.0000 0.07695  0.39562  0.09601  Biso   1.000  O
  C331     1.0000 0.10426  0.74501  0.76763  Biso   1.000  C
  C332     1.0000 0.10434  0.74501  0.76763  Biso   1.000  C
  N198     1.0000 0.18261  0.71294  0.85966  Biso   1.000  N
  H285     1.0000 0.35613  0.70832  0.88345  Biso   1.000  H
  C333     1.0000 0.37937  0.80462  0.11989  Biso   1.000  C
  C334     1.0000 0.73998  0.14686  0.75538  Biso   1.000  C
  C335     1.0000 0.73995  0.14683  0.75529  Biso   1.000  C
  N199     1.0000 0.71866  0.21983  0.84830  Biso   1.000  N
  N200     1.0000 0.71863  0.21981  0.84821  Biso   1.000  N
  H286     1.0000 0.73172  0.38932  0.87795  Biso   1.000  H
  H287     1.0000 0.73180  0.38932  0.87795  Biso   1.000  H
  C336     1.0000 0.84952  0.38668  0.11501  Biso   1.000  C
  C337     1.0000 0.84948  0.38665  0.11492  Biso   1.000  C
  C338     1.0000 0.84943  0.38660  0.11501  Biso   1.000  C
  C339     1.0000 0.84940  0.38665  0.11492  Biso   1.000  C
  C340     1.0000 0.84951  0.38660  0.11501  Biso   1.000  C
  O100     1.0000 0.99924  0.70875  0.71659  Biso   1.000  O
  O101     1.0000 0.99920  0.70872  0.71650  Biso   1.000  O
  O102     1.0000 0.99923  0.70867  0.71659  Biso   1.000  O
  C341     1.0000 0.15048  0.61347  0.88505  Biso   1.000  C
  C342     1.0000 0.15049  0.61355  0.88505  Biso   1.000  C
  C343     1.0000 0.15057  0.61347  0.88505  Biso   1.000  C
  C344     1.0000 0.15057  0.61355  0.88505  Biso   1.000  C
  N201     1.0000 0.28142  0.78024  0.15175  Biso   1.000  N
  H288     1.0000 0.43607  0.86334  0.18619  Biso   1.000  H
  H289     1.0000 0.41834  0.73695  0.10648  Biso   1.000  H
  H290     1.0000 0.41834  0.73687  0.10648  Biso   1.000  H
  H291     1.0000 0.43615  0.86334  0.18619  Biso   1.000  H
  O103     1.0000 0.68975  0.05117  0.69778  Biso   1.000  O
  O104     1.0000 0.68971  0.05115  0.69769  Biso   1.000  O
  O105     1.0000 0.68975  0.05109  0.69778  Biso   1.000  O
  C345     1.0000 0.62071  0.19545  0.88016  Biso   1.000  C
  C346     1.0000 0.62062  0.19545  0.88016  Biso   1.000  C
  N202     1.0000 0.81739  0.28721  0.14039  Biso   1.000  N
  H292     1.0000 0.91968  0.43007  0.18033  Biso   1.000  H
  H293     1.0000 0.78580  0.43361  0.11021  Biso   1.000  H
  H294     1.0000 0.91965  0.43005  0.18024  Biso   1.000  H
  H295     1.0000 0.78577  0.43367  0.11012  Biso   1.000  H
  H296     1.0000 0.78577  0.43358  0.11012  Biso   1.000  H
  N203     1.0000 0.12721  0.63773  0.99368  Biso   1.000  N
  H297     1.0000 0.08032  0.57008  0.81972  Biso   1.000  H
  H298     1.0000 0.21420  0.56654  0.88984  Biso   1.000  H
  N204     1.0000 0.12717  0.63770  0.99359  Biso   1.000  N
  H299     1.0000 0.21420  0.56646  0.88984  Biso   1.000  H
  N205     1.0000 0.12729  0.63773  0.99368  Biso   1.000  N
  C347     1.0000 0.26010  0.85321  0.24467  Biso   1.000  C
  C348     1.0000 0.21564  0.66913  0.11199  Biso   1.000  C
  N206     1.0000 0.65188  0.15812  0.98534  Biso   1.000  N
  H300     1.0000 0.56401  0.13673  0.81387  Biso   1.000  H
  H301     1.0000 0.58174  0.26312  0.89357  Biso   1.000  H
  H302     1.0000 0.56393  0.13673  0.81387  Biso   1.000  H
  C349     1.0000 0.69732  0.23534  0.10329  Biso   1.000  C
  C350     1.0000 0.69723  0.23534  0.10329  Biso   1.000  C
  C351     1.0000 0.89574  0.25514  0.23243  Biso   1.000  C
  C352     1.0000 0.89571  0.25512  0.23234  Biso   1.000  C
  C353     1.0000 0.89565  0.25514  0.23243  Biso   1.000  C
  C354     1.0000 0.89562  0.25512  0.23234  Biso   1.000  C
  C355     1.0000 0.01242  0.63030  0.99208  Biso   1.000  C
  C356     1.0000 0.01238  0.63028  0.99199  Biso   1.000  C
  O106     1.0000 0.31033  0.94890  0.30227  Biso   1.000  O
  N207     1.0000 0.17092  0.79945  0.26411  Biso   1.000  N
  N208     1.0000 0.17089  0.79942  0.26402  Biso   1.000  N
  C357     1.0000 0.14073  0.68235  0.19231  Biso   1.000  C
  H303     1.0000 0.26836  0.61075  0.12211  Biso   1.000  H
  C358     1.0000 0.14070  0.68232  0.19222  Biso   1.000  C
  H304     1.0000 0.26833  0.61072  0.12202  Biso   1.000  H
  H305     1.0000 0.26828  0.61075  0.12211  Biso   1.000  H
  H306     1.0000 0.26825  0.61072  0.12202  Biso   1.000  H
  C359     1.0000 0.63966  0.04768  0.98205  Biso   1.000  C
  C360     1.0000 0.63966  0.04760  0.98205  Biso   1.000  C
  H307     1.0000 0.64387  0.29183  0.11660  Biso   1.000  H
  C361     1.0000 0.70860  0.15631  0.18006  Biso   1.000  C
  H308     1.0000 0.64384  0.29180  0.11651  Biso   1.000  H
  N209     1.0000 0.83367  0.17550  0.25568  Biso   1.000  N
  N210     1.0000 0.83367  0.17558  0.25568  Biso   1.000  N
  O107     1.0000 0.00076  0.29140  0.28346  Biso   1.000  O
  O108     1.0000 0.00077  0.29148  0.28346  Biso   1.000  O
  O109     1.0000 0.92301  0.60451  0.90395  Biso   1.000  O
  N211     1.0000 0.01876  0.65543  0.10586  Biso   1.000  N
  N212     1.0000 0.01884  0.65543  0.10586  Biso   1.000  N
  C362     1.0000 0.14408  0.84613  0.36955  Biso   1.000  C
  H309     1.0000 0.15862  0.63061  0.24050  Biso   1.000  H
  H310     1.0000 0.15859  0.63058  0.24041  Biso   1.000  H
  O110     1.0000 0.59749  0.96708  0.89232  Biso   1.000  O
  N213     1.0000 0.67141  0.04417  0.09548  Biso   1.000  N
  N214     1.0000 0.67140  0.04408  0.09548  Biso   1.000  N
  H311     1.0000 0.65796  0.17412  0.22746  Biso   1.000  H
  C363     1.0000 0.87949  0.14124  0.36165  Biso   1.000  C
  C364     1.0000 0.91613  0.65475  0.13666  Biso   1.000  C
  C365     1.0000 0.91612  0.65467  0.13666  Biso   1.000  C
  N215     1.0000 0.03389  0.89700  0.34798  Biso   1.000  N
  H312     1.0000 0.20892  0.90352  0.42697  Biso   1.000  H
  H313     1.0000 0.13864  0.78620  0.40399  Biso   1.000  H
  N216     1.0000 0.03390  0.89708  0.34798  Biso   1.000  N
  C366     1.0000 0.65444  0.94378  0.12406  Biso   1.000  C
  C367     1.0000 0.65445  0.94386  0.12406  Biso   1.000  C
  C368     1.0000 0.65453  0.94378  0.12406  Biso   1.000  C
  C369     1.0000 0.65453  0.94386  0.12406  Biso   1.000  C
  N217     1.0000 0.91362  0.03272  0.34053  Biso   1.000  N
  H314     1.0000 0.88538  0.18712  0.43647  Biso   1.000  H
  N218     1.0000 0.91359  0.03270  0.34044  Biso   1.000  N
  N219     1.0000 0.88462  0.76742  0.17678  Biso   1.000  N
  H315     1.0000 0.93011  0.61955  0.19897  Biso   1.000  H
  H316     1.0000 0.85003  0.60877  0.06805  Biso   1.000  H
  H317     1.0000 0.85003  0.60885  0.06805  Biso   1.000  H
  H318     1.0000 0.93011  0.61947  0.19897  Biso   1.000  H
  C370     1.0000 0.91918  0.83520  0.30165  Biso   1.000  C
  C371     1.0000 0.03313  0.01266  0.37443  Biso   1.000  C
  C372     1.0000 0.03310  0.01264  0.37434  Biso   1.000  C
  N220     1.0000 0.76211  0.89714  0.17198  Biso   1.000  N
  H319     1.0000 0.60186  0.88672  0.05297  Biso   1.000  H
  H320     1.0000 0.61538  0.96013  0.18130  Biso   1.000  H
  H321     1.0000 0.61534  0.96011  0.18121  Biso   1.000  H
  C373     1.0000 0.83661  0.92644  0.29659  Biso   1.000  C
  C374     1.0000 0.79068  0.80347  0.10506  Biso   1.000  C
  C375     1.0000 0.79068  0.80356  0.10506  Biso   1.000  C
  H322     1.0000 0.90962  0.78990  0.35109  Biso   1.000  H
  H323     1.0000 0.90962  0.78998  0.35109  Biso   1.000  H
  O111     1.0000 0.11923  0.08573  0.42032  Biso   1.000  O
  O112     1.0000 0.11920  0.08570  0.42023  Biso   1.000  O
  H324     1.0000 0.78905  0.92556  0.34559  Biso   1.000  H
  H325     1.0000 0.78896  0.92556  0.34559  Biso   1.000  H
  O113     1.0000 0.73971  0.75926  0.99918  Biso   1.000  O
  O114     1.0000 0.73968  0.75923  0.99909  Biso   1.000  O
  O115     1.0000 0.73971  0.75917  0.99918  Biso   1.000  O
  O116     1.0000 0.26029  0.24090  0.00087  Biso   1.000  O
  C376     1.0000 0.20940  0.19660  0.89499  Biso   1.000  C
  C377     1.0000 0.20937  0.19657  0.89490  Biso   1.000  C
  C378     1.0000 0.20940  0.19651  0.89499  Biso   1.000  C
  C379     1.0000 0.20937  0.19649  0.89490  Biso   1.000  C
  N221     1.0000 0.23797  0.10293  0.82807  Biso   1.000  N
  N222     1.0000 0.11546  0.23265  0.82327  Biso   1.000  N
  N223     1.0000 0.11543  0.23262  0.82318  Biso   1.000  N
  C380     1.0000 0.16347  0.07363  0.70346  Biso   1.000  C
  C381     1.0000 0.34564  0.05629  0.87599  Biso   1.000  C
  C382     1.0000 0.34560  0.05626  0.87590  Biso   1.000  C
  C383     1.0000 0.34555  0.05621  0.87599  Biso   1.000  C
  C384     1.0000 0.34552  0.05626  0.87590  Biso   1.000  C
  C385     1.0000 0.34563  0.05621  0.87599  Biso   1.000  C
  C386     1.0000 0.08090  0.16487  0.69840  Biso   1.000  C
  C387     1.0000 0.08087  0.16484  0.69831  Biso   1.000  C
  C388     1.0000 0.08395  0.34532  0.86339  Biso   1.000  C
  C389     1.0000 0.08392  0.34538  0.86330  Biso   1.000  C
  C390     1.0000 0.08392  0.34530  0.86330  Biso   1.000  C
  H326     1.0000 0.21103  0.07452  0.65447  Biso   1.000  H
  N224     1.0000 0.08638  0.96743  0.65952  Biso   1.000  N
  H327     1.0000 0.21112  0.07452  0.65447  Biso   1.000  H
  H328     1.0000 0.38470  0.03994  0.81875  Biso   1.000  H
  N225     1.0000 0.32859  0.95599  0.90457  Biso   1.000  N
  N226     1.0000 0.32860  0.95607  0.90457  Biso   1.000  N
  H329     1.0000 0.39822  0.11335  0.94708  Biso   1.000  H
  H330     1.0000 0.39818  0.11332  0.94700  Biso   1.000  H
  H331     1.0000 0.09046  0.21017  0.64896  Biso   1.000  H
  N227     1.0000 0.96619  0.10308  0.65207  Biso   1.000  N
  N228     1.0000 0.96615  0.10305  0.65198  Biso   1.000  N
  N229     1.0000 0.96619  0.10299  0.65207  Biso   1.000  N
  H332     1.0000 0.09046  0.21009  0.64896  Biso   1.000  H
  N230     1.0000 0.98132  0.34464  0.89419  Biso   1.000  N
  N231     1.0000 0.98120  0.34461  0.89410  Biso   1.000  N
  N232     1.0000 0.98124  0.34464  0.89419  Biso   1.000  N
  N233     1.0000 0.98129  0.34461  0.89410  Biso   1.000  N
  H333     1.0000 0.06997  0.38052  0.80109  Biso   1.000  H
  H334     1.0000 0.15005  0.39130  0.93200  Biso   1.000  H
  H335     1.0000 0.06994  0.38057  0.80100  Biso   1.000  H
  H336     1.0000 0.15002  0.39128  0.93191  Biso   1.000  H
  H337     1.0000 0.15005  0.39122  0.93200  Biso   1.000  H
  H338     1.0000 0.06994  0.38049  0.80100  Biso   1.000  H
  H339     1.0000 0.15002  0.39120  0.93191  Biso   1.000  H
  C391     1.0000 0.96687  0.98749  0.62562  Biso   1.000  C
  C392     1.0000 0.12051  0.85891  0.63840  Biso   1.000  C
  C393     1.0000 0.12048  0.85888  0.63831  Biso   1.000  C
  C394     1.0000 0.29140  0.84384  0.81999  Biso   1.000  C
  C395     1.0000 0.29137  0.84381  0.81990  Biso   1.000  C
  C396     1.0000 0.36042  0.95239  0.01800  Biso   1.000  C
  C397     1.0000 0.36039  0.95244  0.01791  Biso   1.000  C
  C398     1.0000 0.36039  0.95236  0.01791  Biso   1.000  C
  C399     1.0000 0.85600  0.15395  0.63050  Biso   1.000  C
  C400     1.0000 0.85597  0.15392  0.63041  Biso   1.000  C
  C401     1.0000 0.85935  0.31772  0.80774  Biso   1.000  C
  C402     1.0000 0.98758  0.36985  0.00797  Biso   1.000  C
  O117     1.0000 0.88077  0.91442  0.57974  Biso   1.000  O
  N234     1.0000 0.16633  0.82465  0.74437  Biso   1.000  N
  H340     1.0000 0.11462  0.81303  0.56358  Biso   1.000  H
  N235     1.0000 0.16630  0.82462  0.74428  Biso   1.000  N
  H341     1.0000 0.11458  0.81301  0.56349  Biso   1.000  H
  N236     1.0000 0.16633  0.82457  0.74437  Biso   1.000  N
  C403     1.0000 0.30268  0.76481  0.89676  Biso   1.000  C
  H342     1.0000 0.34204  0.82604  0.77260  Biso   1.000  H
  H343     1.0000 0.34201  0.82601  0.77251  Biso   1.000  H
  C404     1.0000 0.30276  0.76481  0.89676  Biso   1.000  C
  N237     1.0000 0.34820  0.84195  0.01471  Biso   1.000  N
  N238     1.0000 0.34817  0.84192  0.01463  Biso   1.000  N
  O118     1.0000 0.40251  0.03307  0.10773  Biso   1.000  O
  O119     1.0000 0.40248  0.03304  0.10764  Biso   1.000  O
  O120     1.0000 0.40251  0.03299  0.10773  Biso   1.000  O
  N239     1.0000 0.82916  0.20062  0.73594  Biso   1.000  N
  H344     1.0000 0.79116  0.09655  0.57308  Biso   1.000  H
  H345     1.0000 0.86144  0.21387  0.59607  Biso   1.000  H
  H346     1.0000 0.79113  0.09653  0.57299  Biso   1.000  H
  H347     1.0000 0.86141  0.21384  0.59598  Biso   1.000  H
  H348     1.0000 0.86144  0.21379  0.59607  Biso   1.000  H
  H349     1.0000 0.84146  0.36946  0.75955  Biso   1.000  H
  C405     1.0000 0.78445  0.33095  0.88806  Biso   1.000  C
  N240     1.0000 0.87279  0.36242  0.00637  Biso   1.000  N
  N241     1.0000 0.87271  0.36242  0.00637  Biso   1.000  N
  O121     1.0000 0.07699  0.39565  0.09610  Biso   1.000  O
  O122     1.0000 0.07695  0.39562  0.09601  Biso   1.000  O
  C406     1.0000 0.10426  0.74501  0.76763  Biso   1.000  C
  C407     1.0000 0.10434  0.74501  0.76763  Biso   1.000  C
  N242     1.0000 0.18261  0.71294  0.85966  Biso   1.000  N
  H350     1.0000 0.35613  0.70832  0.88345  Biso   1.000  H
  C408     1.0000 0.37937  0.80462  0.11989  Biso   1.000  C
  C409     1.0000 0.73998  0.14686  0.75538  Biso   1.000  C
  C410     1.0000 0.73995  0.14683  0.75529  Biso   1.000  C
  N243     1.0000 0.71866  0.21983  0.84830  Biso   1.000  N
  N244     1.0000 0.71863  0.21981  0.84821  Biso   1.000  N
  H351     1.0000 0.73172  0.38932  0.87795  Biso   1.000  H
  H352     1.0000 0.73180  0.38932  0.87795  Biso   1.000  H
  C411     1.0000 0.84952  0.38668  0.11501  Biso   1.000  C
  C412     1.0000 0.84948  0.38665  0.11492  Biso   1.000  C
  C413     1.0000 0.84943  0.38660  0.11501  Biso   1.000  C
  C414     1.0000 0.84940  0.38665  0.11492  Biso   1.000  C
  C415     1.0000 0.84951  0.38660  0.11501  Biso   1.000  C
  O123     1.0000 0.99924  0.70875  0.71659  Biso   1.000  O
  O124     1.0000 0.99920  0.70872  0.71650  Biso   1.000  O
  O125     1.0000 0.99923  0.70867  0.71659  Biso   1.000  O
  C416     1.0000 0.15048  0.61347  0.88505  Biso   1.000  C
  C417     1.0000 0.15049  0.61355  0.88505  Biso   1.000  C
  C418     1.0000 0.15057  0.61347  0.88505  Biso   1.000  C
  C419     1.0000 0.15057  0.61355  0.88505  Biso   1.000  C
  N245     1.0000 0.28142  0.78024  0.15175  Biso   1.000  N
  H353     1.0000 0.43607  0.86334  0.18619  Biso   1.000  H
  H354     1.0000 0.41834  0.73695  0.10648  Biso   1.000  H
  H355     1.0000 0.41834  0.73687  0.10648  Biso   1.000  H
  H356     1.0000 0.43615  0.86334  0.18619  Biso   1.000  H
  O126     1.0000 0.68975  0.05117  0.69778  Biso   1.000  O
  O127     1.0000 0.68971  0.05115  0.69769  Biso   1.000  O
  O128     1.0000 0.68975  0.05109  0.69778  Biso   1.000  O
  C420     1.0000 0.62071  0.19545  0.88016  Biso   1.000  C
  C421     1.0000 0.62062  0.19545  0.88016  Biso   1.000  C
  N246     1.0000 0.81739  0.28721  0.14039  Biso   1.000  N
  H357     1.0000 0.91968  0.43007  0.18033  Biso   1.000  H
  H358     1.0000 0.78580  0.43361  0.11021  Biso   1.000  H
  H359     1.0000 0.91965  0.43005  0.18024  Biso   1.000  H
  H360     1.0000 0.78577  0.43367  0.11012  Biso   1.000  H
  H361     1.0000 0.78577  0.43358  0.11012  Biso   1.000  H
  N247     1.0000 0.12721  0.63773  0.99368  Biso   1.000  N
  H362     1.0000 0.08032  0.57008  0.81972  Biso   1.000  H
  H363     1.0000 0.21420  0.56654  0.88984  Biso   1.000  H
  N248     1.0000 0.12717  0.63770  0.99359  Biso   1.000  N
  H364     1.0000 0.21420  0.56646  0.88984  Biso   1.000  H
  N249     1.0000 0.12729  0.63773  0.99368  Biso   1.000  N
  C422     1.0000 0.26010  0.85321  0.24467  Biso   1.000  C
  C423     1.0000 0.21564  0.66913  0.11199  Biso   1.000  C
  N250     1.0000 0.65188  0.15812  0.98534  Biso   1.000  N
  H365     1.0000 0.56401  0.13673  0.81387  Biso   1.000  H
  H366     1.0000 0.58174  0.26312  0.89357  Biso   1.000  H
  H367     1.0000 0.56393  0.13673  0.81387  Biso   1.000  H
  C424     1.0000 0.69732  0.23534  0.10329  Biso   1.000  C
  C425     1.0000 0.69723  0.23534  0.10329  Biso   1.000  C
  C426     1.0000 0.89574  0.25514  0.23243  Biso   1.000  C
  C427     1.0000 0.89571  0.25512  0.23234  Biso   1.000  C
  C428     1.0000 0.89565  0.25514  0.23243  Biso   1.000  C
  C429     1.0000 0.89562  0.25512  0.23234  Biso   1.000  C
  C430     1.0000 0.01242  0.63030  0.99208  Biso   1.000  C
  C431     1.0000 0.01238  0.63028  0.99199  Biso   1.000  C
  O129     1.0000 0.31033  0.94890  0.30227  Biso   1.000  O
  N251     1.0000 0.17092  0.79945  0.26411  Biso   1.000  N
  N252     1.0000 0.17089  0.79942  0.26402  Biso   1.000  N
  C432     1.0000 0.14073  0.68235  0.19231  Biso   1.000  C
  H368     1.0000 0.26836  0.61075  0.12211  Biso   1.000  H
  C433     1.0000 0.14070  0.68232  0.19222  Biso   1.000  C
  H369     1.0000 0.26833  0.61072  0.12202  Biso   1.000  H
  H370     1.0000 0.26828  0.61075  0.12211  Biso   1.000  H
  H371     1.0000 0.26825  0.61072  0.12202  Biso   1.000  H
  C434     1.0000 0.63966  0.04768  0.98205  Biso   1.000  C
  C435     1.0000 0.63966  0.04760  0.98205  Biso   1.000  C
  H372     1.0000 0.64387  0.29183  0.11660  Biso   1.000  H
  C436     1.0000 0.70860  0.15631  0.18006  Biso   1.000  C
  H373     1.0000 0.64384  0.29180  0.11651  Biso   1.000  H
  N253     1.0000 0.83367  0.17550  0.25568  Biso   1.000  N
  N254     1.0000 0.83367  0.17558  0.25568  Biso   1.000  N
  O130     1.0000 0.00076  0.29140  0.28346  Biso   1.000  O
  O131     1.0000 0.00077  0.29148  0.28346  Biso   1.000  O
  O132     1.0000 0.92301  0.60451  0.90395  Biso   1.000  O
  N255     1.0000 0.01876  0.65543  0.10586  Biso   1.000  N
  N256     1.0000 0.01884  0.65543  0.10586  Biso   1.000  N
  C437     1.0000 0.14408  0.84613  0.36955  Biso   1.000  C
  H374     1.0000 0.15862  0.63061  0.24050  Biso   1.000  H
  H375     1.0000 0.15859  0.63058  0.24041  Biso   1.000  H
  O133     1.0000 0.59749  0.96708  0.89232  Biso   1.000  O
  N257     1.0000 0.67141  0.04417  0.09548  Biso   1.000  N
  N258     1.0000 0.67140  0.04408  0.09548  Biso   1.000  N
  H376     1.0000 0.65796  0.17412  0.22746  Biso   1.000  H
  C438     1.0000 0.87949  0.14124  0.36165  Biso   1.000  C
  C439     1.0000 0.91613  0.65475  0.13666  Biso   1.000  C
  C440     1.0000 0.91612  0.65467  0.13666  Biso   1.000  C
  N259     1.0000 0.03389  0.89700  0.34798  Biso   1.000  N
  H377     1.0000 0.20892  0.90352  0.42697  Biso   1.000  H
  H378     1.0000 0.13864  0.78620  0.40399  Biso   1.000  H
  N260     1.0000 0.03390  0.89708  0.34798  Biso   1.000  N
  C441     1.0000 0.65444  0.94378  0.12406  Biso   1.000  C
  C442     1.0000 0.65445  0.94386  0.12406  Biso   1.000  C
  C443     1.0000 0.65453  0.94378  0.12406  Biso   1.000  C
  C444     1.0000 0.65453  0.94386  0.12406  Biso   1.000  C
  N261     1.0000 0.91362  0.03272  0.34053  Biso   1.000  N
  H379     1.0000 0.88538  0.18712  0.43647  Biso   1.000  H
  N262     1.0000 0.91359  0.03270  0.34044  Biso   1.000  N
  N263     1.0000 0.88462  0.76742  0.17678  Biso   1.000  N
  H380     1.0000 0.93011  0.61955  0.19897  Biso   1.000  H
  H381     1.0000 0.85003  0.60877  0.06805  Biso   1.000  H
  H382     1.0000 0.85003  0.60885  0.06805  Biso   1.000  H
  H383     1.0000 0.93011  0.61947  0.19897  Biso   1.000  H
  C445     1.0000 0.91918  0.83520  0.30165  Biso   1.000  C
  C446     1.0000 0.03313  0.01266  0.37443  Biso   1.000  C
  C447     1.0000 0.03310  0.01264  0.37434  Biso   1.000  C
  N264     1.0000 0.76211  0.89714  0.17198  Biso   1.000  N
  H384     1.0000 0.60186  0.88672  0.05297  Biso   1.000  H
  H385     1.0000 0.61538  0.96013  0.18130  Biso   1.000  H
  H386     1.0000 0.61534  0.96011  0.18121  Biso   1.000  H
  C448     1.0000 0.83661  0.92644  0.29659  Biso   1.000  C
  C449     1.0000 0.79068  0.80347  0.10506  Biso   1.000  C
  C450     1.0000 0.79068  0.80356  0.10506  Biso   1.000  C
  H387     1.0000 0.90962  0.78990  0.35109  Biso   1.000  H
  H388     1.0000 0.90962  0.78998  0.35109  Biso   1.000  H
  O134     1.0000 0.11923  0.08573  0.42032  Biso   1.000  O
  O135     1.0000 0.11920  0.08570  0.42023  Biso   1.000  O
  H389     1.0000 0.78905  0.92556  0.34559  Biso   1.000  H
  H390     1.0000 0.78896  0.92556  0.34559  Biso   1.000  H
  O136     1.0000 0.73971  0.75926  0.99918  Biso   1.000  O
  O137     1.0000 0.73968  0.75923  0.99909  Biso   1.000  O
  O138     1.0000 0.73971  0.75917  0.99918  Biso   1.000  O
  O139     1.0000 0.26029  0.24090  0.00087  Biso   1.000  O
  C451     1.0000 0.20940  0.19660  0.89499  Biso   1.000  C
  C452     1.0000 0.20937  0.19657  0.89490  Biso   1.000  C
  C453     1.0000 0.20940  0.19651  0.89499  Biso   1.000  C
  C454     1.0000 0.20937  0.19649  0.89490  Biso   1.000  C
  N265     1.0000 0.23797  0.10293  0.82807  Biso   1.000  N
  N266     1.0000 0.11546  0.23265  0.82327  Biso   1.000  N
  N267     1.0000 0.11543  0.23262  0.82318  Biso   1.000  N
  C455     1.0000 0.16347  0.07363  0.70346  Biso   1.000  C
  C456     1.0000 0.34564  0.05629  0.87599  Biso   1.000  C
  C457     1.0000 0.34560  0.05626  0.87590  Biso   1.000  C
  C458     1.0000 0.34555  0.05621  0.87599  Biso   1.000  C
  C459     1.0000 0.34552  0.05626  0.87590  Biso   1.000  C
  C460     1.0000 0.34563  0.05621  0.87599  Biso   1.000  C
  C461     1.0000 0.08090  0.16487  0.69840  Biso   1.000  C
  C462     1.0000 0.08087  0.16484  0.69831  Biso   1.000  C
  C463     1.0000 0.08395  0.34532  0.86339  Biso   1.000  C
  C464     1.0000 0.08392  0.34538  0.86330  Biso   1.000  C
  C465     1.0000 0.08392  0.34530  0.86330  Biso   1.000  C
  N268     1.0000 0.08638  0.96743  0.65952  Biso   1.000  N
  H391     1.0000 0.21103  0.07452  0.65447  Biso   1.000  H
  H392     1.0000 0.21112  0.07452  0.65447  Biso   1.000  H
  H393     1.0000 0.38470  0.03994  0.81875  Biso   1.000  H
  N269     1.0000 0.32859  0.95599  0.90457  Biso   1.000  N
  N270     1.0000 0.32860  0.95607  0.90457  Biso   1.000  N
  H394     1.0000 0.39822  0.11335  0.94708  Biso   1.000  H
  H395     1.0000 0.39818  0.11332  0.94700  Biso   1.000  H
  N271     1.0000 0.96619  0.10308  0.65207  Biso   1.000  N
  N272     1.0000 0.96615  0.10305  0.65198  Biso   1.000  N
  N273     1.0000 0.96619  0.10299  0.65207  Biso   1.000  N
  H396     1.0000 0.09046  0.21017  0.64896  Biso   1.000  H
  H397     1.0000 0.09046  0.21009  0.64896  Biso   1.000  H
  N274     1.0000 0.98132  0.34464  0.89419  Biso   1.000  N
  N275     1.0000 0.98120  0.34461  0.89410  Biso   1.000  N
  N276     1.0000 0.98124  0.34464  0.89419  Biso   1.000  N
  N277     1.0000 0.98129  0.34461  0.89410  Biso   1.000  N
  H398     1.0000 0.06997  0.38052  0.80109  Biso   1.000  H
  H399     1.0000 0.15005  0.39130  0.93200  Biso   1.000  H
  H400     1.0000 0.06994  0.38057  0.80100  Biso   1.000  H
  H401     1.0000 0.15002  0.39128  0.93191  Biso   1.000  H
  H402     1.0000 0.15005  0.39122  0.93200  Biso   1.000  H
  H403     1.0000 0.06994  0.38049  0.80100  Biso   1.000  H
  H404     1.0000 0.15002  0.39120  0.93191  Biso   1.000  H
  C466     1.0000 0.96687  0.98749  0.62562  Biso   1.000  C
  C467     1.0000 0.12051  0.85891  0.63840  Biso   1.000  C
  C468     1.0000 0.12048  0.85888  0.63831  Biso   1.000  C
  C469     1.0000 0.29140  0.84384  0.81999  Biso   1.000  C
  C470     1.0000 0.29137  0.84381  0.81990  Biso   1.000  C
  C471     1.0000 0.36042  0.95239  0.01800  Biso   1.000  C
  C472     1.0000 0.36039  0.95244  0.01791  Biso   1.000  C
  C473     1.0000 0.36039  0.95236  0.01791  Biso   1.000  C
  C474     1.0000 0.85600  0.15395  0.63050  Biso   1.000  C
  C475     1.0000 0.85597  0.15392  0.63041  Biso   1.000  C
  C476     1.0000 0.85935  0.31772  0.80774  Biso   1.000  C
  C477     1.0000 0.98758  0.36985  0.00797  Biso   1.000  C
  O140     1.0000 0.88077  0.91442  0.57974  Biso   1.000  O
  N278     1.0000 0.16633  0.82465  0.74437  Biso   1.000  N
  H405     1.0000 0.11462  0.81303  0.56358  Biso   1.000  H
  N279     1.0000 0.16630  0.82462  0.74428  Biso   1.000  N
  H406     1.0000 0.11458  0.81301  0.56349  Biso   1.000  H
  N280     1.0000 0.16633  0.82457  0.74437  Biso   1.000  N
  C478     1.0000 0.30268  0.76481  0.89676  Biso   1.000  C
  H407     1.0000 0.34204  0.82604  0.77260  Biso   1.000  H
  H408     1.0000 0.34201  0.82601  0.77251  Biso   1.000  H
  C479     1.0000 0.30276  0.76481  0.89676  Biso   1.000  C
  N281     1.0000 0.34820  0.84195  0.01471  Biso   1.000  N
  N282     1.0000 0.34817  0.84192  0.01463  Biso   1.000  N
  O141     1.0000 0.40251  0.03307  0.10773  Biso   1.000  O
  O142     1.0000 0.40248  0.03304  0.10764  Biso   1.000  O
  O143     1.0000 0.40251  0.03299  0.10773  Biso   1.000  O
  N283     1.0000 0.82916  0.20062  0.73594  Biso   1.000  N
  H409     1.0000 0.79116  0.09655  0.57308  Biso   1.000  H
  H410     1.0000 0.86144  0.21387  0.59607  Biso   1.000  H
  H411     1.0000 0.79113  0.09653  0.57299  Biso   1.000  H
  H412     1.0000 0.86141  0.21384  0.59598  Biso   1.000  H
  H413     1.0000 0.86144  0.21379  0.59607  Biso   1.000  H
  H414     1.0000 0.84146  0.36946  0.75955  Biso   1.000  H
  C480     1.0000 0.78445  0.33095  0.88806  Biso   1.000  C
  N284     1.0000 0.87279  0.36242  0.00637  Biso   1.000  N
  N285     1.0000 0.87271  0.36242  0.00637  Biso   1.000  N
  O144     1.0000 0.07699  0.39565  0.09610  Biso   1.000  O
  O145     1.0000 0.07695  0.39562  0.09601  Biso   1.000  O
  C481     1.0000 0.10426  0.74501  0.76763  Biso   1.000  C
  C482     1.0000 0.10434  0.74501  0.76763  Biso   1.000  C
  N286     1.0000 0.18261  0.71294  0.85966  Biso   1.000  N
  H415     1.0000 0.35613  0.70832  0.88345  Biso   1.000  H
  C483     1.0000 0.37937  0.80462  0.11989  Biso   1.000  C
  C484     1.0000 0.73998  0.14686  0.75538  Biso   1.000  C
  C485     1.0000 0.73995  0.14683  0.75529  Biso   1.000  C
  N287     1.0000 0.71866  0.21983  0.84830  Biso   1.000  N
  N288     1.0000 0.71863  0.21981  0.84821  Biso   1.000  N
  H416     1.0000 0.73172  0.38932  0.87795  Biso   1.000  H
  H417     1.0000 0.73180  0.38932  0.87795  Biso   1.000  H
  C486     1.0000 0.84952  0.38668  0.11501  Biso   1.000  C
  C487     1.0000 0.84948  0.38665  0.11492  Biso   1.000  C
  C488     1.0000 0.84943  0.38660  0.11501  Biso   1.000  C
  C489     1.0000 0.84940  0.38665  0.11492  Biso   1.000  C
  C490     1.0000 0.84951  0.38660  0.11501  Biso   1.000  C
  O146     1.0000 0.99924  0.70875  0.71659  Biso   1.000  O
  O147     1.0000 0.99920  0.70872  0.71650  Biso   1.000  O
  O148     1.0000 0.99923  0.70867  0.71659  Biso   1.000  O
  C491     1.0000 0.15048  0.61347  0.88505  Biso   1.000  C
  C492     1.0000 0.15049  0.61355  0.88505  Biso   1.000  C
  C493     1.0000 0.15057  0.61347  0.88505  Biso   1.000  C
  C494     1.0000 0.15057  0.61355  0.88505  Biso   1.000  C
  N289     1.0000 0.28142  0.78024  0.15175  Biso   1.000  N
  H418     1.0000 0.43607  0.86334  0.18619  Biso   1.000  H
  H419     1.0000 0.41834  0.73695  0.10648  Biso   1.000  H
  H420     1.0000 0.41834  0.73687  0.10648  Biso   1.000  H
  H421     1.0000 0.43615  0.86334  0.18619  Biso   1.000  H
  O149     1.0000 0.68975  0.05117  0.69778  Biso   1.000  O
  O150     1.0000 0.68971  0.05115  0.69769  Biso   1.000  O
  O151     1.0000 0.68975  0.05109  0.69778  Biso   1.000  O
  C495     1.0000 0.62071  0.19545  0.88016  Biso   1.000  C
  C496     1.0000 0.62062  0.19545  0.88016  Biso   1.000  C
  N290     1.0000 0.81739  0.28721  0.14039  Biso   1.000  N
  H422     1.0000 0.91968  0.43007  0.18033  Biso   1.000  H
  H423     1.0000 0.78580  0.43361  0.11021  Biso   1.000  H
  H424     1.0000 0.91965  0.43005  0.18024  Biso   1.000  H
  H425     1.0000 0.78577  0.43367  0.11012  Biso   1.000  H
  H426     1.0000 0.78577  0.43358  0.11012  Biso   1.000  H
  N291     1.0000 0.12721  0.63773  0.99368  Biso   1.000  N
  H427     1.0000 0.08032  0.57008  0.81972  Biso   1.000  H
  H428     1.0000 0.21420  0.56654  0.88984  Biso   1.000  H
  N292     1.0000 0.12717  0.63770  0.99359  Biso   1.000  N
  H429     1.0000 0.21420  0.56646  0.88984  Biso   1.000  H
  N293     1.0000 0.12729  0.63773  0.99368  Biso   1.000  N
  C497     1.0000 0.26010  0.85321  0.24467  Biso   1.000  C
  C498     1.0000 0.21564  0.66913  0.11199  Biso   1.000  C
  N294     1.0000 0.65188  0.15812  0.98534  Biso   1.000  N
  H430     1.0000 0.56401  0.13673  0.81387  Biso   1.000  H
  H431     1.0000 0.58174  0.26312  0.89357  Biso   1.000  H
  H432     1.0000 0.56393  0.13673  0.81387  Biso   1.000  H
  C499     1.0000 0.69732  0.23534  0.10329  Biso   1.000  C
  C500     1.0000 0.69723  0.23534  0.10329  Biso   1.000  C
  C501     1.0000 0.89574  0.25514  0.23243  Biso   1.000  C
  C502     1.0000 0.89571  0.25512  0.23234  Biso   1.000  C
  C503     1.0000 0.89565  0.25514  0.23243  Biso   1.000  C
  C504     1.0000 0.89562  0.25512  0.23234  Biso   1.000  C
  C505     1.0000 0.01242  0.63030  0.99208  Biso   1.000  C
  C506     1.0000 0.01238  0.63028  0.99199  Biso   1.000  C
  O152     1.0000 0.31033  0.94890  0.30227  Biso   1.000  O
  N295     1.0000 0.17092  0.79945  0.26411  Biso   1.000  N
  N296     1.0000 0.17089  0.79942  0.26402  Biso   1.000  N
  C507     1.0000 0.14073  0.68235  0.19231  Biso   1.000  C
  H433     1.0000 0.26836  0.61075  0.12211  Biso   1.000  H
  C508     1.0000 0.14070  0.68232  0.19222  Biso   1.000  C
  H434     1.0000 0.26833  0.61072  0.12202  Biso   1.000  H
  H435     1.0000 0.26828  0.61075  0.12211  Biso   1.000  H
  H436     1.0000 0.26825  0.61072  0.12202  Biso   1.000  H
  C509     1.0000 0.63966  0.04768  0.98205  Biso   1.000  C
  C510     1.0000 0.63966  0.04760  0.98205  Biso   1.000  C
  H437     1.0000 0.64387  0.29183  0.11660  Biso   1.000  H
  C511     1.0000 0.70860  0.15631  0.18006  Biso   1.000  C
  H438     1.0000 0.64384  0.29180  0.11651  Biso   1.000  H
  N297     1.0000 0.83367  0.17550  0.25568  Biso   1.000  N
  N298     1.0000 0.83367  0.17558  0.25568  Biso   1.000  N
  O153     1.0000 0.00076  0.29140  0.28346  Biso   1.000  O
  O154     1.0000 0.00077  0.29148  0.28346  Biso   1.000  O
  O155     1.0000 0.92301  0.60451  0.90395  Biso   1.000  O
  N299     1.0000 0.01876  0.65543  0.10586  Biso   1.000  N
  N300     1.0000 0.01884  0.65543  0.10586  Biso   1.000  N
  C512     1.0000 0.14408  0.84613  0.36955  Biso   1.000  C
  H439     1.0000 0.15862  0.63061  0.24050  Biso   1.000  H
  H440     1.0000 0.15859  0.63058  0.24041  Biso   1.000  H
  O156     1.0000 0.59749  0.96708  0.89232  Biso   1.000  O
  N301     1.0000 0.67141  0.04417  0.09548  Biso   1.000  N
  N302     1.0000 0.67140  0.04408  0.09548  Biso   1.000  N
  H441     1.0000 0.65796  0.17412  0.22746  Biso   1.000  H
  C513     1.0000 0.87949  0.14124  0.36165  Biso   1.000  C
  C514     1.0000 0.91613  0.65475  0.13666  Biso   1.000  C
  C515     1.0000 0.91612  0.65467  0.13666  Biso   1.000  C
  N303     1.0000 0.03389  0.89700  0.34798  Biso   1.000  N
  H442     1.0000 0.20892  0.90352  0.42697  Biso   1.000  H
  H443     1.0000 0.13864  0.78620  0.40399  Biso   1.000  H
  N304     1.0000 0.03390  0.89708  0.34798  Biso   1.000  N
  C516     1.0000 0.65444  0.94378  0.12406  Biso   1.000  C
  C517     1.0000 0.65445  0.94386  0.12406  Biso   1.000  C
  C518     1.0000 0.65453  0.94378  0.12406  Biso   1.000  C
  C519     1.0000 0.65453  0.94386  0.12406  Biso   1.000  C
  N305     1.0000 0.91362  0.03272  0.34053  Biso   1.000  N
  H444     1.0000 0.88538  0.18712  0.43647  Biso   1.000  H
  N306     1.0000 0.91359  0.03270  0.34044  Biso   1.000  N
  N307     1.0000 0.88462  0.76742  0.17678  Biso   1.000  N
  H445     1.0000 0.93011  0.61955  0.19897  Biso   1.000  H
  H446     1.0000 0.85003  0.60877  0.06805  Biso   1.000  H
  H447     1.0000 0.85003  0.60885  0.06805  Biso   1.000  H
  H448     1.0000 0.93011  0.61947  0.19897  Biso   1.000  H
  C520     1.0000 0.91918  0.83520  0.30165  Biso   1.000  C
  C521     1.0000 0.03313  0.01266  0.37443  Biso   1.000  C
  C522     1.0000 0.03310  0.01264  0.37434  Biso   1.000  C
  N308     1.0000 0.76211  0.89714  0.17198  Biso   1.000  N
  H449     1.0000 0.60186  0.88672  0.05297  Biso   1.000  H
  H450     1.0000 0.61538  0.96013  0.18130  Biso   1.000  H
  H451     1.0000 0.61534  0.96011  0.18121  Biso   1.000  H
  C523     1.0000 0.83661  0.92644  0.29659  Biso   1.000  C
  C524     1.0000 0.79068  0.80347  0.10506  Biso   1.000  C
  C525     1.0000 0.79068  0.80356  0.10506  Biso   1.000  C
  H452     1.0000 0.90962  0.78990  0.35109  Biso   1.000  H
  H453     1.0000 0.90962  0.78998  0.35109  Biso   1.000  H
  O157     1.0000 0.11923  0.08573  0.42032  Biso   1.000  O
  O158     1.0000 0.11920  0.08570  0.42023  Biso   1.000  O
  H454     1.0000 0.78905  0.92556  0.34559  Biso   1.000  H
  H455     1.0000 0.78896  0.92556  0.34559  Biso   1.000  H
  O159     1.0000 0.73971  0.75926  0.99918  Biso   1.000  O
  O160     1.0000 0.73968  0.75923  0.99909  Biso   1.000  O
  O161     1.0000 0.73971  0.75917  0.99918  Biso   1.000  O
  O162     1.0000 0.26029  0.24090  0.00087  Biso   1.000  O
  C526     1.0000 0.20940  0.19660  0.89499  Biso   1.000  C
  C527     1.0000 0.20937  0.19657  0.89490  Biso   1.000  C
  C528     1.0000 0.20940  0.19651  0.89499  Biso   1.000  C
  C529     1.0000 0.20937  0.19649  0.89490  Biso   1.000  C
  N309     1.0000 0.23797  0.10293  0.82807  Biso   1.000  N
  N310     1.0000 0.11546  0.23265  0.82327  Biso   1.000  N
  N311     1.0000 0.11543  0.23262  0.82318  Biso   1.000  N
  C530     1.0000 0.16347  0.07363  0.70346  Biso   1.000  C
  C531     1.0000 0.34564  0.05629  0.87599  Biso   1.000  C
  C532     1.0000 0.34560  0.05626  0.87590  Biso   1.000  C
  C533     1.0000 0.34555  0.05621  0.87599  Biso   1.000  C
  C534     1.0000 0.34552  0.05626  0.87590  Biso   1.000  C
  C535     1.0000 0.34563  0.05621  0.87599  Biso   1.000  C
  C536     1.0000 0.08090  0.16487  0.69840  Biso   1.000  C
  C537     1.0000 0.08087  0.16484  0.69831  Biso   1.000  C
  C538     1.0000 0.08395  0.34532  0.86339  Biso   1.000  C
  C539     1.0000 0.08392  0.34538  0.86330  Biso   1.000  C
  C540     1.0000 0.08392  0.34530  0.86330  Biso   1.000  C
  N312     1.0000 0.08638  0.96743  0.65952  Biso   1.000  N
  H456     1.0000 0.21103  0.07452  0.65447  Biso   1.000  H
  H457     1.0000 0.21112  0.07452  0.65447  Biso   1.000  H
  H458     1.0000 0.38470  0.03994  0.81875  Biso   1.000  H
  N313     1.0000 0.32859  0.95599  0.90457  Biso   1.000  N
  N314     1.0000 0.32860  0.95607  0.90457  Biso   1.000  N
  H459     1.0000 0.39822  0.11335  0.94708  Biso   1.000  H
  H460     1.0000 0.39818  0.11332  0.94700  Biso   1.000  H
  N315     1.0000 0.96619  0.10308  0.65207  Biso   1.000  N
  N316     1.0000 0.96615  0.10305  0.65198  Biso   1.000  N
  N317     1.0000 0.96619  0.10299  0.65207  Biso   1.000  N
  H461     1.0000 0.09046  0.21017  0.64896  Biso   1.000  H
  H462     1.0000 0.09046  0.21009  0.64896  Biso   1.000  H
  N318     1.0000 0.98132  0.34464  0.89419  Biso   1.000  N
  N319     1.0000 0.98120  0.34461  0.89410  Biso   1.000  N
  N320     1.0000 0.98124  0.34464  0.89419  Biso   1.000  N
  N321     1.0000 0.98129  0.34461  0.89410  Biso   1.000  N
  H463     1.0000 0.06997  0.38052  0.80109  Biso   1.000  H
  H464     1.0000 0.15005  0.39130  0.93200  Biso   1.000  H
  H465     1.0000 0.06994  0.38057  0.80100  Biso   1.000  H
  H466     1.0000 0.15002  0.39128  0.93191  Biso   1.000  H
  H467     1.0000 0.15005  0.39122  0.93200  Biso   1.000  H
  H468     1.0000 0.06994  0.38049  0.80100  Biso   1.000  H
  H469     1.0000 0.15002  0.39120  0.93191  Biso   1.000  H
  C541     1.0000 0.96687  0.98749  0.62562  Biso   1.000  C
  C542     1.0000 0.12051  0.85891  0.63840  Biso   1.000  C
  C543     1.0000 0.12048  0.85888  0.63831  Biso   1.000  C
  C544     1.0000 0.29140  0.84384  0.81999  Biso   1.000  C
  C545     1.0000 0.29137  0.84381  0.81990  Biso   1.000  C
  C546     1.0000 0.36042  0.95239  0.01800  Biso   1.000  C
  C547     1.0000 0.36039  0.95244  0.01791  Biso   1.000  C
  C548     1.0000 0.36039  0.95236  0.01791  Biso   1.000  C
  C549     1.0000 0.85600  0.15395  0.63050  Biso   1.000  C
  C550     1.0000 0.85597  0.15392  0.63041  Biso   1.000  C
  C551     1.0000 0.85935  0.31772  0.80774  Biso   1.000  C
  C552     1.0000 0.98758  0.36985  0.00797  Biso   1.000  C
  O163     1.0000 0.88077  0.91442  0.57974  Biso   1.000  O
  N322     1.0000 0.16633  0.82465  0.74437  Biso   1.000  N
  H470     1.0000 0.11462  0.81303  0.56358  Biso   1.000  H
  N323     1.0000 0.16630  0.82462  0.74428  Biso   1.000  N
  H471     1.0000 0.11458  0.81301  0.56349  Biso   1.000  H
  N324     1.0000 0.16633  0.82457  0.74437  Biso   1.000  N
  C553     1.0000 0.30268  0.76481  0.89676  Biso   1.000  C
  H472     1.0000 0.34204  0.82604  0.77260  Biso   1.000  H
  H473     1.0000 0.34201  0.82601  0.77251  Biso   1.000  H
  C554     1.0000 0.30276  0.76481  0.89676  Biso   1.000  C
  N325     1.0000 0.34820  0.84195  0.01471  Biso   1.000  N
  N326     1.0000 0.34817  0.84192  0.01463  Biso   1.000  N
  O164     1.0000 0.40251  0.03307  0.10773  Biso   1.000  O
  O165     1.0000 0.40248  0.03304  0.10764  Biso   1.000  O
  O166     1.0000 0.40251  0.03299  0.10773  Biso   1.000  O
  N327     1.0000 0.82916  0.20062  0.73594  Biso   1.000  N
  H474     1.0000 0.79116  0.09655  0.57308  Biso   1.000  H
  H475     1.0000 0.86144  0.21387  0.59607  Biso   1.000  H
  H476     1.0000 0.79113  0.09653  0.57299  Biso   1.000  H
  H477     1.0000 0.86141  0.21384  0.59598  Biso   1.000  H
  H478     1.0000 0.86144  0.21379  0.59607  Biso   1.000  H
  H479     1.0000 0.84146  0.36946  0.75955  Biso   1.000  H
  C555     1.0000 0.78445  0.33095  0.88806  Biso   1.000  C
  N328     1.0000 0.87279  0.36242  0.00637  Biso   1.000  N
  N329     1.0000 0.87271  0.36242  0.00637  Biso   1.000  N
  O167     1.0000 0.07699  0.39565  0.09610  Biso   1.000  O
  O168     1.0000 0.07695  0.39562  0.09601  Biso   1.000  O
  C556     1.0000 0.10426  0.74501  0.76763  Biso   1.000  C
  C557     1.0000 0.10434  0.74501  0.76763  Biso   1.000  C
  N330     1.0000 0.18261  0.71294  0.85966  Biso   1.000  N
  H480     1.0000 0.35613  0.70832  0.88345  Biso   1.000  H
  C558     1.0000 0.37937  0.80462  0.11989  Biso   1.000  C
  C559     1.0000 0.73998  0.14686  0.75538  Biso   1.000  C
  C560     1.0000 0.73995  0.14683  0.75529  Biso   1.000  C
  N331     1.0000 0.71866  0.21983  0.84830  Biso   1.000  N
  N332     1.0000 0.71863  0.21981  0.84821  Biso   1.000  N
  H481     1.0000 0.73172  0.38932  0.87795  Biso   1.000  H
  H482     1.0000 0.73180  0.38932  0.87795  Biso   1.000  H
  C561     1.0000 0.84952  0.38668  0.11501  Biso   1.000  C
  C562     1.0000 0.84948  0.38665  0.11492  Biso   1.000  C
  C563     1.0000 0.84943  0.38660  0.11501  Biso   1.000  C
  C564     1.0000 0.84940  0.38665  0.11492  Biso   1.000  C
  C565     1.0000 0.84951  0.38660  0.11501  Biso   1.000  C
  O169     1.0000 0.99924  0.70875  0.71659  Biso   1.000  O
  O170     1.0000 0.99920  0.70872  0.71650  Biso   1.000  O
  O171     1.0000 0.99923  0.70867  0.71659  Biso   1.000  O
  C566     1.0000 0.15048  0.61347  0.88505  Biso   1.000  C
  C567     1.0000 0.15049  0.61355  0.88505  Biso   1.000  C
  C568     1.0000 0.15057  0.61347  0.88505  Biso   1.000  C
  C569     1.0000 0.15057  0.61355  0.88505  Biso   1.000  C
  N333     1.0000 0.28142  0.78024  0.15175  Biso   1.000  N
  H483     1.0000 0.43607  0.86334  0.18619  Biso   1.000  H
  H484     1.0000 0.41834  0.73695  0.10648  Biso   1.000  H
  H485     1.0000 0.41834  0.73687  0.10648  Biso   1.000  H
  H486     1.0000 0.43615  0.86334  0.18619  Biso   1.000  H
  O172     1.0000 0.68975  0.05117  0.69778  Biso   1.000  O
  O173     1.0000 0.68971  0.05115  0.69769  Biso   1.000  O
  O174     1.0000 0.68975  0.05109  0.69778  Biso   1.000  O
  C570     1.0000 0.62071  0.19545  0.88016  Biso   1.000  C
  C571     1.0000 0.62062  0.19545  0.88016  Biso   1.000  C
  N334     1.0000 0.81739  0.28721  0.14039  Biso   1.000  N
  H487     1.0000 0.91968  0.43007  0.18033  Biso   1.000  H
  H488     1.0000 0.78580  0.43361  0.11021  Biso   1.000  H
  H489     1.0000 0.91965  0.43005  0.18024  Biso   1.000  H
  H490     1.0000 0.78577  0.43367  0.11012  Biso   1.000  H
  H491     1.0000 0.78577  0.43358  0.11012  Biso   1.000  H
  N335     1.0000 0.12721  0.63773  0.99368  Biso   1.000  N
  H492     1.0000 0.08032  0.57008  0.81972  Biso   1.000  H
  H493     1.0000 0.21420  0.56654  0.88984  Biso   1.000  H
  N336     1.0000 0.12717  0.63770  0.99359  Biso   1.000  N
  H494     1.0000 0.21420  0.56646  0.88984  Biso   1.000  H
  N337     1.0000 0.12729  0.63773  0.99368  Biso   1.000  N
  C572     1.0000 0.26010  0.85321  0.24467  Biso   1.000  C
  C573     1.0000 0.21564  0.66913  0.11199  Biso   1.000  C
  N338     1.0000 0.65188  0.15812  0.98534  Biso   1.000  N
  H495     1.0000 0.56401  0.13673  0.81387  Biso   1.000  H
  H496     1.0000 0.58174  0.26312  0.89357  Biso   1.000  H
  H497     1.0000 0.56393  0.13673  0.81387  Biso   1.000  H
  C574     1.0000 0.69732  0.23534  0.10329  Biso   1.000  C
  C575     1.0000 0.69723  0.23534  0.10329  Biso   1.000  C
  C576     1.0000 0.89574  0.25514  0.23243  Biso   1.000  C
  C577     1.0000 0.89571  0.25512  0.23234  Biso   1.000  C
  C578     1.0000 0.89565  0.25514  0.23243  Biso   1.000  C
  C579     1.0000 0.89562  0.25512  0.23234  Biso   1.000  C
  C580     1.0000 0.01242  0.63030  0.99208  Biso   1.000  C
  C581     1.0000 0.01238  0.63028  0.99199  Biso   1.000  C
  O175     1.0000 0.31033  0.94890  0.30227  Biso   1.000  O
  N339     1.0000 0.17092  0.79945  0.26411  Biso   1.000  N
  N340     1.0000 0.17089  0.79942  0.26402  Biso   1.000  N
  C582     1.0000 0.14073  0.68235  0.19231  Biso   1.000  C
  H498     1.0000 0.26836  0.61075  0.12211  Biso   1.000  H
  C583     1.0000 0.14070  0.68232  0.19222  Biso   1.000  C
  H499     1.0000 0.26833  0.61072  0.12202  Biso   1.000  H
  H500     1.0000 0.26828  0.61075  0.12211  Biso   1.000  H
  H501     1.0000 0.26825  0.61072  0.12202  Biso   1.000  H
  C584     1.0000 0.63966  0.04768  0.98205  Biso   1.000  C
  C585     1.0000 0.63966  0.04760  0.98205  Biso   1.000  C
  H502     1.0000 0.64387  0.29183  0.11660  Biso   1.000  H
  C586     1.0000 0.70860  0.15631  0.18006  Biso   1.000  C
  H503     1.0000 0.64384  0.29180  0.11651  Biso   1.000  H
  N341     1.0000 0.83367  0.17550  0.25568  Biso   1.000  N
  N342     1.0000 0.83367  0.17558  0.25568  Biso   1.000  N
  O176     1.0000 0.00076  0.29140  0.28346  Biso   1.000  O
  O177     1.0000 0.00077  0.29148  0.28346  Biso   1.000  O
  O178     1.0000 0.92301  0.60451  0.90395  Biso   1.000  O
  N343     1.0000 0.01876  0.65543  0.10586  Biso   1.000  N
  N344     1.0000 0.01884  0.65543  0.10586  Biso   1.000  N
  C587     1.0000 0.14408  0.84613  0.36955  Biso   1.000  C
  H504     1.0000 0.15862  0.63061  0.24050  Biso   1.000  H
  H505     1.0000 0.15859  0.63058  0.24041  Biso   1.000  H
  O179     1.0000 0.59749  0.96708  0.89232  Biso   1.000  O
  N345     1.0000 0.67141  0.04417  0.09548  Biso   1.000  N
  N346     1.0000 0.67140  0.04408  0.09548  Biso   1.000  N
  H506     1.0000 0.65796  0.17412  0.22746  Biso   1.000  H
  C588     1.0000 0.87949  0.14124  0.36165  Biso   1.000  C
  C589     1.0000 0.91613  0.65475  0.13666  Biso   1.000  C
  C590     1.0000 0.91612  0.65467  0.13666  Biso   1.000  C
  N347     1.0000 0.03389  0.89700  0.34798  Biso   1.000  N
  H507     1.0000 0.20892  0.90352  0.42697  Biso   1.000  H
  H508     1.0000 0.13864  0.78620  0.40399  Biso   1.000  H
  N348     1.0000 0.03390  0.89708  0.34798  Biso   1.000  N
  C591     1.0000 0.65444  0.94378  0.12406  Biso   1.000  C
  C592     1.0000 0.65445  0.94386  0.12406  Biso   1.000  C
  C593     1.0000 0.65453  0.94378  0.12406  Biso   1.000  C
  C594     1.0000 0.65453  0.94386  0.12406  Biso   1.000  C
  N349     1.0000 0.91362  0.03272  0.34053  Biso   1.000  N
  H509     1.0000 0.88538  0.18712  0.43647  Biso   1.000  H
  N350     1.0000 0.91359  0.03270  0.34044  Biso   1.000  N
  N351     1.0000 0.88462  0.76742  0.17678  Biso   1.000  N
  H510     1.0000 0.93011  0.61955  0.19897  Biso   1.000  H
  H511     1.0000 0.85003  0.60877  0.06805  Biso   1.000  H
  H512     1.0000 0.85003  0.60885  0.06805  Biso   1.000  H
  H513     1.0000 0.93011  0.61947  0.19897  Biso   1.000  H
  C595     1.0000 0.91918  0.83520  0.30165  Biso   1.000  C
  C596     1.0000 0.03313  0.01266  0.37443  Biso   1.000  C
  C597     1.0000 0.03310  0.01264  0.37434  Biso   1.000  C
  N352     1.0000 0.76211  0.89714  0.17198  Biso   1.000  N
  H514     1.0000 0.60186  0.88672  0.05297  Biso   1.000  H
  H515     1.0000 0.61538  0.96013  0.18130  Biso   1.000  H
  H516     1.0000 0.61534  0.96011  0.18121  Biso   1.000  H
  C598     1.0000 0.83661  0.92644  0.29659  Biso   1.000  C
  C599     1.0000 0.79068  0.80347  0.10506  Biso   1.000  C
  C600     1.0000 0.79068  0.80356  0.10506  Biso   1.000  C
  H517     1.0000 0.90962  0.78990  0.35109  Biso   1.000  H
  H518     1.0000 0.90962  0.78998  0.35109  Biso   1.000  H
  O180     1.0000 0.11923  0.08573  0.42032  Biso   1.000  O
  O181     1.0000 0.11920  0.08570  0.42023  Biso   1.000  O
  H519     1.0000 0.78905  0.92556  0.34559  Biso   1.000  H
  H520     1.0000 0.78896  0.92556  0.34559  Biso   1.000  H
  O182     1.0000 0.73971  0.75926  0.99918  Biso   1.000  O
  O183     1.0000 0.73968  0.75923  0.99909  Biso   1.000  O
  O184     1.0000 0.73971  0.75917  0.99918  Biso   1.000  O
