data_image0
_cell_length_a       12.673
_cell_length_b       12.602
_cell_length_c       23.356
_cell_angle_alpha    90
_cell_angle_beta     105.14
_cell_angle_gamma    90

_symmetry_space_group_name_H-M    "P 1"
_symmetry_int_tables_number       1

loop_
  _symmetry_equiv_pos_as_xyz
  'x, y, z'

loop_
  _atom_site_label
  _atom_site_occupancy
  _atom_site_fract_x
  _atom_site_fract_y
  _atom_site_fract_z
  _atom_site_thermal_displace_type
  _atom_site_B_iso_or_equiv
  _atom_site_type_symbol
  O1       1.0000 0.24248  0.74210  0.52179  Biso   1.000  O
  C1       1.0000 0.20088  0.75004  0.46750  Biso   1.000  C
  C2       1.0000 0.20088  0.74996  0.46750  Biso   1.000  C
  N1       1.0000 0.10619  0.70243  0.43668  Biso   1.000  N
  N2       1.0000 0.10619  0.70235  0.43668  Biso   1.000  N
  N3       1.0000 0.24142  0.81114  0.42958  Biso   1.000  N
  N4       1.0000 0.24142  0.81106  0.42958  Biso   1.000  N
  C3       1.0000 0.08579  0.71766  0.37201  Biso   1.000  C
  C4       1.0000 0.08579  0.71774  0.37201  Biso   1.000  C
  C5       1.0000 0.05571  0.61585  0.46049  Biso   1.000  C
  C6       1.0000 0.05571  0.61578  0.46049  Biso   1.000  C
  C7       1.0000 0.18164  0.79384  0.36801  Biso   1.000  C
  C8       1.0000 0.18164  0.79376  0.36801  Biso   1.000  C
  C9       1.0000 0.35024  0.85534  0.44599  Biso   1.000  C
  C10      1.0000 0.35024  0.85526  0.44599  Biso   1.000  C
  C11      1.0000 0.35016  0.85534  0.44599  Biso   1.000  C
  C12      1.0000 0.35016  0.85526  0.44599  Biso   1.000  C
  H1       1.0000 0.08765  0.65061  0.35111  Biso   1.000  H
  H2       1.0000 0.08757  0.65061  0.35111  Biso   1.000  H
  N5       1.0000 0.99098  0.77837  0.34601  Biso   1.000  N
  H3       1.0000 0.08700  0.54880  0.46812  Biso   1.000  H
  N6       1.0000 0.95433  0.64299  0.47101  Biso   1.000  N
  H4       1.0000 0.22812  0.76234  0.34491  Biso   1.000  H
  N7       1.0000 0.12438  0.88787  0.33905  Biso   1.000  N
  H5       1.0000 0.22812  0.76226  0.34491  Biso   1.000  H
  N8       1.0000 0.35035  0.96913  0.45508  Biso   1.000  N
  H6       1.0000 0.39179  0.82162  0.48232  Biso   1.000  H
  H7       1.0000 0.38635  0.83971  0.41512  Biso   1.000  H
  H8       1.0000 0.39179  0.82154  0.48232  Biso   1.000  H
  H9       1.0000 0.38635  0.83963  0.41512  Biso   1.000  H
  N9       1.0000 0.35028  0.96913  0.45508  Biso   1.000  N
  H10      1.0000 0.38627  0.83971  0.41512  Biso   1.000  H
  H11      1.0000 0.38627  0.83963  0.41512  Biso   1.000  H
  C13      1.0000 0.01262  0.87518  0.32441  Biso   1.000  C
  C14      1.0000 0.88065  0.73663  0.33351  Biso   1.000  C
  C15      1.0000 0.88065  0.73655  0.33351  Biso   1.000  C
  C16      1.0000 0.85084  0.64514  0.42519  Biso   1.000  C
  C17      1.0000 0.93818  0.65585  0.52729  Biso   1.000  C
  C18      1.0000 0.85084  0.64506  0.42519  Biso   1.000  C
  C19      1.0000 0.17924  0.97500  0.32140  Biso   1.000  C
  C20      1.0000 0.17924  0.97492  0.32140  Biso   1.000  C
  C21      1.0000 0.17916  0.97500  0.32140  Biso   1.000  C
  C22      1.0000 0.17916  0.97492  0.32140  Biso   1.000  C
  C23      1.0000 0.37189  0.01222  0.50982  Biso   1.000  C
  C24      1.0000 0.33244  0.04817  0.40820  Biso   1.000  C
  C25      1.0000 0.37189  0.01214  0.50982  Biso   1.000  C
  C26      1.0000 0.33236  0.04817  0.40820  Biso   1.000  C
  O2       1.0000 0.94639  0.93811  0.29682  Biso   1.000  O
  O3       1.0000 0.94639  0.93803  0.29682  Biso   1.000  O
  N10      1.0000 0.83710  0.73353  0.38500  Biso   1.000  N
  H12      1.0000 0.83324  0.78019  0.30321  Biso   1.000  H
  H13      1.0000 0.88015  0.66545  0.31772  Biso   1.000  H
  N11      1.0000 0.83710  0.73346  0.38500  Biso   1.000  N
  H14      1.0000 0.88015  0.66537  0.31772  Biso   1.000  H
  H15      1.0000 0.83735  0.57761  0.40372  Biso   1.000  H
  C27      1.0000 0.76434  0.66545  0.46089  Biso   1.000  C
  C28      1.0000 0.76434  0.66537  0.46089  Biso   1.000  C
  O4       1.0000 0.01041  0.65053  0.57342  Biso   1.000  O
  O5       1.0000 0.01041  0.65045  0.57342  Biso   1.000  O
  N12      1.0000 0.82901  0.67251  0.52148  Biso   1.000  N
  H16      1.0000 0.23885  0.94810  0.30672  Biso   1.000  H
  H17      1.0000 0.23885  0.94802  0.30672  Biso   1.000  H
  H18      1.0000 0.23877  0.94810  0.30672  Biso   1.000  H
  H19      1.0000 0.23877  0.94802  0.30672  Biso   1.000  H
  N13      1.0000 0.22280  0.05118  0.36828  Biso   1.000  N
  H20      1.0000 0.12870  0.01127  0.28902  Biso   1.000  H
  O6       1.0000 0.39372  0.96540  0.55617  Biso   1.000  O
  O7       1.0000 0.39372  0.96532  0.55617  Biso   1.000  O
  N14      1.0000 0.36732  0.12173  0.50294  Biso   1.000  N
  N15      1.0000 0.36732  0.12165  0.50294  Biso   1.000  N
  H21      1.0000 0.38751  0.04166  0.38571  Biso   1.000  H
  C29      1.0000 0.34430  0.15450  0.44120  Biso   1.000  C
  H22      1.0000 0.38751  0.04174  0.38571  Biso   1.000  H
  C30      1.0000 0.34430  0.15442  0.44120  Biso   1.000  C
  C31      1.0000 0.75531  0.79821  0.39081  Biso   1.000  C
  C32      1.0000 0.75531  0.79829  0.39081  Biso   1.000  C
  N16      1.0000 0.71574  0.76639  0.43632  Biso   1.000  N
  N17      1.0000 0.71566  0.76639  0.43632  Biso   1.000  N
  H23      1.0000 0.71001  0.60840  0.45539  Biso   1.000  H
  C33      1.0000 0.78540  0.68632  0.57218  Biso   1.000  C
  C34      1.0000 0.78540  0.68640  0.57218  Biso   1.000  C
  C35      1.0000 0.17424  0.14593  0.37329  Biso   1.000  C
  C36      1.0000 0.17424  0.14585  0.37329  Biso   1.000  C
  C37      1.0000 0.38405  0.19457  0.55262  Biso   1.000  C
  N18      1.0000 0.23961  0.20521  0.41632  Biso   1.000  N
  N19      1.0000 0.23961  0.20513  0.41632  Biso   1.000  N
  H24      1.0000 0.40454  0.19656  0.43388  Biso   1.000  H
  H25      1.0000 0.40446  0.19656  0.43388  Biso   1.000  H
  O8       1.0000 0.72163  0.87613  0.35888  Biso   1.000  O
  C38      1.0000 0.61605  0.80543  0.44741  Biso   1.000  C
  C39      1.0000 0.61605  0.80535  0.44741  Biso   1.000  C
  N20      1.0000 0.76039  0.79479  0.58367  Biso   1.000  N
  H26      1.0000 0.71927  0.64434  0.56628  Biso   1.000  H
  H27      1.0000 0.83790  0.65886  0.60700  Biso   1.000  H
  O9       1.0000 0.08408  0.17323  0.34353  Biso   1.000  O
  O10      1.0000 0.08408  0.17315  0.34353  Biso   1.000  O
  N21      1.0000 0.28434  0.23361  0.56366  Biso   1.000  N
  H28      1.0000 0.42660  0.25448  0.54512  Biso   1.000  H
  H29      1.0000 0.42634  0.15886  0.58802  Biso   1.000  H
  N22      1.0000 0.28434  0.23353  0.56366  Biso   1.000  N
  C40      1.0000 0.21460  0.31360  0.42780  Biso   1.000  C
  C41      1.0000 0.21460  0.31352  0.42780  Biso   1.000  C
  N23      1.0000 0.63268  0.87827  0.49704  Biso   1.000  N
  H30      1.0000 0.57342  0.74552  0.45491  Biso   1.000  H
  H31      1.0000 0.57369  0.84114  0.41201  Biso   1.000  H
  H32      1.0000 0.57342  0.74544  0.45491  Biso   1.000  H
  H33      1.0000 0.57369  0.84106  0.41201  Biso   1.000  H
  C42      1.0000 0.82584  0.85407  0.62669  Biso   1.000  C
  C43      1.0000 0.65570  0.84550  0.55879  Biso   1.000  C
  C44      1.0000 0.24472  0.20171  0.60922  Biso   1.000  C
  C45      1.0000 0.23574  0.33455  0.53909  Biso   1.000  C
  C46      1.0000 0.24472  0.20163  0.60922  Biso   1.000  C
  N24      1.0000 0.17099  0.32749  0.47850  Biso   1.000  N
  H34      1.0000 0.28073  0.35558  0.43370  Biso   1.000  H
  H35      1.0000 0.16210  0.34106  0.39299  Biso   1.000  H
  C47      1.0000 0.62813  0.98770  0.49021  Biso   1.000  C
  C48      1.0000 0.62813  0.98778  0.49021  Biso   1.000  C
  O11      1.0000 0.91592  0.82669  0.65646  Biso   1.000  O
  N25      1.0000 0.77720  0.94882  0.63171  Biso   1.000  N
  O12      1.0000 0.91592  0.82677  0.65646  Biso   1.000  O
  N26      1.0000 0.77720  0.94874  0.63171  Biso   1.000  N
  C49      1.0000 0.66764  0.95183  0.59179  Biso   1.000  C
  H36      1.0000 0.59554  0.80336  0.56610  Biso   1.000  H
  C50      1.0000 0.66764  0.95175  0.59179  Biso   1.000  C
  O13      1.0000 0.27839  0.12379  0.64115  Biso   1.000  O
  N27      1.0000 0.16292  0.26647  0.61503  Biso   1.000  N
  C51      1.0000 0.14924  0.35486  0.57480  Biso   1.000  C
  H37      1.0000 0.28999  0.39160  0.54459  Biso   1.000  H
  H38      1.0000 0.28999  0.39153  0.54459  Biso   1.000  H
  C52      1.0000 0.06182  0.34407  0.47269  Biso   1.000  C
  O14      1.0000 0.60635  0.03460  0.44382  Biso   1.000  O
  N28      1.0000 0.64975  0.03079  0.54495  Biso   1.000  N
  O15      1.0000 0.60627  0.03460  0.44382  Biso   1.000  O
  C53      1.0000 0.82084  0.02500  0.67859  Biso   1.000  C
  H39      1.0000 0.61251  0.95834  0.61432  Biso   1.000  H
  H40      1.0000 0.61251  0.95826  0.61432  Biso   1.000  H
  C54      1.0000 0.11945  0.26337  0.66652  Biso   1.000  C
  N29      1.0000 0.04569  0.35701  0.52902  Biso   1.000  N
  N30      1.0000 0.04569  0.35693  0.52902  Biso   1.000  N
  H41      1.0000 0.16275  0.42239  0.59631  Biso   1.000  H
  H42      1.0000 0.16275  0.42231  0.59631  Biso   1.000  H
  O16      1.0000 0.98959  0.34947  0.42656  Biso   1.000  O
  C55      1.0000 0.64984  0.14466  0.55400  Biso   1.000  C
  H43      1.0000 0.87132  0.98873  0.71101  Biso   1.000  H
  H44      1.0000 0.87132  0.98865  0.71101  Biso   1.000  H
  N31      1.0000 0.87562  0.11213  0.66094  Biso   1.000  N
  H45      1.0000 0.76125  0.05190  0.69331  Biso   1.000  H
  N32      1.0000 0.87562  0.11205  0.66094  Biso   1.000  N
  N33      1.0000 0.00902  0.22155  0.65397  Biso   1.000  N
  H46      1.0000 0.16686  0.21981  0.69682  Biso   1.000  H
  H47      1.0000 0.11995  0.33455  0.68231  Biso   1.000  H
  H48      1.0000 0.16686  0.21973  0.69682  Biso   1.000  H
  H49      1.0000 0.16678  0.21981  0.69682  Biso   1.000  H
  H50      1.0000 0.16678  0.21973  0.69682  Biso   1.000  H
  C56      1.0000 0.94429  0.38415  0.53949  Biso   1.000  C
  N34      1.0000 0.75858  0.18886  0.57041  Biso   1.000  N
  H51      1.0000 0.60823  0.17838  0.51771  Biso   1.000  H
  H52      1.0000 0.61375  0.16029  0.58491  Biso   1.000  H
  C57      1.0000 0.81846  0.20616  0.63202  Biso   1.000  C
  C58      1.0000 0.98740  0.12482  0.67562  Biso   1.000  C
  C59      1.0000 0.98740  0.12474  0.67562  Biso   1.000  C
  C60      1.0000 0.81838  0.20616  0.63202  Biso   1.000  C
  C61      1.0000 0.91423  0.28226  0.62802  Biso   1.000  C
  N35      1.0000 0.89383  0.29757  0.56335  Biso   1.000  N
  H53      1.0000 0.91302  0.45120  0.53191  Biso   1.000  H
  H54      1.0000 0.91302  0.45112  0.53191  Biso   1.000  H
  C62      1.0000 0.79912  0.24996  0.53248  Biso   1.000  C
  H55      1.0000 0.77190  0.23766  0.65512  Biso   1.000  H
  O17      1.0000 0.05361  0.06189  0.70316  Biso   1.000  O
  H56      1.0000 0.91245  0.34939  0.64892  Biso   1.000  H
  H57      1.0000 0.91245  0.34931  0.64892  Biso   1.000  H
  O18      1.0000 0.75754  0.25790  0.47824  Biso   1.000  O
  O19      1.0000 0.75754  0.25782  0.47824  Biso   1.000  O
  O20      1.0000 0.24248  0.74210  0.52179  Biso   1.000  O
  C63      1.0000 0.20088  0.75004  0.46750  Biso   1.000  C
  C64      1.0000 0.20088  0.74996  0.46750  Biso   1.000  C
  N36      1.0000 0.10619  0.70243  0.43668  Biso   1.000  N
  N37      1.0000 0.10619  0.70235  0.43668  Biso   1.000  N
  N38      1.0000 0.24142  0.81114  0.42958  Biso   1.000  N
  N39      1.0000 0.24142  0.81106  0.42958  Biso   1.000  N
  C65      1.0000 0.08579  0.71766  0.37201  Biso   1.000  C
  C66      1.0000 0.08579  0.71774  0.37201  Biso   1.000  C
  C67      1.0000 0.05571  0.61585  0.46049  Biso   1.000  C
  C68      1.0000 0.05571  0.61578  0.46049  Biso   1.000  C
  C69      1.0000 0.18164  0.79384  0.36801  Biso   1.000  C
  C70      1.0000 0.18164  0.79376  0.36801  Biso   1.000  C
  C71      1.0000 0.35024  0.85534  0.44599  Biso   1.000  C
  C72      1.0000 0.35024  0.85526  0.44599  Biso   1.000  C
  C73      1.0000 0.35016  0.85534  0.44599  Biso   1.000  C
  C74      1.0000 0.35016  0.85526  0.44599  Biso   1.000  C
  H58      1.0000 0.08765  0.65061  0.35111  Biso   1.000  H
  H59      1.0000 0.08757  0.65061  0.35111  Biso   1.000  H
  N40      1.0000 0.99098  0.77837  0.34601  Biso   1.000  N
  H60      1.0000 0.08700  0.54880  0.46812  Biso   1.000  H
  N41      1.0000 0.95433  0.64299  0.47101  Biso   1.000  N
  N42      1.0000 0.12438  0.88787  0.33905  Biso   1.000  N
  H61      1.0000 0.22812  0.76234  0.34491  Biso   1.000  H
  H62      1.0000 0.22812  0.76226  0.34491  Biso   1.000  H
  N43      1.0000 0.35035  0.96913  0.45508  Biso   1.000  N
  H63      1.0000 0.39179  0.82162  0.48232  Biso   1.000  H
  N44      1.0000 0.35028  0.96913  0.45508  Biso   1.000  N
  H64      1.0000 0.39179  0.82154  0.48232  Biso   1.000  H
  H65      1.0000 0.38635  0.83971  0.41512  Biso   1.000  H
  H66      1.0000 0.38635  0.83963  0.41512  Biso   1.000  H
  H67      1.0000 0.38627  0.83971  0.41512  Biso   1.000  H
  H68      1.0000 0.38627  0.83963  0.41512  Biso   1.000  H
  C75      1.0000 0.01262  0.87518  0.32441  Biso   1.000  C
  C76      1.0000 0.88065  0.73663  0.33351  Biso   1.000  C
  C77      1.0000 0.88065  0.73655  0.33351  Biso   1.000  C
  C78      1.0000 0.85084  0.64514  0.42519  Biso   1.000  C
  C79      1.0000 0.93818  0.65585  0.52729  Biso   1.000  C
  C80      1.0000 0.85084  0.64506  0.42519  Biso   1.000  C
  C81      1.0000 0.17924  0.97500  0.32140  Biso   1.000  C
  C82      1.0000 0.17924  0.97492  0.32140  Biso   1.000  C
  C83      1.0000 0.17916  0.97500  0.32140  Biso   1.000  C
  C84      1.0000 0.17916  0.97492  0.32140  Biso   1.000  C
  C85      1.0000 0.33244  0.04817  0.40820  Biso   1.000  C
  C86      1.0000 0.33236  0.04817  0.40820  Biso   1.000  C
  C87      1.0000 0.37189  0.01222  0.50982  Biso   1.000  C
  C88      1.0000 0.37189  0.01214  0.50982  Biso   1.000  C
  O21      1.0000 0.94639  0.93811  0.29682  Biso   1.000  O
  O22      1.0000 0.94639  0.93803  0.29682  Biso   1.000  O
  N45      1.0000 0.83710  0.73353  0.38500  Biso   1.000  N
  H69      1.0000 0.83324  0.78019  0.30321  Biso   1.000  H
  H70      1.0000 0.88015  0.66545  0.31772  Biso   1.000  H
  N46      1.0000 0.83710  0.73346  0.38500  Biso   1.000  N
  H71      1.0000 0.88015  0.66537  0.31772  Biso   1.000  H
  H72      1.0000 0.83735  0.57761  0.40372  Biso   1.000  H
  C89      1.0000 0.76434  0.66545  0.46089  Biso   1.000  C
  C90      1.0000 0.76434  0.66537  0.46089  Biso   1.000  C
  O23      1.0000 0.01041  0.65053  0.57342  Biso   1.000  O
  O24      1.0000 0.01041  0.65045  0.57342  Biso   1.000  O
  N47      1.0000 0.82901  0.67251  0.52148  Biso   1.000  N
  H73      1.0000 0.23885  0.94810  0.30672  Biso   1.000  H
  H74      1.0000 0.23885  0.94802  0.30672  Biso   1.000  H
  H75      1.0000 0.23877  0.94810  0.30672  Biso   1.000  H
  H76      1.0000 0.23877  0.94802  0.30672  Biso   1.000  H
  N48      1.0000 0.22280  0.05118  0.36828  Biso   1.000  N
  H77      1.0000 0.12870  0.01127  0.28902  Biso   1.000  H
  H78      1.0000 0.38751  0.04166  0.38571  Biso   1.000  H
  C91      1.0000 0.34430  0.15450  0.44120  Biso   1.000  C
  H79      1.0000 0.38751  0.04174  0.38571  Biso   1.000  H
  C92      1.0000 0.34430  0.15442  0.44120  Biso   1.000  C
  O25      1.0000 0.39372  0.96540  0.55617  Biso   1.000  O
  O26      1.0000 0.39372  0.96532  0.55617  Biso   1.000  O
  N49      1.0000 0.36732  0.12173  0.50294  Biso   1.000  N
  N50      1.0000 0.36732  0.12165  0.50294  Biso   1.000  N
  C93      1.0000 0.75531  0.79821  0.39081  Biso   1.000  C
  C94      1.0000 0.75531  0.79829  0.39081  Biso   1.000  C
  N51      1.0000 0.71574  0.76639  0.43632  Biso   1.000  N
  N52      1.0000 0.71566  0.76639  0.43632  Biso   1.000  N
  H80      1.0000 0.71001  0.60840  0.45539  Biso   1.000  H
  C95      1.0000 0.78540  0.68632  0.57218  Biso   1.000  C
  C96      1.0000 0.78540  0.68640  0.57218  Biso   1.000  C
  C97      1.0000 0.17424  0.14593  0.37329  Biso   1.000  C
  C98      1.0000 0.17424  0.14585  0.37329  Biso   1.000  C
  N53      1.0000 0.23961  0.20521  0.41632  Biso   1.000  N
  N54      1.0000 0.23961  0.20513  0.41632  Biso   1.000  N
  H81      1.0000 0.40454  0.19656  0.43388  Biso   1.000  H
  H82      1.0000 0.40446  0.19656  0.43388  Biso   1.000  H
  C99      1.0000 0.38405  0.19457  0.55262  Biso   1.000  C
  O27      1.0000 0.72163  0.87613  0.35888  Biso   1.000  O
  C100     1.0000 0.61605  0.80543  0.44741  Biso   1.000  C
  C101     1.0000 0.61605  0.80535  0.44741  Biso   1.000  C
  N55      1.0000 0.76039  0.79479  0.58367  Biso   1.000  N
  H83      1.0000 0.71927  0.64434  0.56628  Biso   1.000  H
  H84      1.0000 0.83790  0.65886  0.60700  Biso   1.000  H
  O28      1.0000 0.08408  0.17323  0.34353  Biso   1.000  O
  O29      1.0000 0.08408  0.17315  0.34353  Biso   1.000  O
  C102     1.0000 0.21460  0.31360  0.42780  Biso   1.000  C
  C103     1.0000 0.21460  0.31352  0.42780  Biso   1.000  C
  N56      1.0000 0.28434  0.23361  0.56366  Biso   1.000  N
  H85      1.0000 0.42660  0.25448  0.54512  Biso   1.000  H
  H86      1.0000 0.42634  0.15886  0.58802  Biso   1.000  H
  N57      1.0000 0.28434  0.23353  0.56366  Biso   1.000  N
  N58      1.0000 0.63268  0.87827  0.49704  Biso   1.000  N
  H87      1.0000 0.57342  0.74552  0.45491  Biso   1.000  H
  H88      1.0000 0.57369  0.84114  0.41201  Biso   1.000  H
  H89      1.0000 0.57342  0.74544  0.45491  Biso   1.000  H
  H90      1.0000 0.57369  0.84106  0.41201  Biso   1.000  H
  C104     1.0000 0.82584  0.85407  0.62669  Biso   1.000  C
  C105     1.0000 0.65570  0.84550  0.55879  Biso   1.000  C
  N59      1.0000 0.17099  0.32749  0.47850  Biso   1.000  N
  H91      1.0000 0.28073  0.35558  0.43370  Biso   1.000  H
  H92      1.0000 0.16210  0.34106  0.39299  Biso   1.000  H
  C106     1.0000 0.23574  0.33455  0.53909  Biso   1.000  C
  C107     1.0000 0.24472  0.20171  0.60922  Biso   1.000  C
  C108     1.0000 0.24472  0.20163  0.60922  Biso   1.000  C
  C109     1.0000 0.62813  0.98770  0.49021  Biso   1.000  C
  C110     1.0000 0.62813  0.98778  0.49021  Biso   1.000  C
  O30      1.0000 0.91592  0.82669  0.65646  Biso   1.000  O
  N60      1.0000 0.77720  0.94882  0.63171  Biso   1.000  N
  O31      1.0000 0.91592  0.82677  0.65646  Biso   1.000  O
  N61      1.0000 0.77720  0.94874  0.63171  Biso   1.000  N
  C111     1.0000 0.66764  0.95183  0.59179  Biso   1.000  C
  H93      1.0000 0.59554  0.80336  0.56610  Biso   1.000  H
  C112     1.0000 0.66764  0.95175  0.59179  Biso   1.000  C
  C113     1.0000 0.06182  0.34407  0.47269  Biso   1.000  C
  C114     1.0000 0.14924  0.35486  0.57480  Biso   1.000  C
  H94      1.0000 0.28999  0.39160  0.54459  Biso   1.000  H
  H95      1.0000 0.28999  0.39153  0.54459  Biso   1.000  H
  O32      1.0000 0.27839  0.12379  0.64115  Biso   1.000  O
  N62      1.0000 0.16292  0.26647  0.61503  Biso   1.000  N
  O33      1.0000 0.60635  0.03460  0.44382  Biso   1.000  O
  N63      1.0000 0.64975  0.03079  0.54495  Biso   1.000  N
  O34      1.0000 0.60627  0.03460  0.44382  Biso   1.000  O
  C115     1.0000 0.82084  0.02500  0.67859  Biso   1.000  C
  H96      1.0000 0.61251  0.95834  0.61432  Biso   1.000  H
  H97      1.0000 0.61251  0.95826  0.61432  Biso   1.000  H
  O35      1.0000 0.98959  0.34947  0.42656  Biso   1.000  O
  N64      1.0000 0.04569  0.35701  0.52902  Biso   1.000  N
  N65      1.0000 0.04569  0.35693  0.52902  Biso   1.000  N
  H98      1.0000 0.16275  0.42239  0.59631  Biso   1.000  H
  H99      1.0000 0.16275  0.42231  0.59631  Biso   1.000  H
  C116     1.0000 0.11945  0.26337  0.66652  Biso   1.000  C
  C117     1.0000 0.64984  0.14466  0.55400  Biso   1.000  C
  H100     1.0000 0.87132  0.98873  0.71101  Biso   1.000  H
  H101     1.0000 0.87132  0.98865  0.71101  Biso   1.000  H
  N66      1.0000 0.87562  0.11213  0.66094  Biso   1.000  N
  H102     1.0000 0.76125  0.05190  0.69331  Biso   1.000  H
  N67      1.0000 0.87562  0.11205  0.66094  Biso   1.000  N
  C118     1.0000 0.94429  0.38415  0.53949  Biso   1.000  C
  N68      1.0000 0.00902  0.22155  0.65397  Biso   1.000  N
  H103     1.0000 0.16686  0.21981  0.69682  Biso   1.000  H
  H104     1.0000 0.11995  0.33455  0.68231  Biso   1.000  H
  H105     1.0000 0.16686  0.21973  0.69682  Biso   1.000  H
  H106     1.0000 0.16678  0.21981  0.69682  Biso   1.000  H
  H107     1.0000 0.16678  0.21973  0.69682  Biso   1.000  H
  N69      1.0000 0.75858  0.18886  0.57041  Biso   1.000  N
  H108     1.0000 0.60823  0.17838  0.51771  Biso   1.000  H
  H109     1.0000 0.61375  0.16029  0.58491  Biso   1.000  H
  C119     1.0000 0.81846  0.20616  0.63202  Biso   1.000  C
  C120     1.0000 0.98740  0.12482  0.67562  Biso   1.000  C
  C121     1.0000 0.98740  0.12474  0.67562  Biso   1.000  C
  C122     1.0000 0.81838  0.20616  0.63202  Biso   1.000  C
  N70      1.0000 0.89383  0.29757  0.56335  Biso   1.000  N
  H110     1.0000 0.91302  0.45120  0.53191  Biso   1.000  H
  H111     1.0000 0.91302  0.45112  0.53191  Biso   1.000  H
  C123     1.0000 0.91423  0.28226  0.62802  Biso   1.000  C
  C124     1.0000 0.79912  0.24996  0.53248  Biso   1.000  C
  H112     1.0000 0.77190  0.23766  0.65512  Biso   1.000  H
  O36      1.0000 0.05361  0.06189  0.70316  Biso   1.000  O
  H113     1.0000 0.91245  0.34939  0.64892  Biso   1.000  H
  H114     1.0000 0.91245  0.34931  0.64892  Biso   1.000  H
  O37      1.0000 0.75754  0.25790  0.47824  Biso   1.000  O
  O38      1.0000 0.75754  0.25782  0.47824  Biso   1.000  O
  O39      1.0000 0.24248  0.74210  0.52179  Biso   1.000  O
  C125     1.0000 0.20088  0.75004  0.46750  Biso   1.000  C
  C126     1.0000 0.20088  0.74996  0.46750  Biso   1.000  C
  N71      1.0000 0.24142  0.81114  0.42958  Biso   1.000  N
  N72      1.0000 0.24142  0.81106  0.42958  Biso   1.000  N
  N73      1.0000 0.10619  0.70243  0.43668  Biso   1.000  N
  N74      1.0000 0.10619  0.70235  0.43668  Biso   1.000  N
  C127     1.0000 0.18164  0.79384  0.36801  Biso   1.000  C
  C128     1.0000 0.18164  0.79376  0.36801  Biso   1.000  C
  C129     1.0000 0.35024  0.85534  0.44599  Biso   1.000  C
  C130     1.0000 0.35024  0.85526  0.44599  Biso   1.000  C
  C131     1.0000 0.35016  0.85534  0.44599  Biso   1.000  C
  C132     1.0000 0.35016  0.85526  0.44599  Biso   1.000  C
  C133     1.0000 0.08579  0.71774  0.37201  Biso   1.000  C
  C134     1.0000 0.08579  0.71766  0.37201  Biso   1.000  C
  C135     1.0000 0.05571  0.61585  0.46049  Biso   1.000  C
  C136     1.0000 0.05571  0.61578  0.46049  Biso   1.000  C
  N75      1.0000 0.12438  0.88787  0.33905  Biso   1.000  N
  H115     1.0000 0.22812  0.76234  0.34491  Biso   1.000  H
  H116     1.0000 0.22812  0.76226  0.34491  Biso   1.000  H
  N76      1.0000 0.35035  0.96913  0.45508  Biso   1.000  N
  H117     1.0000 0.39179  0.82162  0.48232  Biso   1.000  H
  H118     1.0000 0.38635  0.83971  0.41512  Biso   1.000  H
  H119     1.0000 0.39179  0.82154  0.48232  Biso   1.000  H
  H120     1.0000 0.38635  0.83963  0.41512  Biso   1.000  H
  N77      1.0000 0.35028  0.96913  0.45508  Biso   1.000  N
  H121     1.0000 0.38627  0.83971  0.41512  Biso   1.000  H
  H122     1.0000 0.38627  0.83963  0.41512  Biso   1.000  H
  N78      1.0000 0.99098  0.77837  0.34601  Biso   1.000  N
  H123     1.0000 0.08765  0.65061  0.35111  Biso   1.000  H
  H124     1.0000 0.08757  0.65061  0.35111  Biso   1.000  H
  H125     1.0000 0.08700  0.54880  0.46812  Biso   1.000  H
  N79      1.0000 0.95433  0.64299  0.47101  Biso   1.000  N
  C137     1.0000 0.01262  0.87518  0.32441  Biso   1.000  C
  C138     1.0000 0.17924  0.97500  0.32140  Biso   1.000  C
  C139     1.0000 0.17924  0.97492  0.32140  Biso   1.000  C
  C140     1.0000 0.17916  0.97500  0.32140  Biso   1.000  C
  C141     1.0000 0.17916  0.97492  0.32140  Biso   1.000  C
  C142     1.0000 0.33244  0.04817  0.40820  Biso   1.000  C
  C143     1.0000 0.33236  0.04817  0.40820  Biso   1.000  C
  C144     1.0000 0.37189  0.01222  0.50982  Biso   1.000  C
  C145     1.0000 0.37189  0.01214  0.50982  Biso   1.000  C
  C146     1.0000 0.88065  0.73663  0.33351  Biso   1.000  C
  C147     1.0000 0.88065  0.73655  0.33351  Biso   1.000  C
  C148     1.0000 0.85084  0.64514  0.42519  Biso   1.000  C
  C149     1.0000 0.85084  0.64506  0.42519  Biso   1.000  C
  C150     1.0000 0.93818  0.65585  0.52729  Biso   1.000  C
  O40      1.0000 0.94639  0.93811  0.29682  Biso   1.000  O
  O41      1.0000 0.94639  0.93803  0.29682  Biso   1.000  O
  H126     1.0000 0.23885  0.94810  0.30672  Biso   1.000  H
  H127     1.0000 0.23885  0.94802  0.30672  Biso   1.000  H
  H128     1.0000 0.23877  0.94810  0.30672  Biso   1.000  H
  H129     1.0000 0.23877  0.94802  0.30672  Biso   1.000  H
  N80      1.0000 0.22280  0.05118  0.36828  Biso   1.000  N
  H130     1.0000 0.12870  0.01127  0.28902  Biso   1.000  H
  H131     1.0000 0.38751  0.04166  0.38571  Biso   1.000  H
  C151     1.0000 0.34430  0.15450  0.44120  Biso   1.000  C
  H132     1.0000 0.38751  0.04174  0.38571  Biso   1.000  H
  C152     1.0000 0.34430  0.15442  0.44120  Biso   1.000  C
  N81      1.0000 0.36732  0.12173  0.50294  Biso   1.000  N
  N82      1.0000 0.36732  0.12165  0.50294  Biso   1.000  N
  O42      1.0000 0.39372  0.96540  0.55617  Biso   1.000  O
  O43      1.0000 0.39372  0.96532  0.55617  Biso   1.000  O
  N83      1.0000 0.83710  0.73353  0.38500  Biso   1.000  N
  H133     1.0000 0.83324  0.78019  0.30321  Biso   1.000  H
  H134     1.0000 0.88015  0.66545  0.31772  Biso   1.000  H
  N84      1.0000 0.83710  0.73346  0.38500  Biso   1.000  N
  H135     1.0000 0.88015  0.66537  0.31772  Biso   1.000  H
  H136     1.0000 0.83735  0.57761  0.40372  Biso   1.000  H
  C153     1.0000 0.76434  0.66545  0.46089  Biso   1.000  C
  C154     1.0000 0.76434  0.66537  0.46089  Biso   1.000  C
  N85      1.0000 0.82901  0.67251  0.52148  Biso   1.000  N
  O44      1.0000 0.01041  0.65053  0.57342  Biso   1.000  O
  O45      1.0000 0.01041  0.65045  0.57342  Biso   1.000  O
  C155     1.0000 0.17424  0.14593  0.37329  Biso   1.000  C
  C156     1.0000 0.17424  0.14585  0.37329  Biso   1.000  C
  N86      1.0000 0.23961  0.20521  0.41632  Biso   1.000  N
  N87      1.0000 0.23961  0.20513  0.41632  Biso   1.000  N
  H137     1.0000 0.40454  0.19656  0.43388  Biso   1.000  H
  H138     1.0000 0.40446  0.19656  0.43388  Biso   1.000  H
  C157     1.0000 0.38405  0.19457  0.55262  Biso   1.000  C
  C158     1.0000 0.75531  0.79821  0.39081  Biso   1.000  C
  C159     1.0000 0.75531  0.79829  0.39081  Biso   1.000  C
  N88      1.0000 0.71574  0.76639  0.43632  Biso   1.000  N
  N89      1.0000 0.71566  0.76639  0.43632  Biso   1.000  N
  H139     1.0000 0.71001  0.60840  0.45539  Biso   1.000  H
  C160     1.0000 0.78540  0.68632  0.57218  Biso   1.000  C
  C161     1.0000 0.78540  0.68640  0.57218  Biso   1.000  C
  O46      1.0000 0.08408  0.17323  0.34353  Biso   1.000  O
  O47      1.0000 0.08408  0.17315  0.34353  Biso   1.000  O
  C162     1.0000 0.21460  0.31360  0.42780  Biso   1.000  C
  C163     1.0000 0.21460  0.31352  0.42780  Biso   1.000  C
  N90      1.0000 0.28434  0.23361  0.56366  Biso   1.000  N
  H140     1.0000 0.42660  0.25448  0.54512  Biso   1.000  H
  H141     1.0000 0.42634  0.15886  0.58802  Biso   1.000  H
  N91      1.0000 0.28434  0.23353  0.56366  Biso   1.000  N
  O48      1.0000 0.72163  0.87613  0.35888  Biso   1.000  O
  C164     1.0000 0.61605  0.80543  0.44741  Biso   1.000  C
  C165     1.0000 0.61605  0.80535  0.44741  Biso   1.000  C
  N92      1.0000 0.76039  0.79479  0.58367  Biso   1.000  N
  H142     1.0000 0.71927  0.64434  0.56628  Biso   1.000  H
  H143     1.0000 0.83790  0.65886  0.60700  Biso   1.000  H
  N93      1.0000 0.17099  0.32749  0.47850  Biso   1.000  N
  H144     1.0000 0.28073  0.35558  0.43370  Biso   1.000  H
  H145     1.0000 0.16210  0.34106  0.39299  Biso   1.000  H
  C166     1.0000 0.23574  0.33455  0.53909  Biso   1.000  C
  C167     1.0000 0.24472  0.20171  0.60922  Biso   1.000  C
  C168     1.0000 0.24472  0.20163  0.60922  Biso   1.000  C
  N94      1.0000 0.63268  0.87827  0.49704  Biso   1.000  N
  H146     1.0000 0.57342  0.74552  0.45491  Biso   1.000  H
  H147     1.0000 0.57369  0.84114  0.41201  Biso   1.000  H
  H148     1.0000 0.57342  0.74544  0.45491  Biso   1.000  H
  H149     1.0000 0.57369  0.84106  0.41201  Biso   1.000  H
  C169     1.0000 0.65570  0.84550  0.55879  Biso   1.000  C
  C170     1.0000 0.82584  0.85407  0.62669  Biso   1.000  C
  C171     1.0000 0.06182  0.34407  0.47269  Biso   1.000  C
  C172     1.0000 0.14924  0.35486  0.57480  Biso   1.000  C
  H150     1.0000 0.28999  0.39160  0.54459  Biso   1.000  H
  H151     1.0000 0.28999  0.39153  0.54459  Biso   1.000  H
  O49      1.0000 0.27839  0.12379  0.64115  Biso   1.000  O
  N95      1.0000 0.16292  0.26647  0.61503  Biso   1.000  N
  C173     1.0000 0.62813  0.98770  0.49021  Biso   1.000  C
  C174     1.0000 0.62813  0.98778  0.49021  Biso   1.000  C
  C175     1.0000 0.66764  0.95183  0.59179  Biso   1.000  C
  H152     1.0000 0.59554  0.80336  0.56610  Biso   1.000  H
  C176     1.0000 0.66764  0.95175  0.59179  Biso   1.000  C
  N96      1.0000 0.77720  0.94882  0.63171  Biso   1.000  N
  N97      1.0000 0.77720  0.94874  0.63171  Biso   1.000  N
  O50      1.0000 0.91592  0.82669  0.65646  Biso   1.000  O
  O51      1.0000 0.91592  0.82677  0.65646  Biso   1.000  O
  O52      1.0000 0.98959  0.34947  0.42656  Biso   1.000  O
  N98      1.0000 0.04569  0.35701  0.52902  Biso   1.000  N
  N99      1.0000 0.04569  0.35693  0.52902  Biso   1.000  N
  H153     1.0000 0.16275  0.42239  0.59631  Biso   1.000  H
  H154     1.0000 0.16275  0.42231  0.59631  Biso   1.000  H
  C177     1.0000 0.11945  0.26337  0.66652  Biso   1.000  C
  O53      1.0000 0.60635  0.03460  0.44382  Biso   1.000  O
  N100     1.0000 0.64975  0.03079  0.54495  Biso   1.000  N
  O54      1.0000 0.60627  0.03460  0.44382  Biso   1.000  O
  H155     1.0000 0.61251  0.95834  0.61432  Biso   1.000  H
  H156     1.0000 0.61251  0.95826  0.61432  Biso   1.000  H
  C178     1.0000 0.82084  0.02500  0.67859  Biso   1.000  C
  C179     1.0000 0.94429  0.38415  0.53949  Biso   1.000  C
  N101     1.0000 0.00902  0.22155  0.65397  Biso   1.000  N
  H157     1.0000 0.16686  0.21981  0.69682  Biso   1.000  H
  H158     1.0000 0.11995  0.33455  0.68231  Biso   1.000  H
  H159     1.0000 0.16686  0.21973  0.69682  Biso   1.000  H
  H160     1.0000 0.16678  0.21981  0.69682  Biso   1.000  H
  H161     1.0000 0.16678  0.21973  0.69682  Biso   1.000  H
  C180     1.0000 0.64984  0.14466  0.55400  Biso   1.000  C
  H162     1.0000 0.87132  0.98873  0.71101  Biso   1.000  H
  H163     1.0000 0.87132  0.98865  0.71101  Biso   1.000  H
  N102     1.0000 0.87562  0.11213  0.66094  Biso   1.000  N
  H164     1.0000 0.76125  0.05190  0.69331  Biso   1.000  H
  N103     1.0000 0.87562  0.11205  0.66094  Biso   1.000  N
  N104     1.0000 0.89383  0.29757  0.56335  Biso   1.000  N
  H165     1.0000 0.91302  0.45120  0.53191  Biso   1.000  H
  H166     1.0000 0.91302  0.45112  0.53191  Biso   1.000  H
  C181     1.0000 0.91423  0.28226  0.62802  Biso   1.000  C
  C182     1.0000 0.98740  0.12482  0.67562  Biso   1.000  C
  C183     1.0000 0.98740  0.12474  0.67562  Biso   1.000  C
  N105     1.0000 0.75858  0.18886  0.57041  Biso   1.000  N
  H167     1.0000 0.60823  0.17838  0.51771  Biso   1.000  H
  H168     1.0000 0.61375  0.16029  0.58491  Biso   1.000  H
  C184     1.0000 0.81846  0.20616  0.63202  Biso   1.000  C
  C185     1.0000 0.81838  0.20616  0.63202  Biso   1.000  C
  C186     1.0000 0.79912  0.24996  0.53248  Biso   1.000  C
  H169     1.0000 0.91245  0.34939  0.64892  Biso   1.000  H
  H170     1.0000 0.91245  0.34931  0.64892  Biso   1.000  H
  O55      1.0000 0.05361  0.06189  0.70316  Biso   1.000  O
  H171     1.0000 0.77190  0.23766  0.65512  Biso   1.000  H
  O56      1.0000 0.75754  0.25790  0.47824  Biso   1.000  O
  O57      1.0000 0.75754  0.25782  0.47824  Biso   1.000  O
  O58      1.0000 0.24248  0.74210  0.52179  Biso   1.000  O
  C187     1.0000 0.20088  0.75004  0.46750  Biso   1.000  C
  C188     1.0000 0.20088  0.74996  0.46750  Biso   1.000  C
  N106     1.0000 0.24142  0.81114  0.42958  Biso   1.000  N
  N107     1.0000 0.24142  0.81106  0.42958  Biso   1.000  N
  N108     1.0000 0.10619  0.70243  0.43668  Biso   1.000  N
  N109     1.0000 0.10619  0.70235  0.43668  Biso   1.000  N
  C189     1.0000 0.18164  0.79384  0.36801  Biso   1.000  C
  C190     1.0000 0.18164  0.79376  0.36801  Biso   1.000  C
  C191     1.0000 0.35024  0.85534  0.44599  Biso   1.000  C
  C192     1.0000 0.35024  0.85526  0.44599  Biso   1.000  C
  C193     1.0000 0.35016  0.85534  0.44599  Biso   1.000  C
  C194     1.0000 0.35016  0.85526  0.44599  Biso   1.000  C
  C195     1.0000 0.08579  0.71774  0.37201  Biso   1.000  C
  C196     1.0000 0.08579  0.71766  0.37201  Biso   1.000  C
  C197     1.0000 0.05571  0.61585  0.46049  Biso   1.000  C
  C198     1.0000 0.05571  0.61578  0.46049  Biso   1.000  C
  N110     1.0000 0.12438  0.88787  0.33905  Biso   1.000  N
  H172     1.0000 0.22812  0.76234  0.34491  Biso   1.000  H
  H173     1.0000 0.22812  0.76226  0.34491  Biso   1.000  H
  N111     1.0000 0.35035  0.96913  0.45508  Biso   1.000  N
  H174     1.0000 0.39179  0.82162  0.48232  Biso   1.000  H
  H175     1.0000 0.38635  0.83971  0.41512  Biso   1.000  H
  H176     1.0000 0.39179  0.82154  0.48232  Biso   1.000  H
  H177     1.0000 0.38635  0.83963  0.41512  Biso   1.000  H
  N112     1.0000 0.35028  0.96913  0.45508  Biso   1.000  N
  H178     1.0000 0.38627  0.83971  0.41512  Biso   1.000  H
  H179     1.0000 0.38627  0.83963  0.41512  Biso   1.000  H
  N113     1.0000 0.99098  0.77837  0.34601  Biso   1.000  N
  H180     1.0000 0.08765  0.65061  0.35111  Biso   1.000  H
  H181     1.0000 0.08757  0.65061  0.35111  Biso   1.000  H
  H182     1.0000 0.08700  0.54880  0.46812  Biso   1.000  H
  N114     1.0000 0.95433  0.64299  0.47101  Biso   1.000  N
  C199     1.0000 0.01262  0.87518  0.32441  Biso   1.000  C
  C200     1.0000 0.17924  0.97500  0.32140  Biso   1.000  C
  C201     1.0000 0.17924  0.97492  0.32140  Biso   1.000  C
  C202     1.0000 0.17916  0.97500  0.32140  Biso   1.000  C
  C203     1.0000 0.17916  0.97492  0.32140  Biso   1.000  C
  C204     1.0000 0.33244  0.04817  0.40820  Biso   1.000  C
  C205     1.0000 0.33236  0.04817  0.40820  Biso   1.000  C
  C206     1.0000 0.37189  0.01222  0.50982  Biso   1.000  C
  C207     1.0000 0.37189  0.01214  0.50982  Biso   1.000  C
  C208     1.0000 0.88065  0.73663  0.33351  Biso   1.000  C
  C209     1.0000 0.88065  0.73655  0.33351  Biso   1.000  C
  C210     1.0000 0.85084  0.64514  0.42519  Biso   1.000  C
  C211     1.0000 0.85084  0.64506  0.42519  Biso   1.000  C
  C212     1.0000 0.93818  0.65585  0.52729  Biso   1.000  C
  O59      1.0000 0.94639  0.93811  0.29682  Biso   1.000  O
  O60      1.0000 0.94639  0.93803  0.29682  Biso   1.000  O
  H183     1.0000 0.23885  0.94810  0.30672  Biso   1.000  H
  H184     1.0000 0.23885  0.94802  0.30672  Biso   1.000  H
  H185     1.0000 0.23877  0.94810  0.30672  Biso   1.000  H
  H186     1.0000 0.23877  0.94802  0.30672  Biso   1.000  H
  N115     1.0000 0.22280  0.05118  0.36828  Biso   1.000  N
  H187     1.0000 0.12870  0.01127  0.28902  Biso   1.000  H
  H188     1.0000 0.38751  0.04166  0.38571  Biso   1.000  H
  C213     1.0000 0.34430  0.15450  0.44120  Biso   1.000  C
  H189     1.0000 0.38751  0.04174  0.38571  Biso   1.000  H
  C214     1.0000 0.34430  0.15442  0.44120  Biso   1.000  C
  N116     1.0000 0.36732  0.12173  0.50294  Biso   1.000  N
  N117     1.0000 0.36732  0.12165  0.50294  Biso   1.000  N
  O61      1.0000 0.39372  0.96540  0.55617  Biso   1.000  O
  O62      1.0000 0.39372  0.96532  0.55617  Biso   1.000  O
  N118     1.0000 0.83710  0.73353  0.38500  Biso   1.000  N
  H190     1.0000 0.83324  0.78019  0.30321  Biso   1.000  H
  H191     1.0000 0.88015  0.66545  0.31772  Biso   1.000  H
  N119     1.0000 0.83710  0.73346  0.38500  Biso   1.000  N
  H192     1.0000 0.88015  0.66537  0.31772  Biso   1.000  H
  H193     1.0000 0.83735  0.57761  0.40372  Biso   1.000  H
  C215     1.0000 0.76434  0.66545  0.46089  Biso   1.000  C
  C216     1.0000 0.76434  0.66537  0.46089  Biso   1.000  C
  N120     1.0000 0.82901  0.67251  0.52148  Biso   1.000  N
  O63      1.0000 0.01041  0.65053  0.57342  Biso   1.000  O
  O64      1.0000 0.01041  0.65045  0.57342  Biso   1.000  O
  C217     1.0000 0.17424  0.14593  0.37329  Biso   1.000  C
  C218     1.0000 0.17424  0.14585  0.37329  Biso   1.000  C
  N121     1.0000 0.23961  0.20521  0.41632  Biso   1.000  N
  N122     1.0000 0.23961  0.20513  0.41632  Biso   1.000  N
  H194     1.0000 0.40454  0.19656  0.43388  Biso   1.000  H
  H195     1.0000 0.40446  0.19656  0.43388  Biso   1.000  H
  C219     1.0000 0.38405  0.19457  0.55262  Biso   1.000  C
  C220     1.0000 0.75531  0.79821  0.39081  Biso   1.000  C
  C221     1.0000 0.75531  0.79829  0.39081  Biso   1.000  C
  N123     1.0000 0.71574  0.76639  0.43632  Biso   1.000  N
  N124     1.0000 0.71566  0.76639  0.43632  Biso   1.000  N
  H196     1.0000 0.71001  0.60840  0.45539  Biso   1.000  H
  C222     1.0000 0.78540  0.68632  0.57218  Biso   1.000  C
  C223     1.0000 0.78540  0.68640  0.57218  Biso   1.000  C
  O65      1.0000 0.08408  0.17323  0.34353  Biso   1.000  O
  O66      1.0000 0.08408  0.17315  0.34353  Biso   1.000  O
  C224     1.0000 0.21460  0.31360  0.42780  Biso   1.000  C
  C225     1.0000 0.21460  0.31352  0.42780  Biso   1.000  C
  N125     1.0000 0.28434  0.23361  0.56366  Biso   1.000  N
  H197     1.0000 0.42660  0.25448  0.54512  Biso   1.000  H
  H198     1.0000 0.42634  0.15886  0.58802  Biso   1.000  H
  N126     1.0000 0.28434  0.23353  0.56366  Biso   1.000  N
  O67      1.0000 0.72163  0.87613  0.35888  Biso   1.000  O
  C226     1.0000 0.61605  0.80543  0.44741  Biso   1.000  C
  C227     1.0000 0.61605  0.80535  0.44741  Biso   1.000  C
  N127     1.0000 0.76039  0.79479  0.58367  Biso   1.000  N
  H199     1.0000 0.71927  0.64434  0.56628  Biso   1.000  H
  H200     1.0000 0.83790  0.65886  0.60700  Biso   1.000  H
  N128     1.0000 0.17099  0.32749  0.47850  Biso   1.000  N
  H201     1.0000 0.28073  0.35558  0.43370  Biso   1.000  H
  H202     1.0000 0.16210  0.34106  0.39299  Biso   1.000  H
  C228     1.0000 0.23574  0.33455  0.53909  Biso   1.000  C
  C229     1.0000 0.24472  0.20171  0.60922  Biso   1.000  C
  C230     1.0000 0.24472  0.20163  0.60922  Biso   1.000  C
  N129     1.0000 0.63268  0.87827  0.49704  Biso   1.000  N
  H203     1.0000 0.57342  0.74552  0.45491  Biso   1.000  H
  H204     1.0000 0.57369  0.84114  0.41201  Biso   1.000  H
  H205     1.0000 0.57342  0.74544  0.45491  Biso   1.000  H
  H206     1.0000 0.57369  0.84106  0.41201  Biso   1.000  H
  C231     1.0000 0.65570  0.84550  0.55879  Biso   1.000  C
  C232     1.0000 0.82584  0.85407  0.62669  Biso   1.000  C
  C233     1.0000 0.06182  0.34407  0.47269  Biso   1.000  C
  C234     1.0000 0.14924  0.35486  0.57480  Biso   1.000  C
  H207     1.0000 0.28999  0.39160  0.54459  Biso   1.000  H
  H208     1.0000 0.28999  0.39153  0.54459  Biso   1.000  H
  O68      1.0000 0.27839  0.12379  0.64115  Biso   1.000  O
  N130     1.0000 0.16292  0.26647  0.61503  Biso   1.000  N
  C235     1.0000 0.62813  0.98770  0.49021  Biso   1.000  C
  C236     1.0000 0.62813  0.98778  0.49021  Biso   1.000  C
  C237     1.0000 0.66764  0.95183  0.59179  Biso   1.000  C
  H209     1.0000 0.59554  0.80336  0.56610  Biso   1.000  H
  C238     1.0000 0.66764  0.95175  0.59179  Biso   1.000  C
  N131     1.0000 0.77720  0.94882  0.63171  Biso   1.000  N
  N132     1.0000 0.77720  0.94874  0.63171  Biso   1.000  N
  O69      1.0000 0.91592  0.82669  0.65646  Biso   1.000  O
  O70      1.0000 0.91592  0.82677  0.65646  Biso   1.000  O
  O71      1.0000 0.98959  0.34947  0.42656  Biso   1.000  O
  N133     1.0000 0.04569  0.35701  0.52902  Biso   1.000  N
  N134     1.0000 0.04569  0.35693  0.52902  Biso   1.000  N
  H210     1.0000 0.16275  0.42239  0.59631  Biso   1.000  H
  H211     1.0000 0.16275  0.42231  0.59631  Biso   1.000  H
  C239     1.0000 0.11945  0.26337  0.66652  Biso   1.000  C
  O72      1.0000 0.60635  0.03460  0.44382  Biso   1.000  O
  N135     1.0000 0.64975  0.03079  0.54495  Biso   1.000  N
  O73      1.0000 0.60627  0.03460  0.44382  Biso   1.000  O
  H212     1.0000 0.61251  0.95834  0.61432  Biso   1.000  H
  H213     1.0000 0.61251  0.95826  0.61432  Biso   1.000  H
  C240     1.0000 0.82084  0.02500  0.67859  Biso   1.000  C
  C241     1.0000 0.94429  0.38415  0.53949  Biso   1.000  C
  N136     1.0000 0.00902  0.22155  0.65397  Biso   1.000  N
  H214     1.0000 0.16686  0.21981  0.69682  Biso   1.000  H
  H215     1.0000 0.11995  0.33455  0.68231  Biso   1.000  H
  H216     1.0000 0.16686  0.21973  0.69682  Biso   1.000  H
  H217     1.0000 0.16678  0.21981  0.69682  Biso   1.000  H
  H218     1.0000 0.16678  0.21973  0.69682  Biso   1.000  H
  C242     1.0000 0.64984  0.14466  0.55400  Biso   1.000  C
  H219     1.0000 0.87132  0.98873  0.71101  Biso   1.000  H
  H220     1.0000 0.87132  0.98865  0.71101  Biso   1.000  H
  N137     1.0000 0.87562  0.11213  0.66094  Biso   1.000  N
  H221     1.0000 0.76125  0.05190  0.69331  Biso   1.000  H
  N138     1.0000 0.87562  0.11205  0.66094  Biso   1.000  N
  N139     1.0000 0.89383  0.29757  0.56335  Biso   1.000  N
  H222     1.0000 0.91302  0.45120  0.53191  Biso   1.000  H
  H223     1.0000 0.91302  0.45112  0.53191  Biso   1.000  H
  C243     1.0000 0.91423  0.28226  0.62802  Biso   1.000  C
  C244     1.0000 0.98740  0.12482  0.67562  Biso   1.000  C
  C245     1.0000 0.98740  0.12474  0.67562  Biso   1.000  C
  N140     1.0000 0.75858  0.18886  0.57041  Biso   1.000  N
  H224     1.0000 0.60823  0.17838  0.51771  Biso   1.000  H
  H225     1.0000 0.61375  0.16029  0.58491  Biso   1.000  H
  C246     1.0000 0.81846  0.20616  0.63202  Biso   1.000  C
  C247     1.0000 0.81838  0.20616  0.63202  Biso   1.000  C
  C248     1.0000 0.79912  0.24996  0.53248  Biso   1.000  C
  H226     1.0000 0.91245  0.34939  0.64892  Biso   1.000  H
  H227     1.0000 0.91245  0.34931  0.64892  Biso   1.000  H
  O74      1.0000 0.05361  0.06189  0.70316  Biso   1.000  O
  H228     1.0000 0.77190  0.23766  0.65512  Biso   1.000  H
  O75      1.0000 0.75754  0.25790  0.47824  Biso   1.000  O
  O76      1.0000 0.75754  0.25782  0.47824  Biso   1.000  O
  C249     1.0000 0.38059  0.76337  0.83348  Biso   1.000  C
  N141     1.0000 0.49101  0.72155  0.84598  Biso   1.000  N
  N142     1.0000 0.49103  0.72155  0.84603  Biso   1.000  N
  N143     1.0000 0.33713  0.76647  0.88497  Biso   1.000  N
  H229     1.0000 0.33319  0.71981  0.80318  Biso   1.000  H
  H230     1.0000 0.38010  0.83455  0.81769  Biso   1.000  H
  C250     1.0000 0.51257  0.62474  0.82438  Biso   1.000  C
  C251     1.0000 0.51265  0.62474  0.82438  Biso   1.000  C
  C252     1.0000 0.58582  0.78226  0.87198  Biso   1.000  C
  C253     1.0000 0.38062  0.76337  0.83352  Biso   1.000  C
  C254     1.0000 0.58584  0.78226  0.87202  Biso   1.000  C
  C255     1.0000 0.25526  0.70163  0.89078  Biso   1.000  C
  C256     1.0000 0.35081  0.85486  0.92520  Biso   1.000  C
  C257     1.0000 0.25533  0.70163  0.89078  Biso   1.000  C
  O77      1.0000 0.44634  0.56189  0.79679  Biso   1.000  O
  N144     1.0000 0.62443  0.61205  0.83907  Biso   1.000  N
  O78      1.0000 0.44644  0.56189  0.79684  Biso   1.000  O
  C258     1.0000 0.68159  0.70616  0.86798  Biso   1.000  C
  N145     1.0000 0.60622  0.79757  0.93665  Biso   1.000  N
  H231     1.0000 0.58760  0.84939  0.85109  Biso   1.000  H
  O79      1.0000 0.22158  0.62379  0.85885  Biso   1.000  O
  N146     1.0000 0.21571  0.73353  0.93634  Biso   1.000  N
  O80      1.0000 0.22166  0.62379  0.85885  Biso   1.000  O
  H232     1.0000 0.33730  0.92239  0.90369  Biso   1.000  H
  C259     1.0000 0.26429  0.83455  0.96086  Biso   1.000  C
  N147     1.0000 0.45428  0.85693  0.97098  Biso   1.000  N
  C260     1.0000 0.26431  0.83455  0.96091  Biso   1.000  C
  N148     1.0000 0.45430  0.85693  0.97102  Biso   1.000  N
  C261     1.0000 0.67919  0.52500  0.82137  Biso   1.000  C
  C262     1.0000 0.67921  0.52500  0.82141  Biso   1.000  C
  H233     1.0000 0.72807  0.73766  0.84488  Biso   1.000  H
  N149     1.0000 0.74139  0.68886  0.92959  Biso   1.000  N
  H234     1.0000 0.72817  0.73766  0.84492  Biso   1.000  H
  C263     1.0000 0.70091  0.74996  0.96747  Biso   1.000  C
  C264     1.0000 0.55566  0.88415  0.96047  Biso   1.000  C
  C265     1.0000 0.70093  0.74996  0.96752  Biso   1.000  C
  C266     1.0000 0.55576  0.88415  0.96051  Biso   1.000  C
  C267     1.0000 0.11600  0.69457  0.94738  Biso   1.000  C
  C268     1.0000 0.11602  0.69457  0.94742  Biso   1.000  C
  H235     1.0000 0.20996  0.89153  0.95536  Biso   1.000  H
  H236     1.0000 0.21006  0.89153  0.95541  Biso   1.000  H
  N150     1.0000 0.32898  0.82749  0.02150  Biso   1.000  N
  N151     1.0000 0.32906  0.82749  0.02150  Biso   1.000  N
  C269     1.0000 0.43821  0.84407  0.02726  Biso   1.000  C
  C270     1.0000 0.43823  0.84407  0.02731  Biso   1.000  C
  N152     1.0000 0.72275  0.44882  0.86825  Biso   1.000  N
  H237     1.0000 0.73880  0.55190  0.80669  Biso   1.000  H
  H238     1.0000 0.62865  0.48865  0.78899  Biso   1.000  H
  N153     1.0000 0.72285  0.44882  0.86830  Biso   1.000  N
  H239     1.0000 0.62873  0.48865  0.78899  Biso   1.000  H
  C271     1.0000 0.85021  0.64466  0.94601  Biso   1.000  C
  O81      1.0000 0.74251  0.75790  0.02176  Biso   1.000  O
  H240     1.0000 0.58703  0.95120  0.96809  Biso   1.000  H
  N154     1.0000 0.13273  0.62165  0.99706  Biso   1.000  N
  H241     1.0000 0.07337  0.75448  0.95488  Biso   1.000  H
  H242     1.0000 0.07371  0.65886  0.91199  Biso   1.000  H
  H243     1.0000 0.07347  0.75448  0.95492  Biso   1.000  H
  C272     1.0000 0.28537  0.81360  0.07220  Biso   1.000  C
  C273     1.0000 0.28545  0.81360  0.07220  Biso   1.000  C
  O82      1.0000 0.51038  0.84947  0.07344  Biso   1.000  O
  O83      1.0000 0.51046  0.84947  0.07344  Biso   1.000  O
  C274     1.0000 0.83239  0.45175  0.90817  Biso   1.000  C
  C275     1.0000 0.67419  0.35407  0.87326  Biso   1.000  C
  C276     1.0000 0.83241  0.45175  0.90821  Biso   1.000  C
  C277     1.0000 0.67421  0.35407  0.87331  Biso   1.000  C
  N155     1.0000 0.85030  0.53079  0.95505  Biso   1.000  N
  H244     1.0000 0.89182  0.67838  0.98229  Biso   1.000  H
  H245     1.0000 0.88630  0.66029  0.91509  Biso   1.000  H
  C278     1.0000 0.12808  0.51214  0.99018  Biso   1.000  C
  C279     1.0000 0.15575  0.65450  0.05880  Biso   1.000  C
  N156     1.0000 0.26044  0.70521  0.08368  Biso   1.000  N
  H246     1.0000 0.21932  0.85558  0.06630  Biso   1.000  H
  H247     1.0000 0.33793  0.84106  0.10697  Biso   1.000  H
  H248     1.0000 0.33795  0.84106  0.10701  Biso   1.000  H
  H249     1.0000 0.88746  0.45826  0.88568  Biso   1.000  H
  C280     1.0000 0.84425  0.34550  0.94117  Biso   1.000  C
  H250     1.0000 0.88754  0.45826  0.88568  Biso   1.000  H
  C281     1.0000 0.84435  0.34550  0.94122  Biso   1.000  C
  O84      1.0000 0.58413  0.32677  0.84355  Biso   1.000  O
  N157     1.0000 0.73956  0.29479  0.91629  Biso   1.000  N
  N158     1.0000 0.73966  0.29479  0.91633  Biso   1.000  N
  C282     1.0000 0.87192  0.48778  0.00979  Biso   1.000  C
  O85      1.0000 0.10630  0.46540  0.94379  Biso   1.000  O
  O86      1.0000 0.10632  0.46540  0.94383  Biso   1.000  O
  N159     1.0000 0.14969  0.46921  0.04492  Biso   1.000  N
  C283     1.0000 0.16761  0.54817  0.09180  Biso   1.000  C
  H251     1.0000 0.09549  0.69656  0.06607  Biso   1.000  H
  H252     1.0000 0.09551  0.69656  0.06612  Biso   1.000  H
  C284     1.0000 0.32581  0.64585  0.12671  Biso   1.000  C
  H253     1.0000 0.90451  0.30336  0.93390  Biso   1.000  H
  N160     1.0000 0.86727  0.37827  0.00291  Biso   1.000  N
  N161     1.0000 0.86737  0.37827  0.00296  Biso   1.000  N
  C285     1.0000 0.71455  0.18640  0.92778  Biso   1.000  C
  C286     1.0000 0.71465  0.18640  0.92782  Biso   1.000  C
  O87      1.0000 0.89370  0.53460  0.05618  Biso   1.000  O
  C287     1.0000 0.14979  0.35526  0.05397  Biso   1.000  C
  C288     1.0000 0.14981  0.35526  0.05401  Biso   1.000  C
  N162     1.0000 0.27717  0.55118  0.13172  Biso   1.000  N
  H254     1.0000 0.11254  0.54166  0.11429  Biso   1.000  H
  N163     1.0000 0.27725  0.55118  0.13172  Biso   1.000  N
  O88      1.0000 0.41587  0.67315  0.15643  Biso   1.000  O
  O89      1.0000 0.41597  0.67315  0.15647  Biso   1.000  O
  C289     1.0000 0.88400  0.30535  0.05259  Biso   1.000  C
  H255     1.0000 0.78068  0.14442  0.93367  Biso   1.000  H
  H256     1.0000 0.66207  0.15886  0.89300  Biso   1.000  H
  N164     1.0000 0.67101  0.17251  0.97847  Biso   1.000  N
  H257     1.0000 0.78070  0.14442  0.93372  Biso   1.000  H
  H258     1.0000 0.66215  0.15886  0.89300  Biso   1.000  H
  N165     1.0000 0.67104  0.17251  0.97852  Biso   1.000  N
  N166     1.0000 0.25861  0.31106  0.07038  Biso   1.000  N
  H259     1.0000 0.10818  0.32162  0.01768  Biso   1.000  H
  H260     1.0000 0.11370  0.33971  0.08488  Biso   1.000  H
  N167     1.0000 0.25863  0.31106  0.07042  Biso   1.000  N
  H261     1.0000 0.10826  0.32162  0.01768  Biso   1.000  H
  H262     1.0000 0.11372  0.33971  0.08493  Biso   1.000  H
  C290     1.0000 0.32081  0.47500  0.17860  Biso   1.000  C
  H263     1.0000 0.92663  0.24552  0.04509  Biso   1.000  H
  H264     1.0000 0.92628  0.34106  0.08799  Biso   1.000  H
  N168     1.0000 0.78429  0.26639  0.06364  Biso   1.000  N
  N169     1.0000 0.78431  0.26639  0.06368  Biso   1.000  N
  C291     1.0000 0.56179  0.15593  0.97271  Biso   1.000  C
  C292     1.0000 0.73571  0.16537  0.03911  Biso   1.000  C
  C293     1.0000 0.31841  0.29376  0.13199  Biso   1.000  C
  C294     1.0000 0.29909  0.24996  0.03250  Biso   1.000  C
  C295     1.0000 0.29917  0.24996  0.03250  Biso   1.000  C
  N170     1.0000 0.37557  0.38787  0.16091  Biso   1.000  N
  H265     1.0000 0.26120  0.44810  0.19329  Biso   1.000  H
  H266     1.0000 0.37127  0.51127  0.21098  Biso   1.000  H
  N171     1.0000 0.37567  0.38787  0.16095  Biso   1.000  N
  H267     1.0000 0.37137  0.51127  0.21103  Biso   1.000  H
  C296     1.0000 0.74466  0.29829  0.10919  Biso   1.000  C
  C297     1.0000 0.74474  0.29829  0.10919  Biso   1.000  C
  O90      1.0000 0.48962  0.15053  0.92653  Biso   1.000  O
  O91      1.0000 0.48964  0.15053  0.92658  Biso   1.000  O
  N172     1.0000 0.54572  0.14299  0.02899  Biso   1.000  N
  C298     1.0000 0.64919  0.14506  0.07477  Biso   1.000  C
  H268     1.0000 0.79004  0.10840  0.04461  Biso   1.000  H
  C299     1.0000 0.64921  0.14506  0.07481  Biso   1.000  C
  C300     1.0000 0.41418  0.21766  0.12799  Biso   1.000  C
  C301     1.0000 0.41426  0.21766  0.12799  Biso   1.000  C
  H269     1.0000 0.27193  0.26226  0.15510  Biso   1.000  H
  N173     1.0000 0.39378  0.20243  0.06332  Biso   1.000  N
  N174     1.0000 0.39386  0.20243  0.06332  Biso   1.000  N
  O92      1.0000 0.25749  0.24210  0.97821  Biso   1.000  O
  C302     1.0000 0.48743  0.37518  0.17559  Biso   1.000  C
  O93      1.0000 0.77842  0.37621  0.14112  Biso   1.000  O
  N175     1.0000 0.66287  0.23346  0.11500  Biso   1.000  N
  N176     1.0000 0.66295  0.23346  0.11500  Biso   1.000  N
  C303     1.0000 0.44434  0.11578  0.03951  Biso   1.000  C
  H270     1.0000 0.66270  0.07761  0.09628  Biso   1.000  H
  H271     1.0000 0.66272  0.07761  0.09632  Biso   1.000  H
  N177     1.0000 0.50899  0.27837  0.15399  Biso   1.000  N
  N178     1.0000 0.50907  0.27837  0.15399  Biso   1.000  N
  H272     1.0000 0.41240  0.15061  0.14889  Biso   1.000  H
  O94      1.0000 0.55358  0.43811  0.20318  Biso   1.000  O
  O95      1.0000 0.55366  0.43811  0.20318  Biso   1.000  O
  C304     1.0000 0.61940  0.23663  0.16649  Biso   1.000  C
  H273     1.0000 0.41297  0.04880  0.03188  Biso   1.000  H
  H274     1.0000 0.41307  0.04880  0.03192  Biso   1.000  H
  H275     1.0000 0.66681  0.28019  0.19679  Biso   1.000  H
  H276     1.0000 0.61990  0.16537  0.18228  Biso   1.000  H
  C305     1.0000 0.38059  0.76337  0.83348  Biso   1.000  C
  N179     1.0000 0.49101  0.72155  0.84598  Biso   1.000  N
  N180     1.0000 0.49103  0.72155  0.84603  Biso   1.000  N
  N181     1.0000 0.33713  0.76647  0.88497  Biso   1.000  N
  H277     1.0000 0.33319  0.71981  0.80318  Biso   1.000  H
  H278     1.0000 0.38010  0.83455  0.81769  Biso   1.000  H
  C306     1.0000 0.51257  0.62474  0.82438  Biso   1.000  C
  C307     1.0000 0.51265  0.62474  0.82438  Biso   1.000  C
  C308     1.0000 0.58582  0.78226  0.87198  Biso   1.000  C
  C309     1.0000 0.58584  0.78226  0.87202  Biso   1.000  C
  C310     1.0000 0.38062  0.76337  0.83352  Biso   1.000  C
  C311     1.0000 0.35081  0.85486  0.92520  Biso   1.000  C
  C312     1.0000 0.25526  0.70163  0.89078  Biso   1.000  C
  C313     1.0000 0.25533  0.70163  0.89078  Biso   1.000  C
  N182     1.0000 0.62443  0.61205  0.83907  Biso   1.000  N
  O96      1.0000 0.44634  0.56189  0.79679  Biso   1.000  O
  O97      1.0000 0.44644  0.56189  0.79684  Biso   1.000  O
  C314     1.0000 0.68159  0.70616  0.86798  Biso   1.000  C
  N183     1.0000 0.60622  0.79757  0.93665  Biso   1.000  N
  H279     1.0000 0.58760  0.84939  0.85109  Biso   1.000  H
  N184     1.0000 0.45428  0.85693  0.97098  Biso   1.000  N
  N185     1.0000 0.45430  0.85693  0.97102  Biso   1.000  N
  H280     1.0000 0.33730  0.92239  0.90369  Biso   1.000  H
  C315     1.0000 0.26429  0.83455  0.96086  Biso   1.000  C
  C316     1.0000 0.26431  0.83455  0.96091  Biso   1.000  C
  N186     1.0000 0.21571  0.73353  0.93634  Biso   1.000  N
  O98      1.0000 0.22158  0.62379  0.85885  Biso   1.000  O
  O99      1.0000 0.22166  0.62379  0.85885  Biso   1.000  O
  C317     1.0000 0.67919  0.52500  0.82137  Biso   1.000  C
  C318     1.0000 0.67921  0.52500  0.82141  Biso   1.000  C
  N187     1.0000 0.74139  0.68886  0.92959  Biso   1.000  N
  H281     1.0000 0.72807  0.73766  0.84488  Biso   1.000  H
  H282     1.0000 0.72817  0.73766  0.84492  Biso   1.000  H
  C319     1.0000 0.70091  0.74996  0.96747  Biso   1.000  C
  C320     1.0000 0.70093  0.74996  0.96752  Biso   1.000  C
  C321     1.0000 0.55566  0.88415  0.96047  Biso   1.000  C
  C322     1.0000 0.55576  0.88415  0.96051  Biso   1.000  C
  C323     1.0000 0.43821  0.84407  0.02726  Biso   1.000  C
  C324     1.0000 0.43823  0.84407  0.02731  Biso   1.000  C
  N188     1.0000 0.32898  0.82749  0.02150  Biso   1.000  N
  N189     1.0000 0.32906  0.82749  0.02150  Biso   1.000  N
  H283     1.0000 0.20996  0.89153  0.95536  Biso   1.000  H
  H284     1.0000 0.21006  0.89153  0.95541  Biso   1.000  H
  C325     1.0000 0.11600  0.69457  0.94738  Biso   1.000  C
  C326     1.0000 0.11602  0.69457  0.94742  Biso   1.000  C
  N190     1.0000 0.72275  0.44882  0.86825  Biso   1.000  N
  N191     1.0000 0.72285  0.44882  0.86830  Biso   1.000  N
  H285     1.0000 0.73880  0.55190  0.80669  Biso   1.000  H
  H286     1.0000 0.62865  0.48865  0.78899  Biso   1.000  H
  H287     1.0000 0.62873  0.48865  0.78899  Biso   1.000  H
  C327     1.0000 0.85021  0.64466  0.94601  Biso   1.000  C
  O100     1.0000 0.74251  0.75790  0.02176  Biso   1.000  O
  H288     1.0000 0.58703  0.95120  0.96809  Biso   1.000  H
  O101     1.0000 0.51038  0.84947  0.07344  Biso   1.000  O
  O102     1.0000 0.51046  0.84947  0.07344  Biso   1.000  O
  C328     1.0000 0.28537  0.81360  0.07220  Biso   1.000  C
  C329     1.0000 0.28545  0.81360  0.07220  Biso   1.000  C
  N192     1.0000 0.13273  0.62165  0.99706  Biso   1.000  N
  H289     1.0000 0.07371  0.65886  0.91199  Biso   1.000  H
  H290     1.0000 0.07337  0.75448  0.95488  Biso   1.000  H
  H291     1.0000 0.07347  0.75448  0.95492  Biso   1.000  H
  C330     1.0000 0.67419  0.35407  0.87326  Biso   1.000  C
  C331     1.0000 0.67421  0.35407  0.87331  Biso   1.000  C
  C332     1.0000 0.83239  0.45175  0.90817  Biso   1.000  C
  C333     1.0000 0.83241  0.45175  0.90821  Biso   1.000  C
  N193     1.0000 0.85030  0.53079  0.95505  Biso   1.000  N
  H292     1.0000 0.89182  0.67838  0.98229  Biso   1.000  H
  H293     1.0000 0.88630  0.66029  0.91509  Biso   1.000  H
  N194     1.0000 0.26044  0.70521  0.08368  Biso   1.000  N
  H294     1.0000 0.21932  0.85558  0.06630  Biso   1.000  H
  H295     1.0000 0.33793  0.84106  0.10697  Biso   1.000  H
  H296     1.0000 0.33795  0.84106  0.10701  Biso   1.000  H
  C334     1.0000 0.12808  0.51214  0.99018  Biso   1.000  C
  C335     1.0000 0.15575  0.65450  0.05880  Biso   1.000  C
  O103     1.0000 0.58413  0.32677  0.84355  Biso   1.000  O
  N195     1.0000 0.73956  0.29479  0.91629  Biso   1.000  N
  N196     1.0000 0.73966  0.29479  0.91633  Biso   1.000  N
  C336     1.0000 0.84425  0.34550  0.94117  Biso   1.000  C
  C337     1.0000 0.84435  0.34550  0.94122  Biso   1.000  C
  H297     1.0000 0.88746  0.45826  0.88568  Biso   1.000  H
  H298     1.0000 0.88754  0.45826  0.88568  Biso   1.000  H
  C338     1.0000 0.87192  0.48778  0.00979  Biso   1.000  C
  C339     1.0000 0.32581  0.64585  0.12671  Biso   1.000  C
  N197     1.0000 0.14969  0.46921  0.04492  Biso   1.000  N
  O104     1.0000 0.10630  0.46540  0.94379  Biso   1.000  O
  O105     1.0000 0.10632  0.46540  0.94383  Biso   1.000  O
  C340     1.0000 0.16761  0.54817  0.09180  Biso   1.000  C
  H299     1.0000 0.09549  0.69656  0.06607  Biso   1.000  H
  H300     1.0000 0.09551  0.69656  0.06612  Biso   1.000  H
  C341     1.0000 0.71455  0.18640  0.92778  Biso   1.000  C
  C342     1.0000 0.71465  0.18640  0.92782  Biso   1.000  C
  H301     1.0000 0.90451  0.30336  0.93390  Biso   1.000  H
  N198     1.0000 0.86727  0.37827  0.00291  Biso   1.000  N
  N199     1.0000 0.86737  0.37827  0.00296  Biso   1.000  N
  O106     1.0000 0.89370  0.53460  0.05618  Biso   1.000  O
  N200     1.0000 0.27717  0.55118  0.13172  Biso   1.000  N
  N201     1.0000 0.27725  0.55118  0.13172  Biso   1.000  N
  O107     1.0000 0.41587  0.67315  0.15643  Biso   1.000  O
  O108     1.0000 0.41597  0.67315  0.15647  Biso   1.000  O
  C343     1.0000 0.14979  0.35526  0.05397  Biso   1.000  C
  C344     1.0000 0.14981  0.35526  0.05401  Biso   1.000  C
  H302     1.0000 0.11254  0.54166  0.11429  Biso   1.000  H
  H303     1.0000 0.78068  0.14442  0.93367  Biso   1.000  H
  H304     1.0000 0.66207  0.15886  0.89300  Biso   1.000  H
  N202     1.0000 0.67101  0.17251  0.97847  Biso   1.000  N
  H305     1.0000 0.78070  0.14442  0.93372  Biso   1.000  H
  H306     1.0000 0.66215  0.15886  0.89300  Biso   1.000  H
  N203     1.0000 0.67104  0.17251  0.97852  Biso   1.000  N
  C345     1.0000 0.88400  0.30535  0.05259  Biso   1.000  C
  C346     1.0000 0.32081  0.47500  0.17860  Biso   1.000  C
  N204     1.0000 0.25861  0.31106  0.07038  Biso   1.000  N
  N205     1.0000 0.25863  0.31106  0.07042  Biso   1.000  N
  H307     1.0000 0.10818  0.32162  0.01768  Biso   1.000  H
  H308     1.0000 0.11370  0.33971  0.08488  Biso   1.000  H
  H309     1.0000 0.10826  0.32162  0.01768  Biso   1.000  H
  H310     1.0000 0.11372  0.33971  0.08493  Biso   1.000  H
  C347     1.0000 0.56179  0.15593  0.97271  Biso   1.000  C
  C348     1.0000 0.73571  0.16537  0.03911  Biso   1.000  C
  N206     1.0000 0.78429  0.26639  0.06364  Biso   1.000  N
  N207     1.0000 0.78431  0.26639  0.06368  Biso   1.000  N
  H311     1.0000 0.92663  0.24552  0.04509  Biso   1.000  H
  H312     1.0000 0.92628  0.34106  0.08799  Biso   1.000  H
  N208     1.0000 0.37557  0.38787  0.16091  Biso   1.000  N
  N209     1.0000 0.37567  0.38787  0.16095  Biso   1.000  N
  H313     1.0000 0.26120  0.44810  0.19329  Biso   1.000  H
  H314     1.0000 0.37127  0.51127  0.21098  Biso   1.000  H
  H315     1.0000 0.37137  0.51127  0.21103  Biso   1.000  H
  C349     1.0000 0.29909  0.24996  0.03250  Biso   1.000  C
  C350     1.0000 0.29917  0.24996  0.03250  Biso   1.000  C
  C351     1.0000 0.31841  0.29376  0.13199  Biso   1.000  C
  O109     1.0000 0.48962  0.15053  0.92653  Biso   1.000  O
  O110     1.0000 0.48964  0.15053  0.92658  Biso   1.000  O
  N210     1.0000 0.54572  0.14299  0.02899  Biso   1.000  N
  C352     1.0000 0.64919  0.14506  0.07477  Biso   1.000  C
  H316     1.0000 0.79004  0.10840  0.04461  Biso   1.000  H
  C353     1.0000 0.64921  0.14506  0.07481  Biso   1.000  C
  C354     1.0000 0.74466  0.29829  0.10919  Biso   1.000  C
  C355     1.0000 0.74474  0.29829  0.10919  Biso   1.000  C
  C356     1.0000 0.48743  0.37518  0.17559  Biso   1.000  C
  N211     1.0000 0.39378  0.20243  0.06332  Biso   1.000  N
  N212     1.0000 0.39386  0.20243  0.06332  Biso   1.000  N
  O111     1.0000 0.25749  0.24210  0.97821  Biso   1.000  O
  C357     1.0000 0.41418  0.21766  0.12799  Biso   1.000  C
  C358     1.0000 0.41426  0.21766  0.12799  Biso   1.000  C
  H317     1.0000 0.27193  0.26226  0.15510  Biso   1.000  H
  C359     1.0000 0.44434  0.11578  0.03951  Biso   1.000  C
  N213     1.0000 0.66287  0.23346  0.11500  Biso   1.000  N
  H318     1.0000 0.66270  0.07761  0.09628  Biso   1.000  H
  N214     1.0000 0.66295  0.23346  0.11500  Biso   1.000  N
  H319     1.0000 0.66272  0.07761  0.09632  Biso   1.000  H
  O112     1.0000 0.77842  0.37621  0.14112  Biso   1.000  O
  N215     1.0000 0.50899  0.27837  0.15399  Biso   1.000  N
  N216     1.0000 0.50907  0.27837  0.15399  Biso   1.000  N
  O113     1.0000 0.55358  0.43811  0.20318  Biso   1.000  O
  O114     1.0000 0.55366  0.43811  0.20318  Biso   1.000  O
  H320     1.0000 0.41240  0.15061  0.14889  Biso   1.000  H
  H321     1.0000 0.41297  0.04880  0.03188  Biso   1.000  H
  H322     1.0000 0.41307  0.04880  0.03192  Biso   1.000  H
  C360     1.0000 0.61940  0.23663  0.16649  Biso   1.000  C
  H323     1.0000 0.66681  0.28019  0.19679  Biso   1.000  H
  H324     1.0000 0.61990  0.16537  0.18228  Biso   1.000  H
