data_image0
_cell_length_a       25.256
_cell_length_b       25.256
_cell_length_c       11.007
_cell_angle_alpha    90
_cell_angle_beta     90
_cell_angle_gamma    120

_symmetry_space_group_name_H-M    "P 1"
_symmetry_int_tables_number       1

loop_
  _symmetry_equiv_pos_as_xyz
  'x, y, z'

loop_
  _atom_site_label
  _atom_site_occupancy
  _atom_site_fract_x
  _atom_site_fract_y
  _atom_site_fract_z
  _atom_site_thermal_displace_type
  _atom_site_B_iso_or_equiv
  _atom_site_type_symbol
  N1       1.0000 0.87940  0.12299  0.43272  Biso   1.000  N
  C1       1.0000 0.85319  0.12189  0.55038  Biso   1.000  C
  C2       1.0000 0.85202  0.07782  0.36186  Biso   1.000  C
  C3       1.0000 0.85198  0.07782  0.36186  Biso   1.000  C
  C4       1.0000 0.83560  0.17168  0.55347  Biso   1.000  C
  C5       1.0000 0.83562  0.17172  0.55347  Biso   1.000  C
  C6       1.0000 0.90121  0.13359  0.64831  Biso   1.000  C
  C7       1.0000 0.90117  0.13359  0.64831  Biso   1.000  C
  H1       1.0000 0.81609  0.08111  0.56400  Biso   1.000  H
  N2       1.0000 0.87944  0.12299  0.43272  Biso   1.000  N
  H2       1.0000 0.81510  0.04302  0.38739  Biso   1.000  H
  C8       1.0000 0.87681  0.07868  0.24030  Biso   1.000  C
  C9       1.0000 0.87683  0.07873  0.24030  Biso   1.000  C
  C10      1.0000 0.87677  0.07868  0.24030  Biso   1.000  C
  C11      1.0000 0.81553  0.18023  0.67902  Biso   1.000  C
  C12      1.0000 0.81550  0.18018  0.67902  Biso   1.000  C
  H3       1.0000 0.80181  0.16080  0.49523  Biso   1.000  H
  H4       1.0000 0.87101  0.21081  0.52666  Biso   1.000  H
  C13      1.0000 0.88213  0.14301  0.77287  Biso   1.000  C
  C14      1.0000 0.88209  0.14301  0.77287  Biso   1.000  C
  N3       1.0000 0.91229  0.08202  0.65231  Biso   1.000  N
  H5       1.0000 0.94030  0.17131  0.62569  Biso   1.000  H
  N4       1.0000 0.91233  0.08202  0.65231  Biso   1.000  N
  C15      1.0000 0.93310  0.12879  0.20478  Biso   1.000  C
  C16      1.0000 0.84488  0.03068  0.15708  Biso   1.000  C
  C17      1.0000 0.84491  0.03072  0.15708  Biso   1.000  C
  C18      1.0000 0.86611  0.19390  0.77115  Biso   1.000  C
  H6       1.0000 0.77760  0.14278  0.70310  Biso   1.000  H
  H7       1.0000 0.80701  0.21452  0.67711  Biso   1.000  H
  H8       1.0000 0.77762  0.14283  0.70310  Biso   1.000  H
  C19      1.0000 0.86607  0.19390  0.77115  Biso   1.000  C
  H9       1.0000 0.91591  0.15380  0.83120  Biso   1.000  H
  H10      1.0000 0.84621  0.10461  0.80058  Biso   1.000  H
  C20      1.0000 0.96648  0.09341  0.64822  Biso   1.000  C
  C21      1.0000 0.96652  0.09341  0.64822  Biso   1.000  C
  H11      1.0000 0.95510  0.16139  0.26011  Biso   1.000  H
  C22      1.0000 0.95664  0.13112  0.09176  Biso   1.000  C
  C23      1.0000 0.95660  0.13112  0.09176  Biso   1.000  C
  C24      1.0000 0.86872  0.03251  0.04306  Biso   1.000  C
  C25      1.0000 0.86868  0.03251  0.04306  Biso   1.000  C
  H12      1.0000 0.80668  0.99680  0.17952  Biso   1.000  H
  H13      1.0000 0.80672  0.99680  0.17952  Biso   1.000  H
  H14      1.0000 0.90300  0.23322  0.75007  Biso   1.000  H
  H15      1.0000 0.85250  0.19820  0.85309  Biso   1.000  H
  C26      1.0000 0.98376  0.04535  0.65222  Biso   1.000  C
  H16      1.0000 0.99810  0.13478  0.64232  Biso   1.000  H
  H17      1.0000 0.99812  0.13483  0.64232  Biso   1.000  H
  C27      1.0000 0.92439  0.08239  0.00918  Biso   1.000  C
  C28      1.0000 0.01319  0.18658  0.05197  Biso   1.000  C
  C29      1.0000 0.01321  0.18663  0.05197  Biso   1.000  C
  C30      1.0000 0.83711  0.98441  0.95176  Biso   1.000  C
  C31      1.0000 0.93851  0.98281  0.65168  Biso   1.000  C
  C32      1.0000 0.04429  0.06149  0.65168  Biso   1.000  C
  H18      1.0000 0.94070  0.08380  0.93077  Biso   1.000  H
  N5       1.0000 0.03151  0.19399  0.94322  Biso   1.000  N
  H19      1.0000 0.03640  0.21740  0.11002  Biso   1.000  H
  N6       1.0000 0.78394  0.93887  0.96602  Biso   1.000  N
  H20      1.0000 0.85772  0.98761  0.87762  Biso   1.000  H
  H21      1.0000 0.85768  0.98761  0.87762  Biso   1.000  H
  H22      1.0000 0.89659  0.97152  0.65086  Biso   1.000  H
  C33      1.0000 0.95468  0.93842  0.65222  Biso   1.000  C
  H23      1.0000 0.89663  0.97152  0.65086  Biso   1.000  H
  C34      1.0000 0.95464  0.93842  0.65222  Biso   1.000  C
  H24      1.0000 0.07491  0.10342  0.65086  Biso   1.000  H
  C35      1.0000 0.06161  0.01623  0.65222  Biso   1.000  C
  C36      1.0000 0.06163  0.01628  0.65222  Biso   1.000  C
  C37      1.0000 0.06157  0.01623  0.65222  Biso   1.000  C
  C38      1.0000 0.06159  0.01628  0.65222  Biso   1.000  C
  C39      1.0000 0.08518  0.25256  0.91233  Biso   1.000  C
  C40      1.0000 0.08522  0.25256  0.91233  Biso   1.000  C
  C41      1.0000 0.75869  0.89503  0.86681  Biso   1.000  C
  C42      1.0000 0.90661  0.87308  0.64822  Biso   1.000  C
  C43      1.0000 0.90663  0.87313  0.64822  Biso   1.000  C
  C44      1.0000 0.90657  0.87308  0.64822  Biso   1.000  C
  C45      1.0000 0.90659  0.87313  0.64822  Biso   1.000  C
  C46      1.0000 0.01721  0.95570  0.65168  Biso   1.000  C
  C47      1.0000 0.12691  0.03351  0.64822  Biso   1.000  C
  C48      1.0000 0.13633  0.24131  0.86681  Biso   1.000  C
  H25      1.0000 0.09962  0.27930  0.98601  Biso   1.000  H
  C49      1.0000 0.06690  0.28291  0.81403  Biso   1.000  C
  C50      1.0000 0.13636  0.24136  0.86681  Biso   1.000  C
  H26      1.0000 0.09958  0.27930  0.98601  Biso   1.000  H
  C51      1.0000 0.69920  0.89000  0.82193  Biso   1.000  C
  H27      1.0000 0.78881  0.90911  0.79840  Biso   1.000  H
  C52      1.0000 0.74744  0.83262  0.91233  Biso   1.000  C
  C53      1.0000 0.74746  0.83267  0.91233  Biso   1.000  C
  N7       1.0000 0.91796  0.83029  0.65231  Biso   1.000  N
  H28      1.0000 0.86521  0.86330  0.64232  Biso   1.000  H
  N8       1.0000 0.91799  0.83029  0.65231  Biso   1.000  N
  H29      1.0000 0.02852  0.92511  0.65086  Biso   1.000  H
  H30      1.0000 0.02848  0.92511  0.65086  Biso   1.000  H
  N9       1.0000 0.16972  0.08769  0.65231  Biso   1.000  N
  H31      1.0000 0.13669  0.00192  0.64232  Biso   1.000  H
  H32      1.0000 0.13673  0.00192  0.64232  Biso   1.000  H
  N10      1.0000 0.15496  0.21607  0.96602  Biso   1.000  N
  C54      1.0000 0.19078  0.30079  0.82193  Biso   1.000  C
  H33      1.0000 0.12028  0.21118  0.79840  Biso   1.000  H
  H34      1.0000 0.12030  0.21123  0.79840  Biso   1.000  H
  H35      1.0000 0.04920  0.25480  0.74398  Biso   1.000  H
  H36      1.0000 0.03532  0.29142  0.84619  Biso   1.000  H
  C55      1.0000 0.12209  0.34230  0.77224  Biso   1.000  C
  H37      1.0000 0.67090  0.88021  0.89143  Biso   1.000  H
  H38      1.0000 0.70791  0.92991  0.78832  Biso   1.000  H
  C56      1.0000 0.66859  0.84089  0.72481  Biso   1.000  C
  H39      1.0000 0.72070  0.82032  0.98601  Biso   1.000  H
  C57      1.0000 0.71712  0.78402  0.81403  Biso   1.000  C
  N11      1.0000 0.80599  0.83751  0.94322  Biso   1.000  N
  C58      1.0000 0.86642  0.76761  0.64831  Biso   1.000  C
  C59      1.0000 0.86638  0.76761  0.64831  Biso   1.000  C
  C60      1.0000 0.23241  0.09880  0.64831  Biso   1.000  C
  C61      1.0000 0.14730  0.16290  0.95176  Biso   1.000  C
  H40      1.0000 0.20929  0.32909  0.89143  Biso   1.000  H
  H41      1.0000 0.22199  0.29210  0.78832  Biso   1.000  H
  C62      1.0000 0.17230  0.33138  0.72481  Biso   1.000  C
  C63      1.0000 0.17232  0.33142  0.72481  Biso   1.000  C
  C64      1.0000 0.17226  0.33138  0.72481  Biso   1.000  C
  H42      1.0000 0.10962  0.36091  0.70728  Biso   1.000  H
  H43      1.0000 0.13810  0.37138  0.84110  Biso   1.000  H
  H44      1.0000 0.10958  0.36091  0.70728  Biso   1.000  H
  C65      1.0000 0.65772  0.77981  0.77224  Biso   1.000  C
  H45      1.0000 0.69499  0.85260  0.65177  Biso   1.000  H
  H46      1.0000 0.62920  0.83751  0.70119  Biso   1.000  H
  C66      1.0000 0.65768  0.77981  0.77224  Biso   1.000  C
  H47      1.0000 0.74520  0.79440  0.74398  Biso   1.000  H
  H48      1.0000 0.70859  0.74392  0.84619  Biso   1.000  H
  H49      1.0000 0.70863  0.74392  0.84619  Biso   1.000  H
  C67      1.0000 0.81340  0.82658  0.05197  Biso   1.000  C
  C68      1.0000 0.81342  0.82663  0.05197  Biso   1.000  C
  H50      1.0000 0.82872  0.76902  0.62569  Biso   1.000  H
  C69      1.0000 0.85701  0.73912  0.77287  Biso   1.000  C
  C70      1.0000 0.87808  0.73130  0.55038  Biso   1.000  C
  C71      1.0000 0.87812  0.73130  0.55038  Biso   1.000  C
  H51      1.0000 0.23100  0.05971  0.62569  Biso   1.000  H
  C72      1.0000 0.26089  0.11791  0.77287  Biso   1.000  C
  C73      1.0000 0.26868  0.14681  0.55038  Biso   1.000  C
  C74      1.0000 0.26093  0.11791  0.77287  Biso   1.000  C
  C75      1.0000 0.26872  0.14681  0.55038  Biso   1.000  C
  H52      1.0000 0.12990  0.14228  0.87762  Biso   1.000  H
  H53      1.0000 0.12992  0.14233  0.87762  Biso   1.000  H
  C76      1.0000 0.16381  0.13131  0.04306  Biso   1.000  C
  H54      1.0000 0.15761  0.30500  0.65177  Biso   1.000  H
  H55      1.0000 0.20828  0.37079  0.70119  Biso   1.000  H
  H56      1.0000 0.63913  0.74872  0.70728  Biso   1.000  H
  H57      1.0000 0.62859  0.76669  0.84110  Biso   1.000  H
  H58      1.0000 0.63909  0.74872  0.70728  Biso   1.000  H
  C77      1.0000 0.86887  0.82549  0.09176  Biso   1.000  C
  H59      1.0000 0.78260  0.81900  0.11002  Biso   1.000  H
  H60      1.0000 0.84622  0.76212  0.83120  Biso   1.000  H
  H61      1.0000 0.89538  0.74159  0.80058  Biso   1.000  H
  C78      1.0000 0.80608  0.67219  0.77115  Biso   1.000  C
  N12      1.0000 0.87704  0.75645  0.43272  Biso   1.000  N
  C79      1.0000 0.82831  0.66391  0.55347  Biso   1.000  C
  H62      1.0000 0.91890  0.73501  0.56400  Biso   1.000  H
  H63      1.0000 0.23787  0.08408  0.83120  Biso   1.000  H
  H64      1.0000 0.25840  0.15380  0.80058  Biso   1.000  H
  C80      1.0000 0.32781  0.13391  0.77115  Biso   1.000  C
  H65      1.0000 0.23790  0.08412  0.83120  Biso   1.000  H
  N13      1.0000 0.24359  0.12061  0.43272  Biso   1.000  N
  C81      1.0000 0.33608  0.16441  0.55347  Biso   1.000  C
  H66      1.0000 0.26501  0.18389  0.56400  Biso   1.000  H
  C82      1.0000 0.33612  0.16441  0.55347  Biso   1.000  C
  H67      1.0000 0.26497  0.18389  0.56400  Biso   1.000  H
  C83      1.0000 0.15802  0.07562  0.00918  Biso   1.000  C
  C84      1.0000 0.18579  0.15508  0.15708  Biso   1.000  C
  C85      1.0000 0.18582  0.15513  0.15708  Biso   1.000  C
  C86      1.0000 0.87120  0.80432  0.20478  Biso   1.000  C
  C87      1.0000 0.91759  0.84199  0.00918  Biso   1.000  C
  H68      1.0000 0.76680  0.66981  0.75007  Biso   1.000  H
  H69      1.0000 0.80182  0.65431  0.85309  Biso   1.000  H
  C88      1.0000 0.81978  0.63529  0.67902  Biso   1.000  C
  C89      1.0000 0.92218  0.77419  0.36186  Biso   1.000  C
  C90      1.0000 0.92222  0.77419  0.36186  Biso   1.000  C
  H70      1.0000 0.83919  0.64101  0.49523  Biso   1.000  H
  H71      1.0000 0.78920  0.66021  0.52666  Biso   1.000  H
  H72      1.0000 0.33022  0.09702  0.75007  Biso   1.000  H
  H73      1.0000 0.34568  0.14749  0.85309  Biso   1.000  H
  C91      1.0000 0.36469  0.18448  0.67902  Biso   1.000  C
  C92      1.0000 0.36471  0.18453  0.67902  Biso   1.000  C
  H74      1.0000 0.33018  0.09702  0.75007  Biso   1.000  H
  C93      1.0000 0.22580  0.14800  0.36186  Biso   1.000  C
  H75      1.0000 0.35900  0.19820  0.49523  Biso   1.000  H
  H76      1.0000 0.33981  0.12902  0.52666  Biso   1.000  H
  H77      1.0000 0.14309  0.05930  0.93077  Biso   1.000  H
  C94      1.0000 0.17449  0.04339  0.09176  Biso   1.000  C
  C95      1.0000 0.20189  0.12321  0.24030  Biso   1.000  C
  H78      1.0000 0.19009  0.19330  0.17952  Biso   1.000  H
  C96      1.0000 0.92130  0.79810  0.24030  Biso   1.000  C
  H79      1.0000 0.83861  0.79371  0.26011  Biso   1.000  H
  H80      1.0000 0.91621  0.85690  0.93077  Biso   1.000  H
  H81      1.0000 0.91617  0.85690  0.93077  Biso   1.000  H
  C97      1.0000 0.96751  0.83619  0.04306  Biso   1.000  C
  C98      1.0000 0.96753  0.83623  0.04306  Biso   1.000  C
  C99      1.0000 0.96747  0.83619  0.04306  Biso   1.000  C
  H82      1.0000 0.85719  0.63479  0.70310  Biso   1.000  H
  H83      1.0000 0.78552  0.59250  0.67711  Biso   1.000  H
  H84      1.0000 0.78548  0.59250  0.67711  Biso   1.000  H
  H85      1.0000 0.95700  0.77209  0.38739  Biso   1.000  H
  H86      1.0000 0.36519  0.22238  0.70310  Biso   1.000  H
  H87      1.0000 0.40751  0.19298  0.67711  Biso   1.000  H
  H88      1.0000 0.36521  0.22243  0.70310  Biso   1.000  H
  H89      1.0000 0.40747  0.19298  0.67711  Biso   1.000  H
  H90      1.0000 0.22790  0.18489  0.38739  Biso   1.000  H
  C100     1.0000 0.19570  0.06689  0.20478  Biso   1.000  C
  C101     1.0000 0.17339  0.98679  0.05197  Biso   1.000  C
  C102     1.0000 0.96930  0.81419  0.15708  Biso   1.000  C
  C103     1.0000 0.01559  0.85269  0.95176  Biso   1.000  C
  H91      1.0000 0.20629  0.04490  0.26011  Biso   1.000  H
  N14      1.0000 0.16250  0.96850  0.94322  Biso   1.000  N
  H92      1.0000 0.18100  0.96361  0.11002  Biso   1.000  H
  H93      1.0000 0.00318  0.80990  0.17952  Biso   1.000  H
  N15      1.0000 0.06111  0.84506  0.96602  Biso   1.000  N
  H94      1.0000 0.01242  0.87011  0.87762  Biso   1.000  H
  H95      1.0000 0.01238  0.87011  0.87762  Biso   1.000  H
  C104     1.0000 0.16736  0.91478  0.91233  Biso   1.000  C
  C105     1.0000 0.16738  0.91482  0.91233  Biso   1.000  C
  C106     1.0000 0.10498  0.86366  0.86681  Biso   1.000  C
  H96      1.0000 0.17970  0.90042  0.98601  Biso   1.000  H
  C107     1.0000 0.21600  0.93311  0.81403  Biso   1.000  C
  C108     1.0000 0.11002  0.80921  0.82193  Biso   1.000  C
  H97      1.0000 0.09091  0.87971  0.79840  Biso   1.000  H
  C109     1.0000 0.10998  0.80921  0.82193  Biso   1.000  C
  H98      1.0000 0.20561  0.95081  0.74398  Biso   1.000  H
  H99      1.0000 0.25611  0.96470  0.84619  Biso   1.000  H
  C110     1.0000 0.22018  0.87788  0.77224  Biso   1.000  C
  C111     1.0000 0.22020  0.87793  0.77224  Biso   1.000  C
  H100     1.0000 0.11981  0.79069  0.89143  Biso   1.000  H
  H101     1.0000 0.07010  0.77798  0.78832  Biso   1.000  H
  C112     1.0000 0.15909  0.82768  0.72481  Biso   1.000  C
  H102     1.0000 0.07012  0.77803  0.78832  Biso   1.000  H
  C113     1.0000 0.15911  0.82773  0.72481  Biso   1.000  C
  H103     1.0000 0.11977  0.79069  0.89143  Biso   1.000  H
  H104     1.0000 0.25131  0.89041  0.70728  Biso   1.000  H
  H105     1.0000 0.23328  0.86188  0.84110  Biso   1.000  H
  H106     1.0000 0.23331  0.86193  0.84110  Biso   1.000  H
  H107     1.0000 0.14741  0.84240  0.65177  Biso   1.000  H
  H108     1.0000 0.16248  0.79170  0.70119  Biso   1.000  H
  H109     1.0000 0.16252  0.79170  0.70119  Biso   1.000  H
  N16      1.0000 0.87940  0.12299  0.43272  Biso   1.000  N
  C114     1.0000 0.85319  0.12189  0.55038  Biso   1.000  C
  C115     1.0000 0.85202  0.07782  0.36186  Biso   1.000  C
  C116     1.0000 0.85198  0.07782  0.36186  Biso   1.000  C
  C117     1.0000 0.83560  0.17168  0.55347  Biso   1.000  C
  C118     1.0000 0.83562  0.17172  0.55347  Biso   1.000  C
  C119     1.0000 0.90121  0.13359  0.64831  Biso   1.000  C
  C120     1.0000 0.90117  0.13359  0.64831  Biso   1.000  C
  H110     1.0000 0.81609  0.08111  0.56400  Biso   1.000  H
  N17      1.0000 0.87944  0.12299  0.43272  Biso   1.000  N
  H111     1.0000 0.81510  0.04302  0.38739  Biso   1.000  H
  C121     1.0000 0.87683  0.07873  0.24030  Biso   1.000  C
  C122     1.0000 0.87681  0.07868  0.24030  Biso   1.000  C
  C123     1.0000 0.87677  0.07868  0.24030  Biso   1.000  C
  C124     1.0000 0.81553  0.18023  0.67902  Biso   1.000  C
  C125     1.0000 0.81550  0.18018  0.67902  Biso   1.000  C
  H112     1.0000 0.80181  0.16080  0.49523  Biso   1.000  H
  H113     1.0000 0.87101  0.21081  0.52666  Biso   1.000  H
  C126     1.0000 0.88213  0.14301  0.77287  Biso   1.000  C
  C127     1.0000 0.88209  0.14301  0.77287  Biso   1.000  C
  H114     1.0000 0.94030  0.17131  0.62569  Biso   1.000  H
  N18      1.0000 0.91229  0.08202  0.65231  Biso   1.000  N
  N19      1.0000 0.91233  0.08202  0.65231  Biso   1.000  N
  C128     1.0000 0.93310  0.12879  0.20478  Biso   1.000  C
  C129     1.0000 0.84488  0.03068  0.15708  Biso   1.000  C
  C130     1.0000 0.84491  0.03072  0.15708  Biso   1.000  C
  C131     1.0000 0.86611  0.19390  0.77115  Biso   1.000  C
  H115     1.0000 0.80701  0.21452  0.67711  Biso   1.000  H
  H116     1.0000 0.77760  0.14278  0.70310  Biso   1.000  H
  H117     1.0000 0.77762  0.14283  0.70310  Biso   1.000  H
  C132     1.0000 0.86607  0.19390  0.77115  Biso   1.000  C
  H118     1.0000 0.91591  0.15380  0.83120  Biso   1.000  H
  H119     1.0000 0.84621  0.10461  0.80058  Biso   1.000  H
  C133     1.0000 0.96648  0.09341  0.64822  Biso   1.000  C
  C134     1.0000 0.96652  0.09341  0.64822  Biso   1.000  C
  H120     1.0000 0.95510  0.16139  0.26011  Biso   1.000  H
  C135     1.0000 0.95664  0.13112  0.09176  Biso   1.000  C
  C136     1.0000 0.95660  0.13112  0.09176  Biso   1.000  C
  C137     1.0000 0.86872  0.03251  0.04306  Biso   1.000  C
  C138     1.0000 0.86868  0.03251  0.04306  Biso   1.000  C
  H121     1.0000 0.80668  0.99680  0.17952  Biso   1.000  H
  H122     1.0000 0.80672  0.99680  0.17952  Biso   1.000  H
  H123     1.0000 0.90300  0.23322  0.75007  Biso   1.000  H
  H124     1.0000 0.85250  0.19820  0.85309  Biso   1.000  H
  C139     1.0000 0.98376  0.04535  0.65222  Biso   1.000  C
  H125     1.0000 0.99810  0.13478  0.64232  Biso   1.000  H
  H126     1.0000 0.99812  0.13483  0.64232  Biso   1.000  H
  C140     1.0000 0.92439  0.08239  0.00918  Biso   1.000  C
  C141     1.0000 0.01319  0.18658  0.05197  Biso   1.000  C
  C142     1.0000 0.01321  0.18663  0.05197  Biso   1.000  C
  C143     1.0000 0.83711  0.98441  0.95176  Biso   1.000  C
  C144     1.0000 0.93851  0.98281  0.65168  Biso   1.000  C
  C145     1.0000 0.04429  0.06149  0.65168  Biso   1.000  C
  H127     1.0000 0.94070  0.08380  0.93077  Biso   1.000  H
  N20      1.0000 0.03151  0.19399  0.94322  Biso   1.000  N
  H128     1.0000 0.03640  0.21740  0.11002  Biso   1.000  H
  N21      1.0000 0.78394  0.93887  0.96602  Biso   1.000  N
  H129     1.0000 0.85772  0.98761  0.87762  Biso   1.000  H
  H130     1.0000 0.85768  0.98761  0.87762  Biso   1.000  H
  H131     1.0000 0.89659  0.97152  0.65086  Biso   1.000  H
  C146     1.0000 0.95468  0.93842  0.65222  Biso   1.000  C
  H132     1.0000 0.89663  0.97152  0.65086  Biso   1.000  H
  C147     1.0000 0.95464  0.93842  0.65222  Biso   1.000  C
  H133     1.0000 0.07491  0.10342  0.65086  Biso   1.000  H
  C148     1.0000 0.06161  0.01623  0.65222  Biso   1.000  C
  C149     1.0000 0.06163  0.01628  0.65222  Biso   1.000  C
  C150     1.0000 0.06157  0.01623  0.65222  Biso   1.000  C
  C151     1.0000 0.06159  0.01628  0.65222  Biso   1.000  C
  C152     1.0000 0.08518  0.25256  0.91233  Biso   1.000  C
  C153     1.0000 0.08522  0.25256  0.91233  Biso   1.000  C
  C154     1.0000 0.75869  0.89503  0.86681  Biso   1.000  C
  C155     1.0000 0.90661  0.87308  0.64822  Biso   1.000  C
  C156     1.0000 0.90663  0.87313  0.64822  Biso   1.000  C
  C157     1.0000 0.90657  0.87308  0.64822  Biso   1.000  C
  C158     1.0000 0.90659  0.87313  0.64822  Biso   1.000  C
  C159     1.0000 0.01721  0.95570  0.65168  Biso   1.000  C
  C160     1.0000 0.12691  0.03351  0.64822  Biso   1.000  C
  C161     1.0000 0.13633  0.24131  0.86681  Biso   1.000  C
  H134     1.0000 0.09962  0.27930  0.98601  Biso   1.000  H
  C162     1.0000 0.06690  0.28291  0.81403  Biso   1.000  C
  C163     1.0000 0.13636  0.24136  0.86681  Biso   1.000  C
  H135     1.0000 0.09958  0.27930  0.98601  Biso   1.000  H
  C164     1.0000 0.69920  0.89000  0.82193  Biso   1.000  C
  H136     1.0000 0.78881  0.90911  0.79840  Biso   1.000  H
  C165     1.0000 0.74744  0.83262  0.91233  Biso   1.000  C
  C166     1.0000 0.74746  0.83267  0.91233  Biso   1.000  C
  N22      1.0000 0.91796  0.83029  0.65231  Biso   1.000  N
  H137     1.0000 0.86521  0.86330  0.64232  Biso   1.000  H
  N23      1.0000 0.91799  0.83029  0.65231  Biso   1.000  N
  H138     1.0000 0.02852  0.92511  0.65086  Biso   1.000  H
  H139     1.0000 0.02848  0.92511  0.65086  Biso   1.000  H
  N24      1.0000 0.16972  0.08769  0.65231  Biso   1.000  N
  H140     1.0000 0.13669  0.00192  0.64232  Biso   1.000  H
  H141     1.0000 0.13673  0.00192  0.64232  Biso   1.000  H
  N25      1.0000 0.15496  0.21607  0.96602  Biso   1.000  N
  C167     1.0000 0.19078  0.30079  0.82193  Biso   1.000  C
  H142     1.0000 0.12028  0.21118  0.79840  Biso   1.000  H
  H143     1.0000 0.12030  0.21123  0.79840  Biso   1.000  H
  H144     1.0000 0.04920  0.25480  0.74398  Biso   1.000  H
  H145     1.0000 0.03532  0.29142  0.84619  Biso   1.000  H
  C168     1.0000 0.12209  0.34230  0.77224  Biso   1.000  C
  H146     1.0000 0.67090  0.88021  0.89143  Biso   1.000  H
  H147     1.0000 0.70791  0.92991  0.78832  Biso   1.000  H
  C169     1.0000 0.66859  0.84089  0.72481  Biso   1.000  C
  H148     1.0000 0.72070  0.82032  0.98601  Biso   1.000  H
  C170     1.0000 0.71712  0.78402  0.81403  Biso   1.000  C
  N26      1.0000 0.80599  0.83751  0.94322  Biso   1.000  N
  C171     1.0000 0.86642  0.76761  0.64831  Biso   1.000  C
  C172     1.0000 0.86638  0.76761  0.64831  Biso   1.000  C
  C173     1.0000 0.23241  0.09880  0.64831  Biso   1.000  C
  C174     1.0000 0.14730  0.16290  0.95176  Biso   1.000  C
  H149     1.0000 0.20929  0.32909  0.89143  Biso   1.000  H
  H150     1.0000 0.22199  0.29210  0.78832  Biso   1.000  H
  C175     1.0000 0.17230  0.33138  0.72481  Biso   1.000  C
  C176     1.0000 0.17232  0.33142  0.72481  Biso   1.000  C
  C177     1.0000 0.17226  0.33138  0.72481  Biso   1.000  C
  H151     1.0000 0.10962  0.36091  0.70728  Biso   1.000  H
  H152     1.0000 0.13810  0.37138  0.84110  Biso   1.000  H
  H153     1.0000 0.10958  0.36091  0.70728  Biso   1.000  H
  C178     1.0000 0.65772  0.77981  0.77224  Biso   1.000  C
  H154     1.0000 0.69499  0.85260  0.65177  Biso   1.000  H
  H155     1.0000 0.62920  0.83751  0.70119  Biso   1.000  H
  C179     1.0000 0.65768  0.77981  0.77224  Biso   1.000  C
  H156     1.0000 0.74520  0.79440  0.74398  Biso   1.000  H
  H157     1.0000 0.70859  0.74392  0.84619  Biso   1.000  H
  H158     1.0000 0.70863  0.74392  0.84619  Biso   1.000  H
  C180     1.0000 0.81340  0.82658  0.05197  Biso   1.000  C
  C181     1.0000 0.81342  0.82663  0.05197  Biso   1.000  C
  H159     1.0000 0.82872  0.76902  0.62569  Biso   1.000  H
  C182     1.0000 0.85701  0.73912  0.77287  Biso   1.000  C
  C183     1.0000 0.87808  0.73130  0.55038  Biso   1.000  C
  C184     1.0000 0.87812  0.73130  0.55038  Biso   1.000  C
  H160     1.0000 0.23100  0.05971  0.62569  Biso   1.000  H
  C185     1.0000 0.26089  0.11791  0.77287  Biso   1.000  C
  C186     1.0000 0.26868  0.14681  0.55038  Biso   1.000  C
  C187     1.0000 0.26093  0.11791  0.77287  Biso   1.000  C
  C188     1.0000 0.26872  0.14681  0.55038  Biso   1.000  C
  H161     1.0000 0.12990  0.14228  0.87762  Biso   1.000  H
  H162     1.0000 0.12992  0.14233  0.87762  Biso   1.000  H
  C189     1.0000 0.16381  0.13131  0.04306  Biso   1.000  C
  H163     1.0000 0.15761  0.30500  0.65177  Biso   1.000  H
  H164     1.0000 0.20828  0.37079  0.70119  Biso   1.000  H
  H165     1.0000 0.63913  0.74872  0.70728  Biso   1.000  H
  H166     1.0000 0.62859  0.76669  0.84110  Biso   1.000  H
  H167     1.0000 0.63909  0.74872  0.70728  Biso   1.000  H
  C190     1.0000 0.86887  0.82549  0.09176  Biso   1.000  C
  H168     1.0000 0.78260  0.81900  0.11002  Biso   1.000  H
  H169     1.0000 0.84622  0.76212  0.83120  Biso   1.000  H
  H170     1.0000 0.89538  0.74159  0.80058  Biso   1.000  H
  C191     1.0000 0.80608  0.67219  0.77115  Biso   1.000  C
  N27      1.0000 0.87704  0.75645  0.43272  Biso   1.000  N
  C192     1.0000 0.82831  0.66391  0.55347  Biso   1.000  C
  H171     1.0000 0.91890  0.73501  0.56400  Biso   1.000  H
  H172     1.0000 0.23787  0.08408  0.83120  Biso   1.000  H
  H173     1.0000 0.25840  0.15380  0.80058  Biso   1.000  H
  C193     1.0000 0.32781  0.13391  0.77115  Biso   1.000  C
  H174     1.0000 0.23790  0.08412  0.83120  Biso   1.000  H
  N28      1.0000 0.24359  0.12061  0.43272  Biso   1.000  N
  C194     1.0000 0.33608  0.16441  0.55347  Biso   1.000  C
  H175     1.0000 0.26501  0.18389  0.56400  Biso   1.000  H
  C195     1.0000 0.33612  0.16441  0.55347  Biso   1.000  C
  H176     1.0000 0.26497  0.18389  0.56400  Biso   1.000  H
  C196     1.0000 0.15802  0.07562  0.00918  Biso   1.000  C
  C197     1.0000 0.18579  0.15508  0.15708  Biso   1.000  C
  C198     1.0000 0.18582  0.15513  0.15708  Biso   1.000  C
  C199     1.0000 0.87120  0.80432  0.20478  Biso   1.000  C
  C200     1.0000 0.91759  0.84199  0.00918  Biso   1.000  C
  H177     1.0000 0.76680  0.66981  0.75007  Biso   1.000  H
  H178     1.0000 0.80182  0.65431  0.85309  Biso   1.000  H
  C201     1.0000 0.81978  0.63529  0.67902  Biso   1.000  C
  C202     1.0000 0.92218  0.77419  0.36186  Biso   1.000  C
  C203     1.0000 0.92222  0.77419  0.36186  Biso   1.000  C
  H179     1.0000 0.83919  0.64101  0.49523  Biso   1.000  H
  H180     1.0000 0.78920  0.66021  0.52666  Biso   1.000  H
  H181     1.0000 0.33022  0.09702  0.75007  Biso   1.000  H
  H182     1.0000 0.34568  0.14749  0.85309  Biso   1.000  H
  C204     1.0000 0.36469  0.18448  0.67902  Biso   1.000  C
  C205     1.0000 0.36471  0.18453  0.67902  Biso   1.000  C
  H183     1.0000 0.33018  0.09702  0.75007  Biso   1.000  H
  C206     1.0000 0.22580  0.14800  0.36186  Biso   1.000  C
  H184     1.0000 0.35900  0.19820  0.49523  Biso   1.000  H
  H185     1.0000 0.33981  0.12902  0.52666  Biso   1.000  H
  H186     1.0000 0.14309  0.05930  0.93077  Biso   1.000  H
  C207     1.0000 0.17449  0.04339  0.09176  Biso   1.000  C
  C208     1.0000 0.20189  0.12321  0.24030  Biso   1.000  C
  H187     1.0000 0.19009  0.19330  0.17952  Biso   1.000  H
  C209     1.0000 0.92130  0.79810  0.24030  Biso   1.000  C
  H188     1.0000 0.83861  0.79371  0.26011  Biso   1.000  H
  H189     1.0000 0.91621  0.85690  0.93077  Biso   1.000  H
  H190     1.0000 0.91617  0.85690  0.93077  Biso   1.000  H
  C210     1.0000 0.96751  0.83619  0.04306  Biso   1.000  C
  C211     1.0000 0.96753  0.83623  0.04306  Biso   1.000  C
  C212     1.0000 0.96747  0.83619  0.04306  Biso   1.000  C
  H191     1.0000 0.85719  0.63479  0.70310  Biso   1.000  H
  H192     1.0000 0.78552  0.59250  0.67711  Biso   1.000  H
  H193     1.0000 0.78548  0.59250  0.67711  Biso   1.000  H
  H194     1.0000 0.95700  0.77209  0.38739  Biso   1.000  H
  H195     1.0000 0.36519  0.22238  0.70310  Biso   1.000  H
  H196     1.0000 0.40751  0.19298  0.67711  Biso   1.000  H
  H197     1.0000 0.36521  0.22243  0.70310  Biso   1.000  H
  H198     1.0000 0.40747  0.19298  0.67711  Biso   1.000  H
  H199     1.0000 0.22790  0.18489  0.38739  Biso   1.000  H
  C213     1.0000 0.19570  0.06689  0.20478  Biso   1.000  C
  C214     1.0000 0.17339  0.98679  0.05197  Biso   1.000  C
  C215     1.0000 0.96930  0.81419  0.15708  Biso   1.000  C
  C216     1.0000 0.01559  0.85269  0.95176  Biso   1.000  C
  H200     1.0000 0.20629  0.04490  0.26011  Biso   1.000  H
  N29      1.0000 0.16250  0.96850  0.94322  Biso   1.000  N
  H201     1.0000 0.18100  0.96361  0.11002  Biso   1.000  H
  H202     1.0000 0.00318  0.80990  0.17952  Biso   1.000  H
  N30      1.0000 0.06111  0.84506  0.96602  Biso   1.000  N
  H203     1.0000 0.01242  0.87011  0.87762  Biso   1.000  H
  H204     1.0000 0.01238  0.87011  0.87762  Biso   1.000  H
  C217     1.0000 0.16736  0.91478  0.91233  Biso   1.000  C
  C218     1.0000 0.16738  0.91482  0.91233  Biso   1.000  C
  C219     1.0000 0.10498  0.86366  0.86681  Biso   1.000  C
  H205     1.0000 0.17970  0.90042  0.98601  Biso   1.000  H
  C220     1.0000 0.21600  0.93311  0.81403  Biso   1.000  C
  C221     1.0000 0.11002  0.80921  0.82193  Biso   1.000  C
  H206     1.0000 0.09091  0.87971  0.79840  Biso   1.000  H
  C222     1.0000 0.10998  0.80921  0.82193  Biso   1.000  C
  H207     1.0000 0.20561  0.95081  0.74398  Biso   1.000  H
  H208     1.0000 0.25611  0.96470  0.84619  Biso   1.000  H
  C223     1.0000 0.22018  0.87788  0.77224  Biso   1.000  C
  C224     1.0000 0.22020  0.87793  0.77224  Biso   1.000  C
  H209     1.0000 0.11981  0.79069  0.89143  Biso   1.000  H
  H210     1.0000 0.07010  0.77798  0.78832  Biso   1.000  H
  C225     1.0000 0.15909  0.82768  0.72481  Biso   1.000  C
  H211     1.0000 0.07012  0.77803  0.78832  Biso   1.000  H
  C226     1.0000 0.15911  0.82773  0.72481  Biso   1.000  C
  H212     1.0000 0.11977  0.79069  0.89143  Biso   1.000  H
  H213     1.0000 0.25131  0.89041  0.70728  Biso   1.000  H
  H214     1.0000 0.23328  0.86188  0.84110  Biso   1.000  H
  H215     1.0000 0.23331  0.86193  0.84110  Biso   1.000  H
  H216     1.0000 0.14741  0.84240  0.65177  Biso   1.000  H
  H217     1.0000 0.16248  0.79170  0.70119  Biso   1.000  H
  H218     1.0000 0.16252  0.79170  0.70119  Biso   1.000  H
  N31      1.0000 0.87940  0.12299  0.43272  Biso   1.000  N
  C227     1.0000 0.85319  0.12189  0.55038  Biso   1.000  C
  C228     1.0000 0.85202  0.07782  0.36186  Biso   1.000  C
  C229     1.0000 0.85198  0.07782  0.36186  Biso   1.000  C
  C230     1.0000 0.90121  0.13359  0.64831  Biso   1.000  C
  C231     1.0000 0.90117  0.13359  0.64831  Biso   1.000  C
  C232     1.0000 0.83560  0.17168  0.55347  Biso   1.000  C
  C233     1.0000 0.83562  0.17172  0.55347  Biso   1.000  C
  H219     1.0000 0.81609  0.08111  0.56400  Biso   1.000  H
  N32      1.0000 0.87944  0.12299  0.43272  Biso   1.000  N
  H220     1.0000 0.81510  0.04302  0.38739  Biso   1.000  H
  C234     1.0000 0.87681  0.07868  0.24030  Biso   1.000  C
  C235     1.0000 0.87683  0.07873  0.24030  Biso   1.000  C
  C236     1.0000 0.87677  0.07868  0.24030  Biso   1.000  C
  C237     1.0000 0.88213  0.14301  0.77287  Biso   1.000  C
  C238     1.0000 0.88209  0.14301  0.77287  Biso   1.000  C
  H221     1.0000 0.94030  0.17131  0.62569  Biso   1.000  H
  N33      1.0000 0.91229  0.08202  0.65231  Biso   1.000  N
  N34      1.0000 0.91233  0.08202  0.65231  Biso   1.000  N
  C239     1.0000 0.81550  0.18018  0.67902  Biso   1.000  C
  C240     1.0000 0.81553  0.18023  0.67902  Biso   1.000  C
  H222     1.0000 0.80181  0.16080  0.49523  Biso   1.000  H
  H223     1.0000 0.87101  0.21081  0.52666  Biso   1.000  H
  C241     1.0000 0.93310  0.12879  0.20478  Biso   1.000  C
  C242     1.0000 0.84488  0.03068  0.15708  Biso   1.000  C
  C243     1.0000 0.84491  0.03072  0.15708  Biso   1.000  C
  C244     1.0000 0.86611  0.19390  0.77115  Biso   1.000  C
  H224     1.0000 0.91591  0.15380  0.83120  Biso   1.000  H
  H225     1.0000 0.84621  0.10461  0.80058  Biso   1.000  H
  C245     1.0000 0.86607  0.19390  0.77115  Biso   1.000  C
  C246     1.0000 0.96648  0.09341  0.64822  Biso   1.000  C
  C247     1.0000 0.96652  0.09341  0.64822  Biso   1.000  C
  H226     1.0000 0.80701  0.21452  0.67711  Biso   1.000  H
  H227     1.0000 0.77760  0.14278  0.70310  Biso   1.000  H
  H228     1.0000 0.77762  0.14283  0.70310  Biso   1.000  H
  H229     1.0000 0.95510  0.16139  0.26011  Biso   1.000  H
  C248     1.0000 0.95664  0.13112  0.09176  Biso   1.000  C
  C249     1.0000 0.95660  0.13112  0.09176  Biso   1.000  C
  H230     1.0000 0.80668  0.99680  0.17952  Biso   1.000  H
  H231     1.0000 0.80672  0.99680  0.17952  Biso   1.000  H
  C250     1.0000 0.86872  0.03251  0.04306  Biso   1.000  C
  C251     1.0000 0.86868  0.03251  0.04306  Biso   1.000  C
  H232     1.0000 0.90300  0.23322  0.75007  Biso   1.000  H
  H233     1.0000 0.85250  0.19820  0.85309  Biso   1.000  H
  C252     1.0000 0.98376  0.04535  0.65222  Biso   1.000  C
  H234     1.0000 0.99810  0.13478  0.64232  Biso   1.000  H
  H235     1.0000 0.99812  0.13483  0.64232  Biso   1.000  H
  C253     1.0000 0.92439  0.08239  0.00918  Biso   1.000  C
  C254     1.0000 0.01319  0.18658  0.05197  Biso   1.000  C
  C255     1.0000 0.01321  0.18663  0.05197  Biso   1.000  C
  C256     1.0000 0.83711  0.98441  0.95176  Biso   1.000  C
  C257     1.0000 0.93851  0.98281  0.65168  Biso   1.000  C
  C258     1.0000 0.04429  0.06149  0.65168  Biso   1.000  C
  H236     1.0000 0.94070  0.08380  0.93077  Biso   1.000  H
  N35      1.0000 0.03151  0.19399  0.94322  Biso   1.000  N
  H237     1.0000 0.03640  0.21740  0.11002  Biso   1.000  H
  N36      1.0000 0.78394  0.93887  0.96602  Biso   1.000  N
  H238     1.0000 0.85772  0.98761  0.87762  Biso   1.000  H
  H239     1.0000 0.85768  0.98761  0.87762  Biso   1.000  H
  H240     1.0000 0.89659  0.97152  0.65086  Biso   1.000  H
  C259     1.0000 0.95468  0.93842  0.65222  Biso   1.000  C
  H241     1.0000 0.89663  0.97152  0.65086  Biso   1.000  H
  C260     1.0000 0.95464  0.93842  0.65222  Biso   1.000  C
  H242     1.0000 0.07491  0.10342  0.65086  Biso   1.000  H
  C261     1.0000 0.06161  0.01623  0.65222  Biso   1.000  C
  C262     1.0000 0.06163  0.01628  0.65222  Biso   1.000  C
  C263     1.0000 0.06157  0.01623  0.65222  Biso   1.000  C
  C264     1.0000 0.06159  0.01628  0.65222  Biso   1.000  C
  C265     1.0000 0.08518  0.25256  0.91233  Biso   1.000  C
  C266     1.0000 0.08522  0.25256  0.91233  Biso   1.000  C
  C267     1.0000 0.75869  0.89503  0.86681  Biso   1.000  C
  C268     1.0000 0.90661  0.87308  0.64822  Biso   1.000  C
  C269     1.0000 0.90663  0.87313  0.64822  Biso   1.000  C
  C270     1.0000 0.90657  0.87308  0.64822  Biso   1.000  C
  C271     1.0000 0.90659  0.87313  0.64822  Biso   1.000  C
  C272     1.0000 0.01721  0.95570  0.65168  Biso   1.000  C
  C273     1.0000 0.12691  0.03351  0.64822  Biso   1.000  C
  C274     1.0000 0.13633  0.24131  0.86681  Biso   1.000  C
  H243     1.0000 0.09962  0.27930  0.98601  Biso   1.000  H
  C275     1.0000 0.06690  0.28291  0.81403  Biso   1.000  C
  C276     1.0000 0.13636  0.24136  0.86681  Biso   1.000  C
  H244     1.0000 0.09958  0.27930  0.98601  Biso   1.000  H
  C277     1.0000 0.69920  0.89000  0.82193  Biso   1.000  C
  H245     1.0000 0.78881  0.90911  0.79840  Biso   1.000  H
  C278     1.0000 0.74744  0.83262  0.91233  Biso   1.000  C
  C279     1.0000 0.74746  0.83267  0.91233  Biso   1.000  C
  N37      1.0000 0.91796  0.83029  0.65231  Biso   1.000  N
  H246     1.0000 0.86521  0.86330  0.64232  Biso   1.000  H
  N38      1.0000 0.91799  0.83029  0.65231  Biso   1.000  N
  H247     1.0000 0.02852  0.92511  0.65086  Biso   1.000  H
  H248     1.0000 0.02848  0.92511  0.65086  Biso   1.000  H
  N39      1.0000 0.16972  0.08769  0.65231  Biso   1.000  N
  H249     1.0000 0.13669  0.00192  0.64232  Biso   1.000  H
  H250     1.0000 0.13673  0.00192  0.64232  Biso   1.000  H
  N40      1.0000 0.15496  0.21607  0.96602  Biso   1.000  N
  C280     1.0000 0.19078  0.30079  0.82193  Biso   1.000  C
  H251     1.0000 0.12028  0.21118  0.79840  Biso   1.000  H
  H252     1.0000 0.12030  0.21123  0.79840  Biso   1.000  H
  H253     1.0000 0.04920  0.25480  0.74398  Biso   1.000  H
  H254     1.0000 0.03532  0.29142  0.84619  Biso   1.000  H
  C281     1.0000 0.12209  0.34230  0.77224  Biso   1.000  C
  H255     1.0000 0.67090  0.88021  0.89143  Biso   1.000  H
  H256     1.0000 0.70791  0.92991  0.78832  Biso   1.000  H
  C282     1.0000 0.66859  0.84089  0.72481  Biso   1.000  C
  H257     1.0000 0.72070  0.82032  0.98601  Biso   1.000  H
  C283     1.0000 0.71712  0.78402  0.81403  Biso   1.000  C
  N41      1.0000 0.80599  0.83751  0.94322  Biso   1.000  N
  C284     1.0000 0.86642  0.76761  0.64831  Biso   1.000  C
  C285     1.0000 0.86638  0.76761  0.64831  Biso   1.000  C
  C286     1.0000 0.23241  0.09880  0.64831  Biso   1.000  C
  C287     1.0000 0.14730  0.16290  0.95176  Biso   1.000  C
  H258     1.0000 0.20929  0.32909  0.89143  Biso   1.000  H
  H259     1.0000 0.22199  0.29210  0.78832  Biso   1.000  H
  C288     1.0000 0.17230  0.33138  0.72481  Biso   1.000  C
  C289     1.0000 0.17232  0.33142  0.72481  Biso   1.000  C
  C290     1.0000 0.17226  0.33138  0.72481  Biso   1.000  C
  H260     1.0000 0.10962  0.36091  0.70728  Biso   1.000  H
  H261     1.0000 0.13810  0.37138  0.84110  Biso   1.000  H
  H262     1.0000 0.10958  0.36091  0.70728  Biso   1.000  H
  C291     1.0000 0.65772  0.77981  0.77224  Biso   1.000  C
  H263     1.0000 0.69499  0.85260  0.65177  Biso   1.000  H
  H264     1.0000 0.62920  0.83751  0.70119  Biso   1.000  H
  C292     1.0000 0.65768  0.77981  0.77224  Biso   1.000  C
  H265     1.0000 0.74520  0.79440  0.74398  Biso   1.000  H
  H266     1.0000 0.70859  0.74392  0.84619  Biso   1.000  H
  H267     1.0000 0.70863  0.74392  0.84619  Biso   1.000  H
  C293     1.0000 0.81340  0.82658  0.05197  Biso   1.000  C
  C294     1.0000 0.81342  0.82663  0.05197  Biso   1.000  C
  H268     1.0000 0.82872  0.76902  0.62569  Biso   1.000  H
  C295     1.0000 0.85701  0.73912  0.77287  Biso   1.000  C
  C296     1.0000 0.87808  0.73130  0.55038  Biso   1.000  C
  C297     1.0000 0.87812  0.73130  0.55038  Biso   1.000  C
  H269     1.0000 0.23100  0.05971  0.62569  Biso   1.000  H
  C298     1.0000 0.26089  0.11791  0.77287  Biso   1.000  C
  C299     1.0000 0.26868  0.14681  0.55038  Biso   1.000  C
  C300     1.0000 0.26093  0.11791  0.77287  Biso   1.000  C
  C301     1.0000 0.26872  0.14681  0.55038  Biso   1.000  C
  H270     1.0000 0.12990  0.14228  0.87762  Biso   1.000  H
  H271     1.0000 0.12992  0.14233  0.87762  Biso   1.000  H
  C302     1.0000 0.16381  0.13131  0.04306  Biso   1.000  C
  H272     1.0000 0.15761  0.30500  0.65177  Biso   1.000  H
  H273     1.0000 0.20828  0.37079  0.70119  Biso   1.000  H
  H274     1.0000 0.63913  0.74872  0.70728  Biso   1.000  H
  H275     1.0000 0.62859  0.76669  0.84110  Biso   1.000  H
  H276     1.0000 0.63909  0.74872  0.70728  Biso   1.000  H
  C303     1.0000 0.86887  0.82549  0.09176  Biso   1.000  C
  H277     1.0000 0.78260  0.81900  0.11002  Biso   1.000  H
  H278     1.0000 0.84622  0.76212  0.83120  Biso   1.000  H
  H279     1.0000 0.89538  0.74159  0.80058  Biso   1.000  H
  C304     1.0000 0.80608  0.67219  0.77115  Biso   1.000  C
  N42      1.0000 0.87704  0.75645  0.43272  Biso   1.000  N
  C305     1.0000 0.82831  0.66391  0.55347  Biso   1.000  C
  H280     1.0000 0.91890  0.73501  0.56400  Biso   1.000  H
  H281     1.0000 0.23787  0.08408  0.83120  Biso   1.000  H
  H282     1.0000 0.25840  0.15380  0.80058  Biso   1.000  H
  C306     1.0000 0.32781  0.13391  0.77115  Biso   1.000  C
  H283     1.0000 0.23790  0.08412  0.83120  Biso   1.000  H
  N43      1.0000 0.24359  0.12061  0.43272  Biso   1.000  N
  C307     1.0000 0.33608  0.16441  0.55347  Biso   1.000  C
  H284     1.0000 0.26501  0.18389  0.56400  Biso   1.000  H
  C308     1.0000 0.33612  0.16441  0.55347  Biso   1.000  C
  H285     1.0000 0.26497  0.18389  0.56400  Biso   1.000  H
  C309     1.0000 0.18579  0.15508  0.15708  Biso   1.000  C
  C310     1.0000 0.18582  0.15513  0.15708  Biso   1.000  C
  C311     1.0000 0.15802  0.07562  0.00918  Biso   1.000  C
  C312     1.0000 0.87120  0.80432  0.20478  Biso   1.000  C
  C313     1.0000 0.91759  0.84199  0.00918  Biso   1.000  C
  H286     1.0000 0.76680  0.66981  0.75007  Biso   1.000  H
  H287     1.0000 0.80182  0.65431  0.85309  Biso   1.000  H
  C314     1.0000 0.81978  0.63529  0.67902  Biso   1.000  C
  C315     1.0000 0.92218  0.77419  0.36186  Biso   1.000  C
  C316     1.0000 0.92222  0.77419  0.36186  Biso   1.000  C
  H288     1.0000 0.83919  0.64101  0.49523  Biso   1.000  H
  H289     1.0000 0.78920  0.66021  0.52666  Biso   1.000  H
  H290     1.0000 0.33022  0.09702  0.75007  Biso   1.000  H
  H291     1.0000 0.34568  0.14749  0.85309  Biso   1.000  H
  C317     1.0000 0.36469  0.18448  0.67902  Biso   1.000  C
  C318     1.0000 0.36471  0.18453  0.67902  Biso   1.000  C
  H292     1.0000 0.33018  0.09702  0.75007  Biso   1.000  H
  C319     1.0000 0.22580  0.14800  0.36186  Biso   1.000  C
  H293     1.0000 0.35900  0.19820  0.49523  Biso   1.000  H
  H294     1.0000 0.33981  0.12902  0.52666  Biso   1.000  H
  C320     1.0000 0.20189  0.12321  0.24030  Biso   1.000  C
  H295     1.0000 0.19009  0.19330  0.17952  Biso   1.000  H
  C321     1.0000 0.17449  0.04339  0.09176  Biso   1.000  C
  H296     1.0000 0.14309  0.05930  0.93077  Biso   1.000  H
  C322     1.0000 0.92130  0.79810  0.24030  Biso   1.000  C
  H297     1.0000 0.83861  0.79371  0.26011  Biso   1.000  H
  C323     1.0000 0.96751  0.83619  0.04306  Biso   1.000  C
  C324     1.0000 0.96753  0.83623  0.04306  Biso   1.000  C
  C325     1.0000 0.96747  0.83619  0.04306  Biso   1.000  C
  H298     1.0000 0.91621  0.85690  0.93077  Biso   1.000  H
  H299     1.0000 0.91617  0.85690  0.93077  Biso   1.000  H
  H300     1.0000 0.85719  0.63479  0.70310  Biso   1.000  H
  H301     1.0000 0.78552  0.59250  0.67711  Biso   1.000  H
  H302     1.0000 0.78548  0.59250  0.67711  Biso   1.000  H
  H303     1.0000 0.95700  0.77209  0.38739  Biso   1.000  H
  H304     1.0000 0.36519  0.22238  0.70310  Biso   1.000  H
  H305     1.0000 0.40751  0.19298  0.67711  Biso   1.000  H
  H306     1.0000 0.36521  0.22243  0.70310  Biso   1.000  H
  H307     1.0000 0.40747  0.19298  0.67711  Biso   1.000  H
  H308     1.0000 0.22790  0.18489  0.38739  Biso   1.000  H
  C326     1.0000 0.19570  0.06689  0.20478  Biso   1.000  C
  C327     1.0000 0.17339  0.98679  0.05197  Biso   1.000  C
  C328     1.0000 0.96930  0.81419  0.15708  Biso   1.000  C
  C329     1.0000 0.01559  0.85269  0.95176  Biso   1.000  C
  H309     1.0000 0.20629  0.04490  0.26011  Biso   1.000  H
  N44      1.0000 0.16250  0.96850  0.94322  Biso   1.000  N
  H310     1.0000 0.18100  0.96361  0.11002  Biso   1.000  H
  H311     1.0000 0.00318  0.80990  0.17952  Biso   1.000  H
  N45      1.0000 0.06111  0.84506  0.96602  Biso   1.000  N
  H312     1.0000 0.01242  0.87011  0.87762  Biso   1.000  H
  H313     1.0000 0.01238  0.87011  0.87762  Biso   1.000  H
  C330     1.0000 0.16736  0.91478  0.91233  Biso   1.000  C
  C331     1.0000 0.16738  0.91482  0.91233  Biso   1.000  C
  C332     1.0000 0.10498  0.86366  0.86681  Biso   1.000  C
  H314     1.0000 0.17970  0.90042  0.98601  Biso   1.000  H
  C333     1.0000 0.21600  0.93311  0.81403  Biso   1.000  C
  C334     1.0000 0.11002  0.80921  0.82193  Biso   1.000  C
  H315     1.0000 0.09091  0.87971  0.79840  Biso   1.000  H
  C335     1.0000 0.10998  0.80921  0.82193  Biso   1.000  C
  H316     1.0000 0.20561  0.95081  0.74398  Biso   1.000  H
  H317     1.0000 0.25611  0.96470  0.84619  Biso   1.000  H
  C336     1.0000 0.22018  0.87788  0.77224  Biso   1.000  C
  C337     1.0000 0.22020  0.87793  0.77224  Biso   1.000  C
  H318     1.0000 0.11981  0.79069  0.89143  Biso   1.000  H
  H319     1.0000 0.07010  0.77798  0.78832  Biso   1.000  H
  C338     1.0000 0.15909  0.82768  0.72481  Biso   1.000  C
  H320     1.0000 0.07012  0.77803  0.78832  Biso   1.000  H
  C339     1.0000 0.15911  0.82773  0.72481  Biso   1.000  C
  H321     1.0000 0.11977  0.79069  0.89143  Biso   1.000  H
  H322     1.0000 0.25131  0.89041  0.70728  Biso   1.000  H
  H323     1.0000 0.23328  0.86188  0.84110  Biso   1.000  H
  H324     1.0000 0.23331  0.86193  0.84110  Biso   1.000  H
  H325     1.0000 0.14741  0.84240  0.65177  Biso   1.000  H
  H326     1.0000 0.16248  0.79170  0.70119  Biso   1.000  H
  H327     1.0000 0.16252  0.79170  0.70119  Biso   1.000  H
  N46      1.0000 0.87940  0.12299  0.43272  Biso   1.000  N
  C340     1.0000 0.85319  0.12189  0.55038  Biso   1.000  C
  C341     1.0000 0.85202  0.07782  0.36186  Biso   1.000  C
  C342     1.0000 0.85198  0.07782  0.36186  Biso   1.000  C
  H328     1.0000 0.81609  0.08111  0.56400  Biso   1.000  H
  C343     1.0000 0.90121  0.13359  0.64831  Biso   1.000  C
  C344     1.0000 0.83560  0.17168  0.55347  Biso   1.000  C
  N47      1.0000 0.87944  0.12299  0.43272  Biso   1.000  N
  C345     1.0000 0.83562  0.17172  0.55347  Biso   1.000  C
  C346     1.0000 0.90117  0.13359  0.64831  Biso   1.000  C
  H329     1.0000 0.81510  0.04302  0.38739  Biso   1.000  H
  C347     1.0000 0.87681  0.07868  0.24030  Biso   1.000  C
  C348     1.0000 0.87683  0.07873  0.24030  Biso   1.000  C
  C349     1.0000 0.87677  0.07868  0.24030  Biso   1.000  C
  H330     1.0000 0.94030  0.17131  0.62569  Biso   1.000  H
  N48      1.0000 0.91229  0.08202  0.65231  Biso   1.000  N
  C350     1.0000 0.88213  0.14301  0.77287  Biso   1.000  C
  N49      1.0000 0.91233  0.08202  0.65231  Biso   1.000  N
  C351     1.0000 0.88209  0.14301  0.77287  Biso   1.000  C
  H331     1.0000 0.80181  0.16080  0.49523  Biso   1.000  H
  H332     1.0000 0.87101  0.21081  0.52666  Biso   1.000  H
  C352     1.0000 0.81550  0.18018  0.67902  Biso   1.000  C
  C353     1.0000 0.81553  0.18023  0.67902  Biso   1.000  C
  C354     1.0000 0.93310  0.12879  0.20478  Biso   1.000  C
  C355     1.0000 0.84488  0.03068  0.15708  Biso   1.000  C
  C356     1.0000 0.84491  0.03072  0.15708  Biso   1.000  C
  C357     1.0000 0.96648  0.09341  0.64822  Biso   1.000  C
  C358     1.0000 0.96652  0.09341  0.64822  Biso   1.000  C
  H333     1.0000 0.91591  0.15380  0.83120  Biso   1.000  H
  H334     1.0000 0.84621  0.10461  0.80058  Biso   1.000  H
  C359     1.0000 0.86611  0.19390  0.77115  Biso   1.000  C
  C360     1.0000 0.86607  0.19390  0.77115  Biso   1.000  C
  H335     1.0000 0.80701  0.21452  0.67711  Biso   1.000  H
  H336     1.0000 0.77760  0.14278  0.70310  Biso   1.000  H
  H337     1.0000 0.77762  0.14283  0.70310  Biso   1.000  H
  H338     1.0000 0.95510  0.16139  0.26011  Biso   1.000  H
  C361     1.0000 0.95664  0.13112  0.09176  Biso   1.000  C
  C362     1.0000 0.95660  0.13112  0.09176  Biso   1.000  C
  H339     1.0000 0.80668  0.99680  0.17952  Biso   1.000  H
  H340     1.0000 0.80672  0.99680  0.17952  Biso   1.000  H
  C363     1.0000 0.86872  0.03251  0.04306  Biso   1.000  C
  C364     1.0000 0.86868  0.03251  0.04306  Biso   1.000  C
  C365     1.0000 0.98376  0.04535  0.65222  Biso   1.000  C
  H341     1.0000 0.99810  0.13478  0.64232  Biso   1.000  H
  H342     1.0000 0.99812  0.13483  0.64232  Biso   1.000  H
  H343     1.0000 0.90300  0.23322  0.75007  Biso   1.000  H
  H344     1.0000 0.85250  0.19820  0.85309  Biso   1.000  H
  C366     1.0000 0.92439  0.08239  0.00918  Biso   1.000  C
  C367     1.0000 0.01319  0.18658  0.05197  Biso   1.000  C
  C368     1.0000 0.01321  0.18663  0.05197  Biso   1.000  C
  C369     1.0000 0.83711  0.98441  0.95176  Biso   1.000  C
  C370     1.0000 0.93851  0.98281  0.65168  Biso   1.000  C
  C371     1.0000 0.04429  0.06149  0.65168  Biso   1.000  C
  H345     1.0000 0.94070  0.08380  0.93077  Biso   1.000  H
  N50      1.0000 0.03151  0.19399  0.94322  Biso   1.000  N
  H346     1.0000 0.03640  0.21740  0.11002  Biso   1.000  H
  N51      1.0000 0.78394  0.93887  0.96602  Biso   1.000  N
  H347     1.0000 0.85772  0.98761  0.87762  Biso   1.000  H
  H348     1.0000 0.85768  0.98761  0.87762  Biso   1.000  H
  H349     1.0000 0.89659  0.97152  0.65086  Biso   1.000  H
  C372     1.0000 0.95468  0.93842  0.65222  Biso   1.000  C
  H350     1.0000 0.89663  0.97152  0.65086  Biso   1.000  H
  C373     1.0000 0.95464  0.93842  0.65222  Biso   1.000  C
  H351     1.0000 0.07491  0.10342  0.65086  Biso   1.000  H
  C374     1.0000 0.06161  0.01623  0.65222  Biso   1.000  C
  C375     1.0000 0.06163  0.01628  0.65222  Biso   1.000  C
  C376     1.0000 0.06157  0.01623  0.65222  Biso   1.000  C
  C377     1.0000 0.06159  0.01628  0.65222  Biso   1.000  C
  C378     1.0000 0.08518  0.25256  0.91233  Biso   1.000  C
  C379     1.0000 0.08522  0.25256  0.91233  Biso   1.000  C
  C380     1.0000 0.75869  0.89503  0.86681  Biso   1.000  C
  C381     1.0000 0.90661  0.87308  0.64822  Biso   1.000  C
  C382     1.0000 0.90663  0.87313  0.64822  Biso   1.000  C
  C383     1.0000 0.90657  0.87308  0.64822  Biso   1.000  C
  C384     1.0000 0.90659  0.87313  0.64822  Biso   1.000  C
  C385     1.0000 0.01721  0.95570  0.65168  Biso   1.000  C
  C386     1.0000 0.12691  0.03351  0.64822  Biso   1.000  C
  C387     1.0000 0.13633  0.24131  0.86681  Biso   1.000  C
  H352     1.0000 0.09962  0.27930  0.98601  Biso   1.000  H
  C388     1.0000 0.06690  0.28291  0.81403  Biso   1.000  C
  C389     1.0000 0.13636  0.24136  0.86681  Biso   1.000  C
  H353     1.0000 0.09958  0.27930  0.98601  Biso   1.000  H
  C390     1.0000 0.69920  0.89000  0.82193  Biso   1.000  C
  H354     1.0000 0.78881  0.90911  0.79840  Biso   1.000  H
  C391     1.0000 0.74744  0.83262  0.91233  Biso   1.000  C
  C392     1.0000 0.74746  0.83267  0.91233  Biso   1.000  C
  N52      1.0000 0.91796  0.83029  0.65231  Biso   1.000  N
  H355     1.0000 0.86521  0.86330  0.64232  Biso   1.000  H
  N53      1.0000 0.91799  0.83029  0.65231  Biso   1.000  N
  H356     1.0000 0.02852  0.92511  0.65086  Biso   1.000  H
  H357     1.0000 0.02848  0.92511  0.65086  Biso   1.000  H
  N54      1.0000 0.16972  0.08769  0.65231  Biso   1.000  N
  H358     1.0000 0.13669  0.00192  0.64232  Biso   1.000  H
  H359     1.0000 0.13673  0.00192  0.64232  Biso   1.000  H
  N55      1.0000 0.15496  0.21607  0.96602  Biso   1.000  N
  C393     1.0000 0.19078  0.30079  0.82193  Biso   1.000  C
  H360     1.0000 0.12028  0.21118  0.79840  Biso   1.000  H
  H361     1.0000 0.12030  0.21123  0.79840  Biso   1.000  H
  H362     1.0000 0.04920  0.25480  0.74398  Biso   1.000  H
  H363     1.0000 0.03532  0.29142  0.84619  Biso   1.000  H
  C394     1.0000 0.12209  0.34230  0.77224  Biso   1.000  C
  H364     1.0000 0.67090  0.88021  0.89143  Biso   1.000  H
  H365     1.0000 0.70791  0.92991  0.78832  Biso   1.000  H
  C395     1.0000 0.66859  0.84089  0.72481  Biso   1.000  C
  H366     1.0000 0.72070  0.82032  0.98601  Biso   1.000  H
  C396     1.0000 0.71712  0.78402  0.81403  Biso   1.000  C
  N56      1.0000 0.80599  0.83751  0.94322  Biso   1.000  N
  C397     1.0000 0.86642  0.76761  0.64831  Biso   1.000  C
  C398     1.0000 0.86638  0.76761  0.64831  Biso   1.000  C
  C399     1.0000 0.23241  0.09880  0.64831  Biso   1.000  C
  C400     1.0000 0.14730  0.16290  0.95176  Biso   1.000  C
  H367     1.0000 0.20929  0.32909  0.89143  Biso   1.000  H
  H368     1.0000 0.22199  0.29210  0.78832  Biso   1.000  H
  C401     1.0000 0.17230  0.33138  0.72481  Biso   1.000  C
  C402     1.0000 0.17232  0.33142  0.72481  Biso   1.000  C
  C403     1.0000 0.17226  0.33138  0.72481  Biso   1.000  C
  H369     1.0000 0.10962  0.36091  0.70728  Biso   1.000  H
  H370     1.0000 0.13810  0.37138  0.84110  Biso   1.000  H
  H371     1.0000 0.10958  0.36091  0.70728  Biso   1.000  H
  C404     1.0000 0.65772  0.77981  0.77224  Biso   1.000  C
  H372     1.0000 0.69499  0.85260  0.65177  Biso   1.000  H
  H373     1.0000 0.62920  0.83751  0.70119  Biso   1.000  H
  C405     1.0000 0.65768  0.77981  0.77224  Biso   1.000  C
  H374     1.0000 0.74520  0.79440  0.74398  Biso   1.000  H
  H375     1.0000 0.70859  0.74392  0.84619  Biso   1.000  H
  H376     1.0000 0.70863  0.74392  0.84619  Biso   1.000  H
  C406     1.0000 0.81340  0.82658  0.05197  Biso   1.000  C
  C407     1.0000 0.81342  0.82663  0.05197  Biso   1.000  C
  H377     1.0000 0.82872  0.76902  0.62569  Biso   1.000  H
  C408     1.0000 0.85701  0.73912  0.77287  Biso   1.000  C
  C409     1.0000 0.87808  0.73130  0.55038  Biso   1.000  C
  C410     1.0000 0.87812  0.73130  0.55038  Biso   1.000  C
  H378     1.0000 0.23100  0.05971  0.62569  Biso   1.000  H
  C411     1.0000 0.26089  0.11791  0.77287  Biso   1.000  C
  C412     1.0000 0.26868  0.14681  0.55038  Biso   1.000  C
  C413     1.0000 0.26093  0.11791  0.77287  Biso   1.000  C
  C414     1.0000 0.26872  0.14681  0.55038  Biso   1.000  C
  H379     1.0000 0.12990  0.14228  0.87762  Biso   1.000  H
  H380     1.0000 0.12992  0.14233  0.87762  Biso   1.000  H
  C415     1.0000 0.16381  0.13131  0.04306  Biso   1.000  C
  H381     1.0000 0.15761  0.30500  0.65177  Biso   1.000  H
  H382     1.0000 0.20828  0.37079  0.70119  Biso   1.000  H
  H383     1.0000 0.63913  0.74872  0.70728  Biso   1.000  H
  H384     1.0000 0.62859  0.76669  0.84110  Biso   1.000  H
  H385     1.0000 0.63909  0.74872  0.70728  Biso   1.000  H
  C416     1.0000 0.86887  0.82549  0.09176  Biso   1.000  C
  H386     1.0000 0.78260  0.81900  0.11002  Biso   1.000  H
  H387     1.0000 0.84622  0.76212  0.83120  Biso   1.000  H
  H388     1.0000 0.89538  0.74159  0.80058  Biso   1.000  H
  C417     1.0000 0.80608  0.67219  0.77115  Biso   1.000  C
  N57      1.0000 0.87704  0.75645  0.43272  Biso   1.000  N
  C418     1.0000 0.82831  0.66391  0.55347  Biso   1.000  C
  H389     1.0000 0.91890  0.73501  0.56400  Biso   1.000  H
  H390     1.0000 0.23787  0.08408  0.83120  Biso   1.000  H
  H391     1.0000 0.25840  0.15380  0.80058  Biso   1.000  H
  C419     1.0000 0.32781  0.13391  0.77115  Biso   1.000  C
  H392     1.0000 0.23790  0.08412  0.83120  Biso   1.000  H
  N58      1.0000 0.24359  0.12061  0.43272  Biso   1.000  N
  C420     1.0000 0.33608  0.16441  0.55347  Biso   1.000  C
  H393     1.0000 0.26501  0.18389  0.56400  Biso   1.000  H
  C421     1.0000 0.33612  0.16441  0.55347  Biso   1.000  C
  H394     1.0000 0.26497  0.18389  0.56400  Biso   1.000  H
  C422     1.0000 0.15802  0.07562  0.00918  Biso   1.000  C
  C423     1.0000 0.18579  0.15508  0.15708  Biso   1.000  C
  C424     1.0000 0.18582  0.15513  0.15708  Biso   1.000  C
  C425     1.0000 0.87120  0.80432  0.20478  Biso   1.000  C
  C426     1.0000 0.91759  0.84199  0.00918  Biso   1.000  C
  H395     1.0000 0.76680  0.66981  0.75007  Biso   1.000  H
  H396     1.0000 0.80182  0.65431  0.85309  Biso   1.000  H
  C427     1.0000 0.81978  0.63529  0.67902  Biso   1.000  C
  C428     1.0000 0.92218  0.77419  0.36186  Biso   1.000  C
  C429     1.0000 0.92222  0.77419  0.36186  Biso   1.000  C
  H397     1.0000 0.83919  0.64101  0.49523  Biso   1.000  H
  H398     1.0000 0.78920  0.66021  0.52666  Biso   1.000  H
  H399     1.0000 0.33022  0.09702  0.75007  Biso   1.000  H
  H400     1.0000 0.34568  0.14749  0.85309  Biso   1.000  H
  C430     1.0000 0.36469  0.18448  0.67902  Biso   1.000  C
  C431     1.0000 0.36471  0.18453  0.67902  Biso   1.000  C
  H401     1.0000 0.33018  0.09702  0.75007  Biso   1.000  H
  C432     1.0000 0.22580  0.14800  0.36186  Biso   1.000  C
  H402     1.0000 0.35900  0.19820  0.49523  Biso   1.000  H
  H403     1.0000 0.33981  0.12902  0.52666  Biso   1.000  H
  H404     1.0000 0.14309  0.05930  0.93077  Biso   1.000  H
  C433     1.0000 0.17449  0.04339  0.09176  Biso   1.000  C
  C434     1.0000 0.20189  0.12321  0.24030  Biso   1.000  C
  H405     1.0000 0.19009  0.19330  0.17952  Biso   1.000  H
  C435     1.0000 0.92130  0.79810  0.24030  Biso   1.000  C
  H406     1.0000 0.83861  0.79371  0.26011  Biso   1.000  H
  H407     1.0000 0.91621  0.85690  0.93077  Biso   1.000  H
  H408     1.0000 0.91617  0.85690  0.93077  Biso   1.000  H
  C436     1.0000 0.96751  0.83619  0.04306  Biso   1.000  C
  C437     1.0000 0.96753  0.83623  0.04306  Biso   1.000  C
  C438     1.0000 0.96747  0.83619  0.04306  Biso   1.000  C
  H409     1.0000 0.85719  0.63479  0.70310  Biso   1.000  H
  H410     1.0000 0.78552  0.59250  0.67711  Biso   1.000  H
  H411     1.0000 0.78548  0.59250  0.67711  Biso   1.000  H
  H412     1.0000 0.95700  0.77209  0.38739  Biso   1.000  H
  H413     1.0000 0.36519  0.22238  0.70310  Biso   1.000  H
  H414     1.0000 0.40751  0.19298  0.67711  Biso   1.000  H
  H415     1.0000 0.36521  0.22243  0.70310  Biso   1.000  H
  H416     1.0000 0.40747  0.19298  0.67711  Biso   1.000  H
  H417     1.0000 0.22790  0.18489  0.38739  Biso   1.000  H
  C439     1.0000 0.19570  0.06689  0.20478  Biso   1.000  C
  C440     1.0000 0.17339  0.98679  0.05197  Biso   1.000  C
  C441     1.0000 0.96930  0.81419  0.15708  Biso   1.000  C
  C442     1.0000 0.01559  0.85269  0.95176  Biso   1.000  C
  H418     1.0000 0.20629  0.04490  0.26011  Biso   1.000  H
  N59      1.0000 0.16250  0.96850  0.94322  Biso   1.000  N
  H419     1.0000 0.18100  0.96361  0.11002  Biso   1.000  H
  H420     1.0000 0.00318  0.80990  0.17952  Biso   1.000  H
  N60      1.0000 0.06111  0.84506  0.96602  Biso   1.000  N
  H421     1.0000 0.01242  0.87011  0.87762  Biso   1.000  H
  H422     1.0000 0.01238  0.87011  0.87762  Biso   1.000  H
  C443     1.0000 0.16736  0.91478  0.91233  Biso   1.000  C
  C444     1.0000 0.16738  0.91482  0.91233  Biso   1.000  C
  C445     1.0000 0.10498  0.86366  0.86681  Biso   1.000  C
  H423     1.0000 0.17970  0.90042  0.98601  Biso   1.000  H
  C446     1.0000 0.21600  0.93311  0.81403  Biso   1.000  C
  C447     1.0000 0.11002  0.80921  0.82193  Biso   1.000  C
  H424     1.0000 0.09091  0.87971  0.79840  Biso   1.000  H
  C448     1.0000 0.10998  0.80921  0.82193  Biso   1.000  C
  H425     1.0000 0.20561  0.95081  0.74398  Biso   1.000  H
  H426     1.0000 0.25611  0.96470  0.84619  Biso   1.000  H
  C449     1.0000 0.22018  0.87788  0.77224  Biso   1.000  C
  C450     1.0000 0.22020  0.87793  0.77224  Biso   1.000  C
  H427     1.0000 0.11981  0.79069  0.89143  Biso   1.000  H
  H428     1.0000 0.07010  0.77798  0.78832  Biso   1.000  H
  C451     1.0000 0.15909  0.82768  0.72481  Biso   1.000  C
  H429     1.0000 0.07012  0.77803  0.78832  Biso   1.000  H
  C452     1.0000 0.15911  0.82773  0.72481  Biso   1.000  C
  H430     1.0000 0.11977  0.79069  0.89143  Biso   1.000  H
  H431     1.0000 0.25131  0.89041  0.70728  Biso   1.000  H
  H432     1.0000 0.23328  0.86188  0.84110  Biso   1.000  H
  H433     1.0000 0.23331  0.86193  0.84110  Biso   1.000  H
  H434     1.0000 0.14741  0.84240  0.65177  Biso   1.000  H
  H435     1.0000 0.16248  0.79170  0.70119  Biso   1.000  H
  H436     1.0000 0.16252  0.79170  0.70119  Biso   1.000  H
  C453     1.0000 0.75888  0.21859  0.24275  Biso   1.000  C
  N61      1.0000 0.74542  0.20085  0.13582  Biso   1.000  N
  C454     1.0000 0.78929  0.28360  0.27755  Biso   1.000  C
  H437     1.0000 0.74908  0.18878  0.30472  Biso   1.000  H
  C455     1.0000 0.71431  0.13460  0.11138  Biso   1.000  C
  C456     1.0000 0.79628  0.32831  0.19397  Biso   1.000  C
  C457     1.0000 0.81378  0.30129  0.39339  Biso   1.000  C
  C458     1.0000 0.65141  0.11412  0.05969  Biso   1.000  C
  H438     1.0000 0.71019  0.11211  0.18888  Biso   1.000  H
  C459     1.0000 0.75240  0.12129  0.01981  Biso   1.000  C
  C460     1.0000 0.82830  0.38949  0.22468  Biso   1.000  C
  H439     1.0000 0.77902  0.31652  0.11520  Biso   1.000  H
  C461     1.0000 0.84560  0.36288  0.42637  Biso   1.000  C
  H440     1.0000 0.80879  0.27112  0.45089  Biso   1.000  H
  N62      1.0000 0.61530  0.12321  0.15281  Biso   1.000  N
  C462     1.0000 0.61971  0.04659  0.02262  Biso   1.000  C
  H441     1.0000 0.65539  0.13949  0.98692  Biso   1.000  H
  H442     1.0000 0.79258  0.13291  0.05624  Biso   1.000  H
  H443     1.0000 0.75958  0.14649  0.94622  Biso   1.000  H
  C463     1.0000 0.72048  0.05468  0.98437  Biso   1.000  C
  C464     1.0000 0.83932  0.43672  0.13246  Biso   1.000  C
  C465     1.0000 0.85108  0.40599  0.34096  Biso   1.000  C
  C466     1.0000 0.87459  0.38428  0.54447  Biso   1.000  C
  C467     1.0000 0.59742  0.16071  0.13246  Biso   1.000  C
  H444     1.0000 0.61229  0.02099  0.09576  Biso   1.000  H
  C468     1.0000 0.65798  0.03429  0.93250  Biso   1.000  C
  H445     1.0000 0.57951  0.03470  0.98565  Biso   1.000  H
  H446     1.0000 0.71649  0.02958  0.05660  Biso   1.000  H
  H447     1.0000 0.74551  0.04819  0.92332  Biso   1.000  H
  N63      1.0000 0.87678  0.49208  0.15281  Biso   1.000  N
  H448     1.0000 0.81779  0.42501  0.05751  Biso   1.000  H
  H449     1.0000 0.87122  0.44801  0.36331  Biso   1.000  H
  N64      1.0000 0.87964  0.35067  0.62360  Biso   1.000  N
  H450     1.0000 0.89081  0.42629  0.56346  Biso   1.000  H
  C469     1.0000 0.56119  0.17172  0.22468  Biso   1.000  C
  H451     1.0000 0.60721  0.18219  0.05751  Biso   1.000  H
  H452     1.0000 0.63730  0.98999  0.91378  Biso   1.000  H
  H453     1.0000 0.66201  0.05651  0.85591  Biso   1.000  H
  C470     1.0000 0.88589  0.53730  0.05969  Biso   1.000  C
  C471     1.0000 0.91460  0.38021  0.73344  Biso   1.000  C
  C472     1.0000 0.53200  0.20368  0.19397  Biso   1.000  C
  C473     1.0000 0.55490  0.14891  0.34096  Biso   1.000  C
  C474     1.0000 0.86539  0.57968  0.11138  Biso   1.000  C
  C475     1.0000 0.95340  0.57310  0.02262  Biso   1.000  C
  H454     1.0000 0.86050  0.51590  0.98692  Biso   1.000  H
  C476     1.0000 0.87603  0.34788  0.84510  Biso   1.000  C
  C477     1.0000 0.97440  0.37888  0.72999  Biso   1.000  C
  H455     1.0000 0.92439  0.42378  0.73426  Biso   1.000  H
  C478     1.0000 0.49428  0.21068  0.27755  Biso   1.000  C
  H456     1.0000 0.53749  0.22101  0.11520  Biso   1.000  H
  C479     1.0000 0.51729  0.15440  0.42637  Biso   1.000  C
  H457     1.0000 0.57679  0.12879  0.36331  Biso   1.000  H
  N65      1.0000 0.79911  0.54452  0.13582  Biso   1.000  N
  H458     1.0000 0.88790  0.59811  0.18888  Biso   1.000  H
  C480     1.0000 0.87871  0.63112  0.01981  Biso   1.000  C
  H459     1.0000 0.97901  0.59129  0.09576  Biso   1.000  H
  C481     1.0000 0.96572  0.62371  0.93250  Biso   1.000  C
  H460     1.0000 0.96530  0.54480  0.98565  Biso   1.000  H
  N66      1.0000 0.82547  0.36087  0.85100  Biso   1.000  N
  H461     1.0000 0.85911  0.30280  0.83719  Biso   1.000  H
  C482     1.0000 0.91397  0.37079  0.96148  Biso   1.000  C
  H462     1.0000 0.96508  0.33641  0.71518  Biso   1.000  H
  H463     1.0000 0.99959  0.40439  0.66158  Biso   1.000  H
  C483     1.0000 0.01029  0.40188  0.84682  Biso   1.000  C
  C484     1.0000 0.45971  0.24108  0.24275  Biso   1.000  C
  C485     1.0000 0.48751  0.18622  0.39339  Biso   1.000  C
  C486     1.0000 0.50969  0.12541  0.54447  Biso   1.000  C
  C487     1.0000 0.78140  0.54032  0.24275  Biso   1.000  C
  H464     1.0000 0.86710  0.65969  0.05624  Biso   1.000  H
  H465     1.0000 0.85351  0.61310  0.94622  Biso   1.000  H
  C488     1.0000 0.94530  0.66577  0.98437  Biso   1.000  C
  H466     1.0000 0.94352  0.60551  0.85591  Biso   1.000  H
  H467     1.0000 0.00998  0.64730  0.91378  Biso   1.000  H
  C489     1.0000 0.77149  0.31698  0.84692  Biso   1.000  C
  H468     1.0000 0.92588  0.41408  0.97529  Biso   1.000  H
  C490     1.0000 0.97138  0.36539  0.95376  Biso   1.000  C
  H469     1.0000 0.88889  0.34660  0.03153  Biso   1.000  H
  H470     1.0000 0.02328  0.44559  0.85800  Biso   1.000  H
  H471     1.0000 0.04727  0.39799  0.84237  Biso   1.000  H
  N67      1.0000 0.45544  0.25457  0.13582  Biso   1.000  N
  H472     1.0000 0.43972  0.25091  0.30472  Biso   1.000  H
  H473     1.0000 0.46229  0.19120  0.45089  Biso   1.000  H
  N68      1.0000 0.47100  0.12033  0.62360  Biso   1.000  N
  H474     1.0000 0.53550  0.10918  0.56346  Biso   1.000  H
  C491     1.0000 0.71639  0.50571  0.27755  Biso   1.000  C
  H475     1.0000 0.81119  0.56030  0.30472  Biso   1.000  H
  H476     1.0000 0.97039  0.68690  0.05660  Biso   1.000  H
  H477     1.0000 0.95178  0.69727  0.92332  Biso   1.000  H
  C492     1.0000 0.71791  0.32566  0.85037  Biso   1.000  C
  H478     1.0000 0.76501  0.27670  0.84128  Biso   1.000  H
  H479     1.0000 0.95970  0.32191  0.94422  Biso   1.000  H
  H480     1.0000 0.99511  0.38071  0.02980  Biso   1.000  H
  C493     1.0000 0.42029  0.28570  0.11138  Biso   1.000  C
  C494     1.0000 0.46561  0.08540  0.73344  Biso   1.000  C
  C495     1.0000 0.67167  0.46799  0.19397  Biso   1.000  C
  C496     1.0000 0.69867  0.51247  0.39339  Biso   1.000  C
  C497     1.0000 0.65911  0.27482  0.84991  Biso   1.000  C
  C498     1.0000 0.72516  0.38428  0.84991  Biso   1.000  C
  C499     1.0000 0.36890  0.24762  0.01981  Biso   1.000  C
  C500     1.0000 0.46271  0.34861  0.05969  Biso   1.000  C
  H481     1.0000 0.40192  0.28982  0.18888  Biso   1.000  H
  C501     1.0000 0.47186  0.12395  0.84510  Biso   1.000  C
  C502     1.0000 0.40451  0.02560  0.72999  Biso   1.000  C
  H482     1.0000 0.49940  0.07562  0.73426  Biso   1.000  H
  C503     1.0000 0.61052  0.43882  0.22468  Biso   1.000  C
  H483     1.0000 0.68350  0.46250  0.11520  Biso   1.000  H
  C504     1.0000 0.63710  0.48271  0.42637  Biso   1.000  C
  H484     1.0000 0.72890  0.53771  0.45089  Biso   1.000  H
  C505     1.0000 0.60775  0.28209  0.85037  Biso   1.000  C
  H485     1.0000 0.65388  0.23491  0.84928  Biso   1.000  H
  C506     1.0000 0.67436  0.39228  0.85037  Biso   1.000  C
  H486     1.0000 0.76508  0.41898  0.84928  Biso   1.000  H
  H487     1.0000 0.34031  0.20739  0.05624  Biso   1.000  H
  H488     1.0000 0.38691  0.24039  0.94622  Biso   1.000  H
  C507     1.0000 0.33419  0.27949  0.98437  Biso   1.000  C
  N69      1.0000 0.50793  0.38473  0.15281  Biso   1.000  N
  C508     1.0000 0.42688  0.38030  0.02262  Biso   1.000  C
  H489     1.0000 0.48410  0.34459  0.98692  Biso   1.000  H
  N70      1.0000 0.53539  0.17451  0.85100  Biso   1.000  N
  H490     1.0000 0.44371  0.14091  0.83719  Biso   1.000  H
  C509     1.0000 0.45680  0.08600  0.96148  Biso   1.000  C
  H491     1.0000 0.37130  0.03488  0.71518  Biso   1.000  H
  H492     1.0000 0.40478  0.00041  0.66158  Biso   1.000  H
  C510     1.0000 0.39159  0.98971  0.84682  Biso   1.000  C
  C511     1.0000 0.56332  0.40261  0.13246  Biso   1.000  C
  C512     1.0000 0.59398  0.44508  0.34096  Biso   1.000  C
  C513     1.0000 0.61572  0.49030  0.54447  Biso   1.000  C
  C514     1.0000 0.54552  0.22851  0.84692  Biso   1.000  C
  C515     1.0000 0.61572  0.34089  0.84991  Biso   1.000  C
  C516     1.0000 0.68298  0.45450  0.84692  Biso   1.000  C
  H493     1.0000 0.31312  0.28351  0.05660  Biso   1.000  H
  H494     1.0000 0.30268  0.25448  0.92332  Biso   1.000  H
  C517     1.0000 0.37629  0.34198  0.93250  Biso   1.000  C
  H495     1.0000 0.40869  0.38770  0.09576  Biso   1.000  H
  H496     1.0000 0.45517  0.42049  0.98565  Biso   1.000  H
  H497     1.0000 0.48820  0.07411  0.97529  Biso   1.000  H
  C518     1.0000 0.39402  0.02862  0.95376  Biso   1.000  C
  H498     1.0000 0.45771  0.11110  0.03153  Biso   1.000  H
  H499     1.0000 0.42230  0.97668  0.85800  Biso   1.000  H
  H500     1.0000 0.35071  0.95268  0.84237  Biso   1.000  H
  H501     1.0000 0.57499  0.39278  0.05751  Biso   1.000  H
  H502     1.0000 0.55199  0.42318  0.36331  Biso   1.000  H
  N71      1.0000 0.64931  0.52898  0.62360  Biso   1.000  N
  H503     1.0000 0.57372  0.46451  0.56346  Biso   1.000  H
  H504     1.0000 0.51170  0.23500  0.84128  Biso   1.000  H
  H505     1.0000 0.58099  0.34610  0.84928  Biso   1.000  H
  N72      1.0000 0.63910  0.46461  0.85100  Biso   1.000  N
  H506     1.0000 0.72328  0.48829  0.84128  Biso   1.000  H
  H507     1.0000 0.35271  0.36270  0.91378  Biso   1.000  H
  H508     1.0000 0.39449  0.33801  0.85591  Biso   1.000  H
  H509     1.0000 0.36220  0.04028  0.94422  Biso   1.000  H
  H510     1.0000 0.38560  0.00489  0.02980  Biso   1.000  H
  C519     1.0000 0.61978  0.53437  0.73344  Biso   1.000  C
  C520     1.0000 0.65208  0.52811  0.84510  Biso   1.000  C
  C521     1.0000 0.62108  0.59550  0.72999  Biso   1.000  C
  H511     1.0000 0.57620  0.50059  0.73426  Biso   1.000  H
  H512     1.0000 0.69717  0.55627  0.83719  Biso   1.000  H
  C522     1.0000 0.62918  0.54320  0.96148  Biso   1.000  C
  C523     1.0000 0.59811  0.60839  0.84682  Biso   1.000  C
  H513     1.0000 0.66361  0.62869  0.71518  Biso   1.000  H
  H514     1.0000 0.59558  0.59518  0.66158  Biso   1.000  H
  H515     1.0000 0.58587  0.51179  0.97529  Biso   1.000  H
  C524     1.0000 0.63461  0.60602  0.95376  Biso   1.000  C
  H516     1.0000 0.65339  0.54228  0.03153  Biso   1.000  H
  H517     1.0000 0.55442  0.57772  0.85800  Biso   1.000  H
  H518     1.0000 0.60202  0.64931  0.84237  Biso   1.000  H
  H519     1.0000 0.67810  0.63779  0.94422  Biso   1.000  H
  H520     1.0000 0.61928  0.61438  0.02980  Biso   1.000  H
  C525     1.0000 0.43062  0.42300  0.47415  Biso   1.000  C
  C526     1.0000 0.36372  0.39310  0.43445  Biso   1.000  C
  C527     1.0000 0.45449  0.48920  0.51213  Biso   1.000  C
  H521     1.0000 0.43420  0.39991  0.54320  Biso   1.000  H
  H522     1.0000 0.45557  0.42167  0.40629  Biso   1.000  H
  H523     1.0000 0.34792  0.34930  0.41683  Biso   1.000  H
  H524     1.0000 0.36067  0.41299  0.35923  Biso   1.000  H
  C528     1.0000 0.32451  0.39941  0.53520  Biso   1.000  C
  C529     1.0000 0.41588  0.49409  0.61097  Biso   1.000  C
  H525     1.0000 0.49708  0.50699  0.54129  Biso   1.000  H
  H526     1.0000 0.45469  0.51311  0.44072  Biso   1.000  H
  H527     1.0000 0.28190  0.38190  0.50641  Biso   1.000  H
  H528     1.0000 0.32429  0.37609  0.60780  Biso   1.000  H
  C530     1.0000 0.34951  0.46589  0.56973  Biso   1.000  C
  N73      1.0000 0.43881  0.55952  0.64023  Biso   1.000  N
  H529     1.0000 0.41789  0.47238  0.68529  Biso   1.000  H
  N74      1.0000 0.31319  0.46927  0.66966  Biso   1.000  N
  H530     1.0000 0.34708  0.48897  0.49805  Biso   1.000  H
  C531     1.0000 0.44639  0.57420  0.75098  Biso   1.000  C
  C532     1.0000 0.28601  0.49940  0.65177  Biso   1.000  C
  C533     1.0000 0.46816  0.63761  0.79095  Biso   1.000  C
  H531     1.0000 0.43790  0.54361  0.81030  Biso   1.000  H
  H532     1.0000 0.29140  0.51929  0.57591  Biso   1.000  H
  C534     1.0000 0.24658  0.50488  0.74362  Biso   1.000  C
  C535     1.0000 0.48837  0.65507  0.90751  Biso   1.000  C
  C536     1.0000 0.47117  0.68118  0.70809  Biso   1.000  C
  C537     1.0000 0.21002  0.52884  0.70809  Biso   1.000  C
  C538     1.0000 0.24301  0.48458  0.86209  Biso   1.000  C
  C539     1.0000 0.51371  0.71620  0.94667  Biso   1.000  C
  H533     1.0000 0.48529  0.62508  0.96366  Biso   1.000  H
  H534     1.0000 0.45680  0.66929  0.62733  Biso   1.000  H
  C540     1.0000 0.49510  0.74171  0.74362  Biso   1.000  C
  C541     1.0000 0.16944  0.53186  0.79095  Biso   1.000  C
  H535     1.0000 0.21248  0.54320  0.62733  Biso   1.000  H
  C542     1.0000 0.20247  0.48628  0.94667  Biso   1.000  C
  H536     1.0000 0.26888  0.46918  0.88662  Biso   1.000  H
  C543     1.0000 0.51541  0.75840  0.86209  Biso   1.000  C
  C544     1.0000 0.54110  0.73568  0.06450  Biso   1.000  C
  C545     1.0000 0.50061  0.78661  0.65177  Biso   1.000  C
  C546     1.0000 0.16671  0.51161  0.90751  Biso   1.000  C
  C547     1.0000 0.12779  0.55358  0.75098  Biso   1.000  C
  C548     1.0000 0.19460  0.45889  0.06450  Biso   1.000  C
  H537     1.0000 0.53078  0.79969  0.88662  Biso   1.000  H
  N75      1.0000 0.54890  0.70020  0.13600  Biso   1.000  N
  H538     1.0000 0.55400  0.77628  0.09022  Biso   1.000  H
  N76      1.0000 0.53071  0.84390  0.66966  Biso   1.000  N
  H539     1.0000 0.48067  0.77207  0.57591  Biso   1.000  H
  H540     1.0000 0.13980  0.51471  0.96366  Biso   1.000  H
  N77      1.0000 0.12070  0.56117  0.64023  Biso   1.000  N
  H541     1.0000 0.10568  0.56208  0.81030  Biso   1.000  H
  N78      1.0000 0.15130  0.45107  0.13600  Biso   1.000  N
  H542     1.0000 0.22229  0.44600  0.09022  Biso   1.000  H
  C549     1.0000 0.58369  0.72599  0.24784  Biso   1.000  C
  C550     1.0000 0.53409  0.88358  0.56973  Biso   1.000  C
  C551     1.0000 0.07821  0.58412  0.61097  Biso   1.000  C
  C552     1.0000 0.14229  0.41628  0.24784  Biso   1.000  C
  C553     1.0000 0.54558  0.68818  0.35695  Biso   1.000  C
  C554     1.0000 0.64299  0.72429  0.23939  Biso   1.000  C
  H543     1.0000 0.59319  0.76928  0.25711  Biso   1.000  H
  C555     1.0000 0.50592  0.92180  0.61097  Biso   1.000  C
  C556     1.0000 0.60061  0.92510  0.53520  Biso   1.000  C
  H544     1.0000 0.51102  0.85812  0.49805  Biso   1.000  H
  H545     1.0000 0.05451  0.58211  0.68529  Biso   1.000  H
  C557     1.0000 0.03470  0.54548  0.51213  Biso   1.000  C
  C558     1.0000 0.11639  0.65050  0.56973  Biso   1.000  C
  C559     1.0000 0.14259  0.45441  0.35695  Biso   1.000  C
  C560     1.0000 0.08129  0.35698  0.23939  Biso   1.000  C
  H546     1.0000 0.17613  0.40682  0.25711  Biso   1.000  H
  N79      1.0000 0.49347  0.69901  0.36886  Biso   1.000  N
  H547     1.0000 0.53000  0.64378  0.34115  Biso   1.000  H
  C561     1.0000 0.58260  0.70701  0.47306  Biso   1.000  C
  C562     1.0000 0.68009  0.74528  0.35450  Biso   1.000  C
  H548     1.0000 0.63341  0.68200  0.22095  Biso   1.000  H
  H549     1.0000 0.66781  0.75081  0.17144  Biso   1.000  H
  N80      1.0000 0.44047  0.87928  0.64023  Biso   1.000  N
  H550     1.0000 0.52758  0.94549  0.68529  Biso   1.000  H
  C563     1.0000 0.51079  0.96528  0.51213  Biso   1.000  C
  C564     1.0000 0.60689  0.97059  0.43445  Biso   1.000  C
  H551     1.0000 0.61808  0.90000  0.50641  Biso   1.000  H
  H552     1.0000 0.62388  0.94818  0.60780  Biso   1.000  H
  H553     1.0000 0.00989  0.50292  0.54129  Biso   1.000  H
  H554     1.0000 0.05840  0.54530  0.44072  Biso   1.000  H
  C565     1.0000 0.99241  0.56940  0.47415  Biso   1.000  C
  N81      1.0000 0.15608  0.68680  0.66966  Biso   1.000  N
  C566     1.0000 0.07493  0.67551  0.53520  Biso   1.000  C
  H555     1.0000 0.14189  0.65288  0.49805  Biso   1.000  H
  N82      1.0000 0.20551  0.50653  0.36886  Biso   1.000  N
  H556     1.0000 0.11380  0.47000  0.34115  Biso   1.000  H
  C567     1.0000 0.12439  0.41738  0.47306  Biso   1.000  C
  C568     1.0000 0.06520  0.31990  0.35450  Biso   1.000  C
  H557     1.0000 0.04859  0.36658  0.22095  Biso   1.000  H
  H558     1.0000 0.08299  0.33220  0.17144  Biso   1.000  H
  C569     1.0000 0.43961  0.65361  0.36004  Biso   1.000  C
  H559     1.0000 0.55801  0.67921  0.53957  Biso   1.000  H
  H560     1.0000 0.59261  0.74889  0.49523  Biso   1.000  H
  C570     1.0000 0.64221  0.70500  0.45898  Biso   1.000  C
  H561     1.0000 0.69230  0.78839  0.37122  Biso   1.000  H
  H562     1.0000 0.71778  0.74258  0.34514  Biso   1.000  H
  C571     1.0000 0.42580  0.87220  0.75098  Biso   1.000  C
  H563     1.0000 0.49300  0.99011  0.54129  Biso   1.000  H
  H564     1.0000 0.48692  0.94160  0.44072  Biso   1.000  H
  C572     1.0000 0.57700  0.00757  0.47415  Biso   1.000  C
  H565     1.0000 0.65072  0.99861  0.41683  Biso   1.000  H
  H566     1.0000 0.58700  0.94768  0.35923  Biso   1.000  H
  C573     1.0000 0.02938  0.63628  0.43445  Biso   1.000  C
  H567     1.0000 0.96570  0.56578  0.54320  Biso   1.000  H
  H568     1.0000 0.96609  0.54439  0.40629  Biso   1.000  H
  C574     1.0000 0.21339  0.71401  0.65177  Biso   1.000  C
  H569     1.0000 0.09997  0.71808  0.50641  Biso   1.000  H
  H570     1.0000 0.05182  0.67569  0.60780  Biso   1.000  H
  C575     1.0000 0.21399  0.56039  0.36004  Biso   1.000  C
  H571     1.0000 0.12117  0.44197  0.53957  Biso   1.000  H
  H572     1.0000 0.15631  0.40741  0.49523  Biso   1.000  H
  C576     1.0000 0.06281  0.35780  0.45898  Biso   1.000  C
  H573     1.0000 0.09608  0.30769  0.37122  Biso   1.000  H
  H574     1.0000 0.02480  0.28218  0.34514  Biso   1.000  H
  C577     1.0000 0.38558  0.66070  0.36295  Biso   1.000  C
  H575     1.0000 0.43419  0.61379  0.35141  Biso   1.000  H
  H576     1.0000 0.66609  0.71917  0.53520  Biso   1.000  H
  H577     1.0000 0.63231  0.66239  0.44408  Biso   1.000  H
  C578     1.0000 0.36241  0.83055  0.79095  Biso   1.000  C
  H578     1.0000 0.45641  0.89428  0.81030  Biso   1.000  H
  H579     1.0000 0.60009  0.03427  0.54320  Biso   1.000  H
  H580     1.0000 0.57829  0.03391  0.40629  Biso   1.000  H
  H581     1.0000 0.00142  0.65210  0.41683  Biso   1.000  H
  H582     1.0000 0.05231  0.63930  0.35923  Biso   1.000  H
  C579     1.0000 0.25830  0.75337  0.74362  Biso   1.000  C
  H583     1.0000 0.22792  0.70861  0.57591  Biso   1.000  H
  C580     1.0000 0.27512  0.61438  0.36295  Biso   1.000  C
  H584     1.0000 0.17959  0.56578  0.35141  Biso   1.000  H
  H585     1.0000 0.05311  0.33389  0.53520  Biso   1.000  H
  H586     1.0000 0.03009  0.36768  0.44408  Biso   1.000  H
  C581     1.0000 0.32802  0.60931  0.36313  Biso   1.000  C
  C582     1.0000 0.39072  0.71872  0.36313  Biso   1.000  C
  C583     1.0000 0.31879  0.78995  0.70809  Biso   1.000  C
  C584     1.0000 0.34490  0.83329  0.90751  Biso   1.000  C
  C585     1.0000 0.24157  0.75698  0.86209  Biso   1.000  C
  C586     1.0000 0.28132  0.67199  0.36313  Biso   1.000  C
  H587     1.0000 0.32419  0.56990  0.36350  Biso   1.000  H
  C587     1.0000 0.33928  0.72489  0.36295  Biso   1.000  C
  H588     1.0000 0.43008  0.75429  0.36350  Biso   1.000  H
  H589     1.0000 0.33070  0.78748  0.62733  Biso   1.000  H
  C588     1.0000 0.28380  0.79749  0.94667  Biso   1.000  C
  H590     1.0000 0.37489  0.86017  0.96366  Biso   1.000  H
  H591     1.0000 0.20029  0.73111  0.88662  Biso   1.000  H
  H592     1.0000 0.24568  0.67579  0.36350  Biso   1.000  H
  C589     1.0000 0.34641  0.78602  0.36004  Biso   1.000  C
  C590     1.0000 0.26432  0.80540  0.06450  Biso   1.000  C
  N83      1.0000 0.30098  0.79447  0.36886  Biso   1.000  N
  H593     1.0000 0.38620  0.82040  0.35141  Biso   1.000  H
  N84      1.0000 0.29978  0.84870  0.13600  Biso   1.000  N
  H594     1.0000 0.22370  0.77769  0.09022  Biso   1.000  H
  C591     1.0000 0.31181  0.85738  0.35695  Biso   1.000  C
  C592     1.0000 0.27400  0.85770  0.24784  Biso   1.000  C
  H595     1.0000 0.35618  0.88619  0.34115  Biso   1.000  H
  C593     1.0000 0.29299  0.87558  0.47306  Biso   1.000  C
  C594     1.0000 0.27571  0.91869  0.23939  Biso   1.000  C
  H596     1.0000 0.23067  0.82387  0.25711  Biso   1.000  H
  H597     1.0000 0.32080  0.87878  0.53957  Biso   1.000  H
  H598     1.0000 0.25113  0.84371  0.49523  Biso   1.000  H
  C595     1.0000 0.29502  0.93721  0.45898  Biso   1.000  C
  C596     1.0000 0.25469  0.93479  0.35450  Biso   1.000  C
  H599     1.0000 0.31799  0.95138  0.22095  Biso   1.000  H
  H600     1.0000 0.24920  0.91700  0.17144  Biso   1.000  H
  H601     1.0000 0.28078  0.94690  0.53520  Biso   1.000  H
  H602     1.0000 0.33762  0.96990  0.44408  Biso   1.000  H
  H603     1.0000 0.21160  0.90388  0.37122  Biso   1.000  H
  H604     1.0000 0.25740  0.97520  0.34514  Biso   1.000  H
