data_image0
_cell_length_a       11.966
_cell_length_b       12.944
_cell_length_c       21.641
_cell_angle_alpha    90
_cell_angle_beta     90.39
_cell_angle_gamma    90

_symmetry_space_group_name_H-M    "P 1"
_symmetry_int_tables_number       1

loop_
  _symmetry_equiv_pos_as_xyz
  'x, y, z'

loop_
  _atom_site_label
  _atom_site_occupancy
  _atom_site_fract_x
  _atom_site_fract_y
  _atom_site_fract_z
  _atom_site_thermal_displace_type
  _atom_site_B_iso_or_equiv
  _atom_site_type_symbol
  C1       1.0000 0.35266  0.23540  0.08766  Biso   1.000  C
  C2       1.0000 0.25628  0.18387  0.11991  Biso   1.000  C
  O1       1.0000 0.44328  0.23980  0.13068  Biso   1.000  O
  H1       1.0000 0.37443  0.19523  0.05069  Biso   1.000  H
  H2       1.0000 0.33143  0.30593  0.07431  Biso   1.000  H
  C3       1.0000 0.25628  0.18387  0.11987  Biso   1.000  C
  O2       1.0000 0.44319  0.23980  0.13073  Biso   1.000  O
  H3       1.0000 0.37435  0.19523  0.05074  Biso   1.000  H
  H4       1.0000 0.33135  0.30593  0.07431  Biso   1.000  H
  C4       1.0000 0.35274  0.23540  0.08761  Biso   1.000  C
  H5       1.0000 0.27791  0.11372  0.13202  Biso   1.000  H
  H6       1.0000 0.19184  0.18078  0.09182  Biso   1.000  H
  H7       1.0000 0.23668  0.22373  0.15670  Biso   1.000  H
  H8       1.0000 0.19175  0.18078  0.09182  Biso   1.000  H
  H9       1.0000 0.23668  0.22373  0.15674  Biso   1.000  H
  C5       1.0000 0.54332  0.27858  0.11081  Biso   1.000  C
  C6       1.0000 0.63266  0.27148  0.15217  Biso   1.000  C
  C7       1.0000 0.55832  0.32440  0.05323  Biso   1.000  C
  C8       1.0000 0.63266  0.27148  0.15221  Biso   1.000  C
  C9       1.0000 0.55824  0.32440  0.05323  Biso   1.000  C
  C10      1.0000 0.73582  0.31057  0.13429  Biso   1.000  C
  C11      1.0000 0.61758  0.22814  0.21668  Biso   1.000  C
  C12      1.0000 0.73573  0.31057  0.13429  Biso   1.000  C
  C13      1.0000 0.61758  0.22814  0.21672  Biso   1.000  C
  C14      1.0000 0.66132  0.36527  0.03609  Biso   1.000  C
  H10      1.0000 0.49722  0.32787  0.02509  Biso   1.000  H
  C15      1.0000 0.66123  0.36527  0.03609  Biso   1.000  C
  H11      1.0000 0.49713  0.32787  0.02514  Biso   1.000  H
  C16      1.0000 0.75090  0.35661  0.07680  Biso   1.000  C
  H12      1.0000 0.79750  0.30593  0.16201  Biso   1.000  H
  C17      1.0000 0.75090  0.35661  0.07685  Biso   1.000  C
  H13      1.0000 0.68740  0.24003  0.24038  Biso   1.000  H
  H14      1.0000 0.55749  0.26761  0.23729  Biso   1.000  H
  C18      1.0000 0.58912  0.11472  0.22042  Biso   1.000  C
  H15      1.0000 0.68740  0.24003  0.24043  Biso   1.000  H
  H16      1.0000 0.55749  0.26761  0.23733  Biso   1.000  H
  C19      1.0000 0.58904  0.11472  0.22042  Biso   1.000  C
  C20      1.0000 0.67192  0.42259  0.97440  Biso   1.000  C
  C21      1.0000 0.67184  0.42259  0.97440  Biso   1.000  C
  O3       1.0000 0.85172  0.39818  0.05869  Biso   1.000  O
  O4       1.0000 0.85163  0.39818  0.05873  Biso   1.000  O
  C22      1.0000 0.66912  0.03901  0.20868  Biso   1.000  C
  C23      1.0000 0.48262  0.08313  0.23784  Biso   1.000  C
  C24      1.0000 0.66904  0.03901  0.20873  Biso   1.000  C
  C25      1.0000 0.48254  0.08313  0.23789  Biso   1.000  C
  C26      1.0000 0.62353  0.36550  0.91992  Biso   1.000  C
  H17      1.0000 0.63403  0.49019  0.97791  Biso   1.000  H
  H18      1.0000 0.75214  0.43603  0.96659  Biso   1.000  H
  C27      1.0000 0.62345  0.36550  0.91996  Biso   1.000  C
  H19      1.0000 0.63394  0.49019  0.97791  Biso   1.000  H
  H20      1.0000 0.75205  0.43603  0.96664  Biso   1.000  H
  C28      1.0000 0.94557  0.38497  0.09963  Biso   1.000  C
  C29      1.0000 0.94557  0.38497  0.09967  Biso   1.000  C
  O5       1.0000 0.77228  0.07509  0.19061  Biso   1.000  O
  O6       1.0000 0.77219  0.07509  0.19061  Biso   1.000  O
  C30      1.0000 0.64230  0.93518  0.21548  Biso   1.000  C
  H21      1.0000 0.42706  0.13373  0.24579  Biso   1.000  H
  H22      1.0000 0.42706  0.13373  0.24584  Biso   1.000  H
  C31      1.0000 0.45570  0.97922  0.24385  Biso   1.000  C
  C32      1.0000 0.45570  0.97922  0.24389  Biso   1.000  C
  C33      1.0000 0.68822  0.29659  0.88637  Biso   1.000  C
  C34      1.0000 0.51340  0.37971  0.90083  Biso   1.000  C
  C35      1.0000 0.68814  0.29659  0.88637  Biso   1.000  C
  H23      1.0000 0.95762  0.31057  0.10799  Biso   1.000  H
  H24      1.0000 0.93102  0.42012  0.13941  Biso   1.000  H
  H25      1.0000 0.95754  0.31057  0.10804  Biso   1.000  H
  C36      1.0000 0.04650  0.42970  0.07038  Biso   1.000  C
  C37      1.0000 0.85944  0.00039  0.18331  Biso   1.000  C
  C38      1.0000 0.85935  0.00039  0.18331  Biso   1.000  C
  H26      1.0000 0.69786  0.88450  0.20790  Biso   1.000  H
  C39      1.0000 0.53621  0.90382  0.23304  Biso   1.000  C
  H27      1.0000 0.69786  0.88450  0.20794  Biso   1.000  H
  C40      1.0000 0.53621  0.90382  0.23308  Biso   1.000  C
  O7       1.0000 0.35211  0.94337  0.26058  Biso   1.000  O
  O8       1.0000 0.35203  0.94337  0.26062  Biso   1.000  O
  O9       1.0000 0.79612  0.28368  0.90767  Biso   1.000  O
  C41      1.0000 0.64463  0.24737  0.83471  Biso   1.000  C
  C42      1.0000 0.64455  0.24737  0.83475  Biso   1.000  C
  H28      1.0000 0.46771  0.42676  0.92292  Biso   1.000  H
  C43      1.0000 0.46833  0.32749  0.85074  Biso   1.000  C
  C44      1.0000 0.46824  0.32749  0.85074  Biso   1.000  C
  H29      1.0000 0.06232  0.39254  0.03198  Biso   1.000  H
  H30      1.0000 0.11044  0.42321  0.09870  Biso   1.000  H
  H31      1.0000 0.03326  0.50278  0.06109  Biso   1.000  H
  H32      1.0000 0.06224  0.39254  0.03202  Biso   1.000  H
  H33      1.0000 0.11036  0.42321  0.09870  Biso   1.000  H
  H34      1.0000 0.03326  0.50278  0.06114  Biso   1.000  H
  C45      1.0000 0.96187  0.05570  0.16150  Biso   1.000  C
  H35      1.0000 0.83649  0.94739  0.15272  Biso   1.000  H
  H36      1.0000 0.87480  0.96547  0.22319  Biso   1.000  H
  H37      1.0000 0.87480  0.96547  0.22324  Biso   1.000  H
  C46      1.0000 0.50941  0.79071  0.24172  Biso   1.000  C
  C47      1.0000 0.50941  0.79071  0.24177  Biso   1.000  C
  C48      1.0000 0.26867  0.01599  0.27749  Biso   1.000  C
  C49      1.0000 0.26867  0.01599  0.27754  Biso   1.000  C
  C50      1.0000 0.86766  0.21693  0.87394  Biso   1.000  C
  C51      1.0000 0.86766  0.21693  0.87399  Biso   1.000  C
  C52      1.0000 0.53467  0.26197  0.81558  Biso   1.000  C
  H38      1.0000 0.69123  0.20233  0.81170  Biso   1.000  H
  C53      1.0000 0.53467  0.26197  0.81562  Biso   1.000  C
  H39      1.0000 0.69115  0.20233  0.81174  Biso   1.000  H
  O10      1.0000 0.35918  0.33792  0.83027  Biso   1.000  O
  O11      1.0000 0.35918  0.33792  0.83032  Biso   1.000  O
  H40      1.0000 0.94280  0.09889  0.12578  Biso   1.000  H
  H41      1.0000 0.99128  0.09927  0.19491  Biso   1.000  H
  H42      1.0000 0.94280  0.09889  0.12583  Biso   1.000  H
  H43      1.0000 0.01872  0.00502  0.14958  Biso   1.000  H
  H44      1.0000 0.01864  0.00502  0.14963  Biso   1.000  H
  H45      1.0000 0.45333  0.78392  0.27490  Biso   1.000  H
  H46      1.0000 0.57803  0.75448  0.25559  Biso   1.000  H
  C54      1.0000 0.46533  0.73803  0.18442  Biso   1.000  C
  H47      1.0000 0.45324  0.78392  0.27490  Biso   1.000  H
  H48      1.0000 0.57794  0.75448  0.25563  Biso   1.000  H
  C55      1.0000 0.46525  0.73803  0.18442  Biso   1.000  C
  H49      1.0000 0.25512  0.06520  0.24320  Biso   1.000  H
  H50      1.0000 0.29311  0.05547  0.31441  Biso   1.000  H
  H51      1.0000 0.25504  0.06520  0.24320  Biso   1.000  H
  C56      1.0000 0.16496  0.95689  0.29121  Biso   1.000  C
  H52      1.0000 0.87013  0.23756  0.82999  Biso   1.000  H
  H53      1.0000 0.84087  0.14462  0.87648  Biso   1.000  H
  C57      1.0000 0.98067  0.22659  0.90301  Biso   1.000  C
  H54      1.0000 0.87005  0.23756  0.83004  Biso   1.000  H
  H55      1.0000 0.84087  0.14462  0.87653  Biso   1.000  H
  C58      1.0000 0.49059  0.20929  0.75828  Biso   1.000  C
  C59      1.0000 0.28119  0.38914  0.86909  Biso   1.000  C
  C60      1.0000 0.28119  0.38914  0.86913  Biso   1.000  C
  C61      1.0000 0.35537  0.75263  0.16529  Biso   1.000  C
  C62      1.0000 0.53167  0.67251  0.14926  Biso   1.000  C
  C63      1.0000 0.53167  0.67251  0.14930  Biso   1.000  C
  H56      1.0000 0.10629  0.00471  0.30452  Biso   1.000  H
  H57      1.0000 0.14010  0.92019  0.25401  Biso   1.000  H
  H58      1.0000 0.18024  0.90691  0.32421  Biso   1.000  H
  H59      1.0000 0.18016  0.90691  0.32421  Biso   1.000  H
  H60      1.0000 0.97852  0.19994  0.94529  Biso   1.000  H
  H61      1.0000 0.97843  0.19994  0.94533  Biso   1.000  H
  H62      1.0000 0.00291  0.29952  0.90379  Biso   1.000  H
  H63      1.0000 0.03503  0.18688  0.87898  Biso   1.000  H
  H64      1.0000 0.00291  0.29952  0.90384  Biso   1.000  H
  H65      1.0000 0.03495  0.18688  0.87902  Biso   1.000  H
  H66      1.0000 0.54667  0.21608  0.72510  Biso   1.000  H
  H67      1.0000 0.42197  0.24552  0.74441  Biso   1.000  H
  C64      1.0000 0.46379  0.09618  0.76696  Biso   1.000  C
  H68      1.0000 0.54667  0.21608  0.72514  Biso   1.000  H
  H69      1.0000 0.21203  0.40281  0.84520  Biso   1.000  H
  H70      1.0000 0.31277  0.45650  0.88189  Biso   1.000  H
  C65      1.0000 0.25271  0.32903  0.92482  Biso   1.000  C
  H71      1.0000 0.21195  0.40281  0.84524  Biso   1.000  H
  H72      1.0000 0.31277  0.45650  0.88193  Biso   1.000  H
  H73      1.0000 0.30877  0.79767  0.18830  Biso   1.000  H
  C66      1.0000 0.31178  0.70341  0.11363  Biso   1.000  C
  C67      1.0000 0.31178  0.70341  0.11368  Biso   1.000  C
  O12      1.0000 0.64082  0.66208  0.16973  Biso   1.000  O
  C68      1.0000 0.48660  0.62029  0.09917  Biso   1.000  C
  O13      1.0000 0.64073  0.66208  0.16973  Biso   1.000  O
  C69      1.0000 0.48660  0.62029  0.09921  Biso   1.000  C
  C70      1.0000 0.35770  0.06482  0.78452  Biso   1.000  C
  C71      1.0000 0.54430  0.02078  0.75615  Biso   1.000  C
  C72      1.0000 0.35770  0.06482  0.78457  Biso   1.000  C
  H74      1.0000 0.22607  0.26028  0.91262  Biso   1.000  H
  H75      1.0000 0.19399  0.36488  0.94769  Biso   1.000  H
  H76      1.0000 0.31931  0.32193  0.95120  Biso   1.000  H
  H77      1.0000 0.19399  0.36488  0.94774  Biso   1.000  H
  O14      1.0000 0.20388  0.71632  0.09233  Biso   1.000  O
  C73      1.0000 0.37647  0.63450  0.08008  Biso   1.000  C
  O15      1.0000 0.20388  0.71632  0.09237  Biso   1.000  O
  C74      1.0000 0.71881  0.61086  0.13091  Biso   1.000  C
  H78      1.0000 0.53229  0.57324  0.07708  Biso   1.000  H
  H79      1.0000 0.53229  0.57324  0.07712  Biso   1.000  H
  C75      1.0000 0.33088  0.96099  0.79132  Biso   1.000  C
  H80      1.0000 0.30214  0.11550  0.79210  Biso   1.000  H
  H81      1.0000 0.30205  0.11550  0.79210  Biso   1.000  H
  C76      1.0000 0.51738  0.91687  0.76216  Biso   1.000  C
  O16      1.0000 0.64789  0.05663  0.73942  Biso   1.000  O
  C77      1.0000 0.13234  0.78307  0.12606  Biso   1.000  C
  C78      1.0000 0.13226  0.78307  0.12606  Biso   1.000  C
  C79      1.0000 0.32808  0.57741  0.02560  Biso   1.000  C
  C80      1.0000 0.32808  0.57741  0.02565  Biso   1.000  C
  H82      1.0000 0.78797  0.59719  0.15480  Biso   1.000  H
  H83      1.0000 0.68723  0.54350  0.11811  Biso   1.000  H
  C81      1.0000 0.74729  0.67097  0.07518  Biso   1.000  C
  H84      1.0000 0.68715  0.54350  0.11811  Biso   1.000  H
  C82      1.0000 0.74729  0.67097  0.07523  Biso   1.000  C
  O17      1.0000 0.22772  0.92491  0.80939  Biso   1.000  O
  C83      1.0000 0.41088  0.88528  0.77958  Biso   1.000  C
  O18      1.0000 0.22772  0.92491  0.80943  Biso   1.000  O
  C84      1.0000 0.41088  0.88528  0.77963  Biso   1.000  C
  H85      1.0000 0.57294  0.86627  0.75421  Biso   1.000  H
  H86      1.0000 0.57286  0.86627  0.75421  Biso   1.000  H
  C85      1.0000 0.73133  0.98401  0.72251  Biso   1.000  C
  C86      1.0000 0.73125  0.98401  0.72251  Biso   1.000  C
  H87      1.0000 0.12987  0.76244  0.17001  Biso   1.000  H
  H88      1.0000 0.15913  0.85538  0.12352  Biso   1.000  H
  C87      1.0000 0.01933  0.77341  0.09699  Biso   1.000  C
  H89      1.0000 0.15905  0.85538  0.12352  Biso   1.000  H
  C88      1.0000 0.01925  0.77341  0.09704  Biso   1.000  C
  C89      1.0000 0.33868  0.63473  0.96391  Biso   1.000  C
  C90      1.0000 0.33868  0.63473  0.96396  Biso   1.000  C
  H90      1.0000 0.36597  0.50981  0.02209  Biso   1.000  H
  H91      1.0000 0.24786  0.56397  0.03341  Biso   1.000  H
  H92      1.0000 0.36598  0.50981  0.02213  Biso   1.000  H
  H93      1.0000 0.77393  0.73972  0.08738  Biso   1.000  H
  H94      1.0000 0.80601  0.63512  0.05231  Biso   1.000  H
  H95      1.0000 0.68069  0.67807  0.04880  Biso   1.000  H
  H96      1.0000 0.77385  0.73972  0.08743  Biso   1.000  H
  H97      1.0000 0.68069  0.67807  0.04884  Biso   1.000  H
  C91      1.0000 0.14056  0.99961  0.81669  Biso   1.000  C
  C92      1.0000 0.14057  0.99961  0.81673  Biso   1.000  C
  C93      1.0000 0.38242  0.77186  0.78332  Biso   1.000  C
  C94      1.0000 0.38234  0.77186  0.78332  Biso   1.000  C
  H98      1.0000 0.74488  0.93480  0.75680  Biso   1.000  H
  H99      1.0000 0.70689  0.94453  0.68559  Biso   1.000  H
  H100     1.0000 0.74488  0.93480  0.75684  Biso   1.000  H
  H101     1.0000 0.70689  0.94453  0.68564  Biso   1.000  H
  C95      1.0000 0.83504  0.04311  0.70879  Biso   1.000  C
  C96      1.0000 0.83496  0.04311  0.70883  Biso   1.000  C
  H102     1.0000 0.99709  0.70048  0.09621  Biso   1.000  H
  H103     1.0000 0.96497  0.81312  0.12102  Biso   1.000  H
  H104     1.0000 0.02148  0.80006  0.05471  Biso   1.000  H
  C97      1.0000 0.24910  0.64339  0.92320  Biso   1.000  C
  C98      1.0000 0.44168  0.67560  0.94677  Biso   1.000  C
  C99      1.0000 0.44168  0.67560  0.94681  Biso   1.000  C
  C100     1.0000 0.03813  0.94430  0.83850  Biso   1.000  C
  C101     1.0000 0.03804  0.94430  0.83854  Biso   1.000  C
  H105     1.0000 0.16351  0.05261  0.84728  Biso   1.000  H
  H106     1.0000 0.12520  0.03453  0.77681  Biso   1.000  H
  H107     1.0000 0.16351  0.05261  0.84732  Biso   1.000  H
  C102     1.0000 0.36734  0.72852  0.84783  Biso   1.000  C
  H108     1.0000 0.31260  0.75997  0.75962  Biso   1.000  H
  H109     1.0000 0.44251  0.73239  0.76271  Biso   1.000  H
  C103     1.0000 0.36726  0.72852  0.84783  Biso   1.000  C
  H110     1.0000 0.89371  0.99529  0.69548  Biso   1.000  H
  H111     1.0000 0.89371  0.99529  0.69552  Biso   1.000  H
  H112     1.0000 0.85990  0.07981  0.74599  Biso   1.000  H
  H113     1.0000 0.81976  0.09309  0.67579  Biso   1.000  H
  H114     1.0000 0.85990  0.07981  0.74603  Biso   1.000  H
  H115     1.0000 0.81976  0.09309  0.67584  Biso   1.000  H
  O19      1.0000 0.14828  0.60182  0.94131  Biso   1.000  O
  C104     1.0000 0.26418  0.68943  0.86571  Biso   1.000  C
  C105     1.0000 0.26418  0.68943  0.86576  Biso   1.000  C
  C106     1.0000 0.45668  0.72142  0.88919  Biso   1.000  C
  H116     1.0000 0.50278  0.67213  0.97491  Biso   1.000  H
  C107     1.0000 0.45668  0.72142  0.88924  Biso   1.000  C
  H117     1.0000 0.98128  0.99498  0.85042  Biso   1.000  H
  H118     1.0000 0.05720  0.90111  0.87422  Biso   1.000  H
  H119     1.0000 0.00872  0.90073  0.80509  Biso   1.000  H
  H120     1.0000 0.00872  0.90073  0.80513  Biso   1.000  H
  C108     1.0000 0.05443  0.61503  0.90037  Biso   1.000  C
  C109     1.0000 0.05435  0.61503  0.90037  Biso   1.000  C
  H121     1.0000 0.20250  0.69407  0.83799  Biso   1.000  H
  H122     1.0000 0.20250  0.69407  0.83804  Biso   1.000  H
  O20      1.0000 0.55672  0.76020  0.86932  Biso   1.000  O
  C110     1.0000 0.95350  0.57030  0.92962  Biso   1.000  C
  C111     1.0000 0.95350  0.57030  0.92967  Biso   1.000  C
  H123     1.0000 0.04238  0.68943  0.89201  Biso   1.000  H
  H124     1.0000 0.06898  0.57988  0.86059  Biso   1.000  H
  H125     1.0000 0.06898  0.57988  0.86063  Biso   1.000  H
  C112     1.0000 0.64726  0.76460  0.91239  Biso   1.000  C
  H126     1.0000 0.93768  0.60746  0.96802  Biso   1.000  H
  H127     1.0000 0.88956  0.57679  0.90130  Biso   1.000  H
  H128     1.0000 0.96674  0.49722  0.93891  Biso   1.000  H
  H129     1.0000 0.88956  0.57679  0.90134  Biso   1.000  H
  H130     1.0000 0.96666  0.49722  0.93891  Biso   1.000  H
  H131     1.0000 0.62557  0.80477  0.94931  Biso   1.000  H
  H132     1.0000 0.66857  0.69407  0.92569  Biso   1.000  H
  C113     1.0000 0.74372  0.81613  0.88013  Biso   1.000  C
  H133     1.0000 0.66857  0.69407  0.92574  Biso   1.000  H
  C114     1.0000 0.74364  0.81613  0.88013  Biso   1.000  C
  H134     1.0000 0.72209  0.88628  0.86798  Biso   1.000  H
  H135     1.0000 0.80816  0.81922  0.90818  Biso   1.000  H
  H136     1.0000 0.76332  0.77627  0.84330  Biso   1.000  H
  H137     1.0000 0.72209  0.88628  0.86803  Biso   1.000  H
  H138     1.0000 0.80816  0.81922  0.90823  Biso   1.000  H
  H139     1.0000 0.76324  0.77627  0.84330  Biso   1.000  H
  C115     1.0000 0.35266  0.23540  0.08766  Biso   1.000  C
  C116     1.0000 0.25628  0.18387  0.11991  Biso   1.000  C
  O21      1.0000 0.44328  0.23980  0.13068  Biso   1.000  O
  H140     1.0000 0.37443  0.19523  0.05069  Biso   1.000  H
  H141     1.0000 0.33143  0.30593  0.07431  Biso   1.000  H
  C117     1.0000 0.25628  0.18387  0.11987  Biso   1.000  C
  O22      1.0000 0.44319  0.23980  0.13073  Biso   1.000  O
  H142     1.0000 0.37435  0.19523  0.05074  Biso   1.000  H
  H143     1.0000 0.33135  0.30593  0.07431  Biso   1.000  H
  H144     1.0000 0.27791  0.11372  0.13202  Biso   1.000  H
  C118     1.0000 0.35274  0.23540  0.08761  Biso   1.000  C
  H145     1.0000 0.19184  0.18078  0.09182  Biso   1.000  H
  H146     1.0000 0.23668  0.22373  0.15670  Biso   1.000  H
  H147     1.0000 0.19175  0.18078  0.09182  Biso   1.000  H
  H148     1.0000 0.23668  0.22373  0.15674  Biso   1.000  H
  C119     1.0000 0.54332  0.27858  0.11081  Biso   1.000  C
  C120     1.0000 0.63266  0.27148  0.15217  Biso   1.000  C
  C121     1.0000 0.55832  0.32440  0.05323  Biso   1.000  C
  C122     1.0000 0.63266  0.27148  0.15221  Biso   1.000  C
  C123     1.0000 0.55824  0.32440  0.05323  Biso   1.000  C
  C124     1.0000 0.73582  0.31057  0.13429  Biso   1.000  C
  C125     1.0000 0.61758  0.22814  0.21668  Biso   1.000  C
  C126     1.0000 0.73573  0.31057  0.13429  Biso   1.000  C
  C127     1.0000 0.61758  0.22814  0.21672  Biso   1.000  C
  C128     1.0000 0.66132  0.36527  0.03609  Biso   1.000  C
  H149     1.0000 0.49722  0.32787  0.02509  Biso   1.000  H
  C129     1.0000 0.66123  0.36527  0.03609  Biso   1.000  C
  H150     1.0000 0.49713  0.32787  0.02514  Biso   1.000  H
  H151     1.0000 0.79750  0.30593  0.16201  Biso   1.000  H
  C130     1.0000 0.75090  0.35661  0.07680  Biso   1.000  C
  C131     1.0000 0.75090  0.35661  0.07685  Biso   1.000  C
  H152     1.0000 0.68740  0.24003  0.24038  Biso   1.000  H
  H153     1.0000 0.55749  0.26761  0.23729  Biso   1.000  H
  C132     1.0000 0.58912  0.11472  0.22042  Biso   1.000  C
  H154     1.0000 0.68740  0.24003  0.24043  Biso   1.000  H
  H155     1.0000 0.55749  0.26761  0.23733  Biso   1.000  H
  C133     1.0000 0.58904  0.11472  0.22042  Biso   1.000  C
  C134     1.0000 0.67192  0.42259  0.97440  Biso   1.000  C
  C135     1.0000 0.67184  0.42259  0.97440  Biso   1.000  C
  O23      1.0000 0.85172  0.39818  0.05869  Biso   1.000  O
  O24      1.0000 0.85163  0.39818  0.05873  Biso   1.000  O
  C136     1.0000 0.66912  0.03901  0.20868  Biso   1.000  C
  C137     1.0000 0.48262  0.08313  0.23784  Biso   1.000  C
  C138     1.0000 0.66904  0.03901  0.20873  Biso   1.000  C
  C139     1.0000 0.48254  0.08313  0.23789  Biso   1.000  C
  C140     1.0000 0.62353  0.36550  0.91992  Biso   1.000  C
  H156     1.0000 0.63403  0.49019  0.97791  Biso   1.000  H
  H157     1.0000 0.75214  0.43603  0.96659  Biso   1.000  H
  C141     1.0000 0.62345  0.36550  0.91996  Biso   1.000  C
  H158     1.0000 0.63394  0.49019  0.97791  Biso   1.000  H
  H159     1.0000 0.75205  0.43603  0.96664  Biso   1.000  H
  C142     1.0000 0.94557  0.38497  0.09963  Biso   1.000  C
  C143     1.0000 0.94557  0.38497  0.09967  Biso   1.000  C
  O25      1.0000 0.77228  0.07509  0.19061  Biso   1.000  O
  O26      1.0000 0.77219  0.07509  0.19061  Biso   1.000  O
  C144     1.0000 0.64230  0.93518  0.21548  Biso   1.000  C
  H160     1.0000 0.42706  0.13373  0.24579  Biso   1.000  H
  H161     1.0000 0.42706  0.13373  0.24584  Biso   1.000  H
  C145     1.0000 0.45570  0.97922  0.24385  Biso   1.000  C
  C146     1.0000 0.45570  0.97922  0.24389  Biso   1.000  C
  C147     1.0000 0.68822  0.29659  0.88637  Biso   1.000  C
  C148     1.0000 0.51340  0.37971  0.90083  Biso   1.000  C
  C149     1.0000 0.68814  0.29659  0.88637  Biso   1.000  C
  H162     1.0000 0.93102  0.42012  0.13941  Biso   1.000  H
  H163     1.0000 0.95762  0.31057  0.10799  Biso   1.000  H
  H164     1.0000 0.95754  0.31057  0.10804  Biso   1.000  H
  C150     1.0000 0.04650  0.42970  0.07038  Biso   1.000  C
  C151     1.0000 0.85944  0.00039  0.18331  Biso   1.000  C
  C152     1.0000 0.85935  0.00039  0.18331  Biso   1.000  C
  H165     1.0000 0.69786  0.88450  0.20790  Biso   1.000  H
  C153     1.0000 0.53621  0.90382  0.23304  Biso   1.000  C
  H166     1.0000 0.69786  0.88450  0.20794  Biso   1.000  H
  C154     1.0000 0.53621  0.90382  0.23308  Biso   1.000  C
  O27      1.0000 0.35211  0.94337  0.26058  Biso   1.000  O
  O28      1.0000 0.35203  0.94337  0.26062  Biso   1.000  O
  O29      1.0000 0.79612  0.28368  0.90767  Biso   1.000  O
  C155     1.0000 0.64463  0.24737  0.83471  Biso   1.000  C
  C156     1.0000 0.64455  0.24737  0.83475  Biso   1.000  C
  H167     1.0000 0.46771  0.42676  0.92292  Biso   1.000  H
  C157     1.0000 0.46833  0.32749  0.85074  Biso   1.000  C
  C158     1.0000 0.46824  0.32749  0.85074  Biso   1.000  C
  H168     1.0000 0.06232  0.39254  0.03198  Biso   1.000  H
  H169     1.0000 0.11044  0.42321  0.09870  Biso   1.000  H
  H170     1.0000 0.03326  0.50278  0.06109  Biso   1.000  H
  H171     1.0000 0.06224  0.39254  0.03202  Biso   1.000  H
  H172     1.0000 0.11036  0.42321  0.09870  Biso   1.000  H
  H173     1.0000 0.03326  0.50278  0.06114  Biso   1.000  H
  C159     1.0000 0.96187  0.05570  0.16150  Biso   1.000  C
  H174     1.0000 0.83649  0.94739  0.15272  Biso   1.000  H
  H175     1.0000 0.87480  0.96547  0.22319  Biso   1.000  H
  H176     1.0000 0.87480  0.96547  0.22324  Biso   1.000  H
  C160     1.0000 0.50941  0.79071  0.24172  Biso   1.000  C
  C161     1.0000 0.50941  0.79071  0.24177  Biso   1.000  C
  C162     1.0000 0.26867  0.01599  0.27749  Biso   1.000  C
  C163     1.0000 0.26867  0.01599  0.27754  Biso   1.000  C
  C164     1.0000 0.86766  0.21693  0.87394  Biso   1.000  C
  C165     1.0000 0.86766  0.21693  0.87399  Biso   1.000  C
  C166     1.0000 0.53467  0.26197  0.81558  Biso   1.000  C
  H177     1.0000 0.69123  0.20233  0.81170  Biso   1.000  H
  C167     1.0000 0.53467  0.26197  0.81562  Biso   1.000  C
  H178     1.0000 0.69115  0.20233  0.81174  Biso   1.000  H
  O30      1.0000 0.35918  0.33792  0.83027  Biso   1.000  O
  O31      1.0000 0.35918  0.33792  0.83032  Biso   1.000  O
  H179     1.0000 0.99128  0.09927  0.19491  Biso   1.000  H
  H180     1.0000 0.94280  0.09889  0.12578  Biso   1.000  H
  H181     1.0000 0.94280  0.09889  0.12583  Biso   1.000  H
  H182     1.0000 0.01872  0.00502  0.14958  Biso   1.000  H
  H183     1.0000 0.01864  0.00502  0.14963  Biso   1.000  H
  H184     1.0000 0.45333  0.78392  0.27490  Biso   1.000  H
  H185     1.0000 0.57803  0.75448  0.25559  Biso   1.000  H
  C168     1.0000 0.46533  0.73803  0.18442  Biso   1.000  C
  H186     1.0000 0.45324  0.78392  0.27490  Biso   1.000  H
  H187     1.0000 0.57794  0.75448  0.25563  Biso   1.000  H
  C169     1.0000 0.46525  0.73803  0.18442  Biso   1.000  C
  H188     1.0000 0.29311  0.05547  0.31441  Biso   1.000  H
  H189     1.0000 0.25512  0.06520  0.24320  Biso   1.000  H
  H190     1.0000 0.25504  0.06520  0.24320  Biso   1.000  H
  C170     1.0000 0.16496  0.95689  0.29121  Biso   1.000  C
  H191     1.0000 0.87013  0.23756  0.82999  Biso   1.000  H
  H192     1.0000 0.84087  0.14462  0.87648  Biso   1.000  H
  C171     1.0000 0.98067  0.22659  0.90301  Biso   1.000  C
  H193     1.0000 0.87005  0.23756  0.83004  Biso   1.000  H
  H194     1.0000 0.84087  0.14462  0.87653  Biso   1.000  H
  C172     1.0000 0.49059  0.20929  0.75828  Biso   1.000  C
  C173     1.0000 0.28119  0.38914  0.86909  Biso   1.000  C
  C174     1.0000 0.28119  0.38914  0.86913  Biso   1.000  C
  C175     1.0000 0.35537  0.75263  0.16529  Biso   1.000  C
  C176     1.0000 0.53167  0.67251  0.14926  Biso   1.000  C
  C177     1.0000 0.53167  0.67251  0.14930  Biso   1.000  C
  H195     1.0000 0.10629  0.00471  0.30452  Biso   1.000  H
  H196     1.0000 0.14010  0.92019  0.25401  Biso   1.000  H
  H197     1.0000 0.18024  0.90691  0.32421  Biso   1.000  H
  H198     1.0000 0.18016  0.90691  0.32421  Biso   1.000  H
  H199     1.0000 0.97852  0.19994  0.94529  Biso   1.000  H
  H200     1.0000 0.97843  0.19994  0.94533  Biso   1.000  H
  H201     1.0000 0.00291  0.29952  0.90379  Biso   1.000  H
  H202     1.0000 0.03503  0.18688  0.87898  Biso   1.000  H
  H203     1.0000 0.00291  0.29952  0.90384  Biso   1.000  H
  H204     1.0000 0.03495  0.18688  0.87902  Biso   1.000  H
  H205     1.0000 0.54667  0.21608  0.72510  Biso   1.000  H
  H206     1.0000 0.42197  0.24552  0.74441  Biso   1.000  H
  C178     1.0000 0.46379  0.09618  0.76696  Biso   1.000  C
  H207     1.0000 0.54667  0.21608  0.72514  Biso   1.000  H
  H208     1.0000 0.21203  0.40281  0.84520  Biso   1.000  H
  H209     1.0000 0.31277  0.45650  0.88189  Biso   1.000  H
  C179     1.0000 0.25271  0.32903  0.92482  Biso   1.000  C
  H210     1.0000 0.21195  0.40281  0.84524  Biso   1.000  H
  H211     1.0000 0.31277  0.45650  0.88193  Biso   1.000  H
  H212     1.0000 0.30877  0.79767  0.18830  Biso   1.000  H
  C180     1.0000 0.31178  0.70341  0.11363  Biso   1.000  C
  C181     1.0000 0.31178  0.70341  0.11368  Biso   1.000  C
  O32      1.0000 0.64082  0.66208  0.16973  Biso   1.000  O
  C182     1.0000 0.48660  0.62029  0.09917  Biso   1.000  C
  O33      1.0000 0.64073  0.66208  0.16973  Biso   1.000  O
  C183     1.0000 0.48660  0.62029  0.09921  Biso   1.000  C
  C184     1.0000 0.35770  0.06482  0.78452  Biso   1.000  C
  C185     1.0000 0.54430  0.02078  0.75615  Biso   1.000  C
  C186     1.0000 0.35770  0.06482  0.78457  Biso   1.000  C
  H213     1.0000 0.22607  0.26028  0.91262  Biso   1.000  H
  H214     1.0000 0.19399  0.36488  0.94769  Biso   1.000  H
  H215     1.0000 0.31931  0.32193  0.95120  Biso   1.000  H
  H216     1.0000 0.19399  0.36488  0.94774  Biso   1.000  H
  O34      1.0000 0.20388  0.71632  0.09233  Biso   1.000  O
  C187     1.0000 0.37647  0.63450  0.08008  Biso   1.000  C
  O35      1.0000 0.20388  0.71632  0.09237  Biso   1.000  O
  C188     1.0000 0.71881  0.61086  0.13091  Biso   1.000  C
  H217     1.0000 0.53229  0.57324  0.07708  Biso   1.000  H
  H218     1.0000 0.53229  0.57324  0.07712  Biso   1.000  H
  C189     1.0000 0.33088  0.96099  0.79132  Biso   1.000  C
  H219     1.0000 0.30214  0.11550  0.79210  Biso   1.000  H
  H220     1.0000 0.30205  0.11550  0.79210  Biso   1.000  H
  C190     1.0000 0.51738  0.91687  0.76216  Biso   1.000  C
  O36      1.0000 0.64789  0.05663  0.73942  Biso   1.000  O
  C191     1.0000 0.13234  0.78307  0.12606  Biso   1.000  C
  C192     1.0000 0.13226  0.78307  0.12606  Biso   1.000  C
  C193     1.0000 0.32808  0.57741  0.02560  Biso   1.000  C
  C194     1.0000 0.32808  0.57741  0.02565  Biso   1.000  C
  H221     1.0000 0.78797  0.59719  0.15480  Biso   1.000  H
  H222     1.0000 0.68723  0.54350  0.11811  Biso   1.000  H
  C195     1.0000 0.74729  0.67097  0.07518  Biso   1.000  C
  H223     1.0000 0.68715  0.54350  0.11811  Biso   1.000  H
  C196     1.0000 0.74729  0.67097  0.07523  Biso   1.000  C
  O37      1.0000 0.22772  0.92491  0.80939  Biso   1.000  O
  C197     1.0000 0.41088  0.88528  0.77958  Biso   1.000  C
  O38      1.0000 0.22772  0.92491  0.80943  Biso   1.000  O
  C198     1.0000 0.41088  0.88528  0.77963  Biso   1.000  C
  H224     1.0000 0.57294  0.86627  0.75421  Biso   1.000  H
  H225     1.0000 0.57286  0.86627  0.75421  Biso   1.000  H
  C199     1.0000 0.73133  0.98401  0.72251  Biso   1.000  C
  C200     1.0000 0.73125  0.98401  0.72251  Biso   1.000  C
  H226     1.0000 0.12987  0.76244  0.17001  Biso   1.000  H
  H227     1.0000 0.15913  0.85538  0.12352  Biso   1.000  H
  C201     1.0000 0.01933  0.77341  0.09699  Biso   1.000  C
  H228     1.0000 0.15905  0.85538  0.12352  Biso   1.000  H
  C202     1.0000 0.01925  0.77341  0.09704  Biso   1.000  C
  C203     1.0000 0.33868  0.63473  0.96391  Biso   1.000  C
  C204     1.0000 0.33868  0.63473  0.96396  Biso   1.000  C
  H229     1.0000 0.36597  0.50981  0.02209  Biso   1.000  H
  H230     1.0000 0.24786  0.56397  0.03341  Biso   1.000  H
  H231     1.0000 0.36598  0.50981  0.02213  Biso   1.000  H
  H232     1.0000 0.77393  0.73972  0.08738  Biso   1.000  H
  H233     1.0000 0.80601  0.63512  0.05231  Biso   1.000  H
  H234     1.0000 0.68069  0.67807  0.04880  Biso   1.000  H
  H235     1.0000 0.77385  0.73972  0.08743  Biso   1.000  H
  H236     1.0000 0.68069  0.67807  0.04884  Biso   1.000  H
  C205     1.0000 0.14056  0.99961  0.81669  Biso   1.000  C
  C206     1.0000 0.14057  0.99961  0.81673  Biso   1.000  C
  C207     1.0000 0.38242  0.77186  0.78332  Biso   1.000  C
  C208     1.0000 0.38234  0.77186  0.78332  Biso   1.000  C
  H237     1.0000 0.74488  0.93480  0.75680  Biso   1.000  H
  H238     1.0000 0.70689  0.94453  0.68559  Biso   1.000  H
  H239     1.0000 0.74488  0.93480  0.75684  Biso   1.000  H
  H240     1.0000 0.70689  0.94453  0.68564  Biso   1.000  H
  C209     1.0000 0.83504  0.04311  0.70879  Biso   1.000  C
  C210     1.0000 0.83496  0.04311  0.70883  Biso   1.000  C
  H241     1.0000 0.99709  0.70048  0.09621  Biso   1.000  H
  H242     1.0000 0.96497  0.81312  0.12102  Biso   1.000  H
  H243     1.0000 0.02148  0.80006  0.05471  Biso   1.000  H
  C211     1.0000 0.24910  0.64339  0.92320  Biso   1.000  C
  C212     1.0000 0.44168  0.67560  0.94677  Biso   1.000  C
  C213     1.0000 0.44168  0.67560  0.94681  Biso   1.000  C
  C214     1.0000 0.03813  0.94430  0.83850  Biso   1.000  C
  C215     1.0000 0.03804  0.94430  0.83854  Biso   1.000  C
  H244     1.0000 0.16351  0.05261  0.84728  Biso   1.000  H
  H245     1.0000 0.12520  0.03453  0.77681  Biso   1.000  H
  H246     1.0000 0.16351  0.05261  0.84732  Biso   1.000  H
  C216     1.0000 0.36734  0.72852  0.84783  Biso   1.000  C
  H247     1.0000 0.31260  0.75997  0.75962  Biso   1.000  H
  H248     1.0000 0.44251  0.73239  0.76271  Biso   1.000  H
  C217     1.0000 0.36726  0.72852  0.84783  Biso   1.000  C
  H249     1.0000 0.89371  0.99529  0.69548  Biso   1.000  H
  H250     1.0000 0.89371  0.99529  0.69552  Biso   1.000  H
  H251     1.0000 0.85990  0.07981  0.74599  Biso   1.000  H
  H252     1.0000 0.81976  0.09309  0.67579  Biso   1.000  H
  H253     1.0000 0.85990  0.07981  0.74603  Biso   1.000  H
  H254     1.0000 0.81976  0.09309  0.67584  Biso   1.000  H
  O39      1.0000 0.14828  0.60182  0.94131  Biso   1.000  O
  C218     1.0000 0.26418  0.68943  0.86571  Biso   1.000  C
  C219     1.0000 0.26418  0.68943  0.86576  Biso   1.000  C
  C220     1.0000 0.45668  0.72142  0.88919  Biso   1.000  C
  H255     1.0000 0.50278  0.67213  0.97491  Biso   1.000  H
  C221     1.0000 0.45668  0.72142  0.88924  Biso   1.000  C
  H256     1.0000 0.98128  0.99498  0.85042  Biso   1.000  H
  H257     1.0000 0.05720  0.90111  0.87422  Biso   1.000  H
  H258     1.0000 0.00872  0.90073  0.80509  Biso   1.000  H
  H259     1.0000 0.00872  0.90073  0.80513  Biso   1.000  H
  C222     1.0000 0.05443  0.61503  0.90037  Biso   1.000  C
  C223     1.0000 0.05435  0.61503  0.90037  Biso   1.000  C
  H260     1.0000 0.20250  0.69407  0.83799  Biso   1.000  H
  H261     1.0000 0.20250  0.69407  0.83804  Biso   1.000  H
  O40      1.0000 0.55672  0.76020  0.86932  Biso   1.000  O
  C224     1.0000 0.95350  0.57030  0.92962  Biso   1.000  C
  C225     1.0000 0.95350  0.57030  0.92967  Biso   1.000  C
  H262     1.0000 0.04238  0.68943  0.89201  Biso   1.000  H
  H263     1.0000 0.06898  0.57988  0.86059  Biso   1.000  H
  H264     1.0000 0.06898  0.57988  0.86063  Biso   1.000  H
  C226     1.0000 0.64726  0.76460  0.91239  Biso   1.000  C
  H265     1.0000 0.93768  0.60746  0.96802  Biso   1.000  H
  H266     1.0000 0.88956  0.57679  0.90130  Biso   1.000  H
  H267     1.0000 0.96674  0.49722  0.93891  Biso   1.000  H
  H268     1.0000 0.88956  0.57679  0.90134  Biso   1.000  H
  H269     1.0000 0.96666  0.49722  0.93891  Biso   1.000  H
  H270     1.0000 0.62557  0.80477  0.94931  Biso   1.000  H
  H271     1.0000 0.66857  0.69407  0.92569  Biso   1.000  H
  C227     1.0000 0.74372  0.81613  0.88013  Biso   1.000  C
  H272     1.0000 0.66857  0.69407  0.92574  Biso   1.000  H
  C228     1.0000 0.74364  0.81613  0.88013  Biso   1.000  C
  H273     1.0000 0.72209  0.88628  0.86798  Biso   1.000  H
  H274     1.0000 0.80816  0.81922  0.90818  Biso   1.000  H
  H275     1.0000 0.76332  0.77627  0.84330  Biso   1.000  H
  H276     1.0000 0.72209  0.88628  0.86803  Biso   1.000  H
  H277     1.0000 0.80816  0.81922  0.90823  Biso   1.000  H
  H278     1.0000 0.76324  0.77627  0.84330  Biso   1.000  H
  C229     1.0000 0.35266  0.23540  0.08766  Biso   1.000  C
  O41      1.0000 0.44328  0.23980  0.13068  Biso   1.000  O
  O42      1.0000 0.44319  0.23980  0.13073  Biso   1.000  O
  H279     1.0000 0.37443  0.19523  0.05069  Biso   1.000  H
  H280     1.0000 0.33143  0.30593  0.07431  Biso   1.000  H
  C230     1.0000 0.25628  0.18387  0.11987  Biso   1.000  C
  H281     1.0000 0.37435  0.19523  0.05074  Biso   1.000  H
  H282     1.0000 0.33135  0.30593  0.07431  Biso   1.000  H
  C231     1.0000 0.25628  0.18387  0.11991  Biso   1.000  C
  C232     1.0000 0.54332  0.27858  0.11081  Biso   1.000  C
  C233     1.0000 0.35274  0.23540  0.08761  Biso   1.000  C
  H283     1.0000 0.27791  0.11372  0.13202  Biso   1.000  H
  H284     1.0000 0.19184  0.18078  0.09182  Biso   1.000  H
  H285     1.0000 0.23668  0.22373  0.15670  Biso   1.000  H
  H286     1.0000 0.19175  0.18078  0.09182  Biso   1.000  H
  H287     1.0000 0.23668  0.22373  0.15674  Biso   1.000  H
  C234     1.0000 0.63266  0.27148  0.15217  Biso   1.000  C
  C235     1.0000 0.55832  0.32440  0.05323  Biso   1.000  C
  C236     1.0000 0.63266  0.27148  0.15221  Biso   1.000  C
  C237     1.0000 0.55824  0.32440  0.05323  Biso   1.000  C
  C238     1.0000 0.73582  0.31057  0.13429  Biso   1.000  C
  C239     1.0000 0.61758  0.22814  0.21668  Biso   1.000  C
  C240     1.0000 0.73573  0.31057  0.13429  Biso   1.000  C
  C241     1.0000 0.61758  0.22814  0.21672  Biso   1.000  C
  C242     1.0000 0.66132  0.36527  0.03609  Biso   1.000  C
  H288     1.0000 0.49722  0.32787  0.02509  Biso   1.000  H
  C243     1.0000 0.66123  0.36527  0.03609  Biso   1.000  C
  H289     1.0000 0.49713  0.32787  0.02514  Biso   1.000  H
  H290     1.0000 0.79750  0.30593  0.16201  Biso   1.000  H
  C244     1.0000 0.75090  0.35661  0.07680  Biso   1.000  C
  C245     1.0000 0.75090  0.35661  0.07685  Biso   1.000  C
  H291     1.0000 0.68740  0.24003  0.24038  Biso   1.000  H
  H292     1.0000 0.55749  0.26761  0.23729  Biso   1.000  H
  C246     1.0000 0.58912  0.11472  0.22042  Biso   1.000  C
  H293     1.0000 0.68740  0.24003  0.24043  Biso   1.000  H
  H294     1.0000 0.55749  0.26761  0.23733  Biso   1.000  H
  C247     1.0000 0.58904  0.11472  0.22042  Biso   1.000  C
  C248     1.0000 0.67192  0.42259  0.97440  Biso   1.000  C
  C249     1.0000 0.67184  0.42259  0.97440  Biso   1.000  C
  O43      1.0000 0.85172  0.39818  0.05869  Biso   1.000  O
  O44      1.0000 0.85163  0.39818  0.05873  Biso   1.000  O
  C250     1.0000 0.66912  0.03901  0.20868  Biso   1.000  C
  C251     1.0000 0.48262  0.08313  0.23784  Biso   1.000  C
  C252     1.0000 0.66904  0.03901  0.20873  Biso   1.000  C
  C253     1.0000 0.48254  0.08313  0.23789  Biso   1.000  C
  C254     1.0000 0.62353  0.36550  0.91992  Biso   1.000  C
  H295     1.0000 0.63403  0.49019  0.97791  Biso   1.000  H
  H296     1.0000 0.75214  0.43603  0.96659  Biso   1.000  H
  C255     1.0000 0.62345  0.36550  0.91996  Biso   1.000  C
  H297     1.0000 0.63394  0.49019  0.97791  Biso   1.000  H
  H298     1.0000 0.75205  0.43603  0.96664  Biso   1.000  H
  C256     1.0000 0.94557  0.38497  0.09963  Biso   1.000  C
  C257     1.0000 0.94557  0.38497  0.09967  Biso   1.000  C
  C258     1.0000 0.64230  0.93518  0.21548  Biso   1.000  C
  O45      1.0000 0.77228  0.07509  0.19061  Biso   1.000  O
  O46      1.0000 0.77219  0.07509  0.19061  Biso   1.000  O
  C259     1.0000 0.45570  0.97922  0.24385  Biso   1.000  C
  C260     1.0000 0.45570  0.97922  0.24389  Biso   1.000  C
  H299     1.0000 0.42706  0.13373  0.24579  Biso   1.000  H
  H300     1.0000 0.42706  0.13373  0.24584  Biso   1.000  H
  C261     1.0000 0.68822  0.29659  0.88637  Biso   1.000  C
  C262     1.0000 0.51340  0.37971  0.90083  Biso   1.000  C
  C263     1.0000 0.68814  0.29659  0.88637  Biso   1.000  C
  H301     1.0000 0.93102  0.42012  0.13941  Biso   1.000  H
  H302     1.0000 0.95762  0.31057  0.10799  Biso   1.000  H
  H303     1.0000 0.95754  0.31057  0.10804  Biso   1.000  H
  C264     1.0000 0.04650  0.42970  0.07038  Biso   1.000  C
  H304     1.0000 0.69786  0.88450  0.20790  Biso   1.000  H
  C265     1.0000 0.53621  0.90382  0.23304  Biso   1.000  C
  H305     1.0000 0.69786  0.88450  0.20794  Biso   1.000  H
  C266     1.0000 0.53621  0.90382  0.23308  Biso   1.000  C
  C267     1.0000 0.85944  0.00039  0.18331  Biso   1.000  C
  C268     1.0000 0.85935  0.00039  0.18331  Biso   1.000  C
  O47      1.0000 0.35211  0.94337  0.26058  Biso   1.000  O
  O48      1.0000 0.35203  0.94337  0.26062  Biso   1.000  O
  O49      1.0000 0.79612  0.28368  0.90767  Biso   1.000  O
  C269     1.0000 0.64463  0.24737  0.83471  Biso   1.000  C
  C270     1.0000 0.64455  0.24737  0.83475  Biso   1.000  C
  H306     1.0000 0.46771  0.42676  0.92292  Biso   1.000  H
  C271     1.0000 0.46833  0.32749  0.85074  Biso   1.000  C
  C272     1.0000 0.46824  0.32749  0.85074  Biso   1.000  C
  H307     1.0000 0.06232  0.39254  0.03198  Biso   1.000  H
  H308     1.0000 0.11044  0.42321  0.09870  Biso   1.000  H
  H309     1.0000 0.03326  0.50278  0.06109  Biso   1.000  H
  H310     1.0000 0.06224  0.39254  0.03202  Biso   1.000  H
  H311     1.0000 0.11036  0.42321  0.09870  Biso   1.000  H
  H312     1.0000 0.03326  0.50278  0.06114  Biso   1.000  H
  C273     1.0000 0.50941  0.79071  0.24172  Biso   1.000  C
  C274     1.0000 0.50941  0.79071  0.24177  Biso   1.000  C
  C275     1.0000 0.96187  0.05570  0.16150  Biso   1.000  C
  H313     1.0000 0.83649  0.94739  0.15272  Biso   1.000  H
  H314     1.0000 0.87480  0.96547  0.22319  Biso   1.000  H
  H315     1.0000 0.87480  0.96547  0.22324  Biso   1.000  H
  C276     1.0000 0.26867  0.01599  0.27749  Biso   1.000  C
  C277     1.0000 0.26867  0.01599  0.27754  Biso   1.000  C
  C278     1.0000 0.86766  0.21693  0.87394  Biso   1.000  C
  C279     1.0000 0.86766  0.21693  0.87399  Biso   1.000  C
  C280     1.0000 0.53467  0.26197  0.81558  Biso   1.000  C
  H316     1.0000 0.69123  0.20233  0.81170  Biso   1.000  H
  C281     1.0000 0.53467  0.26197  0.81562  Biso   1.000  C
  H317     1.0000 0.69115  0.20233  0.81174  Biso   1.000  H
  O50      1.0000 0.35918  0.33792  0.83027  Biso   1.000  O
  O51      1.0000 0.35918  0.33792  0.83032  Biso   1.000  O
  H318     1.0000 0.45333  0.78392  0.27490  Biso   1.000  H
  H319     1.0000 0.57803  0.75448  0.25559  Biso   1.000  H
  C282     1.0000 0.46533  0.73803  0.18442  Biso   1.000  C
  H320     1.0000 0.45324  0.78392  0.27490  Biso   1.000  H
  H321     1.0000 0.57794  0.75448  0.25563  Biso   1.000  H
  C283     1.0000 0.46525  0.73803  0.18442  Biso   1.000  C
  H322     1.0000 0.99128  0.09927  0.19491  Biso   1.000  H
  H323     1.0000 0.94280  0.09889  0.12578  Biso   1.000  H
  H324     1.0000 0.94280  0.09889  0.12583  Biso   1.000  H
  H325     1.0000 0.01872  0.00502  0.14958  Biso   1.000  H
  H326     1.0000 0.01864  0.00502  0.14963  Biso   1.000  H
  H327     1.0000 0.29311  0.05547  0.31441  Biso   1.000  H
  C284     1.0000 0.16496  0.95689  0.29121  Biso   1.000  C
  H328     1.0000 0.25512  0.06520  0.24320  Biso   1.000  H
  H329     1.0000 0.25504  0.06520  0.24320  Biso   1.000  H
  H330     1.0000 0.87013  0.23756  0.82999  Biso   1.000  H
  H331     1.0000 0.84087  0.14462  0.87648  Biso   1.000  H
  C285     1.0000 0.98067  0.22659  0.90301  Biso   1.000  C
  H332     1.0000 0.87005  0.23756  0.83004  Biso   1.000  H
  H333     1.0000 0.84087  0.14462  0.87653  Biso   1.000  H
  C286     1.0000 0.49059  0.20929  0.75828  Biso   1.000  C
  C287     1.0000 0.28119  0.38914  0.86909  Biso   1.000  C
  C288     1.0000 0.28119  0.38914  0.86913  Biso   1.000  C
  C289     1.0000 0.35537  0.75263  0.16529  Biso   1.000  C
  C290     1.0000 0.53167  0.67251  0.14926  Biso   1.000  C
  C291     1.0000 0.53167  0.67251  0.14930  Biso   1.000  C
  H334     1.0000 0.10629  0.00471  0.30452  Biso   1.000  H
  H335     1.0000 0.14010  0.92019  0.25401  Biso   1.000  H
  H336     1.0000 0.18024  0.90691  0.32421  Biso   1.000  H
  H337     1.0000 0.18016  0.90691  0.32421  Biso   1.000  H
  H338     1.0000 0.97852  0.19994  0.94529  Biso   1.000  H
  H339     1.0000 0.97843  0.19994  0.94533  Biso   1.000  H
  H340     1.0000 0.00291  0.29952  0.90379  Biso   1.000  H
  H341     1.0000 0.03503  0.18688  0.87898  Biso   1.000  H
  H342     1.0000 0.00291  0.29952  0.90384  Biso   1.000  H
  H343     1.0000 0.03495  0.18688  0.87902  Biso   1.000  H
  H344     1.0000 0.54667  0.21608  0.72510  Biso   1.000  H
  H345     1.0000 0.42197  0.24552  0.74441  Biso   1.000  H
  C292     1.0000 0.46379  0.09618  0.76696  Biso   1.000  C
  H346     1.0000 0.54667  0.21608  0.72514  Biso   1.000  H
  H347     1.0000 0.21203  0.40281  0.84520  Biso   1.000  H
  H348     1.0000 0.31277  0.45650  0.88189  Biso   1.000  H
  C293     1.0000 0.25271  0.32903  0.92482  Biso   1.000  C
  H349     1.0000 0.21195  0.40281  0.84524  Biso   1.000  H
  H350     1.0000 0.31277  0.45650  0.88193  Biso   1.000  H
  H351     1.0000 0.30877  0.79767  0.18830  Biso   1.000  H
  C294     1.0000 0.31178  0.70341  0.11363  Biso   1.000  C
  C295     1.0000 0.31178  0.70341  0.11368  Biso   1.000  C
  O52      1.0000 0.64082  0.66208  0.16973  Biso   1.000  O
  C296     1.0000 0.48660  0.62029  0.09917  Biso   1.000  C
  O53      1.0000 0.64073  0.66208  0.16973  Biso   1.000  O
  C297     1.0000 0.48660  0.62029  0.09921  Biso   1.000  C
  C298     1.0000 0.35770  0.06482  0.78452  Biso   1.000  C
  C299     1.0000 0.54430  0.02078  0.75615  Biso   1.000  C
  C300     1.0000 0.35770  0.06482  0.78457  Biso   1.000  C
  H352     1.0000 0.22607  0.26028  0.91262  Biso   1.000  H
  H353     1.0000 0.19399  0.36488  0.94769  Biso   1.000  H
  H354     1.0000 0.31931  0.32193  0.95120  Biso   1.000  H
  H355     1.0000 0.19399  0.36488  0.94774  Biso   1.000  H
  O54      1.0000 0.20388  0.71632  0.09233  Biso   1.000  O
  C301     1.0000 0.37647  0.63450  0.08008  Biso   1.000  C
  O55      1.0000 0.20388  0.71632  0.09237  Biso   1.000  O
  C302     1.0000 0.71881  0.61086  0.13091  Biso   1.000  C
  H356     1.0000 0.53229  0.57324  0.07708  Biso   1.000  H
  H357     1.0000 0.53229  0.57324  0.07712  Biso   1.000  H
  C303     1.0000 0.33088  0.96099  0.79132  Biso   1.000  C
  H358     1.0000 0.30214  0.11550  0.79210  Biso   1.000  H
  H359     1.0000 0.30205  0.11550  0.79210  Biso   1.000  H
  C304     1.0000 0.51738  0.91687  0.76216  Biso   1.000  C
  O56      1.0000 0.64789  0.05663  0.73942  Biso   1.000  O
  C305     1.0000 0.13234  0.78307  0.12606  Biso   1.000  C
  C306     1.0000 0.13226  0.78307  0.12606  Biso   1.000  C
  C307     1.0000 0.32808  0.57741  0.02560  Biso   1.000  C
  C308     1.0000 0.32808  0.57741  0.02565  Biso   1.000  C
  H360     1.0000 0.78797  0.59719  0.15480  Biso   1.000  H
  H361     1.0000 0.68723  0.54350  0.11811  Biso   1.000  H
  C309     1.0000 0.74729  0.67097  0.07518  Biso   1.000  C
  H362     1.0000 0.68715  0.54350  0.11811  Biso   1.000  H
  C310     1.0000 0.74729  0.67097  0.07523  Biso   1.000  C
  O57      1.0000 0.22772  0.92491  0.80939  Biso   1.000  O
  C311     1.0000 0.41088  0.88528  0.77958  Biso   1.000  C
  O58      1.0000 0.22772  0.92491  0.80943  Biso   1.000  O
  C312     1.0000 0.41088  0.88528  0.77963  Biso   1.000  C
  H363     1.0000 0.57294  0.86627  0.75421  Biso   1.000  H
  H364     1.0000 0.57286  0.86627  0.75421  Biso   1.000  H
  C313     1.0000 0.73133  0.98401  0.72251  Biso   1.000  C
  C314     1.0000 0.73125  0.98401  0.72251  Biso   1.000  C
  H365     1.0000 0.12987  0.76244  0.17001  Biso   1.000  H
  H366     1.0000 0.15913  0.85538  0.12352  Biso   1.000  H
  C315     1.0000 0.01933  0.77341  0.09699  Biso   1.000  C
  H367     1.0000 0.15905  0.85538  0.12352  Biso   1.000  H
  C316     1.0000 0.01925  0.77341  0.09704  Biso   1.000  C
  C317     1.0000 0.33868  0.63473  0.96391  Biso   1.000  C
  C318     1.0000 0.33868  0.63473  0.96396  Biso   1.000  C
  H368     1.0000 0.36597  0.50981  0.02209  Biso   1.000  H
  H369     1.0000 0.24786  0.56397  0.03341  Biso   1.000  H
  H370     1.0000 0.36598  0.50981  0.02213  Biso   1.000  H
  H371     1.0000 0.77393  0.73972  0.08738  Biso   1.000  H
  H372     1.0000 0.80601  0.63512  0.05231  Biso   1.000  H
  H373     1.0000 0.68069  0.67807  0.04880  Biso   1.000  H
  H374     1.0000 0.77385  0.73972  0.08743  Biso   1.000  H
  H375     1.0000 0.68069  0.67807  0.04884  Biso   1.000  H
  C319     1.0000 0.14056  0.99961  0.81669  Biso   1.000  C
  C320     1.0000 0.14057  0.99961  0.81673  Biso   1.000  C
  C321     1.0000 0.38242  0.77186  0.78332  Biso   1.000  C
  C322     1.0000 0.38234  0.77186  0.78332  Biso   1.000  C
  H376     1.0000 0.74488  0.93480  0.75680  Biso   1.000  H
  H377     1.0000 0.70689  0.94453  0.68559  Biso   1.000  H
  H378     1.0000 0.74488  0.93480  0.75684  Biso   1.000  H
  H379     1.0000 0.70689  0.94453  0.68564  Biso   1.000  H
  C323     1.0000 0.83504  0.04311  0.70879  Biso   1.000  C
  C324     1.0000 0.83496  0.04311  0.70883  Biso   1.000  C
  H380     1.0000 0.99709  0.70048  0.09621  Biso   1.000  H
  H381     1.0000 0.96497  0.81312  0.12102  Biso   1.000  H
  H382     1.0000 0.02148  0.80006  0.05471  Biso   1.000  H
  C325     1.0000 0.24910  0.64339  0.92320  Biso   1.000  C
  C326     1.0000 0.44168  0.67560  0.94677  Biso   1.000  C
  C327     1.0000 0.44168  0.67560  0.94681  Biso   1.000  C
  C328     1.0000 0.03813  0.94430  0.83850  Biso   1.000  C
  C329     1.0000 0.03804  0.94430  0.83854  Biso   1.000  C
  H383     1.0000 0.16351  0.05261  0.84728  Biso   1.000  H
  H384     1.0000 0.12520  0.03453  0.77681  Biso   1.000  H
  H385     1.0000 0.16351  0.05261  0.84732  Biso   1.000  H
  C330     1.0000 0.36734  0.72852  0.84783  Biso   1.000  C
  H386     1.0000 0.31260  0.75997  0.75962  Biso   1.000  H
  H387     1.0000 0.44251  0.73239  0.76271  Biso   1.000  H
  C331     1.0000 0.36726  0.72852  0.84783  Biso   1.000  C
  H388     1.0000 0.89371  0.99529  0.69548  Biso   1.000  H
  H389     1.0000 0.89371  0.99529  0.69552  Biso   1.000  H
  H390     1.0000 0.85990  0.07981  0.74599  Biso   1.000  H
  H391     1.0000 0.81976  0.09309  0.67579  Biso   1.000  H
  H392     1.0000 0.85990  0.07981  0.74603  Biso   1.000  H
  H393     1.0000 0.81976  0.09309  0.67584  Biso   1.000  H
  O59      1.0000 0.14828  0.60182  0.94131  Biso   1.000  O
  C332     1.0000 0.26418  0.68943  0.86571  Biso   1.000  C
  C333     1.0000 0.26418  0.68943  0.86576  Biso   1.000  C
  C334     1.0000 0.45668  0.72142  0.88919  Biso   1.000  C
  H394     1.0000 0.50278  0.67213  0.97491  Biso   1.000  H
  C335     1.0000 0.45668  0.72142  0.88924  Biso   1.000  C
  H395     1.0000 0.98128  0.99498  0.85042  Biso   1.000  H
  H396     1.0000 0.05720  0.90111  0.87422  Biso   1.000  H
  H397     1.0000 0.00872  0.90073  0.80509  Biso   1.000  H
  H398     1.0000 0.00872  0.90073  0.80513  Biso   1.000  H
  C336     1.0000 0.05443  0.61503  0.90037  Biso   1.000  C
  C337     1.0000 0.05435  0.61503  0.90037  Biso   1.000  C
  H399     1.0000 0.20250  0.69407  0.83799  Biso   1.000  H
  H400     1.0000 0.20250  0.69407  0.83804  Biso   1.000  H
  O60      1.0000 0.55672  0.76020  0.86932  Biso   1.000  O
  C338     1.0000 0.95350  0.57030  0.92962  Biso   1.000  C
  C339     1.0000 0.95350  0.57030  0.92967  Biso   1.000  C
  H401     1.0000 0.04238  0.68943  0.89201  Biso   1.000  H
  H402     1.0000 0.06898  0.57988  0.86059  Biso   1.000  H
  H403     1.0000 0.06898  0.57988  0.86063  Biso   1.000  H
  C340     1.0000 0.64726  0.76460  0.91239  Biso   1.000  C
  H404     1.0000 0.93768  0.60746  0.96802  Biso   1.000  H
  H405     1.0000 0.88956  0.57679  0.90130  Biso   1.000  H
  H406     1.0000 0.96674  0.49722  0.93891  Biso   1.000  H
  H407     1.0000 0.88956  0.57679  0.90134  Biso   1.000  H
  H408     1.0000 0.96666  0.49722  0.93891  Biso   1.000  H
  H409     1.0000 0.62557  0.80477  0.94931  Biso   1.000  H
  H410     1.0000 0.66857  0.69407  0.92569  Biso   1.000  H
  C341     1.0000 0.74372  0.81613  0.88013  Biso   1.000  C
  H411     1.0000 0.66857  0.69407  0.92574  Biso   1.000  H
  C342     1.0000 0.74364  0.81613  0.88013  Biso   1.000  C
  H412     1.0000 0.72209  0.88628  0.86798  Biso   1.000  H
  H413     1.0000 0.80816  0.81922  0.90818  Biso   1.000  H
  H414     1.0000 0.76332  0.77627  0.84330  Biso   1.000  H
  H415     1.0000 0.72209  0.88628  0.86803  Biso   1.000  H
  H416     1.0000 0.80816  0.81922  0.90823  Biso   1.000  H
  H417     1.0000 0.76324  0.77627  0.84330  Biso   1.000  H
  C343     1.0000 0.35266  0.23540  0.08766  Biso   1.000  C
  O61      1.0000 0.44328  0.23980  0.13068  Biso   1.000  O
  O62      1.0000 0.44319  0.23980  0.13073  Biso   1.000  O
  H418     1.0000 0.37443  0.19523  0.05069  Biso   1.000  H
  H419     1.0000 0.33143  0.30593  0.07431  Biso   1.000  H
  C344     1.0000 0.25628  0.18387  0.11987  Biso   1.000  C
  H420     1.0000 0.37435  0.19523  0.05074  Biso   1.000  H
  H421     1.0000 0.33135  0.30593  0.07431  Biso   1.000  H
  C345     1.0000 0.25628  0.18387  0.11991  Biso   1.000  C
  C346     1.0000 0.54332  0.27858  0.11081  Biso   1.000  C
  C347     1.0000 0.35274  0.23540  0.08761  Biso   1.000  C
  H422     1.0000 0.27791  0.11372  0.13202  Biso   1.000  H
  H423     1.0000 0.19184  0.18078  0.09182  Biso   1.000  H
  H424     1.0000 0.23668  0.22373  0.15670  Biso   1.000  H
  H425     1.0000 0.19175  0.18078  0.09182  Biso   1.000  H
  H426     1.0000 0.23668  0.22373  0.15674  Biso   1.000  H
  C348     1.0000 0.63266  0.27148  0.15217  Biso   1.000  C
  C349     1.0000 0.55832  0.32440  0.05323  Biso   1.000  C
  C350     1.0000 0.63266  0.27148  0.15221  Biso   1.000  C
  C351     1.0000 0.55824  0.32440  0.05323  Biso   1.000  C
  C352     1.0000 0.73582  0.31057  0.13429  Biso   1.000  C
  C353     1.0000 0.61758  0.22814  0.21668  Biso   1.000  C
  C354     1.0000 0.73573  0.31057  0.13429  Biso   1.000  C
  C355     1.0000 0.61758  0.22814  0.21672  Biso   1.000  C
  C356     1.0000 0.66132  0.36527  0.03609  Biso   1.000  C
  H427     1.0000 0.49722  0.32787  0.02509  Biso   1.000  H
  C357     1.0000 0.66123  0.36527  0.03609  Biso   1.000  C
  H428     1.0000 0.49713  0.32787  0.02514  Biso   1.000  H
  H429     1.0000 0.79750  0.30593  0.16201  Biso   1.000  H
  C358     1.0000 0.75090  0.35661  0.07680  Biso   1.000  C
  C359     1.0000 0.75090  0.35661  0.07685  Biso   1.000  C
  H430     1.0000 0.68740  0.24003  0.24038  Biso   1.000  H
  H431     1.0000 0.55749  0.26761  0.23729  Biso   1.000  H
  C360     1.0000 0.58912  0.11472  0.22042  Biso   1.000  C
  H432     1.0000 0.68740  0.24003  0.24043  Biso   1.000  H
  H433     1.0000 0.55749  0.26761  0.23733  Biso   1.000  H
  C361     1.0000 0.58904  0.11472  0.22042  Biso   1.000  C
  C362     1.0000 0.67192  0.42259  0.97440  Biso   1.000  C
  C363     1.0000 0.67184  0.42259  0.97440  Biso   1.000  C
  O63      1.0000 0.85172  0.39818  0.05869  Biso   1.000  O
  O64      1.0000 0.85163  0.39818  0.05873  Biso   1.000  O
  C364     1.0000 0.66912  0.03901  0.20868  Biso   1.000  C
  C365     1.0000 0.48262  0.08313  0.23784  Biso   1.000  C
  C366     1.0000 0.66904  0.03901  0.20873  Biso   1.000  C
  C367     1.0000 0.48254  0.08313  0.23789  Biso   1.000  C
  C368     1.0000 0.62353  0.36550  0.91992  Biso   1.000  C
  H434     1.0000 0.63403  0.49019  0.97791  Biso   1.000  H
  H435     1.0000 0.75214  0.43603  0.96659  Biso   1.000  H
  C369     1.0000 0.62345  0.36550  0.91996  Biso   1.000  C
  H436     1.0000 0.63394  0.49019  0.97791  Biso   1.000  H
  H437     1.0000 0.75205  0.43603  0.96664  Biso   1.000  H
  C370     1.0000 0.94557  0.38497  0.09963  Biso   1.000  C
  C371     1.0000 0.94557  0.38497  0.09967  Biso   1.000  C
  C372     1.0000 0.64230  0.93518  0.21548  Biso   1.000  C
  O65      1.0000 0.77228  0.07509  0.19061  Biso   1.000  O
  O66      1.0000 0.77219  0.07509  0.19061  Biso   1.000  O
  C373     1.0000 0.45570  0.97922  0.24385  Biso   1.000  C
  C374     1.0000 0.45570  0.97922  0.24389  Biso   1.000  C
  H438     1.0000 0.42706  0.13373  0.24579  Biso   1.000  H
  H439     1.0000 0.42706  0.13373  0.24584  Biso   1.000  H
  C375     1.0000 0.68822  0.29659  0.88637  Biso   1.000  C
  C376     1.0000 0.51340  0.37971  0.90083  Biso   1.000  C
  C377     1.0000 0.68814  0.29659  0.88637  Biso   1.000  C
  H440     1.0000 0.93102  0.42012  0.13941  Biso   1.000  H
  H441     1.0000 0.95762  0.31057  0.10799  Biso   1.000  H
  H442     1.0000 0.95754  0.31057  0.10804  Biso   1.000  H
  C378     1.0000 0.04650  0.42970  0.07038  Biso   1.000  C
  H443     1.0000 0.69786  0.88450  0.20790  Biso   1.000  H
  C379     1.0000 0.53621  0.90382  0.23304  Biso   1.000  C
  H444     1.0000 0.69786  0.88450  0.20794  Biso   1.000  H
  C380     1.0000 0.53621  0.90382  0.23308  Biso   1.000  C
  C381     1.0000 0.85944  0.00039  0.18331  Biso   1.000  C
  C382     1.0000 0.85935  0.00039  0.18331  Biso   1.000  C
  O67      1.0000 0.35211  0.94337  0.26058  Biso   1.000  O
  O68      1.0000 0.35203  0.94337  0.26062  Biso   1.000  O
  O69      1.0000 0.79612  0.28368  0.90767  Biso   1.000  O
  C383     1.0000 0.64463  0.24737  0.83471  Biso   1.000  C
  C384     1.0000 0.64455  0.24737  0.83475  Biso   1.000  C
  H445     1.0000 0.46771  0.42676  0.92292  Biso   1.000  H
  C385     1.0000 0.46833  0.32749  0.85074  Biso   1.000  C
  C386     1.0000 0.46824  0.32749  0.85074  Biso   1.000  C
  H446     1.0000 0.06232  0.39254  0.03198  Biso   1.000  H
  H447     1.0000 0.11044  0.42321  0.09870  Biso   1.000  H
  H448     1.0000 0.03326  0.50278  0.06109  Biso   1.000  H
  H449     1.0000 0.06224  0.39254  0.03202  Biso   1.000  H
  H450     1.0000 0.11036  0.42321  0.09870  Biso   1.000  H
  H451     1.0000 0.03326  0.50278  0.06114  Biso   1.000  H
  C387     1.0000 0.50941  0.79071  0.24172  Biso   1.000  C
  C388     1.0000 0.50941  0.79071  0.24177  Biso   1.000  C
  C389     1.0000 0.96187  0.05570  0.16150  Biso   1.000  C
  H452     1.0000 0.83649  0.94739  0.15272  Biso   1.000  H
  H453     1.0000 0.87480  0.96547  0.22319  Biso   1.000  H
  H454     1.0000 0.87480  0.96547  0.22324  Biso   1.000  H
  C390     1.0000 0.26867  0.01599  0.27749  Biso   1.000  C
  C391     1.0000 0.26867  0.01599  0.27754  Biso   1.000  C
  C392     1.0000 0.86766  0.21693  0.87394  Biso   1.000  C
  C393     1.0000 0.86766  0.21693  0.87399  Biso   1.000  C
  C394     1.0000 0.53467  0.26197  0.81558  Biso   1.000  C
  H455     1.0000 0.69123  0.20233  0.81170  Biso   1.000  H
  C395     1.0000 0.53467  0.26197  0.81562  Biso   1.000  C
  H456     1.0000 0.69115  0.20233  0.81174  Biso   1.000  H
  O70      1.0000 0.35918  0.33792  0.83027  Biso   1.000  O
  O71      1.0000 0.35918  0.33792  0.83032  Biso   1.000  O
  H457     1.0000 0.45333  0.78392  0.27490  Biso   1.000  H
  H458     1.0000 0.57803  0.75448  0.25559  Biso   1.000  H
  C396     1.0000 0.46533  0.73803  0.18442  Biso   1.000  C
  H459     1.0000 0.45324  0.78392  0.27490  Biso   1.000  H
  H460     1.0000 0.57794  0.75448  0.25563  Biso   1.000  H
  C397     1.0000 0.46525  0.73803  0.18442  Biso   1.000  C
  H461     1.0000 0.99128  0.09927  0.19491  Biso   1.000  H
  H462     1.0000 0.94280  0.09889  0.12578  Biso   1.000  H
  H463     1.0000 0.94280  0.09889  0.12583  Biso   1.000  H
  H464     1.0000 0.01872  0.00502  0.14958  Biso   1.000  H
  H465     1.0000 0.01864  0.00502  0.14963  Biso   1.000  H
  H466     1.0000 0.29311  0.05547  0.31441  Biso   1.000  H
  C398     1.0000 0.16496  0.95689  0.29121  Biso   1.000  C
  H467     1.0000 0.25512  0.06520  0.24320  Biso   1.000  H
  H468     1.0000 0.25504  0.06520  0.24320  Biso   1.000  H
  H469     1.0000 0.87013  0.23756  0.82999  Biso   1.000  H
  H470     1.0000 0.84087  0.14462  0.87648  Biso   1.000  H
  C399     1.0000 0.98067  0.22659  0.90301  Biso   1.000  C
  H471     1.0000 0.87005  0.23756  0.83004  Biso   1.000  H
  H472     1.0000 0.84087  0.14462  0.87653  Biso   1.000  H
  C400     1.0000 0.49059  0.20929  0.75828  Biso   1.000  C
  C401     1.0000 0.28119  0.38914  0.86909  Biso   1.000  C
  C402     1.0000 0.28119  0.38914  0.86913  Biso   1.000  C
  C403     1.0000 0.35537  0.75263  0.16529  Biso   1.000  C
  C404     1.0000 0.53167  0.67251  0.14926  Biso   1.000  C
  C405     1.0000 0.53167  0.67251  0.14930  Biso   1.000  C
  H473     1.0000 0.10629  0.00471  0.30452  Biso   1.000  H
  H474     1.0000 0.14010  0.92019  0.25401  Biso   1.000  H
  H475     1.0000 0.18024  0.90691  0.32421  Biso   1.000  H
  H476     1.0000 0.18016  0.90691  0.32421  Biso   1.000  H
  H477     1.0000 0.97852  0.19994  0.94529  Biso   1.000  H
  H478     1.0000 0.97843  0.19994  0.94533  Biso   1.000  H
  H479     1.0000 0.00291  0.29952  0.90379  Biso   1.000  H
  H480     1.0000 0.03503  0.18688  0.87898  Biso   1.000  H
  H481     1.0000 0.00291  0.29952  0.90384  Biso   1.000  H
  H482     1.0000 0.03495  0.18688  0.87902  Biso   1.000  H
  H483     1.0000 0.54667  0.21608  0.72510  Biso   1.000  H
  H484     1.0000 0.42197  0.24552  0.74441  Biso   1.000  H
  C406     1.0000 0.46379  0.09618  0.76696  Biso   1.000  C
  H485     1.0000 0.54667  0.21608  0.72514  Biso   1.000  H
  H486     1.0000 0.21203  0.40281  0.84520  Biso   1.000  H
  H487     1.0000 0.31277  0.45650  0.88189  Biso   1.000  H
  C407     1.0000 0.25271  0.32903  0.92482  Biso   1.000  C
  H488     1.0000 0.21195  0.40281  0.84524  Biso   1.000  H
  H489     1.0000 0.31277  0.45650  0.88193  Biso   1.000  H
  H490     1.0000 0.30877  0.79767  0.18830  Biso   1.000  H
  C408     1.0000 0.31178  0.70341  0.11363  Biso   1.000  C
  C409     1.0000 0.31178  0.70341  0.11368  Biso   1.000  C
  O72      1.0000 0.64082  0.66208  0.16973  Biso   1.000  O
  C410     1.0000 0.48660  0.62029  0.09917  Biso   1.000  C
  O73      1.0000 0.64073  0.66208  0.16973  Biso   1.000  O
  C411     1.0000 0.48660  0.62029  0.09921  Biso   1.000  C
  C412     1.0000 0.35770  0.06482  0.78452  Biso   1.000  C
  C413     1.0000 0.54430  0.02078  0.75615  Biso   1.000  C
  C414     1.0000 0.35770  0.06482  0.78457  Biso   1.000  C
  H491     1.0000 0.22607  0.26028  0.91262  Biso   1.000  H
  H492     1.0000 0.19399  0.36488  0.94769  Biso   1.000  H
  H493     1.0000 0.31931  0.32193  0.95120  Biso   1.000  H
  H494     1.0000 0.19399  0.36488  0.94774  Biso   1.000  H
  O74      1.0000 0.20388  0.71632  0.09233  Biso   1.000  O
  C415     1.0000 0.37647  0.63450  0.08008  Biso   1.000  C
  O75      1.0000 0.20388  0.71632  0.09237  Biso   1.000  O
  C416     1.0000 0.71881  0.61086  0.13091  Biso   1.000  C
  H495     1.0000 0.53229  0.57324  0.07708  Biso   1.000  H
  H496     1.0000 0.53229  0.57324  0.07712  Biso   1.000  H
  C417     1.0000 0.33088  0.96099  0.79132  Biso   1.000  C
  H497     1.0000 0.30214  0.11550  0.79210  Biso   1.000  H
  H498     1.0000 0.30205  0.11550  0.79210  Biso   1.000  H
  C418     1.0000 0.51738  0.91687  0.76216  Biso   1.000  C
  O76      1.0000 0.64789  0.05663  0.73942  Biso   1.000  O
  C419     1.0000 0.13234  0.78307  0.12606  Biso   1.000  C
  C420     1.0000 0.13226  0.78307  0.12606  Biso   1.000  C
  C421     1.0000 0.32808  0.57741  0.02560  Biso   1.000  C
  C422     1.0000 0.32808  0.57741  0.02565  Biso   1.000  C
  H499     1.0000 0.78797  0.59719  0.15480  Biso   1.000  H
  H500     1.0000 0.68723  0.54350  0.11811  Biso   1.000  H
  C423     1.0000 0.74729  0.67097  0.07518  Biso   1.000  C
  H501     1.0000 0.68715  0.54350  0.11811  Biso   1.000  H
  C424     1.0000 0.74729  0.67097  0.07523  Biso   1.000  C
  O77      1.0000 0.22772  0.92491  0.80939  Biso   1.000  O
  C425     1.0000 0.41088  0.88528  0.77958  Biso   1.000  C
  O78      1.0000 0.22772  0.92491  0.80943  Biso   1.000  O
  C426     1.0000 0.41088  0.88528  0.77963  Biso   1.000  C
  H502     1.0000 0.57294  0.86627  0.75421  Biso   1.000  H
  H503     1.0000 0.57286  0.86627  0.75421  Biso   1.000  H
  C427     1.0000 0.73133  0.98401  0.72251  Biso   1.000  C
  C428     1.0000 0.73125  0.98401  0.72251  Biso   1.000  C
  H504     1.0000 0.12987  0.76244  0.17001  Biso   1.000  H
  H505     1.0000 0.15913  0.85538  0.12352  Biso   1.000  H
  C429     1.0000 0.01933  0.77341  0.09699  Biso   1.000  C
  H506     1.0000 0.15905  0.85538  0.12352  Biso   1.000  H
  C430     1.0000 0.01925  0.77341  0.09704  Biso   1.000  C
  C431     1.0000 0.33868  0.63473  0.96391  Biso   1.000  C
  C432     1.0000 0.33868  0.63473  0.96396  Biso   1.000  C
  H507     1.0000 0.36597  0.50981  0.02209  Biso   1.000  H
  H508     1.0000 0.24786  0.56397  0.03341  Biso   1.000  H
  H509     1.0000 0.36598  0.50981  0.02213  Biso   1.000  H
  H510     1.0000 0.77393  0.73972  0.08738  Biso   1.000  H
  H511     1.0000 0.80601  0.63512  0.05231  Biso   1.000  H
  H512     1.0000 0.68069  0.67807  0.04880  Biso   1.000  H
  H513     1.0000 0.77385  0.73972  0.08743  Biso   1.000  H
  H514     1.0000 0.68069  0.67807  0.04884  Biso   1.000  H
  C433     1.0000 0.14056  0.99961  0.81669  Biso   1.000  C
  C434     1.0000 0.14057  0.99961  0.81673  Biso   1.000  C
  C435     1.0000 0.38242  0.77186  0.78332  Biso   1.000  C
  C436     1.0000 0.38234  0.77186  0.78332  Biso   1.000  C
  H515     1.0000 0.74488  0.93480  0.75680  Biso   1.000  H
  H516     1.0000 0.70689  0.94453  0.68559  Biso   1.000  H
  H517     1.0000 0.74488  0.93480  0.75684  Biso   1.000  H
  H518     1.0000 0.70689  0.94453  0.68564  Biso   1.000  H
  C437     1.0000 0.83504  0.04311  0.70879  Biso   1.000  C
  C438     1.0000 0.83496  0.04311  0.70883  Biso   1.000  C
  H519     1.0000 0.99709  0.70048  0.09621  Biso   1.000  H
  H520     1.0000 0.96497  0.81312  0.12102  Biso   1.000  H
  H521     1.0000 0.02148  0.80006  0.05471  Biso   1.000  H
  C439     1.0000 0.24910  0.64339  0.92320  Biso   1.000  C
  C440     1.0000 0.44168  0.67560  0.94677  Biso   1.000  C
  C441     1.0000 0.44168  0.67560  0.94681  Biso   1.000  C
  C442     1.0000 0.03813  0.94430  0.83850  Biso   1.000  C
  C443     1.0000 0.03804  0.94430  0.83854  Biso   1.000  C
  H522     1.0000 0.16351  0.05261  0.84728  Biso   1.000  H
  H523     1.0000 0.12520  0.03453  0.77681  Biso   1.000  H
  H524     1.0000 0.16351  0.05261  0.84732  Biso   1.000  H
  C444     1.0000 0.36734  0.72852  0.84783  Biso   1.000  C
  H525     1.0000 0.31260  0.75997  0.75962  Biso   1.000  H
  H526     1.0000 0.44251  0.73239  0.76271  Biso   1.000  H
  C445     1.0000 0.36726  0.72852  0.84783  Biso   1.000  C
  H527     1.0000 0.89371  0.99529  0.69548  Biso   1.000  H
  H528     1.0000 0.89371  0.99529  0.69552  Biso   1.000  H
  H529     1.0000 0.85990  0.07981  0.74599  Biso   1.000  H
  H530     1.0000 0.81976  0.09309  0.67579  Biso   1.000  H
  H531     1.0000 0.85990  0.07981  0.74603  Biso   1.000  H
  H532     1.0000 0.81976  0.09309  0.67584  Biso   1.000  H
  O79      1.0000 0.14828  0.60182  0.94131  Biso   1.000  O
  C446     1.0000 0.26418  0.68943  0.86571  Biso   1.000  C
  C447     1.0000 0.26418  0.68943  0.86576  Biso   1.000  C
  C448     1.0000 0.45668  0.72142  0.88919  Biso   1.000  C
  H533     1.0000 0.50278  0.67213  0.97491  Biso   1.000  H
  C449     1.0000 0.45668  0.72142  0.88924  Biso   1.000  C
  H534     1.0000 0.98128  0.99498  0.85042  Biso   1.000  H
  H535     1.0000 0.05720  0.90111  0.87422  Biso   1.000  H
  H536     1.0000 0.00872  0.90073  0.80509  Biso   1.000  H
  H537     1.0000 0.00872  0.90073  0.80513  Biso   1.000  H
  C450     1.0000 0.05443  0.61503  0.90037  Biso   1.000  C
  C451     1.0000 0.05435  0.61503  0.90037  Biso   1.000  C
  H538     1.0000 0.20250  0.69407  0.83799  Biso   1.000  H
  H539     1.0000 0.20250  0.69407  0.83804  Biso   1.000  H
  O80      1.0000 0.55672  0.76020  0.86932  Biso   1.000  O
  C452     1.0000 0.95350  0.57030  0.92962  Biso   1.000  C
  C453     1.0000 0.95350  0.57030  0.92967  Biso   1.000  C
  H540     1.0000 0.04238  0.68943  0.89201  Biso   1.000  H
  H541     1.0000 0.06898  0.57988  0.86059  Biso   1.000  H
  H542     1.0000 0.06898  0.57988  0.86063  Biso   1.000  H
  C454     1.0000 0.64726  0.76460  0.91239  Biso   1.000  C
  H543     1.0000 0.93768  0.60746  0.96802  Biso   1.000  H
  H544     1.0000 0.88956  0.57679  0.90130  Biso   1.000  H
  H545     1.0000 0.96674  0.49722  0.93891  Biso   1.000  H
  H546     1.0000 0.88956  0.57679  0.90134  Biso   1.000  H
  H547     1.0000 0.96666  0.49722  0.93891  Biso   1.000  H
  H548     1.0000 0.62557  0.80477  0.94931  Biso   1.000  H
  H549     1.0000 0.66857  0.69407  0.92569  Biso   1.000  H
  C455     1.0000 0.74372  0.81613  0.88013  Biso   1.000  C
  H550     1.0000 0.66857  0.69407  0.92574  Biso   1.000  H
  C456     1.0000 0.74364  0.81613  0.88013  Biso   1.000  C
  H551     1.0000 0.72209  0.88628  0.86798  Biso   1.000  H
  H552     1.0000 0.80816  0.81922  0.90818  Biso   1.000  H
  H553     1.0000 0.76332  0.77627  0.84330  Biso   1.000  H
  H554     1.0000 0.72209  0.88628  0.86803  Biso   1.000  H
  H555     1.0000 0.80816  0.81922  0.90823  Biso   1.000  H
  H556     1.0000 0.76324  0.77627  0.84330  Biso   1.000  H
  C457     1.0000 0.33501  0.45689  0.20878  Biso   1.000  C
  C458     1.0000 0.23130  0.51599  0.22250  Biso   1.000  C
  H557     1.0000 0.35987  0.42019  0.24602  Biso   1.000  H
  H558     1.0000 0.39368  0.50471  0.19551  Biso   1.000  H
  H559     1.0000 0.31981  0.40691  0.17578  Biso   1.000  H
  O81      1.0000 0.14794  0.44337  0.23941  Biso   1.000  O
  H560     1.0000 0.24493  0.56520  0.25679  Biso   1.000  H
  H561     1.0000 0.20686  0.55547  0.18558  Biso   1.000  H
  C459     1.0000 0.04427  0.47922  0.25614  Biso   1.000  C
  C460     1.0000 0.96384  0.40382  0.26695  Biso   1.000  C
  C461     1.0000 0.01743  0.58313  0.26215  Biso   1.000  C
  C462     1.0000 0.99056  0.29071  0.25827  Biso   1.000  C
  C463     1.0000 0.85767  0.43518  0.28456  Biso   1.000  C
  H562     1.0000 0.07291  0.63373  0.25420  Biso   1.000  H
  C464     1.0000 0.91093  0.61472  0.27961  Biso   1.000  C
  C465     1.0000 0.03472  0.23803  0.31561  Biso   1.000  C
  H563     1.0000 0.04673  0.28392  0.22509  Biso   1.000  H
  H564     1.0000 0.92203  0.25448  0.24440  Biso   1.000  H
  C466     1.0000 0.83093  0.53901  0.29131  Biso   1.000  C
  H565     1.0000 0.80211  0.38450  0.29209  Biso   1.000  H
  C467     1.0000 0.88239  0.72814  0.28331  Biso   1.000  C
  C468     1.0000 0.14460  0.25263  0.33474  Biso   1.000  C
  C469     1.0000 0.96830  0.17251  0.35073  Biso   1.000  C
  O82      1.0000 0.72778  0.57509  0.30942  Biso   1.000  O
  C470     1.0000 0.86731  0.77148  0.34782  Biso   1.000  C
  H566     1.0000 0.81257  0.74003  0.25961  Biso   1.000  H
  H567     1.0000 0.94248  0.76761  0.26270  Biso   1.000  H
  H568     1.0000 0.19120  0.29767  0.31168  Biso   1.000  H
  C471     1.0000 0.18819  0.20341  0.38636  Biso   1.000  C
  C472     1.0000 0.01337  0.12029  0.40082  Biso   1.000  C
  O83      1.0000 0.85924  0.16208  0.33031  Biso   1.000  O
  C473     1.0000 0.64062  0.50039  0.31672  Biso   1.000  C
  C474     1.0000 0.76424  0.81057  0.36575  Biso   1.000  C
  C475     1.0000 0.95674  0.77858  0.38922  Biso   1.000  C
  O84      1.0000 0.29609  0.21632  0.40766  Biso   1.000  O
  C476     1.0000 0.12350  0.13450  0.41991  Biso   1.000  C
  H569     1.0000 0.96768  0.07324  0.42291  Biso   1.000  H
  C477     1.0000 0.78116  0.11086  0.36908  Biso   1.000  C
  H570     1.0000 0.66348  0.44739  0.34731  Biso   1.000  H
  H571     1.0000 0.62517  0.46547  0.27680  Biso   1.000  H
  C478     1.0000 0.53810  0.55570  0.33849  Biso   1.000  C
  C479     1.0000 0.74907  0.85661  0.42319  Biso   1.000  C
  H572     1.0000 0.70247  0.80593  0.33798  Biso   1.000  H
  O85      1.0000 0.05678  0.73980  0.36931  Biso   1.000  O
  C480     1.0000 0.94174  0.82440  0.44675  Biso   1.000  C
  C481     1.0000 0.36772  0.28307  0.37397  Biso   1.000  C
  C482     1.0000 0.17189  0.07741  0.47439  Biso   1.000  C
  H573     1.0000 0.71200  0.09719  0.34519  Biso   1.000  H
  H574     1.0000 0.81282  0.04350  0.38192  Biso   1.000  H
  C483     1.0000 0.75268  0.17097  0.42481  Biso   1.000  C
  H575     1.0000 0.55717  0.59889  0.37421  Biso   1.000  H
  H576     1.0000 0.48133  0.50502  0.35041  Biso   1.000  H
  H577     1.0000 0.50869  0.59927  0.30512  Biso   1.000  H
  O86      1.0000 0.64834  0.89818  0.44130  Biso   1.000  O
  C484     1.0000 0.83874  0.86527  0.46394  Biso   1.000  C
  C485     1.0000 0.14731  0.73540  0.41237  Biso   1.000  C
  H578     1.0000 0.00284  0.82787  0.47490  Biso   1.000  H
  H579     1.0000 0.37010  0.26244  0.32998  Biso   1.000  H
  H580     1.0000 0.34092  0.35538  0.37652  Biso   1.000  H
  C486     1.0000 0.48073  0.27341  0.40299  Biso   1.000  C
  H581     1.0000 0.13400  0.00981  0.47790  Biso   1.000  H
  H582     1.0000 0.25211  0.06397  0.46658  Biso   1.000  H
  C487     1.0000 0.16129  0.13473  0.53608  Biso   1.000  C
  H583     1.0000 0.72612  0.23972  0.41261  Biso   1.000  H
  H584     1.0000 0.69396  0.13512  0.44768  Biso   1.000  H
  H585     1.0000 0.81928  0.17807  0.45119  Biso   1.000  H
  C488     1.0000 0.55440  0.88497  0.40036  Biso   1.000  C
  C489     1.0000 0.82813  0.92259  0.52559  Biso   1.000  C
  H586     1.0000 0.12562  0.69523  0.44930  Biso   1.000  H
  H587     1.0000 0.16862  0.80593  0.42568  Biso   1.000  H
  C490     1.0000 0.24369  0.68387  0.38012  Biso   1.000  C
  H588     1.0000 0.50288  0.20048  0.40378  Biso   1.000  H
  H589     1.0000 0.53500  0.31312  0.37901  Biso   1.000  H
  H590     1.0000 0.47849  0.30006  0.44532  Biso   1.000  H
  C491     1.0000 0.25087  0.14339  0.57679  Biso   1.000  C
  C492     1.0000 0.05829  0.17560  0.55322  Biso   1.000  C
  H591     1.0000 0.54243  0.81057  0.39200  Biso   1.000  H
  H592     1.0000 0.56904  0.92012  0.36062  Biso   1.000  H
  C493     1.0000 0.45348  0.92970  0.42966  Biso   1.000  C
  C494     1.0000 0.87652  0.86550  0.58007  Biso   1.000  C
  H593     1.0000 0.86603  0.99019  0.52212  Biso   1.000  H
  H594     1.0000 0.74792  0.93603  0.53340  Biso   1.000  H
  H595     1.0000 0.22206  0.61372  0.36801  Biso   1.000  H
  H596     1.0000 0.30822  0.68078  0.40822  Biso   1.000  H
  H597     1.0000 0.26329  0.72373  0.34329  Biso   1.000  H
  O87      1.0000 0.35169  0.10182  0.55872  Biso   1.000  O
  C495     1.0000 0.23579  0.18943  0.63427  Biso   1.000  C
  C496     1.0000 0.04329  0.22142  0.61080  Biso   1.000  C
  H598     1.0000 0.99719  0.17213  0.52508  Biso   1.000  H
  H599     1.0000 0.43774  0.89254  0.46801  Biso   1.000  H
  H600     1.0000 0.38961  0.92321  0.40128  Biso   1.000  H
  H601     1.0000 0.46671  0.00278  0.43890  Biso   1.000  H
  C497     1.0000 0.81183  0.79659  0.61362  Biso   1.000  C
  C498     1.0000 0.98657  0.87971  0.59920  Biso   1.000  C
  C499     1.0000 0.44562  0.11503  0.59962  Biso   1.000  C
  H602     1.0000 0.29747  0.19407  0.66200  Biso   1.000  H
  C500     1.0000 0.13272  0.22852  0.65220  Biso   1.000  C
  O88      1.0000 0.94325  0.26020  0.63067  Biso   1.000  O
  O89      1.0000 0.70385  0.78368  0.59232  Biso   1.000  O
  C501     1.0000 0.85542  0.74737  0.66528  Biso   1.000  C
  H603     1.0000 0.03226  0.92676  0.57711  Biso   1.000  H
  C502     1.0000 0.03173  0.82749  0.64925  Biso   1.000  C
  H604     1.0000 0.45759  0.18943  0.60798  Biso   1.000  H
  H605     1.0000 0.43099  0.07988  0.63940  Biso   1.000  H
  C503     1.0000 0.54647  0.07030  0.57037  Biso   1.000  C
  C504     1.0000 0.11763  0.27186  0.71671  Biso   1.000  C
  C505     1.0000 0.85271  0.26460  0.58760  Biso   1.000  C
  C506     1.0000 0.63231  0.71693  0.62605  Biso   1.000  C
  C507     1.0000 0.96530  0.76197  0.68441  Biso   1.000  C
  H606     1.0000 0.80882  0.70233  0.68829  Biso   1.000  H
  O90      1.0000 0.14079  0.83792  0.66972  Biso   1.000  O
  H607     1.0000 0.56229  0.10746  0.53201  Biso   1.000  H
  H608     1.0000 0.61041  0.07679  0.59869  Biso   1.000  H
  H609     1.0000 0.53332  0.99722  0.56108  Biso   1.000  H
  H610     1.0000 0.18737  0.25997  0.74042  Biso   1.000  H
  H611     1.0000 0.05746  0.23239  0.73732  Biso   1.000  H
  C508     1.0000 0.08910  0.38528  0.72041  Biso   1.000  C
  H612     1.0000 0.87440  0.30477  0.55068  Biso   1.000  H
  H613     1.0000 0.83141  0.19407  0.57429  Biso   1.000  H
  C509     1.0000 0.75634  0.31613  0.61986  Biso   1.000  C
  H614     1.0000 0.62993  0.73756  0.66999  Biso   1.000  H
  H615     1.0000 0.65910  0.64462  0.62351  Biso   1.000  H
  C510     1.0000 0.51930  0.72659  0.59698  Biso   1.000  C
  C511     1.0000 0.00938  0.70929  0.74171  Biso   1.000  C
  C512     1.0000 0.21878  0.88914  0.63090  Biso   1.000  C
  C513     1.0000 0.16910  0.46099  0.70872  Biso   1.000  C
  C514     1.0000 0.98259  0.41687  0.73788  Biso   1.000  C
  H616     1.0000 0.77788  0.38628  0.63201  Biso   1.000  H
  H617     1.0000 0.69181  0.31922  0.59181  Biso   1.000  H
  H618     1.0000 0.73673  0.27627  0.65669  Biso   1.000  H
  H619     1.0000 0.49706  0.79952  0.59620  Biso   1.000  H
  H620     1.0000 0.46502  0.68688  0.62101  Biso   1.000  H
  H621     1.0000 0.52154  0.69994  0.55470  Biso   1.000  H
  C515     1.0000 0.03618  0.59618  0.73307  Biso   1.000  C
  H622     1.0000 0.07800  0.74552  0.75562  Biso   1.000  H
  H623     1.0000 0.95330  0.71608  0.77489  Biso   1.000  H
  H624     1.0000 0.28802  0.90281  0.65479  Biso   1.000  H
  H625     1.0000 0.18720  0.95650  0.61810  Biso   1.000  H
  C516     1.0000 0.24726  0.82903  0.57522  Biso   1.000  C
  O91      1.0000 0.27225  0.42491  0.69060  Biso   1.000  O
  C517     1.0000 0.14227  0.56482  0.71546  Biso   1.000  C
  C518     1.0000 0.95567  0.52078  0.74384  Biso   1.000  C
  H626     1.0000 0.92711  0.36627  0.74578  Biso   1.000  H
  H627     1.0000 0.27390  0.76028  0.58742  Biso   1.000  H
  H628     1.0000 0.30598  0.86488  0.55230  Biso   1.000  H
  H629     1.0000 0.18067  0.82193  0.54879  Biso   1.000  H
  C519     1.0000 0.35941  0.49961  0.68330  Biso   1.000  C
  H630     1.0000 0.19792  0.61550  0.70789  Biso   1.000  H
  O92      1.0000 0.85208  0.55663  0.76061  Biso   1.000  O
  H631     1.0000 0.33647  0.55261  0.65271  Biso   1.000  H
  H632     1.0000 0.37477  0.53453  0.72318  Biso   1.000  H
  C520     1.0000 0.46193  0.44430  0.66149  Biso   1.000  C
  C521     1.0000 0.76872  0.48401  0.77748  Biso   1.000  C
  H633     1.0000 0.44277  0.40111  0.62582  Biso   1.000  H
  H634     1.0000 0.51869  0.49498  0.64962  Biso   1.000  H
  H635     1.0000 0.49134  0.40073  0.69490  Biso   1.000  H
  H636     1.0000 0.75510  0.43480  0.74319  Biso   1.000  H
  H637     1.0000 0.79308  0.44453  0.81440  Biso   1.000  H
  C522     1.0000 0.66501  0.54311  0.79120  Biso   1.000  C
  H638     1.0000 0.64007  0.57981  0.75400  Biso   1.000  H
  H639     1.0000 0.60626  0.49529  0.80451  Biso   1.000  H
  H640     1.0000 0.68021  0.59309  0.82420  Biso   1.000  H
  C523     1.0000 0.33501  0.45689  0.20878  Biso   1.000  C
  C524     1.0000 0.23130  0.51599  0.22250  Biso   1.000  C
  H641     1.0000 0.35987  0.42019  0.24602  Biso   1.000  H
  H642     1.0000 0.39368  0.50471  0.19551  Biso   1.000  H
  H643     1.0000 0.31981  0.40691  0.17578  Biso   1.000  H
  O93      1.0000 0.14794  0.44337  0.23941  Biso   1.000  O
  H644     1.0000 0.24493  0.56520  0.25679  Biso   1.000  H
  H645     1.0000 0.20686  0.55547  0.18558  Biso   1.000  H
  C525     1.0000 0.04427  0.47922  0.25614  Biso   1.000  C
  C526     1.0000 0.96384  0.40382  0.26695  Biso   1.000  C
  C527     1.0000 0.01743  0.58313  0.26215  Biso   1.000  C
  C528     1.0000 0.99056  0.29071  0.25827  Biso   1.000  C
  C529     1.0000 0.85767  0.43518  0.28456  Biso   1.000  C
  H646     1.0000 0.07291  0.63373  0.25420  Biso   1.000  H
  C530     1.0000 0.91093  0.61472  0.27961  Biso   1.000  C
  C531     1.0000 0.03472  0.23803  0.31561  Biso   1.000  C
  H647     1.0000 0.04673  0.28392  0.22509  Biso   1.000  H
  H648     1.0000 0.92203  0.25448  0.24440  Biso   1.000  H
  C532     1.0000 0.83093  0.53901  0.29131  Biso   1.000  C
  H649     1.0000 0.80211  0.38450  0.29209  Biso   1.000  H
  C533     1.0000 0.88239  0.72814  0.28331  Biso   1.000  C
  C534     1.0000 0.14460  0.25263  0.33474  Biso   1.000  C
  C535     1.0000 0.96830  0.17251  0.35073  Biso   1.000  C
  O94      1.0000 0.72778  0.57509  0.30942  Biso   1.000  O
  C536     1.0000 0.86731  0.77148  0.34782  Biso   1.000  C
  H650     1.0000 0.81257  0.74003  0.25961  Biso   1.000  H
  H651     1.0000 0.94248  0.76761  0.26270  Biso   1.000  H
  H652     1.0000 0.19120  0.29767  0.31168  Biso   1.000  H
  C537     1.0000 0.18819  0.20341  0.38636  Biso   1.000  C
  C538     1.0000 0.01337  0.12029  0.40082  Biso   1.000  C
  O95      1.0000 0.85924  0.16208  0.33031  Biso   1.000  O
  C539     1.0000 0.64062  0.50039  0.31672  Biso   1.000  C
  C540     1.0000 0.76424  0.81057  0.36575  Biso   1.000  C
  C541     1.0000 0.95674  0.77858  0.38922  Biso   1.000  C
  O96      1.0000 0.29609  0.21632  0.40766  Biso   1.000  O
  C542     1.0000 0.12350  0.13450  0.41991  Biso   1.000  C
  H653     1.0000 0.96768  0.07324  0.42291  Biso   1.000  H
  C543     1.0000 0.78116  0.11086  0.36908  Biso   1.000  C
  H654     1.0000 0.66348  0.44739  0.34731  Biso   1.000  H
  H655     1.0000 0.62517  0.46547  0.27680  Biso   1.000  H
  C544     1.0000 0.53810  0.55570  0.33849  Biso   1.000  C
  C545     1.0000 0.74907  0.85661  0.42319  Biso   1.000  C
  H656     1.0000 0.70247  0.80593  0.33798  Biso   1.000  H
  O97      1.0000 0.05678  0.73980  0.36931  Biso   1.000  O
  C546     1.0000 0.94174  0.82440  0.44675  Biso   1.000  C
  C547     1.0000 0.36772  0.28307  0.37397  Biso   1.000  C
  C548     1.0000 0.17189  0.07741  0.47439  Biso   1.000  C
  H657     1.0000 0.71200  0.09719  0.34519  Biso   1.000  H
  H658     1.0000 0.81282  0.04350  0.38192  Biso   1.000  H
  C549     1.0000 0.75268  0.17097  0.42481  Biso   1.000  C
  H659     1.0000 0.55717  0.59889  0.37421  Biso   1.000  H
  H660     1.0000 0.48133  0.50502  0.35041  Biso   1.000  H
  H661     1.0000 0.50869  0.59927  0.30512  Biso   1.000  H
  O98      1.0000 0.64834  0.89818  0.44130  Biso   1.000  O
  C550     1.0000 0.83874  0.86527  0.46394  Biso   1.000  C
  C551     1.0000 0.14731  0.73540  0.41237  Biso   1.000  C
  H662     1.0000 0.00284  0.82787  0.47490  Biso   1.000  H
  H663     1.0000 0.37010  0.26244  0.32998  Biso   1.000  H
  H664     1.0000 0.34092  0.35538  0.37652  Biso   1.000  H
  C552     1.0000 0.48073  0.27341  0.40299  Biso   1.000  C
  H665     1.0000 0.13400  0.00981  0.47790  Biso   1.000  H
  H666     1.0000 0.25211  0.06397  0.46658  Biso   1.000  H
  C553     1.0000 0.16129  0.13473  0.53608  Biso   1.000  C
  H667     1.0000 0.72612  0.23972  0.41261  Biso   1.000  H
  H668     1.0000 0.69396  0.13512  0.44768  Biso   1.000  H
  H669     1.0000 0.81928  0.17807  0.45119  Biso   1.000  H
  C554     1.0000 0.55440  0.88497  0.40036  Biso   1.000  C
  C555     1.0000 0.82813  0.92259  0.52559  Biso   1.000  C
  H670     1.0000 0.12562  0.69523  0.44930  Biso   1.000  H
  H671     1.0000 0.16862  0.80593  0.42568  Biso   1.000  H
  C556     1.0000 0.24369  0.68387  0.38012  Biso   1.000  C
  H672     1.0000 0.50288  0.20048  0.40378  Biso   1.000  H
  H673     1.0000 0.53500  0.31312  0.37901  Biso   1.000  H
  H674     1.0000 0.47849  0.30006  0.44532  Biso   1.000  H
  C557     1.0000 0.25087  0.14339  0.57679  Biso   1.000  C
  C558     1.0000 0.05829  0.17560  0.55322  Biso   1.000  C
  H675     1.0000 0.54243  0.81057  0.39200  Biso   1.000  H
  H676     1.0000 0.56904  0.92012  0.36062  Biso   1.000  H
  C559     1.0000 0.45348  0.92970  0.42966  Biso   1.000  C
  C560     1.0000 0.87652  0.86550  0.58007  Biso   1.000  C
  H677     1.0000 0.86603  0.99019  0.52212  Biso   1.000  H
  H678     1.0000 0.74792  0.93603  0.53340  Biso   1.000  H
  H679     1.0000 0.22206  0.61372  0.36801  Biso   1.000  H
  H680     1.0000 0.30822  0.68078  0.40822  Biso   1.000  H
  H681     1.0000 0.26329  0.72373  0.34329  Biso   1.000  H
  O99      1.0000 0.35169  0.10182  0.55872  Biso   1.000  O
  C561     1.0000 0.23579  0.18943  0.63427  Biso   1.000  C
  C562     1.0000 0.04329  0.22142  0.61080  Biso   1.000  C
  H682     1.0000 0.99719  0.17213  0.52508  Biso   1.000  H
  H683     1.0000 0.43774  0.89254  0.46801  Biso   1.000  H
  H684     1.0000 0.38961  0.92321  0.40128  Biso   1.000  H
  H685     1.0000 0.46671  0.00278  0.43890  Biso   1.000  H
  C563     1.0000 0.81183  0.79659  0.61362  Biso   1.000  C
  C564     1.0000 0.98657  0.87971  0.59920  Biso   1.000  C
  C565     1.0000 0.44562  0.11503  0.59962  Biso   1.000  C
  H686     1.0000 0.29747  0.19407  0.66200  Biso   1.000  H
  C566     1.0000 0.13272  0.22852  0.65220  Biso   1.000  C
  O100     1.0000 0.94325  0.26020  0.63067  Biso   1.000  O
  O101     1.0000 0.70385  0.78368  0.59232  Biso   1.000  O
  C567     1.0000 0.85542  0.74737  0.66528  Biso   1.000  C
  H687     1.0000 0.03226  0.92676  0.57711  Biso   1.000  H
  C568     1.0000 0.03173  0.82749  0.64925  Biso   1.000  C
  H688     1.0000 0.45759  0.18943  0.60798  Biso   1.000  H
  H689     1.0000 0.43099  0.07988  0.63940  Biso   1.000  H
  C569     1.0000 0.54647  0.07030  0.57037  Biso   1.000  C
  C570     1.0000 0.11763  0.27186  0.71671  Biso   1.000  C
  C571     1.0000 0.85271  0.26460  0.58760  Biso   1.000  C
  C572     1.0000 0.63231  0.71693  0.62605  Biso   1.000  C
  C573     1.0000 0.96530  0.76197  0.68441  Biso   1.000  C
  H690     1.0000 0.80882  0.70233  0.68829  Biso   1.000  H
  O102     1.0000 0.14079  0.83792  0.66972  Biso   1.000  O
  H691     1.0000 0.56229  0.10746  0.53201  Biso   1.000  H
  H692     1.0000 0.61041  0.07679  0.59869  Biso   1.000  H
  H693     1.0000 0.53332  0.99722  0.56108  Biso   1.000  H
  H694     1.0000 0.18737  0.25997  0.74042  Biso   1.000  H
  H695     1.0000 0.05746  0.23239  0.73732  Biso   1.000  H
  C574     1.0000 0.08910  0.38528  0.72041  Biso   1.000  C
  H696     1.0000 0.87440  0.30477  0.55068  Biso   1.000  H
  H697     1.0000 0.83141  0.19407  0.57429  Biso   1.000  H
  C575     1.0000 0.75634  0.31613  0.61986  Biso   1.000  C
  H698     1.0000 0.62993  0.73756  0.66999  Biso   1.000  H
  H699     1.0000 0.65910  0.64462  0.62351  Biso   1.000  H
  C576     1.0000 0.51930  0.72659  0.59698  Biso   1.000  C
  C577     1.0000 0.00938  0.70929  0.74171  Biso   1.000  C
  C578     1.0000 0.21878  0.88914  0.63090  Biso   1.000  C
  C579     1.0000 0.16910  0.46099  0.70872  Biso   1.000  C
  C580     1.0000 0.98259  0.41687  0.73788  Biso   1.000  C
  H700     1.0000 0.77788  0.38628  0.63201  Biso   1.000  H
  H701     1.0000 0.69181  0.31922  0.59181  Biso   1.000  H
  H702     1.0000 0.73673  0.27627  0.65669  Biso   1.000  H
  H703     1.0000 0.49706  0.79952  0.59620  Biso   1.000  H
  H704     1.0000 0.46502  0.68688  0.62101  Biso   1.000  H
  H705     1.0000 0.52154  0.69994  0.55470  Biso   1.000  H
  C581     1.0000 0.03618  0.59618  0.73307  Biso   1.000  C
  H706     1.0000 0.07800  0.74552  0.75562  Biso   1.000  H
  H707     1.0000 0.95330  0.71608  0.77489  Biso   1.000  H
  H708     1.0000 0.28802  0.90281  0.65479  Biso   1.000  H
  H709     1.0000 0.18720  0.95650  0.61810  Biso   1.000  H
  C582     1.0000 0.24726  0.82903  0.57522  Biso   1.000  C
  O103     1.0000 0.27225  0.42491  0.69060  Biso   1.000  O
  C583     1.0000 0.14227  0.56482  0.71546  Biso   1.000  C
  C584     1.0000 0.95567  0.52078  0.74384  Biso   1.000  C
  H710     1.0000 0.92711  0.36627  0.74578  Biso   1.000  H
  H711     1.0000 0.27390  0.76028  0.58742  Biso   1.000  H
  H712     1.0000 0.30598  0.86488  0.55230  Biso   1.000  H
  H713     1.0000 0.18067  0.82193  0.54879  Biso   1.000  H
  C585     1.0000 0.35941  0.49961  0.68330  Biso   1.000  C
  H714     1.0000 0.19792  0.61550  0.70789  Biso   1.000  H
  O104     1.0000 0.85208  0.55663  0.76061  Biso   1.000  O
  H715     1.0000 0.33647  0.55261  0.65271  Biso   1.000  H
  H716     1.0000 0.37477  0.53453  0.72318  Biso   1.000  H
  C586     1.0000 0.46193  0.44430  0.66149  Biso   1.000  C
  C587     1.0000 0.76872  0.48401  0.77748  Biso   1.000  C
  H717     1.0000 0.44277  0.40111  0.62582  Biso   1.000  H
  H718     1.0000 0.51869  0.49498  0.64962  Biso   1.000  H
  H719     1.0000 0.49134  0.40073  0.69490  Biso   1.000  H
  H720     1.0000 0.75510  0.43480  0.74319  Biso   1.000  H
  H721     1.0000 0.79308  0.44453  0.81440  Biso   1.000  H
  C588     1.0000 0.66501  0.54311  0.79120  Biso   1.000  C
  H722     1.0000 0.64007  0.57981  0.75400  Biso   1.000  H
  H723     1.0000 0.60626  0.49529  0.80451  Biso   1.000  H
  H724     1.0000 0.68021  0.59309  0.82420  Biso   1.000  H
