data_image0
_cell_length_a       43.217
_cell_length_b       43.216
_cell_length_c       12.466
_cell_angle_alpha    90
_cell_angle_beta     90
_cell_angle_gamma    120

_symmetry_space_group_name_H-M    "P 1"
_symmetry_int_tables_number       1

loop_
  _symmetry_equiv_pos_as_xyz
  'x, y, z'

loop_
  _atom_site_label
  _atom_site_occupancy
  _atom_site_fract_x
  _atom_site_fract_y
  _atom_site_fract_z
  _atom_site_thermal_displace_type
  _atom_site_B_iso_or_equiv
  _atom_site_type_symbol
  C1       1.0000 0.65686  0.36905  0.67175  Biso   1.000  C
  C2       1.0000 0.67006  0.40314  0.66028  Biso   1.000  C
  C3       1.0000 0.64977  0.40175  0.68795  Biso   1.000  C
  C4       1.0000 0.64426  0.39144  0.74434  Biso   1.000  C
  C5       1.0000 0.66379  0.42230  0.57228  Biso   1.000  C
  C6       1.0000 0.66199  0.45567  0.59137  Biso   1.000  C
  O1       1.0000 0.69043  0.47779  0.66276  Biso   1.000  O
  H1       1.0000 0.63917  0.44974  0.62297  Biso   1.000  H
  H2       1.0000 0.66456  0.46804  0.52415  Biso   1.000  H
  C7       1.0000 0.69330  0.50863  0.70255  Biso   1.000  C
  C8       1.0000 0.71664  0.52471  0.78718  Biso   1.000  C
  C9       1.0000 0.67486  0.52482  0.65715  Biso   1.000  C
  C10      1.0000 0.73801  0.50855  0.82914  Biso   1.000  C
  C11      1.0000 0.72287  0.55819  0.82705  Biso   1.000  C
  H3       1.0000 0.65817  0.51325  0.60292  Biso   1.000  H
  C12      1.0000 0.68153  0.55718  0.69292  Biso   1.000  C
  O2       1.0000 0.77255  0.52824  0.78116  Biso   1.000  O
  H4       1.0000 0.72675  0.48343  0.80964  Biso   1.000  H
  H5       1.0000 0.73986  0.51045  0.90679  Biso   1.000  H
  C13      1.0000 0.74700  0.57580  0.91256  Biso   1.000  C
  C14      1.0000 0.70580  0.57569  0.77788  Biso   1.000  C
  H6       1.0000 0.66966  0.56773  0.66068  Biso   1.000  H
  C15      1.0000 0.79651  0.51670  0.81782  Biso   1.000  C
  C16      1.0000 0.75414  0.60842  0.94850  Biso   1.000  C
  H7       1.0000 0.75826  0.56474  0.94513  Biso   1.000  H
  C17      1.0000 0.71430  0.61024  0.81333  Biso   1.000  C
  C18      1.0000 0.83207  0.54005  0.76448  Biso   1.000  C
  H8       1.0000 0.79905  0.51905  0.89524  Biso   1.000  H
  H9       1.0000 0.78746  0.49185  0.79897  Biso   1.000  H
  C19      1.0000 0.73783  0.62595  0.89796  Biso   1.000  C
  H10      1.0000 0.76966  0.61914  0.00586  Biso   1.000  H
  C20      1.0000 0.70200  0.63242  0.75373  Biso   1.000  C
  C21      1.0000 0.84288  0.52688  0.68025  Biso   1.000  C
  C22      1.0000 0.85405  0.57564  0.79889  Biso   1.000  C
  O3       1.0000 0.74499  0.65930  0.92828  Biso   1.000  O
  O4       1.0000 0.73150  0.65582  0.68619  Biso   1.000  O
  H11      1.0000 0.69626  0.64615  0.80347  Biso   1.000  H
  H12      1.0000 0.68097  0.61735  0.71105  Biso   1.000  H
  O5       1.0000 0.82018  0.49244  0.65041  Biso   1.000  O
  C23      1.0000 0.87592  0.54908  0.62939  Biso   1.000  C
  C24      1.0000 0.84406  0.59036  0.88537  Biso   1.000  C
  C25      1.0000 0.88764  0.59835  0.74787  Biso   1.000  C
  C26      1.0000 0.76580  0.67546  0.02190  Biso   1.000  C
  C27      1.0000 0.72279  0.67381  0.60629  Biso   1.000  C
  C28      1.0000 0.82949  0.47793  0.56032  Biso   1.000  C
  C29      1.0000 0.89719  0.58344  0.66108  Biso   1.000  C
  H13      1.0000 0.88327  0.54005  0.57324  Biso   1.000  H
  H14      1.0000 0.82234  0.57623  0.91986  Biso   1.000  H
  C30      1.0000 0.86534  0.62451  0.91898  Biso   1.000  C
  C31      1.0000 0.90969  0.63421  0.78365  Biso   1.000  C
  H15      1.0000 0.75867  0.65815  0.07950  Biso   1.000  H
  H16      1.0000 0.79096  0.68474  0.00698  Biso   1.000  H
  C32      1.0000 0.75922  0.70531  0.05278  Biso   1.000  C
  C33      1.0000 0.75695  0.69914  0.54974  Biso   1.000  C
  H17      1.0000 0.70566  0.65673  0.55583  Biso   1.000  H
  H18      1.0000 0.71237  0.68685  0.63918  Biso   1.000  H
  H19      1.0000 0.83357  0.49265  0.49727  Biso   1.000  H
  H20      1.0000 0.85115  0.47723  0.57557  Biso   1.000  H
  C34      1.0000 0.79899  0.44114  0.54171  Biso   1.000  C
  H21      1.0000 0.91854  0.59763  0.62498  Biso   1.000  H
  H22      1.0000 0.85817  0.63335  0.97593  Biso   1.000  H
  C35      1.0000 0.89828  0.64666  0.86756  Biso   1.000  C
  C36      1.0000 0.94385  0.65954  0.72710  Biso   1.000  C
  H23      1.0000 0.76624  0.72204  0.99350  Biso   1.000  H
  H24      1.0000 0.77436  0.71795  0.11335  Biso   1.000  H
  C37      1.0000 0.72112  0.69361  0.08198  Biso   1.000  C
  C38      1.0000 0.76838  0.68669  0.46583  Biso   1.000  C
  C39      1.0000 0.77899  0.73499  0.58551  Biso   1.000  C
  H25      1.0000 0.79485  0.42743  0.60717  Biso   1.000  H
  H26      1.0000 0.80587  0.42994  0.48652  Biso   1.000  H
  C40      1.0000 0.76487  0.43908  0.50914  Biso   1.000  C
  O6       1.0000 0.92053  0.68121  0.89949  Biso   1.000  O
  O7       1.0000 0.93514  0.67752  0.64720  Biso   1.000  O
  H27      1.0000 0.96099  0.67661  0.77755  Biso   1.000  H
  H28      1.0000 0.95429  0.64650  0.69421  Biso   1.000  H
  H29      1.0000 0.70646  0.68345  0.01845  Biso   1.000  H
  H30      1.0000 0.71985  0.71463  0.10140  Biso   1.000  H
  C41      1.0000 0.70475  0.66689  0.17167  Biso   1.000  C
  O8       1.0000 0.74610  0.65214  0.43390  Biso   1.000  O
  C42      1.0000 0.80132  0.70884  0.41441  Biso   1.000  C
  C43      1.0000 0.76946  0.74990  0.67231  Biso   1.000  C
  C44      1.0000 0.81259  0.75771  0.53449  Biso   1.000  C
  H31      1.0000 0.75947  0.45284  0.55952  Biso   1.000  H
  H32      1.0000 0.74587  0.41444  0.51332  Biso   1.000  H
  C45      1.0000 0.76577  0.45225  0.40294  Biso   1.000  C
  C46      1.0000 0.90790  0.69617  0.97850  Biso   1.000  C
  C47      1.0000 0.96466  0.70093  0.57966  Biso   1.000  C
  H33      1.0000 0.68046  0.66125  0.18234  Biso   1.000  H
  H34      1.0000 0.70525  0.64554  0.15346  Biso   1.000  H
  H35      1.0000 0.71806  0.67685  0.23648  Biso   1.000  H
  C48      1.0000 0.75875  0.63717  0.35489  Biso   1.000  C
  C49      1.0000 0.82260  0.74298  0.44802  Biso   1.000  C
  H36      1.0000 0.80850  0.70002  0.35737  Biso   1.000  H
  H37      1.0000 0.74809  0.73572  0.70841  Biso   1.000  H
  C50      1.0000 0.79072  0.78426  0.70399  Biso   1.000  C
  C51      1.0000 0.83458  0.79332  0.56891  Biso   1.000  C
  H38      1.0000 0.74306  0.45014  0.38681  Biso   1.000  H
  H39      1.0000 0.78406  0.47675  0.39868  Biso   1.000  H
  H40      1.0000 0.77055  0.43844  0.35232  Biso   1.000  H
  C52      1.0000 0.94246  0.73187  0.02126  Biso   1.000  C
  C53      1.0000 0.95237  0.72313  0.52005  Biso   1.000  C
  H41      1.0000 0.97039  0.68722  0.52992  Biso   1.000  H
  H42      1.0000 0.98568  0.71600  0.62233  Biso   1.000  H
  C54      1.0000 0.72418  0.60148  0.31213  Biso   1.000  C
  H43      1.0000 0.84429  0.75712  0.41352  Biso   1.000  H
  H44      1.0000 0.78340  0.79332  0.76015  Biso   1.000  H
  C55      1.0000 0.82375  0.80647  0.65314  Biso   1.000  C
  C56      1.0000 0.87012  0.81665  0.51548  Biso   1.000  C
  C57      1.0000 0.94245  0.75009  0.93406  Biso   1.000  C
  C58      1.0000 0.96485  0.75434  0.00690  Biso   1.000  C
  C59      1.0000 0.92883  0.70739  0.43542  Biso   1.000  C
  C60      1.0000 0.96086  0.75765  0.55551  Biso   1.000  C
  C61      1.0000 0.72418  0.58326  0.39933  Biso   1.000  C
  C62      1.0000 0.70179  0.57901  0.32641  Biso   1.000  C
  O9       1.0000 0.84646  0.84091  0.68298  Biso   1.000  O
  O10      1.0000 0.89411  0.80511  0.55222  Biso   1.000  O
  H45      1.0000 0.86758  0.81430  0.43815  Biso   1.000  H
  H46      1.0000 0.87919  0.84150  0.53441  Biso   1.000  H
  C63      1.0000 0.98636  0.79255  0.97618  Biso   1.000  C
  O11      1.0000 0.92167  0.67405  0.40510  Biso   1.000  O
  C64      1.0000 0.91251  0.72492  0.38489  Biso   1.000  C
  C65      1.0000 0.98513  0.77617  0.64038  Biso   1.000  C
  C66      1.0000 0.94377  0.77518  0.50634  Biso   1.000  C
  C67      1.0000 0.68028  0.54080  0.35721  Biso   1.000  C
  C68      1.0000 0.83717  0.85542  0.77306  Biso   1.000  C
  C69      1.0000 0.92862  0.82480  0.50425  Biso   1.000  C
  C70      1.0000 0.90084  0.65788  0.31149  Biso   1.000  C
  H47      1.0000 0.89700  0.71421  0.32753  Biso   1.000  H
  C71      1.0000 0.91964  0.75755  0.42082  Biso   1.000  C
  C72      1.0000 0.99180  0.80853  0.67624  Biso   1.000  C
  H48      1.0000 0.99700  0.76561  0.67271  Biso   1.000  H
  C73      1.0000 0.95002  0.80863  0.54621  Biso   1.000  C
  H49      1.0000 0.83311  0.84072  0.83611  Biso   1.000  H
  H50      1.0000 0.81549  0.85611  0.75782  Biso   1.000  H
  C74      1.0000 0.86767  0.89221  0.79159  Biso   1.000  C
  H51      1.0000 0.93988  0.84991  0.52374  Biso   1.000  H
  H52      1.0000 0.92679  0.82290  0.42660  Biso   1.000  H
  H53      1.0000 0.90799  0.67520  0.25389  Biso   1.000  H
  H54      1.0000 0.87570  0.64861  0.32641  Biso   1.000  H
  C75      1.0000 0.90743  0.62804  0.28060  Biso   1.000  C
  H55      1.0000 0.90839  0.76861  0.38818  Biso   1.000  H
  C76      1.0000 0.97336  0.82472  0.63084  Biso   1.000  C
  H56      1.0000 0.00850  0.82012  0.73039  Biso   1.000  H
  H57      1.0000 0.87179  0.90592  0.72622  Biso   1.000  H
  H58      1.0000 0.86079  0.90341  0.84686  Biso   1.000  H
  C77      1.0000 0.90176  0.89427  0.82424  Biso   1.000  C
  H59      1.0000 0.89228  0.61540  0.22004  Biso   1.000  H
  H60      1.0000 0.90039  0.61131  0.33988  Biso   1.000  H
  C78      1.0000 0.94554  0.63974  0.25140  Biso   1.000  C
  O12      1.0000 0.97621  0.85555  0.67062  Biso   1.000  O
  H61      1.0000 0.90719  0.88051  0.77386  Biso   1.000  H
  H62      1.0000 0.92079  0.91890  0.81999  Biso   1.000  H
  C79      1.0000 0.90090  0.88112  0.93045  Biso   1.000  C
  H63      1.0000 0.96019  0.64992  0.31494  Biso   1.000  H
  H64      1.0000 0.94678  0.61871  0.23199  Biso   1.000  H
  C80      1.0000 0.96191  0.66646  0.16172  Biso   1.000  C
  C81      1.0000 0.00469  0.87768  0.74202  Biso   1.000  C
  H65      1.0000 0.92358  0.88321  0.94649  Biso   1.000  H
  H66      1.0000 0.88259  0.85662  0.93470  Biso   1.000  H
  H67      1.0000 0.89609  0.89491  0.98107  Biso   1.000  H
  H68      1.0000 0.98618  0.67210  0.15097  Biso   1.000  H
  H69      1.0000 0.96138  0.68781  0.17993  Biso   1.000  H
  H70      1.0000 0.94859  0.65652  0.09690  Biso   1.000  H
  H71      1.0000 0.02751  0.88361  0.71041  Biso   1.000  H
  H72      1.0000 0.00212  0.86530  0.80924  Biso   1.000  H
  C82      1.0000 0.00287  0.91105  0.76111  Biso   1.000  C
  C83      1.0000 0.99660  0.93021  0.67311  Biso   1.000  C
  C84      1.0000 0.01693  0.93162  0.64544  Biso   1.000  C
  C85      1.0000 0.00980  0.96430  0.66164  Biso   1.000  C
  C86      1.0000 0.02242  0.94191  0.58904  Biso   1.000  C
  C87      1.0000 0.63097  0.28785  0.67175  Biso   1.000  C
  C88      1.0000 0.59687  0.26693  0.66028  Biso   1.000  C
  C89      1.0000 0.59825  0.24804  0.68795  Biso   1.000  C
  C90      1.0000 0.60857  0.25284  0.74434  Biso   1.000  C
  C91      1.0000 0.57770  0.24152  0.57228  Biso   1.000  C
  C92      1.0000 0.54433  0.20633  0.59137  Biso   1.000  C
  O13      1.0000 0.52220  0.21266  0.66276  Biso   1.000  O
  H73      1.0000 0.55026  0.18944  0.62297  Biso   1.000  H
  H74      1.0000 0.53197  0.19655  0.52415  Biso   1.000  H
  C93      1.0000 0.49137  0.18468  0.70255  Biso   1.000  C
  C94      1.0000 0.47528  0.19192  0.78718  Biso   1.000  C
  C95      1.0000 0.47517  0.15006  0.65715  Biso   1.000  C
  C96      1.0000 0.49145  0.22949  0.82914  Biso   1.000  C
  C97      1.0000 0.44181  0.16470  0.82705  Biso   1.000  C
  H75      1.0000 0.48677  0.14493  0.60292  Biso   1.000  H
  C98      1.0000 0.44281  0.12435  0.69292  Biso   1.000  C
  O14      1.0000 0.47177  0.24432  0.78116  Biso   1.000  O
  H76      1.0000 0.51655  0.24333  0.80964  Biso   1.000  H
  H77      1.0000 0.48957  0.22944  0.90679  Biso   1.000  H
  C99      1.0000 0.42420  0.17122  0.91256  Biso   1.000  C
  C100     1.0000 0.42432  0.13012  0.77788  Biso   1.000  C
  H78      1.0000 0.43225  0.10193  0.66068  Biso   1.000  H
  C101     1.0000 0.48331  0.27986  0.81782  Biso   1.000  C
  C102     1.0000 0.39158  0.14573  0.94850  Biso   1.000  C
  H79      1.0000 0.43526  0.19353  0.94513  Biso   1.000  H
  C103     1.0000 0.38977  0.10407  0.81333  Biso   1.000  C
  C104     1.0000 0.45997  0.29204  0.76448  Biso   1.000  C
  H80      1.0000 0.48097  0.28004  0.89524  Biso   1.000  H
  H81      1.0000 0.50817  0.29565  0.79897  Biso   1.000  H
  C105     1.0000 0.37405  0.11187  0.89796  Biso   1.000  C
  H82      1.0000 0.38086  0.15054  0.00586  Biso   1.000  H
  C106     1.0000 0.36757  0.06958  0.75373  Biso   1.000  C
  C107     1.0000 0.42438  0.27844  0.79889  Biso   1.000  C
  C108     1.0000 0.47311  0.31601  0.68025  Biso   1.000  C
  O15      1.0000 0.34069  0.08569  0.92828  Biso   1.000  O
  O16      1.0000 0.34418  0.07570  0.68619  Biso   1.000  O
  H83      1.0000 0.35387  0.05013  0.80347  Biso   1.000  H
  H84      1.0000 0.38268  0.06365  0.71105  Biso   1.000  H
  C109     1.0000 0.40164  0.28932  0.74787  Biso   1.000  C
  C110     1.0000 0.40963  0.25370  0.88537  Biso   1.000  C
  C111     1.0000 0.45093  0.32686  0.62939  Biso   1.000  C
  O17      1.0000 0.50756  0.32777  0.65041  Biso   1.000  O
  C112     1.0000 0.32454  0.09036  0.02190  Biso   1.000  C
  C113     1.0000 0.32619  0.04900  0.60629  Biso   1.000  C
  C114     1.0000 0.36578  0.27550  0.78365  Biso   1.000  C
  C115     1.0000 0.41654  0.31376  0.66108  Biso   1.000  C
  C116     1.0000 0.37548  0.24085  0.91898  Biso   1.000  C
  H85      1.0000 0.42376  0.24614  0.91986  Biso   1.000  H
  H86      1.0000 0.45995  0.34324  0.57324  Biso   1.000  H
  C117     1.0000 0.52206  0.35157  0.56032  Biso   1.000  C
  H87      1.0000 0.34187  0.10054  0.07950  Biso   1.000  H
  H88      1.0000 0.31526  0.10624  0.00698  Biso   1.000  H
  C118     1.0000 0.29470  0.05392  0.05278  Biso   1.000  C
  C119     1.0000 0.30088  0.05785  0.54974  Biso   1.000  C
  H89      1.0000 0.34325  0.04892  0.55583  Biso   1.000  H
  H90      1.0000 0.31316  0.02554  0.63918  Biso   1.000  H
  C120     1.0000 0.34047  0.28435  0.72710  Biso   1.000  C
  C121     1.0000 0.35334  0.25164  0.86756  Biso   1.000  C
  H91      1.0000 0.40235  0.32093  0.62498  Biso   1.000  H
  H92      1.0000 0.36667  0.22484  0.97593  Biso   1.000  H
  H93      1.0000 0.50737  0.34094  0.49727  Biso   1.000  H
  H94      1.0000 0.52276  0.37394  0.57557  Biso   1.000  H
  C122     1.0000 0.55885  0.35788  0.54171  Biso   1.000  C
  H95      1.0000 0.27797  0.04425  0.99350  Biso   1.000  H
  H96      1.0000 0.28207  0.05643  0.11335  Biso   1.000  H
  C123     1.0000 0.30640  0.02752  0.08198  Biso   1.000  C
  C124     1.0000 0.26502  0.04403  0.58551  Biso   1.000  C
  C125     1.0000 0.31332  0.08171  0.46583  Biso   1.000  C
  O18      1.0000 0.32250  0.25765  0.64720  Biso   1.000  O
  H97      1.0000 0.32340  0.28440  0.77755  Biso   1.000  H
  H98      1.0000 0.35350  0.30781  0.69421  Biso   1.000  H
  O19      1.0000 0.31881  0.23935  0.89949  Biso   1.000  O
  H99      1.0000 0.57257  0.36744  0.60717  Biso   1.000  H
  H100     1.0000 0.57006  0.37594  0.48652  Biso   1.000  H
  C126     1.0000 0.56092  0.32581  0.50914  Biso   1.000  C
  H101     1.0000 0.31656  0.02303  0.01845  Biso   1.000  H
  H102     1.0000 0.28535  0.00524  0.10140  Biso   1.000  H
  C127     1.0000 0.33311  0.03786  0.17167  Biso   1.000  C
  C128     1.0000 0.24230  0.05491  0.53449  Biso   1.000  C
  C129     1.0000 0.25010  0.01956  0.67231  Biso   1.000  C
  C130     1.0000 0.29118  0.09250  0.41441  Biso   1.000  C
  O20      1.0000 0.34786  0.09397  0.43390  Biso   1.000  O
  C131     1.0000 0.29907  0.26375  0.57966  Biso   1.000  C
  C132     1.0000 0.30383  0.21175  0.97850  Biso   1.000  C
  H103     1.0000 0.54716  0.30663  0.55952  Biso   1.000  H
  H104     1.0000 0.58554  0.33143  0.51332  Biso   1.000  H
  C133     1.0000 0.54776  0.31352  0.40294  Biso   1.000  C
  H105     1.0000 0.33877  0.01924  0.18234  Biso   1.000  H
  H106     1.0000 0.35447  0.05974  0.15346  Biso   1.000  H
  H107     1.0000 0.32316  0.04123  0.23648  Biso   1.000  H
  C134     1.0000 0.20670  0.04128  0.56891  Biso   1.000  C
  C135     1.0000 0.25702  0.07962  0.44802  Biso   1.000  C
  C136     1.0000 0.21574  0.00647  0.70399  Biso   1.000  C
  H108     1.0000 0.26429  0.01240  0.70841  Biso   1.000  H
  H109     1.0000 0.29999  0.10851  0.35737  Biso   1.000  H
  C137     1.0000 0.36283  0.12160  0.35489  Biso   1.000  C
  C138     1.0000 0.27690  0.22925  0.52005  Biso   1.000  C
  H110     1.0000 0.31280  0.28320  0.52992  Biso   1.000  H
  H111     1.0000 0.28400  0.26970  0.62233  Biso   1.000  H
  C139     1.0000 0.26814  0.21063  0.02126  Biso   1.000  C
  H112     1.0000 0.54986  0.29292  0.38681  Biso   1.000  H
  H113     1.0000 0.52326  0.30733  0.39868  Biso   1.000  H
  H114     1.0000 0.56156  0.33215  0.35232  Biso   1.000  H
  C140     1.0000 0.18335  0.05349  0.51548  Biso   1.000  C
  C141     1.0000 0.19354  0.01731  0.65314  Biso   1.000  C
  H115     1.0000 0.24290  0.08721  0.41352  Biso   1.000  H
  H116     1.0000 0.20671  0.99011  0.76015  Biso   1.000  H
  C142     1.0000 0.39852  0.12272  0.31213  Biso   1.000  C
  C143     1.0000 0.29262  0.22145  0.43542  Biso   1.000  C
  C144     1.0000 0.24235  0.20320  0.55551  Biso   1.000  C
  C145     1.0000 0.24994  0.19241  0.93406  Biso   1.000  C
  C146     1.0000 0.24568  0.21055  0.00690  Biso   1.000  C
  O21      1.0000 0.19490  0.08900  0.55222  Biso   1.000  O
  H117     1.0000 0.18571  0.05330  0.43815  Biso   1.000  H
  H118     1.0000 0.15849  0.03770  0.53441  Biso   1.000  H
  O22      1.0000 0.15908  0.00556  0.68298  Biso   1.000  O
  C147     1.0000 0.41675  0.14094  0.39933  Biso   1.000  C
  C148     1.0000 0.42100  0.12280  0.32641  Biso   1.000  C
  O23      1.0000 0.32596  0.24763  0.40510  Biso   1.000  O
  C149     1.0000 0.27510  0.18762  0.38489  Biso   1.000  C
  C150     1.0000 0.22383  0.20897  0.64038  Biso   1.000  C
  C151     1.0000 0.22483  0.16863  0.50634  Biso   1.000  C
  C152     1.0000 0.20748  0.19385  0.97618  Biso   1.000  C
  C153     1.0000 0.17521  0.10386  0.50425  Biso   1.000  C
  C154     1.0000 0.14461  0.98180  0.77306  Biso   1.000  C
  C155     1.0000 0.45920  0.13950  0.35721  Biso   1.000  C
  C156     1.0000 0.34212  0.24299  0.31149  Biso   1.000  C
  H119     1.0000 0.28580  0.18281  0.32753  Biso   1.000  H
  C157     1.0000 0.24248  0.16213  0.42082  Biso   1.000  C
  C158     1.0000 0.19149  0.18329  0.67624  Biso   1.000  C
  H120     1.0000 0.23441  0.23142  0.67271  Biso   1.000  H
  C159     1.0000 0.19137  0.14140  0.54621  Biso   1.000  C
  H121     1.0000 0.15009  0.08999  0.52374  Biso   1.000  H
  H122     1.0000 0.17711  0.10391  0.42660  Biso   1.000  H
  H123     1.0000 0.15933  0.99244  0.83611  Biso   1.000  H
  H124     1.0000 0.14390  0.95941  0.75782  Biso   1.000  H
  C160     1.0000 0.10782  0.97550  0.79159  Biso   1.000  C
  C161     1.0000 0.37195  0.27940  0.28060  Biso   1.000  C
  H125     1.0000 0.32479  0.23281  0.25389  Biso   1.000  H
  H126     1.0000 0.35140  0.22711  0.32641  Biso   1.000  H
  H127     1.0000 0.23138  0.13980  0.38818  Biso   1.000  H
  C162     1.0000 0.17531  0.14867  0.63084  Biso   1.000  C
  H128     1.0000 0.17990  0.18840  0.73039  Biso   1.000  H
  C163     1.0000 0.10575  0.00751  0.82424  Biso   1.000  C
  H129     1.0000 0.09413  0.96593  0.72622  Biso   1.000  H
  H130     1.0000 0.09661  0.95744  0.84686  Biso   1.000  H
  C164     1.0000 0.36025  0.30580  0.25140  Biso   1.000  C
  H131     1.0000 0.38460  0.27689  0.22004  Biso   1.000  H
  H132     1.0000 0.38869  0.28910  0.33988  Biso   1.000  H
  O24      1.0000 0.14445  0.12069  0.67062  Biso   1.000  O
  H133     1.0000 0.11948  0.02669  0.77386  Biso   1.000  H
  H134     1.0000 0.08110  0.00190  0.81999  Biso   1.000  H
  C165     1.0000 0.11891  0.01980  0.93045  Biso   1.000  C
  C166     1.0000 0.33353  0.29546  0.16172  Biso   1.000  C
  H135     1.0000 0.35009  0.31029  0.31494  Biso   1.000  H
  H136     1.0000 0.38131  0.32811  0.23199  Biso   1.000  H
  C167     1.0000 0.12233  0.12702  0.74202  Biso   1.000  C
  H137     1.0000 0.11680  0.04040  0.94649  Biso   1.000  H
  H138     1.0000 0.14339  0.02600  0.93470  Biso   1.000  H
  H139     1.0000 0.10510  0.00120  0.98107  Biso   1.000  H
  H140     1.0000 0.32791  0.31411  0.15097  Biso   1.000  H
  H141     1.0000 0.31219  0.27361  0.17993  Biso   1.000  H
  H142     1.0000 0.34349  0.29210  0.09690  Biso   1.000  H
  H143     1.0000 0.11640  0.14391  0.71041  Biso   1.000  H
  H144     1.0000 0.13469  0.13680  0.80924  Biso   1.000  H
  C168     1.0000 0.08895  0.09183  0.76111  Biso   1.000  C
  C169     1.0000 0.06980  0.06640  0.67311  Biso   1.000  C
  C170     1.0000 0.06840  0.08529  0.64544  Biso   1.000  C
  C171     1.0000 0.03571  0.04550  0.66164  Biso   1.000  C
  C172     1.0000 0.05809  0.08051  0.58904  Biso   1.000  C
  C173     1.0000 0.58615  0.31093  0.92235  Biso   1.000  C
  C174     1.0000 0.60026  0.33674  0.00642  Biso   1.000  C
  C175     1.0000 0.60026  0.33674  0.00650  Biso   1.000  C
  C176     1.0000 0.62117  0.32354  0.99495  Biso   1.000  C
  C177     1.0000 0.57484  0.33046  0.09442  Biso   1.000  C
  C178     1.0000 0.57484  0.33046  0.09450  Biso   1.000  C
  C179     1.0000 0.58136  0.31644  0.97874  Biso   1.000  C
  C180     1.0000 0.53964  0.32865  0.07532  Biso   1.000  C
  C181     1.0000 0.53964  0.32865  0.07541  Biso   1.000  C
  O25      1.0000 0.54599  0.35713  0.00393  Biso   1.000  O
  H145     1.0000 0.52277  0.30583  0.04372  Biso   1.000  H
  H146     1.0000 0.52987  0.33124  0.14255  Biso   1.000  H
  H147     1.0000 0.52277  0.30583  0.04380  Biso   1.000  H
  C182     1.0000 0.51801  0.35999  0.96414  Biso   1.000  C
  C183     1.0000 0.48337  0.34153  0.00955  Biso   1.000  C
  C184     1.0000 0.52525  0.38331  0.87951  Biso   1.000  C
  C185     1.0000 0.52525  0.38331  0.87959  Biso   1.000  C
  C186     1.0000 0.45769  0.34821  0.97377  Biso   1.000  C
  H148     1.0000 0.47826  0.32483  0.06377  Biso   1.000  H
  C187     1.0000 0.49803  0.38954  0.83964  Biso   1.000  C
  C188     1.0000 0.56281  0.40472  0.83756  Biso   1.000  C
  C189     1.0000 0.46343  0.37247  0.88882  Biso   1.000  C
  C190     1.0000 0.46343  0.37247  0.88890  Biso   1.000  C
  H149     1.0000 0.43526  0.33634  0.00602  Biso   1.000  H
  H150     1.0000 0.43526  0.33634  0.00610  Biso   1.000  H
  C191     1.0000 0.50455  0.41369  0.75413  Biso   1.000  C
  O26      1.0000 0.57764  0.43924  0.88553  Biso   1.000  O
  H151     1.0000 0.57666  0.39344  0.85705  Biso   1.000  H
  H152     1.0000 0.56275  0.40653  0.75991  Biso   1.000  H
  H153     1.0000 0.56275  0.40653  0.75999  Biso   1.000  H
  C192     1.0000 0.43741  0.38099  0.85336  Biso   1.000  C
  C193     1.0000 0.47905  0.42083  0.71819  Biso   1.000  C
  C194     1.0000 0.47905  0.42083  0.71827  Biso   1.000  C
  H154     1.0000 0.52686  0.42494  0.72156  Biso   1.000  H
  C195     1.0000 0.61318  0.46321  0.84879  Biso   1.000  C
  C196     1.0000 0.61318  0.46321  0.84887  Biso   1.000  C
  C197     1.0000 0.44521  0.40450  0.76873  Biso   1.000  C
  C198     1.0000 0.40290  0.36867  0.91296  Biso   1.000  C
  H155     1.0000 0.48386  0.43633  0.66084  Biso   1.000  H
  C199     1.0000 0.62537  0.49874  0.90221  Biso   1.000  C
  H156     1.0000 0.61336  0.46574  0.77146  Biso   1.000  H
  H157     1.0000 0.62897  0.45415  0.86772  Biso   1.000  H
  C200     1.0000 0.62537  0.49874  0.90229  Biso   1.000  C
  H158     1.0000 0.62897  0.45415  0.86780  Biso   1.000  H
  O27      1.0000 0.41903  0.41166  0.73841  Biso   1.000  O
  O28      1.0000 0.41903  0.41166  0.73849  Biso   1.000  O
  O29      1.0000 0.40903  0.39820  0.98051  Biso   1.000  O
  H159     1.0000 0.38346  0.36293  0.86323  Biso   1.000  H
  H160     1.0000 0.39697  0.34764  0.95564  Biso   1.000  H
  C201     1.0000 0.64934  0.50956  0.98644  Biso   1.000  C
  C202     1.0000 0.61175  0.52073  0.86780  Biso   1.000  C
  C203     1.0000 0.61175  0.52073  0.86788  Biso   1.000  C
  C204     1.0000 0.42368  0.43248  0.64479  Biso   1.000  C
  C205     1.0000 0.42368  0.43248  0.64487  Biso   1.000  C
  C206     1.0000 0.38231  0.38946  0.06040  Biso   1.000  C
  C207     1.0000 0.38231  0.38946  0.06048  Biso   1.000  C
  O30      1.0000 0.66109  0.48688  0.01628  Biso   1.000  O
  C208     1.0000 0.66020  0.54262  0.03730  Biso   1.000  C
  O31      1.0000 0.66109  0.48688  0.01636  Biso   1.000  O
  C209     1.0000 0.66020  0.54262  0.03738  Biso   1.000  C
  C210     1.0000 0.58704  0.51074  0.78133  Biso   1.000  C
  C211     1.0000 0.62263  0.55434  0.91882  Biso   1.000  C
  C212     1.0000 0.62263  0.55434  0.91890  Biso   1.000  C
  C213     1.0000 0.38724  0.42588  0.61391  Biso   1.000  C
  C214     1.0000 0.38724  0.42588  0.61399  Biso   1.000  C
  H161     1.0000 0.43385  0.42534  0.58720  Biso   1.000  H
  H162     1.0000 0.43957  0.45765  0.65971  Biso   1.000  H
  H163     1.0000 0.43385  0.42534  0.58728  Biso   1.000  H
  H164     1.0000 0.38227  0.37233  0.11086  Biso   1.000  H
  H165     1.0000 0.35887  0.37904  0.02751  Biso   1.000  H
  C215     1.0000 0.39116  0.42363  0.11696  Biso   1.000  C
  H166     1.0000 0.35887  0.37904  0.02760  Biso   1.000  H
  C216     1.0000 0.39116  0.42363  0.11704  Biso   1.000  C
  C217     1.0000 0.68490  0.49618  0.10637  Biso   1.000  C
  C218     1.0000 0.64709  0.56388  0.00562  Biso   1.000  C
  H167     1.0000 0.67656  0.54994  0.09345  Biso   1.000  H
  C219     1.0000 0.64709  0.56388  0.00570  Biso   1.000  C
  H168     1.0000 0.57945  0.48904  0.74683  Biso   1.000  H
  C220     1.0000 0.57416  0.53201  0.74771  Biso   1.000  C
  C221     1.0000 0.57416  0.53201  0.74779  Biso   1.000  C
  C222     1.0000 0.60883  0.57639  0.88304  Biso   1.000  C
  C223     1.0000 0.36086  0.38778  0.58471  Biso   1.000  C
  C224     1.0000 0.36086  0.38778  0.58479  Biso   1.000  C
  H169     1.0000 0.38975  0.44103  0.55335  Biso   1.000  H
  H170     1.0000 0.37756  0.43293  0.67319  Biso   1.000  H
  H171     1.0000 0.37756  0.43293  0.67327  Biso   1.000  H
  C225     1.0000 0.41502  0.43507  0.20087  Biso   1.000  C
  C226     1.0000 0.37736  0.44568  0.08118  Biso   1.000  C
  H172     1.0000 0.67425  0.50024  0.16942  Biso   1.000  H
  H173     1.0000 0.70726  0.51785  0.09113  Biso   1.000  H
  C227     1.0000 0.69120  0.46569  0.12490  Biso   1.000  C
  H174     1.0000 0.67425  0.50024  0.16950  Biso   1.000  H
  H175     1.0000 0.70726  0.51785  0.09121  Biso   1.000  H
  C228     1.0000 0.69120  0.46569  0.12498  Biso   1.000  C
  H176     1.0000 0.65425  0.58523  0.04171  Biso   1.000  H
  H177     1.0000 0.65425  0.58523  0.04179  Biso   1.000  H
  H178     1.0000 0.55816  0.52485  0.69076  Biso   1.000  H
  C229     1.0000 0.58497  0.56495  0.79913  Biso   1.000  C
  C230     1.0000 0.61766  0.61054  0.93960  Biso   1.000  C
  C231     1.0000 0.37121  0.37142  0.49503  Biso   1.000  C
  H179     1.0000 0.35636  0.37313  0.64824  Biso   1.000  H
  H180     1.0000 0.33856  0.38655  0.56530  Biso   1.000  H
  H181     1.0000 0.33856  0.38655  0.56538  Biso   1.000  H
  O32      1.0000 0.42730  0.41279  0.23279  Biso   1.000  O
  C232     1.0000 0.42583  0.46799  0.25229  Biso   1.000  C
  C233     1.0000 0.35290  0.43614  0.99438  Biso   1.000  C
  C234     1.0000 0.38824  0.47929  0.13220  Biso   1.000  C
  H182     1.0000 0.70077  0.46155  0.05952  Biso   1.000  H
  H183     1.0000 0.70924  0.47253  0.18017  Biso   1.000  H
  C235     1.0000 0.65915  0.43157  0.15755  Biso   1.000  C
  H184     1.0000 0.70077  0.46155  0.05960  Biso   1.000  H
  O33      1.0000 0.57268  0.58721  0.76721  Biso   1.000  O
  O34      1.0000 0.57268  0.58721  0.76729  Biso   1.000  O
  H185     1.0000 0.61771  0.62766  0.88914  Biso   1.000  H
  H186     1.0000 0.64114  0.62098  0.97249  Biso   1.000  H
  H187     1.0000 0.61771  0.62766  0.88922  Biso   1.000  H
  O35      1.0000 0.59098  0.60183  0.01949  Biso   1.000  O
  O36      1.0000 0.59098  0.60183  0.01957  Biso   1.000  O
  H188     1.0000 0.35257  0.34714  0.48428  Biso   1.000  H
  H189     1.0000 0.39306  0.37193  0.51324  Biso   1.000  H
  H190     1.0000 0.37456  0.38473  0.43021  Biso   1.000  H
  H191     1.0000 0.35257  0.34714  0.48436  Biso   1.000  H
  C236     1.0000 0.45490  0.42542  0.31181  Biso   1.000  C
  C237     1.0000 0.41297  0.48928  0.21867  Biso   1.000  C
  H192     1.0000 0.44183  0.47518  0.30924  Biso   1.000  H
  H193     1.0000 0.44183  0.47518  0.30932  Biso   1.000  H
  H194     1.0000 0.34573  0.41476  0.95829  Biso   1.000  H
  C238     1.0000 0.33981  0.45741  0.96270  Biso   1.000  C
  C239     1.0000 0.37462  0.50125  0.09779  Biso   1.000  C
  H195     1.0000 0.63996  0.42615  0.10717  Biso   1.000  H
  H196     1.0000 0.66477  0.41255  0.15338  Biso   1.000  H
  C240     1.0000 0.64686  0.43245  0.26376  Biso   1.000  C
  C241     1.0000 0.54507  0.57457  0.68819  Biso   1.000  C
  C242     1.0000 0.54507  0.57457  0.68827  Biso   1.000  C
  C243     1.0000 0.59707  0.63132  0.08704  Biso   1.000  C
  C244     1.0000 0.59707  0.63132  0.08712  Biso   1.000  C
  C245     1.0000 0.45605  0.39088  0.35456  Biso   1.000  C
  C246     1.0000 0.45605  0.39088  0.35464  Biso   1.000  C
  H197     1.0000 0.42053  0.51098  0.25317  Biso   1.000  H
  H198     1.0000 0.32343  0.45006  0.90655  Biso   1.000  H
  H199     1.0000 0.32343  0.45006  0.90663  Biso   1.000  H
  C247     1.0000 0.35066  0.49043  0.01356  Biso   1.000  C
  C248     1.0000 0.35066  0.49043  0.01364  Biso   1.000  C
  C249     1.0000 0.38683  0.53682  0.15121  Biso   1.000  C
  H200     1.0000 0.62625  0.40974  0.27988  Biso   1.000  H
  H201     1.0000 0.64066  0.45073  0.26801  Biso   1.000  H
  H202     1.0000 0.66545  0.43723  0.31438  Biso   1.000  H
  H203     1.0000 0.64066  0.45073  0.26809  Biso   1.000  H
  C250     1.0000 0.54394  0.60915  0.64544  Biso   1.000  C
  C251     1.0000 0.56258  0.61903  0.14664  Biso   1.000  C
  H204     1.0000 0.61653  0.63707  0.13677  Biso   1.000  H
  H205     1.0000 0.60302  0.65238  0.04436  Biso   1.000  H
  C252     1.0000 0.56258  0.61903  0.14672  Biso   1.000  C
  C253     1.0000 0.47426  0.39088  0.26737  Biso   1.000  C
  C254     1.0000 0.45613  0.36846  0.34029  Biso   1.000  C
  O37      1.0000 0.33889  0.51314  0.98372  Biso   1.000  O
  O38      1.0000 0.42234  0.56078  0.11447  Biso   1.000  O
  H206     1.0000 0.38662  0.53428  0.22854  Biso   1.000  H
  H207     1.0000 0.37104  0.54587  0.13228  Biso   1.000  H
  O39      1.0000 0.42234  0.56078  0.11455  Biso   1.000  O
  H208     1.0000 0.38662  0.53428  0.22862  Biso   1.000  H
  C255     1.0000 0.52573  0.60915  0.73263  Biso   1.000  C
  C256     1.0000 0.54387  0.63154  0.65971  Biso   1.000  C
  C257     1.0000 0.53654  0.62753  0.11118  Biso   1.000  C
  C258     1.0000 0.55478  0.59552  0.23127  Biso   1.000  C
  C259     1.0000 0.47283  0.34698  0.30948  Biso   1.000  C
  C260     1.0000 0.31511  0.50385  0.89363  Biso   1.000  C
  C261     1.0000 0.31511  0.50385  0.89371  Biso   1.000  C
  C262     1.0000 0.43717  0.59531  0.16244  Biso   1.000  C
  C263     1.0000 0.43717  0.59531  0.16252  Biso   1.000  C
  C264     1.0000 0.52715  0.65305  0.69052  Biso   1.000  C
  C265     1.0000 0.50195  0.61046  0.16036  Biso   1.000  C
  C266     1.0000 0.50195  0.61046  0.16044  Biso   1.000  C
  C267     1.0000 0.54230  0.65182  0.02623  Biso   1.000  C
  C268     1.0000 0.54230  0.65182  0.02631  Biso   1.000  C
  C269     1.0000 0.52093  0.57919  0.28181  Biso   1.000  C
  O40      1.0000 0.58097  0.58833  0.26159  Biso   1.000  O
  H209     1.0000 0.32574  0.49978  0.83058  Biso   1.000  H
  H210     1.0000 0.29273  0.48218  0.90887  Biso   1.000  H
  C270     1.0000 0.30881  0.53433  0.87510  Biso   1.000  C
  H211     1.0000 0.42333  0.60658  0.14295  Biso   1.000  H
  H212     1.0000 0.43722  0.59346  0.24009  Biso   1.000  H
  C271     1.0000 0.47473  0.61668  0.12049  Biso   1.000  C
  H213     1.0000 0.42333  0.60658  0.14303  Biso   1.000  H
  C272     1.0000 0.49544  0.58633  0.24587  Biso   1.000  C
  C273     1.0000 0.51661  0.65847  0.99045  Biso   1.000  C
  C274     1.0000 0.51661  0.65847  0.99053  Biso   1.000  C
  H214     1.0000 0.56473  0.66368  0.99398  Biso   1.000  H
  H215     1.0000 0.51613  0.56367  0.33916  Biso   1.000  H
  H216     1.0000 0.51613  0.56367  0.33924  Biso   1.000  H
  C275     1.0000 0.57630  0.56752  0.35521  Biso   1.000  C
  H217     1.0000 0.29922  0.53847  0.94048  Biso   1.000  H
  H218     1.0000 0.29073  0.52747  0.81983  Biso   1.000  H
  C276     1.0000 0.34086  0.56845  0.84245  Biso   1.000  C
  H219     1.0000 0.29073  0.52747  0.81991  Biso   1.000  H
  C277     1.0000 0.34086  0.56845  0.84253  Biso   1.000  C
  C278     1.0000 0.48198  0.64003  0.03586  Biso   1.000  C
  C279     1.0000 0.48198  0.64003  0.03594  Biso   1.000  C
  H220     1.0000 0.47313  0.57508  0.27844  Biso   1.000  H
  H221     1.0000 0.47313  0.57508  0.27852  Biso   1.000  H
  H222     1.0000 0.52172  0.67517  0.93623  Biso   1.000  H
  H223     1.0000 0.52172  0.67517  0.93631  Biso   1.000  H
  H224     1.0000 0.56613  0.57468  0.41280  Biso   1.000  H
  H225     1.0000 0.56042  0.54237  0.34029  Biso   1.000  H
  C280     1.0000 0.61273  0.57412  0.38609  Biso   1.000  C
  H226     1.0000 0.36003  0.57388  0.89283  Biso   1.000  H
  H227     1.0000 0.33522  0.58748  0.84662  Biso   1.000  H
  C281     1.0000 0.35313  0.56757  0.73624  Biso   1.000  C
  H228     1.0000 0.36003  0.57388  0.89291  Biso   1.000  H
  H229     1.0000 0.33522  0.58748  0.84670  Biso   1.000  H
  C282     1.0000 0.35313  0.56757  0.73632  Biso   1.000  C
  O41      1.0000 0.45400  0.64289  0.99607  Biso   1.000  O
  H230     1.0000 0.61023  0.55897  0.44665  Biso   1.000  H
  H231     1.0000 0.62242  0.56706  0.32681  Biso   1.000  H
  C283     1.0000 0.63914  0.61222  0.41529  Biso   1.000  C
  H232     1.0000 0.61023  0.55897  0.44674  Biso   1.000  H
  H233     1.0000 0.37374  0.59028  0.72012  Biso   1.000  H
  H234     1.0000 0.35932  0.54927  0.73199  Biso   1.000  H
  H235     1.0000 0.33452  0.56276  0.68562  Biso   1.000  H
  H236     1.0000 0.37374  0.59028  0.72020  Biso   1.000  H
  H237     1.0000 0.33452  0.56276  0.68571  Biso   1.000  H
  C284     1.0000 0.46034  0.67135  0.92468  Biso   1.000  C
  H238     1.0000 0.64362  0.62686  0.35176  Biso   1.000  H
  H239     1.0000 0.66143  0.61347  0.43470  Biso   1.000  H
  C285     1.0000 0.62880  0.62860  0.50497  Biso   1.000  C
  H240     1.0000 0.64362  0.62686  0.35184  Biso   1.000  H
  C286     1.0000 0.62880  0.62860  0.50505  Biso   1.000  C
  H241     1.0000 0.47723  0.69417  0.95628  Biso   1.000  H
  H242     1.0000 0.47014  0.66878  0.85745  Biso   1.000  H
  C287     1.0000 0.42514  0.66953  0.90558  Biso   1.000  C
  H243     1.0000 0.47014  0.66878  0.85753  Biso   1.000  H
  H244     1.0000 0.64742  0.65289  0.51572  Biso   1.000  H
  H245     1.0000 0.60692  0.62806  0.48676  Biso   1.000  H
  H246     1.0000 0.62542  0.61526  0.56979  Biso   1.000  H
  H247     1.0000 0.60692  0.62806  0.48684  Biso   1.000  H
  C288     1.0000 0.39973  0.66328  0.99358  Biso   1.000  C
  C289     1.0000 0.41863  0.68359  0.02126  Biso   1.000  C
  C290     1.0000 0.37884  0.67648  0.00505  Biso   1.000  C
  C291     1.0000 0.37884  0.67648  0.00513  Biso   1.000  C
  C292     1.0000 0.41383  0.68906  0.07765  Biso   1.000  C
  C293     1.0000 0.58615  0.31093  0.92235  Biso   1.000  C
  C294     1.0000 0.60026  0.33674  0.00642  Biso   1.000  C
  C295     1.0000 0.60026  0.33674  0.00650  Biso   1.000  C
  C296     1.0000 0.62117  0.32354  0.99495  Biso   1.000  C
  C297     1.0000 0.57484  0.33046  0.09442  Biso   1.000  C
  C298     1.0000 0.57484  0.33046  0.09450  Biso   1.000  C
  C299     1.0000 0.58136  0.31644  0.97874  Biso   1.000  C
  C300     1.0000 0.53964  0.32865  0.07532  Biso   1.000  C
  C301     1.0000 0.53964  0.32865  0.07541  Biso   1.000  C
  O42      1.0000 0.54599  0.35713  0.00393  Biso   1.000  O
  H248     1.0000 0.52277  0.30583  0.04372  Biso   1.000  H
  H249     1.0000 0.52987  0.33124  0.14255  Biso   1.000  H
  H250     1.0000 0.52277  0.30583  0.04380  Biso   1.000  H
  C302     1.0000 0.51801  0.35999  0.96414  Biso   1.000  C
  C303     1.0000 0.48337  0.34153  0.00955  Biso   1.000  C
  C304     1.0000 0.52525  0.38331  0.87951  Biso   1.000  C
  C305     1.0000 0.52525  0.38331  0.87959  Biso   1.000  C
  C306     1.0000 0.45769  0.34821  0.97377  Biso   1.000  C
  H251     1.0000 0.47826  0.32483  0.06377  Biso   1.000  H
  C307     1.0000 0.49803  0.38954  0.83964  Biso   1.000  C
  C308     1.0000 0.56281  0.40472  0.83756  Biso   1.000  C
  C309     1.0000 0.46343  0.37247  0.88882  Biso   1.000  C
  C310     1.0000 0.46343  0.37247  0.88890  Biso   1.000  C
  H252     1.0000 0.43526  0.33634  0.00602  Biso   1.000  H
  H253     1.0000 0.43526  0.33634  0.00610  Biso   1.000  H
  C311     1.0000 0.50455  0.41369  0.75413  Biso   1.000  C
  O43      1.0000 0.57764  0.43924  0.88553  Biso   1.000  O
  H254     1.0000 0.57666  0.39344  0.85705  Biso   1.000  H
  H255     1.0000 0.56275  0.40653  0.75991  Biso   1.000  H
  H256     1.0000 0.56275  0.40653  0.75999  Biso   1.000  H
  C312     1.0000 0.43741  0.38099  0.85336  Biso   1.000  C
  C313     1.0000 0.47905  0.42083  0.71819  Biso   1.000  C
  C314     1.0000 0.47905  0.42083  0.71827  Biso   1.000  C
  H257     1.0000 0.52686  0.42494  0.72156  Biso   1.000  H
  C315     1.0000 0.61318  0.46321  0.84879  Biso   1.000  C
  C316     1.0000 0.61318  0.46321  0.84887  Biso   1.000  C
  C317     1.0000 0.44521  0.40450  0.76873  Biso   1.000  C
  C318     1.0000 0.40290  0.36867  0.91296  Biso   1.000  C
  H258     1.0000 0.48386  0.43633  0.66084  Biso   1.000  H
  H259     1.0000 0.61336  0.46574  0.77146  Biso   1.000  H
  C319     1.0000 0.62537  0.49874  0.90221  Biso   1.000  C
  H260     1.0000 0.62897  0.45415  0.86772  Biso   1.000  H
  C320     1.0000 0.62537  0.49874  0.90229  Biso   1.000  C
  H261     1.0000 0.62897  0.45415  0.86780  Biso   1.000  H
  O44      1.0000 0.41903  0.41166  0.73841  Biso   1.000  O
  O45      1.0000 0.41903  0.41166  0.73849  Biso   1.000  O
  O46      1.0000 0.40903  0.39820  0.98051  Biso   1.000  O
  H262     1.0000 0.38346  0.36293  0.86323  Biso   1.000  H
  H263     1.0000 0.39697  0.34764  0.95564  Biso   1.000  H
  C321     1.0000 0.64934  0.50956  0.98644  Biso   1.000  C
  C322     1.0000 0.61175  0.52073  0.86780  Biso   1.000  C
  C323     1.0000 0.61175  0.52073  0.86788  Biso   1.000  C
  C324     1.0000 0.42368  0.43248  0.64479  Biso   1.000  C
  C325     1.0000 0.42368  0.43248  0.64487  Biso   1.000  C
  C326     1.0000 0.38231  0.38946  0.06040  Biso   1.000  C
  C327     1.0000 0.38231  0.38946  0.06048  Biso   1.000  C
  O47      1.0000 0.66109  0.48688  0.01628  Biso   1.000  O
  C328     1.0000 0.66020  0.54262  0.03730  Biso   1.000  C
  O48      1.0000 0.66109  0.48688  0.01636  Biso   1.000  O
  C329     1.0000 0.66020  0.54262  0.03738  Biso   1.000  C
  C330     1.0000 0.58704  0.51074  0.78133  Biso   1.000  C
  C331     1.0000 0.62263  0.55434  0.91882  Biso   1.000  C
  C332     1.0000 0.62263  0.55434  0.91890  Biso   1.000  C
  C333     1.0000 0.38724  0.42588  0.61391  Biso   1.000  C
  C334     1.0000 0.38724  0.42588  0.61399  Biso   1.000  C
  H264     1.0000 0.43957  0.45765  0.65971  Biso   1.000  H
  H265     1.0000 0.43385  0.42534  0.58720  Biso   1.000  H
  H266     1.0000 0.43385  0.42534  0.58728  Biso   1.000  H
  H267     1.0000 0.38227  0.37233  0.11086  Biso   1.000  H
  H268     1.0000 0.35887  0.37904  0.02751  Biso   1.000  H
  C335     1.0000 0.39116  0.42363  0.11696  Biso   1.000  C
  H269     1.0000 0.35887  0.37904  0.02760  Biso   1.000  H
  C336     1.0000 0.39116  0.42363  0.11704  Biso   1.000  C
  C337     1.0000 0.68490  0.49618  0.10637  Biso   1.000  C
  C338     1.0000 0.64709  0.56388  0.00562  Biso   1.000  C
  H270     1.0000 0.67656  0.54994  0.09345  Biso   1.000  H
  C339     1.0000 0.64709  0.56388  0.00570  Biso   1.000  C
  H271     1.0000 0.57945  0.48904  0.74683  Biso   1.000  H
  C340     1.0000 0.57416  0.53201  0.74771  Biso   1.000  C
  C341     1.0000 0.57416  0.53201  0.74779  Biso   1.000  C
  C342     1.0000 0.60883  0.57639  0.88304  Biso   1.000  C
  C343     1.0000 0.36086  0.38778  0.58471  Biso   1.000  C
  C344     1.0000 0.36086  0.38778  0.58479  Biso   1.000  C
  H272     1.0000 0.38975  0.44103  0.55335  Biso   1.000  H
  H273     1.0000 0.37756  0.43293  0.67319  Biso   1.000  H
  H274     1.0000 0.37756  0.43293  0.67327  Biso   1.000  H
  C345     1.0000 0.41502  0.43507  0.20087  Biso   1.000  C
  C346     1.0000 0.37736  0.44568  0.08118  Biso   1.000  C
  H275     1.0000 0.67425  0.50024  0.16942  Biso   1.000  H
  H276     1.0000 0.70726  0.51785  0.09113  Biso   1.000  H
  C347     1.0000 0.69120  0.46569  0.12490  Biso   1.000  C
  H277     1.0000 0.67425  0.50024  0.16950  Biso   1.000  H
  H278     1.0000 0.70726  0.51785  0.09121  Biso   1.000  H
  C348     1.0000 0.69120  0.46569  0.12498  Biso   1.000  C
  H279     1.0000 0.65425  0.58523  0.04171  Biso   1.000  H
  H280     1.0000 0.65425  0.58523  0.04179  Biso   1.000  H
  H281     1.0000 0.55816  0.52485  0.69076  Biso   1.000  H
  C349     1.0000 0.58497  0.56495  0.79913  Biso   1.000  C
  C350     1.0000 0.61766  0.61054  0.93960  Biso   1.000  C
  C351     1.0000 0.37121  0.37142  0.49503  Biso   1.000  C
  H282     1.0000 0.35636  0.37313  0.64824  Biso   1.000  H
  H283     1.0000 0.33856  0.38655  0.56530  Biso   1.000  H
  H284     1.0000 0.33856  0.38655  0.56538  Biso   1.000  H
  O49      1.0000 0.42730  0.41279  0.23279  Biso   1.000  O
  C352     1.0000 0.42583  0.46799  0.25229  Biso   1.000  C
  C353     1.0000 0.35290  0.43614  0.99438  Biso   1.000  C
  C354     1.0000 0.38824  0.47929  0.13220  Biso   1.000  C
  H285     1.0000 0.70077  0.46155  0.05952  Biso   1.000  H
  H286     1.0000 0.70924  0.47253  0.18017  Biso   1.000  H
  C355     1.0000 0.65915  0.43157  0.15755  Biso   1.000  C
  H287     1.0000 0.70077  0.46155  0.05960  Biso   1.000  H
  O50      1.0000 0.57268  0.58721  0.76721  Biso   1.000  O
  O51      1.0000 0.57268  0.58721  0.76729  Biso   1.000  O
  H288     1.0000 0.64114  0.62098  0.97249  Biso   1.000  H
  H289     1.0000 0.61771  0.62766  0.88914  Biso   1.000  H
  H290     1.0000 0.61771  0.62766  0.88922  Biso   1.000  H
  O52      1.0000 0.59098  0.60183  0.01949  Biso   1.000  O
  O53      1.0000 0.59098  0.60183  0.01957  Biso   1.000  O
  H291     1.0000 0.39306  0.37193  0.51324  Biso   1.000  H
  H292     1.0000 0.37456  0.38473  0.43021  Biso   1.000  H
  H293     1.0000 0.35257  0.34714  0.48428  Biso   1.000  H
  H294     1.0000 0.35257  0.34714  0.48436  Biso   1.000  H
  C356     1.0000 0.45490  0.42542  0.31181  Biso   1.000  C
  C357     1.0000 0.41297  0.48928  0.21867  Biso   1.000  C
  H295     1.0000 0.44183  0.47518  0.30924  Biso   1.000  H
  H296     1.0000 0.44183  0.47518  0.30932  Biso   1.000  H
  H297     1.0000 0.34573  0.41476  0.95829  Biso   1.000  H
  C358     1.0000 0.33981  0.45741  0.96270  Biso   1.000  C
  C359     1.0000 0.37462  0.50125  0.09779  Biso   1.000  C
  H298     1.0000 0.63996  0.42615  0.10717  Biso   1.000  H
  H299     1.0000 0.66477  0.41255  0.15338  Biso   1.000  H
  C360     1.0000 0.64686  0.43245  0.26376  Biso   1.000  C
  C361     1.0000 0.54507  0.57457  0.68819  Biso   1.000  C
  C362     1.0000 0.54507  0.57457  0.68827  Biso   1.000  C
  C363     1.0000 0.59707  0.63132  0.08704  Biso   1.000  C
  C364     1.0000 0.59707  0.63132  0.08712  Biso   1.000  C
  C365     1.0000 0.45605  0.39088  0.35456  Biso   1.000  C
  C366     1.0000 0.45605  0.39088  0.35464  Biso   1.000  C
  H300     1.0000 0.42053  0.51098  0.25317  Biso   1.000  H
  H301     1.0000 0.32343  0.45006  0.90655  Biso   1.000  H
  H302     1.0000 0.32343  0.45006  0.90663  Biso   1.000  H
  C367     1.0000 0.35066  0.49043  0.01356  Biso   1.000  C
  C368     1.0000 0.35066  0.49043  0.01364  Biso   1.000  C
  C369     1.0000 0.38683  0.53682  0.15121  Biso   1.000  C
  H303     1.0000 0.62625  0.40974  0.27988  Biso   1.000  H
  H304     1.0000 0.64066  0.45073  0.26801  Biso   1.000  H
  H305     1.0000 0.66545  0.43723  0.31438  Biso   1.000  H
  H306     1.0000 0.64066  0.45073  0.26809  Biso   1.000  H
  C370     1.0000 0.54394  0.60915  0.64544  Biso   1.000  C
  C371     1.0000 0.56258  0.61903  0.14664  Biso   1.000  C
  C372     1.0000 0.56258  0.61903  0.14672  Biso   1.000  C
  H307     1.0000 0.61653  0.63707  0.13677  Biso   1.000  H
  H308     1.0000 0.60302  0.65238  0.04436  Biso   1.000  H
  C373     1.0000 0.47426  0.39088  0.26737  Biso   1.000  C
  C374     1.0000 0.45613  0.36846  0.34029  Biso   1.000  C
  O54      1.0000 0.33889  0.51314  0.98372  Biso   1.000  O
  O55      1.0000 0.42234  0.56078  0.11447  Biso   1.000  O
  H309     1.0000 0.38662  0.53428  0.22854  Biso   1.000  H
  H310     1.0000 0.37104  0.54587  0.13228  Biso   1.000  H
  O56      1.0000 0.42234  0.56078  0.11455  Biso   1.000  O
  H311     1.0000 0.38662  0.53428  0.22862  Biso   1.000  H
  C375     1.0000 0.52573  0.60915  0.73263  Biso   1.000  C
  C376     1.0000 0.54387  0.63154  0.65971  Biso   1.000  C
  C377     1.0000 0.53654  0.62753  0.11118  Biso   1.000  C
  C378     1.0000 0.55478  0.59552  0.23127  Biso   1.000  C
  C379     1.0000 0.47283  0.34698  0.30948  Biso   1.000  C
  C380     1.0000 0.31511  0.50385  0.89363  Biso   1.000  C
  C381     1.0000 0.31511  0.50385  0.89371  Biso   1.000  C
  C382     1.0000 0.43717  0.59531  0.16244  Biso   1.000  C
  C383     1.0000 0.43717  0.59531  0.16252  Biso   1.000  C
  C384     1.0000 0.52715  0.65305  0.69052  Biso   1.000  C
  C385     1.0000 0.50195  0.61046  0.16036  Biso   1.000  C
  C386     1.0000 0.50195  0.61046  0.16044  Biso   1.000  C
  C387     1.0000 0.54230  0.65182  0.02623  Biso   1.000  C
  C388     1.0000 0.54230  0.65182  0.02631  Biso   1.000  C
  C389     1.0000 0.52093  0.57919  0.28181  Biso   1.000  C
  O57      1.0000 0.58097  0.58833  0.26159  Biso   1.000  O
  H312     1.0000 0.32574  0.49978  0.83058  Biso   1.000  H
  H313     1.0000 0.29273  0.48218  0.90887  Biso   1.000  H
  C390     1.0000 0.30881  0.53433  0.87510  Biso   1.000  C
  H314     1.0000 0.42333  0.60658  0.14295  Biso   1.000  H
  H315     1.0000 0.43722  0.59346  0.24009  Biso   1.000  H
  C391     1.0000 0.47473  0.61668  0.12049  Biso   1.000  C
  H316     1.0000 0.42333  0.60658  0.14303  Biso   1.000  H
  C392     1.0000 0.49544  0.58633  0.24587  Biso   1.000  C
  C393     1.0000 0.51661  0.65847  0.99045  Biso   1.000  C
  C394     1.0000 0.51661  0.65847  0.99053  Biso   1.000  C
  H317     1.0000 0.56473  0.66368  0.99398  Biso   1.000  H
  H318     1.0000 0.51613  0.56367  0.33916  Biso   1.000  H
  H319     1.0000 0.51613  0.56367  0.33924  Biso   1.000  H
  C395     1.0000 0.57630  0.56752  0.35521  Biso   1.000  C
  H320     1.0000 0.29922  0.53847  0.94048  Biso   1.000  H
  H321     1.0000 0.29073  0.52747  0.81983  Biso   1.000  H
  C396     1.0000 0.34086  0.56845  0.84245  Biso   1.000  C
  H322     1.0000 0.29073  0.52747  0.81991  Biso   1.000  H
  C397     1.0000 0.34086  0.56845  0.84253  Biso   1.000  C
  C398     1.0000 0.48198  0.64003  0.03586  Biso   1.000  C
  C399     1.0000 0.48198  0.64003  0.03594  Biso   1.000  C
  H323     1.0000 0.47313  0.57508  0.27844  Biso   1.000  H
  H324     1.0000 0.47313  0.57508  0.27852  Biso   1.000  H
  H325     1.0000 0.52172  0.67517  0.93623  Biso   1.000  H
  H326     1.0000 0.52172  0.67517  0.93631  Biso   1.000  H
  H327     1.0000 0.56613  0.57468  0.41280  Biso   1.000  H
  H328     1.0000 0.56042  0.54237  0.34029  Biso   1.000  H
  C400     1.0000 0.61273  0.57412  0.38609  Biso   1.000  C
  H329     1.0000 0.36003  0.57388  0.89283  Biso   1.000  H
  H330     1.0000 0.33522  0.58748  0.84662  Biso   1.000  H
  C401     1.0000 0.35313  0.56757  0.73624  Biso   1.000  C
  H331     1.0000 0.36003  0.57388  0.89291  Biso   1.000  H
  H332     1.0000 0.33522  0.58748  0.84670  Biso   1.000  H
  C402     1.0000 0.35313  0.56757  0.73632  Biso   1.000  C
  O58      1.0000 0.45400  0.64289  0.99607  Biso   1.000  O
  H333     1.0000 0.61023  0.55897  0.44665  Biso   1.000  H
  H334     1.0000 0.62242  0.56706  0.32681  Biso   1.000  H
  C403     1.0000 0.63914  0.61222  0.41529  Biso   1.000  C
  H335     1.0000 0.61023  0.55897  0.44674  Biso   1.000  H
  H336     1.0000 0.35932  0.54927  0.73199  Biso   1.000  H
  H337     1.0000 0.37374  0.59028  0.72012  Biso   1.000  H
  H338     1.0000 0.33452  0.56276  0.68562  Biso   1.000  H
  H339     1.0000 0.37374  0.59028  0.72020  Biso   1.000  H
  H340     1.0000 0.33452  0.56276  0.68571  Biso   1.000  H
  C404     1.0000 0.46034  0.67135  0.92468  Biso   1.000  C
  H341     1.0000 0.64362  0.62686  0.35176  Biso   1.000  H
  H342     1.0000 0.66143  0.61347  0.43470  Biso   1.000  H
  C405     1.0000 0.62880  0.62860  0.50497  Biso   1.000  C
  H343     1.0000 0.64362  0.62686  0.35184  Biso   1.000  H
  C406     1.0000 0.62880  0.62860  0.50505  Biso   1.000  C
  H344     1.0000 0.47723  0.69417  0.95628  Biso   1.000  H
  C407     1.0000 0.42514  0.66953  0.90558  Biso   1.000  C
  H345     1.0000 0.47014  0.66878  0.85745  Biso   1.000  H
  H346     1.0000 0.47014  0.66878  0.85753  Biso   1.000  H
  H347     1.0000 0.64742  0.65289  0.51572  Biso   1.000  H
  H348     1.0000 0.60692  0.62806  0.48676  Biso   1.000  H
  H349     1.0000 0.62542  0.61526  0.56979  Biso   1.000  H
  H350     1.0000 0.60692  0.62806  0.48684  Biso   1.000  H
  C408     1.0000 0.39973  0.66328  0.99358  Biso   1.000  C
  C409     1.0000 0.41863  0.68359  0.02126  Biso   1.000  C
  C410     1.0000 0.37884  0.67648  0.00505  Biso   1.000  C
  C411     1.0000 0.37884  0.67648  0.00513  Biso   1.000  C
  C412     1.0000 0.41383  0.68906  0.07765  Biso   1.000  C
  C413     1.0000 0.71216  0.34313  0.67175  Biso   1.000  C
  C414     1.0000 0.73305  0.32993  0.66028  Biso   1.000  C
  C415     1.0000 0.75195  0.35024  0.68795  Biso   1.000  C
  C416     1.0000 0.74716  0.35574  0.74434  Biso   1.000  C
  C417     1.0000 0.75847  0.33621  0.57228  Biso   1.000  C
  C418     1.0000 0.79367  0.33803  0.59137  Biso   1.000  C
  O59      1.0000 0.78733  0.30957  0.66276  Biso   1.000  O
  H351     1.0000 0.81056  0.36084  0.62297  Biso   1.000  H
  H352     1.0000 0.80346  0.33543  0.52415  Biso   1.000  H
  C419     1.0000 0.81530  0.30668  0.70255  Biso   1.000  C
  C420     1.0000 0.80806  0.28336  0.78718  Biso   1.000  C
  C421     1.0000 0.84996  0.32515  0.65715  Biso   1.000  C
  C422     1.0000 0.77049  0.26196  0.82914  Biso   1.000  C
  C423     1.0000 0.83528  0.27713  0.82705  Biso   1.000  C
  H353     1.0000 0.85507  0.34185  0.60292  Biso   1.000  H
  C424     1.0000 0.87564  0.31847  0.69292  Biso   1.000  C
  O60      1.0000 0.75566  0.22743  0.78116  Biso   1.000  O
  H354     1.0000 0.75665  0.27323  0.80964  Biso   1.000  H
  H355     1.0000 0.77056  0.26014  0.90679  Biso   1.000  H
  C425     1.0000 0.82878  0.25298  0.91256  Biso   1.000  C
  C426     1.0000 0.86987  0.29421  0.77788  Biso   1.000  C
  H356     1.0000 0.89804  0.33033  0.66068  Biso   1.000  H
  C427     1.0000 0.72015  0.20347  0.81782  Biso   1.000  C
  C428     1.0000 0.85425  0.24584  0.94850  Biso   1.000  C
  H357     1.0000 0.80645  0.24173  0.94513  Biso   1.000  H
  C429     1.0000 0.89591  0.28571  0.81333  Biso   1.000  C
  C430     1.0000 0.70795  0.16793  0.76448  Biso   1.000  C
  H358     1.0000 0.71996  0.20093  0.89524  Biso   1.000  H
  H359     1.0000 0.70436  0.21253  0.79897  Biso   1.000  H
  C431     1.0000 0.88812  0.26217  0.89796  Biso   1.000  C
  H360     1.0000 0.84947  0.23035  0.00586  Biso   1.000  H
  C432     1.0000 0.93040  0.29800  0.75373  Biso   1.000  C
  C433     1.0000 0.68399  0.15711  0.68025  Biso   1.000  C
  C434     1.0000 0.72156  0.14594  0.79889  Biso   1.000  C
  O61      1.0000 0.91430  0.25501  0.92828  Biso   1.000  O
  O62      1.0000 0.92429  0.26848  0.68619  Biso   1.000  O
  H361     1.0000 0.94987  0.30374  0.80347  Biso   1.000  H
  H362     1.0000 0.93636  0.31903  0.71105  Biso   1.000  H
  O63      1.0000 0.67221  0.17979  0.65041  Biso   1.000  O
  C435     1.0000 0.67313  0.12406  0.62939  Biso   1.000  C
  C436     1.0000 0.71067  0.11233  0.74787  Biso   1.000  C
  C437     1.0000 0.74629  0.15593  0.88537  Biso   1.000  C
  C438     1.0000 0.90963  0.23419  0.02190  Biso   1.000  C
  C439     1.0000 0.95099  0.27721  0.60629  Biso   1.000  C
  C440     1.0000 0.64843  0.17050  0.56032  Biso   1.000  C
  C441     1.0000 0.68624  0.10279  0.66108  Biso   1.000  C
  H363     1.0000 0.65677  0.11674  0.57324  Biso   1.000  H
  C442     1.0000 0.72450  0.09028  0.78365  Biso   1.000  C
  H364     1.0000 0.75385  0.17763  0.91986  Biso   1.000  H
  C443     1.0000 0.75917  0.13467  0.91898  Biso   1.000  C
  H365     1.0000 0.89945  0.24133  0.07950  Biso   1.000  H
  H366     1.0000 0.89376  0.20902  0.00698  Biso   1.000  H
  C444     1.0000 0.94606  0.24079  0.05278  Biso   1.000  C
  C445     1.0000 0.94214  0.24304  0.54974  Biso   1.000  C
  H367     1.0000 0.95106  0.29434  0.55583  Biso   1.000  H
  H368     1.0000 0.97446  0.28763  0.63918  Biso   1.000  H
  C446     1.0000 0.64213  0.20098  0.54171  Biso   1.000  C
  H369     1.0000 0.65905  0.16643  0.49727  Biso   1.000  H
  H370     1.0000 0.62605  0.14883  0.57557  Biso   1.000  H
  H371     1.0000 0.67906  0.08144  0.62498  Biso   1.000  H
  C447     1.0000 0.71564  0.05614  0.72710  Biso   1.000  C
  C448     1.0000 0.74836  0.10172  0.86756  Biso   1.000  C
  H372     1.0000 0.77515  0.14183  0.97593  Biso   1.000  H
  H373     1.0000 0.95575  0.23374  0.99350  Biso   1.000  H
  H374     1.0000 0.94356  0.22564  0.11335  Biso   1.000  H
  C449     1.0000 0.97247  0.27890  0.08198  Biso   1.000  C
  C450     1.0000 0.91828  0.23160  0.46583  Biso   1.000  C
  C451     1.0000 0.95597  0.22100  0.58551  Biso   1.000  C
  H375     1.0000 0.63256  0.20512  0.60717  Biso   1.000  H
  H376     1.0000 0.62406  0.19414  0.48652  Biso   1.000  H
  C452     1.0000 0.67418  0.23510  0.50914  Biso   1.000  C
  O64      1.0000 0.74235  0.06485  0.64720  Biso   1.000  O
  H377     1.0000 0.71560  0.03901  0.77755  Biso   1.000  H
  H378     1.0000 0.69219  0.04569  0.69421  Biso   1.000  H
  O65      1.0000 0.76065  0.07946  0.89949  Biso   1.000  O
  H379     1.0000 0.97695  0.29354  0.01845  Biso   1.000  H
  H380     1.0000 0.99475  0.28012  0.10140  Biso   1.000  H
  C453     1.0000 0.96211  0.29525  0.17167  Biso   1.000  C
  O66      1.0000 0.90601  0.25389  0.43390  Biso   1.000  O
  C454     1.0000 0.90749  0.19868  0.41441  Biso   1.000  C
  C455     1.0000 0.98041  0.23053  0.67231  Biso   1.000  C
  C456     1.0000 0.94509  0.18738  0.53449  Biso   1.000  C
  H381     1.0000 0.69335  0.24053  0.55952  Biso   1.000  H
  H382     1.0000 0.66856  0.25413  0.51332  Biso   1.000  H
  C457     1.0000 0.68646  0.23425  0.40294  Biso   1.000  C
  C458     1.0000 0.73626  0.03535  0.57966  Biso   1.000  C
  C459     1.0000 0.78826  0.09210  0.97850  Biso   1.000  C
  H383     1.0000 0.98076  0.31954  0.18234  Biso   1.000  H
  H384     1.0000 0.94025  0.29474  0.15346  Biso   1.000  H
  H385     1.0000 0.95875  0.28194  0.23648  Biso   1.000  H
  C460     1.0000 0.87840  0.24125  0.35489  Biso   1.000  C
  C461     1.0000 0.92036  0.17739  0.44802  Biso   1.000  C
  H386     1.0000 0.89150  0.19150  0.35737  Biso   1.000  H
  H387     1.0000 0.98758  0.25191  0.70841  Biso   1.000  H
  C462     1.0000 0.99352  0.20927  0.70399  Biso   1.000  C
  C463     1.0000 0.95871  0.16542  0.56891  Biso   1.000  C
  H388     1.0000 0.70706  0.25693  0.38681  Biso   1.000  H
  H389     1.0000 0.69267  0.21595  0.39868  Biso   1.000  H
  H390     1.0000 0.66786  0.22944  0.35232  Biso   1.000  H
  C464     1.0000 0.77075  0.04764  0.52005  Biso   1.000  C
  H391     1.0000 0.71679  0.02960  0.52992  Biso   1.000  H
  H392     1.0000 0.73029  0.01429  0.62233  Biso   1.000  H
  C465     1.0000 0.78937  0.05753  0.02126  Biso   1.000  C
  C466     1.0000 0.87726  0.27580  0.31213  Biso   1.000  C
  H393     1.0000 0.91279  0.15569  0.41352  Biso   1.000  H
  C467     1.0000 0.98267  0.17624  0.65314  Biso   1.000  C
  H394     1.0000 0.00989  0.21661  0.76015  Biso   1.000  H
  C468     1.0000 0.94650  0.12986  0.51548  Biso   1.000  C
  C469     1.0000 0.77852  0.07115  0.43542  Biso   1.000  C
  C470     1.0000 0.79679  0.03914  0.55551  Biso   1.000  C
  C471     1.0000 0.80760  0.05753  0.93406  Biso   1.000  C
  C472     1.0000 0.78946  0.03514  0.00690  Biso   1.000  C
  C473     1.0000 0.85905  0.27580  0.39933  Biso   1.000  C
  C474     1.0000 0.87720  0.29821  0.32641  Biso   1.000  C
  O67      1.0000 0.99441  0.15353  0.68298  Biso   1.000  O
  O68      1.0000 0.91099  0.10589  0.55222  Biso   1.000  O
  H395     1.0000 0.94668  0.13239  0.43815  Biso   1.000  H
  H396     1.0000 0.96229  0.12080  0.53441  Biso   1.000  H
  O69      1.0000 0.75236  0.07834  0.40510  Biso   1.000  O
  C475     1.0000 0.81237  0.08748  0.38489  Biso   1.000  C
  C476     1.0000 0.79101  0.01486  0.64038  Biso   1.000  C
  C477     1.0000 0.83136  0.05622  0.50634  Biso   1.000  C
  C478     1.0000 0.80615  0.01363  0.97618  Biso   1.000  C
  C479     1.0000 0.86049  0.31970  0.35721  Biso   1.000  C
  C480     1.0000 0.01822  0.16283  0.77306  Biso   1.000  C
  C481     1.0000 0.89613  0.07137  0.50425  Biso   1.000  C
  C482     1.0000 0.75701  0.09916  0.31149  Biso   1.000  C
  H397     1.0000 0.81719  0.10300  0.32753  Biso   1.000  H
  C483     1.0000 0.83787  0.08034  0.42082  Biso   1.000  C
  C484     1.0000 0.81670  0.00820  0.67624  Biso   1.000  C
  H398     1.0000 0.76858  0.00299  0.67271  Biso   1.000  H
  C485     1.0000 0.85860  0.04999  0.54621  Biso   1.000  C
  H399     1.0000 0.00759  0.16689  0.83611  Biso   1.000  H
  H400     1.0000 0.04058  0.18450  0.75782  Biso   1.000  H
  C486     1.0000 0.02454  0.13234  0.79159  Biso   1.000  C
  H401     1.0000 0.90998  0.06009  0.52374  Biso   1.000  H
  H402     1.0000 0.89610  0.07321  0.42660  Biso   1.000  H
  H403     1.0000 0.76719  0.09199  0.25389  Biso   1.000  H
  H404     1.0000 0.77289  0.12430  0.32641  Biso   1.000  H
  C487     1.0000 0.72059  0.09256  0.28060  Biso   1.000  C
  H405     1.0000 0.86020  0.09159  0.38818  Biso   1.000  H
  C488     1.0000 0.85132  0.02664  0.63084  Biso   1.000  C
  H406     1.0000 0.81160  0.99153  0.73039  Biso   1.000  H
  C489     1.0000 0.99246  0.09822  0.82424  Biso   1.000  C
  H407     1.0000 0.03409  0.12820  0.72622  Biso   1.000  H
  H408     1.0000 0.04260  0.13921  0.84686  Biso   1.000  H
  H409     1.0000 0.72310  0.10771  0.22004  Biso   1.000  H
  H410     1.0000 0.71089  0.09961  0.33988  Biso   1.000  H
  C490     1.0000 0.69419  0.05445  0.25140  Biso   1.000  C
  O70      1.0000 0.87930  0.02378  0.67062  Biso   1.000  O
  H411     1.0000 0.97328  0.09280  0.77386  Biso   1.000  H
  H412     1.0000 0.99809  0.07920  0.81999  Biso   1.000  H
  C491     1.0000 0.98018  0.09910  0.93045  Biso   1.000  C
  H413     1.0000 0.68969  0.03981  0.31494  Biso   1.000  H
  H414     1.0000 0.67190  0.05320  0.23199  Biso   1.000  H
  C492     1.0000 0.70453  0.03807  0.16172  Biso   1.000  C
  C493     1.0000 0.87300  0.99535  0.74202  Biso   1.000  C
  H415     1.0000 0.95959  0.07639  0.94649  Biso   1.000  H
  H416     1.0000 0.97399  0.11740  0.93470  Biso   1.000  H
  H417     1.0000 0.99880  0.10391  0.98107  Biso   1.000  H
  H418     1.0000 0.68589  0.01379  0.15097  Biso   1.000  H
  H419     1.0000 0.72639  0.03861  0.17993  Biso   1.000  H
  H420     1.0000 0.70789  0.05141  0.09690  Biso   1.000  H
  H421     1.0000 0.85611  0.97253  0.71041  Biso   1.000  H
  H422     1.0000 0.86320  0.99792  0.80924  Biso   1.000  H
  C494     1.0000 0.90818  0.99717  0.76111  Biso   1.000  C
  C495     1.0000 0.93358  0.00339  0.67311  Biso   1.000  C
  C496     1.0000 0.91469  0.98311  0.64544  Biso   1.000  C
  C497     1.0000 0.95450  0.99022  0.66164  Biso   1.000  C
  C498     1.0000 0.91952  0.97764  0.58904  Biso   1.000  C
  C499     1.0000 0.70235  0.37883  0.99495  Biso   1.000  C
  C500     1.0000 0.73506  0.41864  0.97874  Biso   1.000  C
  C501     1.0000 0.72476  0.41383  0.92235  Biso   1.000  C
  C502     1.0000 0.73646  0.39975  0.00642  Biso   1.000  C
  C503     1.0000 0.73646  0.39975  0.00650  Biso   1.000  C
  C504     1.0000 0.75562  0.42516  0.09442  Biso   1.000  C
  C505     1.0000 0.75562  0.42516  0.09450  Biso   1.000  C
  C506     1.0000 0.75560  0.42516  0.09442  Biso   1.000  C
  C507     1.0000 0.75560  0.42516  0.09450  Biso   1.000  C
  C508     1.0000 0.78900  0.46035  0.07532  Biso   1.000  C
  C509     1.0000 0.78900  0.46035  0.07541  Biso   1.000  C
  C510     1.0000 0.78898  0.46035  0.07532  Biso   1.000  C
  C511     1.0000 0.78898  0.46035  0.07541  Biso   1.000  C
  O71      1.0000 0.81112  0.45401  0.00393  Biso   1.000  O
  H423     1.0000 0.78307  0.47723  0.04372  Biso   1.000  H
  H424     1.0000 0.80136  0.47013  0.14255  Biso   1.000  H
  H425     1.0000 0.78307  0.47723  0.04380  Biso   1.000  H
  H426     1.0000 0.78305  0.47723  0.04372  Biso   1.000  H
  H427     1.0000 0.78305  0.47723  0.04380  Biso   1.000  H
  C512     1.0000 0.84196  0.48199  0.96414  Biso   1.000  C
  C513     1.0000 0.85805  0.47475  0.87951  Biso   1.000  C
  C514     1.0000 0.85805  0.47475  0.87959  Biso   1.000  C
  C515     1.0000 0.85816  0.51662  0.00955  Biso   1.000  C
  C516     1.0000 0.85814  0.51662  0.00955  Biso   1.000  C
  C517     1.0000 0.84188  0.43718  0.83756  Biso   1.000  C
  C518     1.0000 0.89152  0.50198  0.83964  Biso   1.000  C
  C519     1.0000 0.89149  0.50198  0.83964  Biso   1.000  C
  C520     1.0000 0.89052  0.54232  0.97377  Biso   1.000  C
  C521     1.0000 0.89049  0.54232  0.97377  Biso   1.000  C
  H428     1.0000 0.84654  0.52175  0.06377  Biso   1.000  H
  H429     1.0000 0.84656  0.52175  0.06377  Biso   1.000  H
  O72      1.0000 0.86156  0.42235  0.88553  Biso   1.000  O
  H430     1.0000 0.81677  0.42334  0.85705  Biso   1.000  H
  H431     1.0000 0.84376  0.43723  0.75991  Biso   1.000  H
  H432     1.0000 0.84376  0.43723  0.75999  Biso   1.000  H
  H433     1.0000 0.81675  0.42334  0.85705  Biso   1.000  H
  C522     1.0000 0.90913  0.49546  0.75413  Biso   1.000  C
  C523     1.0000 0.90901  0.53655  0.88882  Biso   1.000  C
  C524     1.0000 0.90901  0.53655  0.88890  Biso   1.000  C
  H434     1.0000 0.90108  0.56474  0.00602  Biso   1.000  H
  H435     1.0000 0.90108  0.56474  0.00610  Biso   1.000  H
  H436     1.0000 0.90105  0.56474  0.00602  Biso   1.000  H
  H437     1.0000 0.90105  0.56474  0.00610  Biso   1.000  H
  C525     1.0000 0.85002  0.38682  0.84879  Biso   1.000  C
  C526     1.0000 0.85002  0.38682  0.84887  Biso   1.000  C
  C527     1.0000 0.85000  0.38682  0.84879  Biso   1.000  C
  C528     1.0000 0.85000  0.38682  0.84887  Biso   1.000  C
  C529     1.0000 0.94175  0.52095  0.71819  Biso   1.000  C
  H438     1.0000 0.89807  0.47315  0.72156  Biso   1.000  H
  C530     1.0000 0.94175  0.52095  0.71827  Biso   1.000  C
  C531     1.0000 0.94356  0.56260  0.85336  Biso   1.000  C
  C532     1.0000 0.87336  0.37463  0.90221  Biso   1.000  C
  H439     1.0000 0.85236  0.38663  0.77146  Biso   1.000  H
  H440     1.0000 0.82518  0.37105  0.86772  Biso   1.000  H
  C533     1.0000 0.87336  0.37463  0.90229  Biso   1.000  C
  H441     1.0000 0.82518  0.37105  0.86780  Biso   1.000  H
  H442     1.0000 0.82515  0.37105  0.86772  Biso   1.000  H
  H443     1.0000 0.82515  0.37105  0.86780  Biso   1.000  H
  C534     1.0000 0.95928  0.55480  0.76873  Biso   1.000  C
  H444     1.0000 0.95246  0.51614  0.66084  Biso   1.000  H
  C535     1.0000 0.96576  0.59710  0.91296  Biso   1.000  C
  C536     1.0000 0.86022  0.35066  0.98644  Biso   1.000  C
  C537     1.0000 0.90892  0.38823  0.86780  Biso   1.000  C
  C538     1.0000 0.90892  0.38823  0.86788  Biso   1.000  C
  C539     1.0000 0.90895  0.38823  0.86780  Biso   1.000  C
  C540     1.0000 0.90895  0.38823  0.86788  Biso   1.000  C
  O73      1.0000 0.99264  0.58098  0.73841  Biso   1.000  O
  O74      1.0000 0.99264  0.58098  0.73849  Biso   1.000  O
  O75      1.0000 0.99262  0.58098  0.73841  Biso   1.000  O
  O76      1.0000 0.99262  0.58098  0.73849  Biso   1.000  O
  O77      1.0000 0.98914  0.59098  0.98051  Biso   1.000  O
  H445     1.0000 0.97946  0.61655  0.86323  Biso   1.000  H
  H446     1.0000 0.95065  0.60303  0.95564  Biso   1.000  H
  O78      1.0000 0.82577  0.33891  0.01628  Biso   1.000  O
  C541     1.0000 0.88238  0.33982  0.03730  Biso   1.000  C
  O79      1.0000 0.82577  0.33891  0.01636  Biso   1.000  O
  C542     1.0000 0.88238  0.33982  0.03738  Biso   1.000  C
  C543     1.0000 0.88240  0.33982  0.03730  Biso   1.000  C
  C544     1.0000 0.88240  0.33982  0.03738  Biso   1.000  C
  C545     1.0000 0.92370  0.41297  0.78133  Biso   1.000  C
  C546     1.0000 0.93167  0.37736  0.91882  Biso   1.000  C
  C547     1.0000 0.93167  0.37736  0.91890  Biso   1.000  C
  C548     1.0000 0.00879  0.57631  0.64479  Biso   1.000  C
  C549     1.0000 0.00879  0.57631  0.64487  Biso   1.000  C
  C550     1.0000 0.00714  0.61767  0.06040  Biso   1.000  C
  C551     1.0000 0.00714  0.61767  0.06048  Biso   1.000  C
  C552     1.0000 0.81127  0.31510  0.10637  Biso   1.000  C
  C553     1.0000 0.81125  0.31510  0.10637  Biso   1.000  C
  C554     1.0000 0.91678  0.35291  0.00562  Biso   1.000  C
  H447     1.0000 0.87338  0.32344  0.09345  Biso   1.000  H
  C555     1.0000 0.91678  0.35291  0.00570  Biso   1.000  C
  C556     1.0000 0.91676  0.35291  0.00562  Biso   1.000  C
  H448     1.0000 0.87336  0.32344  0.09345  Biso   1.000  H
  C557     1.0000 0.91676  0.35291  0.00570  Biso   1.000  C
  H449     1.0000 0.90957  0.42053  0.74683  Biso   1.000  H
  C558     1.0000 0.95785  0.42583  0.74771  Biso   1.000  C
  C559     1.0000 0.95785  0.42583  0.74779  Biso   1.000  C
  H450     1.0000 0.90955  0.42053  0.74683  Biso   1.000  H
  C560     1.0000 0.95782  0.42583  0.74771  Biso   1.000  C
  C561     1.0000 0.95782  0.42583  0.74779  Biso   1.000  C
  C562     1.0000 0.96752  0.39117  0.88304  Biso   1.000  C
  H451     1.0000 0.99146  0.56613  0.58720  Biso   1.000  H
  H452     1.0000 0.99146  0.56613  0.58728  Biso   1.000  H
  H453     1.0000 0.01807  0.56044  0.65971  Biso   1.000  H
  C563     1.0000 0.03863  0.61275  0.61391  Biso   1.000  C
  C564     1.0000 0.03863  0.61275  0.61399  Biso   1.000  C
  H454     1.0000 0.99008  0.61775  0.11086  Biso   1.000  H
  H455     1.0000 0.99006  0.61775  0.11086  Biso   1.000  H
  H456     1.0000 0.02017  0.64113  0.02751  Biso   1.000  H
  C565     1.0000 0.03245  0.60883  0.11696  Biso   1.000  C
  H457     1.0000 0.02017  0.64113  0.02760  Biso   1.000  H
  C566     1.0000 0.03245  0.60883  0.11704  Biso   1.000  C
  H458     1.0000 0.82594  0.32573  0.16942  Biso   1.000  H
  H459     1.0000 0.81057  0.29274  0.09113  Biso   1.000  H
  C567     1.0000 0.77447  0.30879  0.12490  Biso   1.000  C
  H460     1.0000 0.82594  0.32573  0.16950  Biso   1.000  H
  H461     1.0000 0.81057  0.29274  0.09121  Biso   1.000  H
  C568     1.0000 0.77447  0.30879  0.12498  Biso   1.000  C
  H462     1.0000 0.82596  0.32573  0.16942  Biso   1.000  H
  H463     1.0000 0.81055  0.29274  0.09113  Biso   1.000  H
  C569     1.0000 0.77445  0.30879  0.12490  Biso   1.000  C
  H464     1.0000 0.82596  0.32573  0.16950  Biso   1.000  H
  H465     1.0000 0.81055  0.29274  0.09121  Biso   1.000  H
  C570     1.0000 0.77445  0.30879  0.12498  Biso   1.000  C
  H466     1.0000 0.93095  0.34575  0.04171  Biso   1.000  H
  H467     1.0000 0.93095  0.34575  0.04179  Biso   1.000  H
  H468     1.0000 0.96666  0.44183  0.69076  Biso   1.000  H
  C571     1.0000 0.97996  0.41503  0.79913  Biso   1.000  C
  C572     1.0000 0.99283  0.38233  0.93960  Biso   1.000  C
  C573     1.0000 0.99286  0.38233  0.93960  Biso   1.000  C
  H469     1.0000 0.05126  0.61024  0.55335  Biso   1.000  H
  H470     1.0000 0.05537  0.62245  0.67319  Biso   1.000  H
  C574     1.0000 0.02693  0.63915  0.58471  Biso   1.000  C
  H471     1.0000 0.05537  0.62245  0.67327  Biso   1.000  H
  C575     1.0000 0.02693  0.63915  0.58479  Biso   1.000  C
  H472     1.0000 0.05128  0.61024  0.55335  Biso   1.000  H
  H473     1.0000 0.05539  0.62245  0.67319  Biso   1.000  H
  C576     1.0000 0.02691  0.63915  0.58471  Biso   1.000  C
  H474     1.0000 0.05539  0.62245  0.67327  Biso   1.000  H
  C577     1.0000 0.02691  0.63915  0.58479  Biso   1.000  C
  C578     1.0000 0.02001  0.58497  0.20087  Biso   1.000  C
  C579     1.0000 0.06832  0.62267  0.08118  Biso   1.000  C
  C580     1.0000 0.06830  0.62267  0.08118  Biso   1.000  C
  H475     1.0000 0.76076  0.29923  0.05952  Biso   1.000  H
  H476     1.0000 0.76327  0.29073  0.18017  Biso   1.000  H
  C581     1.0000 0.77239  0.34086  0.15755  Biso   1.000  C
  H477     1.0000 0.76076  0.29923  0.05960  Biso   1.000  H
  H478     1.0000 0.76324  0.29073  0.18017  Biso   1.000  H
  C582     1.0000 0.77241  0.34086  0.15755  Biso   1.000  C
  O80      1.0000 0.01452  0.42732  0.76721  Biso   1.000  O
  O81      1.0000 0.01452  0.42732  0.76729  Biso   1.000  O
  H479     1.0000 0.97981  0.35887  0.97249  Biso   1.000  H
  H480     1.0000 0.00993  0.38227  0.88914  Biso   1.000  H
  H481     1.0000 0.00993  0.38227  0.88922  Biso   1.000  H
  H482     1.0000 0.00995  0.38227  0.88914  Biso   1.000  H
  H483     1.0000 0.00995  0.38227  0.88922  Biso   1.000  H
  O82      1.0000 0.01083  0.40902  0.01949  Biso   1.000  O
  O83      1.0000 0.01083  0.40902  0.01957  Biso   1.000  O
  H484     1.0000 0.01677  0.64364  0.64824  Biso   1.000  H
  H485     1.0000 0.04797  0.66144  0.56530  Biso   1.000  H
  C583     1.0000 0.00022  0.62881  0.49503  Biso   1.000  C
  H486     1.0000 0.04797  0.66144  0.56538  Biso   1.000  H
  H487     1.0000 0.01675  0.64364  0.64824  Biso   1.000  H
  O84      1.0000 0.98547  0.57270  0.23279  Biso   1.000  O
  C584     1.0000 0.04215  0.57417  0.25229  Biso   1.000  C
  C585     1.0000 0.08323  0.64711  0.99438  Biso   1.000  C
  C586     1.0000 0.09103  0.61176  0.13220  Biso   1.000  C
  C587     1.0000 0.09105  0.61176  0.13220  Biso   1.000  C
  H488     1.0000 0.78614  0.36004  0.10717  Biso   1.000  H
  H489     1.0000 0.74778  0.33525  0.15338  Biso   1.000  H
  C588     1.0000 0.78557  0.35315  0.26376  Biso   1.000  C
  H490     1.0000 0.78617  0.36004  0.10717  Biso   1.000  H
  H491     1.0000 0.74776  0.33525  0.15338  Biso   1.000  H
  C589     1.0000 0.02950  0.45492  0.68819  Biso   1.000  C
  C590     1.0000 0.02950  0.45492  0.68827  Biso   1.000  C
  C591     1.0000 0.03426  0.40293  0.08704  Biso   1.000  C
  C592     1.0000 0.03426  0.40293  0.08712  Biso   1.000  C
  C593     1.0000 0.03423  0.40293  0.08704  Biso   1.000  C
  C594     1.0000 0.03423  0.40293  0.08712  Biso   1.000  C
  H492     1.0000 0.99456  0.64743  0.48428  Biso   1.000  H
  H493     1.0000 0.97886  0.60693  0.51324  Biso   1.000  H
  H494     1.0000 0.99456  0.64743  0.48436  Biso   1.000  H
  H495     1.0000 0.97884  0.60693  0.51324  Biso   1.000  H
  H496     1.0000 0.01017  0.62544  0.43021  Biso   1.000  H
  H497     1.0000 0.01015  0.62544  0.43021  Biso   1.000  H
  C595     1.0000 0.97047  0.54507  0.31181  Biso   1.000  C
  C596     1.0000 0.97050  0.54507  0.31181  Biso   1.000  C
  C597     1.0000 0.07631  0.58705  0.21867  Biso   1.000  C
  H498     1.0000 0.03334  0.55817  0.30924  Biso   1.000  H
  H499     1.0000 0.03334  0.55817  0.30932  Biso   1.000  H
  C598     1.0000 0.07629  0.58705  0.21867  Biso   1.000  C
  H500     1.0000 0.03332  0.55817  0.30924  Biso   1.000  H
  H501     1.0000 0.03332  0.55817  0.30932  Biso   1.000  H
  H502     1.0000 0.06904  0.65428  0.95829  Biso   1.000  H
  C599     1.0000 0.11759  0.66021  0.96270  Biso   1.000  C
  H503     1.0000 0.06901  0.65428  0.95829  Biso   1.000  H
  C600     1.0000 0.11761  0.66021  0.96270  Biso   1.000  C
  C601     1.0000 0.12663  0.62539  0.09779  Biso   1.000  C
  C602     1.0000 0.12665  0.62539  0.09779  Biso   1.000  C
  H504     1.0000 0.78346  0.37375  0.27988  Biso   1.000  H
  H505     1.0000 0.81007  0.35935  0.26801  Biso   1.000  H
  H506     1.0000 0.77177  0.33453  0.31438  Biso   1.000  H
  H507     1.0000 0.81007  0.35935  0.26809  Biso   1.000  H
  H508     1.0000 0.77174  0.33453  0.31438  Biso   1.000  H
  C603     1.0000 0.06520  0.45607  0.64544  Biso   1.000  C
  C604     1.0000 0.05643  0.43742  0.14664  Biso   1.000  C
  H509     1.0000 0.02053  0.38348  0.13677  Biso   1.000  H
  H510     1.0000 0.04933  0.39697  0.04436  Biso   1.000  H
  C605     1.0000 0.05643  0.43742  0.14672  Biso   1.000  C
  C606     1.0000 0.05645  0.43742  0.14664  Biso   1.000  C
  C607     1.0000 0.05645  0.43742  0.14672  Biso   1.000  C
  C608     1.0000 0.93481  0.54395  0.35456  Biso   1.000  C
  C609     1.0000 0.93481  0.54395  0.35464  Biso   1.000  C
  H511     1.0000 0.09043  0.57946  0.25317  Biso   1.000  H
  H512     1.0000 0.09040  0.57946  0.25317  Biso   1.000  H
  H513     1.0000 0.12663  0.67659  0.90655  Biso   1.000  H
  H514     1.0000 0.12663  0.67659  0.90663  Biso   1.000  H
  H515     1.0000 0.12666  0.67659  0.90655  Biso   1.000  H
  H516     1.0000 0.12666  0.67659  0.90663  Biso   1.000  H
  C610     1.0000 0.13979  0.64936  0.01356  Biso   1.000  C
  C611     1.0000 0.13979  0.64936  0.01364  Biso   1.000  C
  C612     1.0000 0.14998  0.61318  0.15121  Biso   1.000  C
  C613     1.0000 0.08339  0.47427  0.73263  Biso   1.000  C
  C614     1.0000 0.08766  0.45615  0.65971  Biso   1.000  C
  C615     1.0000 0.04071  0.44522  0.23127  Biso   1.000  C
  C616     1.0000 0.09098  0.46347  0.11118  Biso   1.000  C
  C617     1.0000 0.04073  0.44522  0.23127  Biso   1.000  C
  C618     1.0000 0.91658  0.52573  0.26737  Biso   1.000  C
  C619     1.0000 0.91233  0.54387  0.34029  Biso   1.000  C
  O85      1.0000 0.17425  0.66112  0.98372  Biso   1.000  O
  O86      1.0000 0.13842  0.57767  0.11447  Biso   1.000  O
  H517     1.0000 0.14762  0.61337  0.22854  Biso   1.000  H
  H518     1.0000 0.17483  0.62897  0.13228  Biso   1.000  H
  O87      1.0000 0.13842  0.57767  0.11455  Biso   1.000  O
  H519     1.0000 0.14762  0.61337  0.22862  Biso   1.000  H
  H520     1.0000 0.14764  0.61337  0.22854  Biso   1.000  H
  H521     1.0000 0.17481  0.62897  0.13228  Biso   1.000  H
  H522     1.0000 0.14764  0.61337  0.22862  Biso   1.000  H
  C620     1.0000 0.12586  0.47285  0.69052  Biso   1.000  C
  O88      1.0000 0.00737  0.41904  0.26159  Biso   1.000  O
  C621     1.0000 0.05823  0.47905  0.28181  Biso   1.000  C
  O89      1.0000 0.00735  0.41904  0.26159  Biso   1.000  O
  C622     1.0000 0.05825  0.47905  0.28181  Biso   1.000  C
  C623     1.0000 0.10949  0.45770  0.02623  Biso   1.000  C
  C624     1.0000 0.10849  0.49805  0.16036  Biso   1.000  C
  C625     1.0000 0.10949  0.45770  0.02631  Biso   1.000  C
  C626     1.0000 0.10849  0.49805  0.16044  Biso   1.000  C
  C627     1.0000 0.87413  0.52717  0.30948  Biso   1.000  C
  C628     1.0000 0.18873  0.68490  0.89363  Biso   1.000  C
  C629     1.0000 0.18873  0.68490  0.89371  Biso   1.000  C
  C630     1.0000 0.18870  0.68490  0.89363  Biso   1.000  C
  C631     1.0000 0.18870  0.68490  0.89371  Biso   1.000  C
  C632     1.0000 0.15812  0.56281  0.16244  Biso   1.000  C
  C633     1.0000 0.15812  0.56281  0.16252  Biso   1.000  C
  C634     1.0000 0.99119  0.42369  0.35521  Biso   1.000  C
  H523     1.0000 0.04753  0.48386  0.33916  Biso   1.000  H
  C635     1.0000 0.09085  0.50454  0.24587  Biso   1.000  C
  H524     1.0000 0.04753  0.48386  0.33924  Biso   1.000  H
  H525     1.0000 0.04751  0.48386  0.33916  Biso   1.000  H
  C636     1.0000 0.09087  0.50454  0.24587  Biso   1.000  C
  H526     1.0000 0.04751  0.48386  0.33924  Biso   1.000  H
  C637     1.0000 0.14184  0.48338  0.99045  Biso   1.000  C
  H527     1.0000 0.09893  0.43528  0.99398  Biso   1.000  H
  C638     1.0000 0.14184  0.48338  0.99053  Biso   1.000  C
  C639     1.0000 0.14186  0.48338  0.99045  Biso   1.000  C
  C640     1.0000 0.14186  0.48338  0.99053  Biso   1.000  C
  C641     1.0000 0.14196  0.52527  0.12049  Biso   1.000  C
  C642     1.0000 0.14194  0.52527  0.12049  Biso   1.000  C
  H528     1.0000 0.17402  0.67426  0.83058  Biso   1.000  H
  H529     1.0000 0.18944  0.70729  0.90887  Biso   1.000  H
  C643     1.0000 0.22552  0.69120  0.87510  Biso   1.000  C
  H530     1.0000 0.18942  0.70729  0.90887  Biso   1.000  H
  H531     1.0000 0.18324  0.57668  0.14295  Biso   1.000  H
  H532     1.0000 0.15622  0.56276  0.24009  Biso   1.000  H
  H533     1.0000 0.18324  0.57668  0.14303  Biso   1.000  H
  H534     1.0000 0.18321  0.57668  0.14295  Biso   1.000  H
  H535     1.0000 0.15624  0.56276  0.24009  Biso   1.000  H
  H536     1.0000 0.18321  0.57668  0.14303  Biso   1.000  H
  H537     1.0000 0.98191  0.43956  0.34029  Biso   1.000  H
  C644     1.0000 0.96136  0.38727  0.38609  Biso   1.000  C
  H538     1.0000 0.00854  0.43387  0.41280  Biso   1.000  H
  H539     1.0000 0.00852  0.43387  0.41280  Biso   1.000  H
  H540     1.0000 0.10195  0.52688  0.27844  Biso   1.000  H
  H541     1.0000 0.10195  0.52688  0.27852  Biso   1.000  H
  H542     1.0000 0.10192  0.52688  0.27844  Biso   1.000  H
  H543     1.0000 0.10192  0.52688  0.27852  Biso   1.000  H
  H544     1.0000 0.15343  0.47828  0.93623  Biso   1.000  H
  H545     1.0000 0.15343  0.47828  0.93631  Biso   1.000  H
  C645     1.0000 0.15802  0.51801  0.03586  Biso   1.000  C
  C646     1.0000 0.15802  0.51801  0.03594  Biso   1.000  C
  H546     1.0000 0.23922  0.70077  0.94048  Biso   1.000  H
  H547     1.0000 0.23673  0.70926  0.81983  Biso   1.000  H
  C647     1.0000 0.22758  0.65916  0.84245  Biso   1.000  C
  H548     1.0000 0.23673  0.70926  0.81991  Biso   1.000  H
  C648     1.0000 0.22758  0.65916  0.84253  Biso   1.000  C
  C649     1.0000 0.22760  0.65916  0.84245  Biso   1.000  C
  C650     1.0000 0.22760  0.65916  0.84253  Biso   1.000  C
  H549     1.0000 0.94871  0.38978  0.44665  Biso   1.000  H
  H550     1.0000 0.94464  0.37757  0.32681  Biso   1.000  H
  C651     1.0000 0.97308  0.36087  0.41529  Biso   1.000  C
  H551     1.0000 0.94871  0.38978  0.44674  Biso   1.000  H
  H552     1.0000 0.94873  0.38978  0.44665  Biso   1.000  H
  H553     1.0000 0.94462  0.37757  0.32681  Biso   1.000  H
  C652     1.0000 0.97306  0.36087  0.41529  Biso   1.000  C
  H554     1.0000 0.94873  0.38978  0.44674  Biso   1.000  H
  O90      1.0000 0.18887  0.54598  0.99607  Biso   1.000  O
  H555     1.0000 0.21384  0.63998  0.89283  Biso   1.000  H
  H556     1.0000 0.25223  0.66478  0.84662  Biso   1.000  H
  C653     1.0000 0.21442  0.64687  0.73624  Biso   1.000  C
  H557     1.0000 0.21384  0.63998  0.89291  Biso   1.000  H
  H558     1.0000 0.25223  0.66478  0.84670  Biso   1.000  H
  C654     1.0000 0.21442  0.64687  0.73632  Biso   1.000  C
  H559     1.0000 0.25225  0.66478  0.84662  Biso   1.000  H
  H560     1.0000 0.25225  0.66478  0.84670  Biso   1.000  H
  H561     1.0000 0.98322  0.35638  0.35176  Biso   1.000  H
  H562     1.0000 0.95202  0.33856  0.43470  Biso   1.000  H
  C655     1.0000 0.99979  0.37121  0.50497  Biso   1.000  C
  H563     1.0000 0.98322  0.35638  0.35184  Biso   1.000  H
  C656     1.0000 0.99979  0.37121  0.50505  Biso   1.000  C
  C657     1.0000 0.99977  0.37121  0.50497  Biso   1.000  C
  C658     1.0000 0.99977  0.37121  0.50505  Biso   1.000  C
  C659     1.0000 0.21101  0.53968  0.92468  Biso   1.000  C
  C660     1.0000 0.21099  0.53968  0.92468  Biso   1.000  C
  H564     1.0000 0.21652  0.62627  0.72012  Biso   1.000  H
  H565     1.0000 0.18994  0.64067  0.73199  Biso   1.000  H
  H566     1.0000 0.22823  0.66547  0.68562  Biso   1.000  H
  H567     1.0000 0.21652  0.62627  0.72020  Biso   1.000  H
  H568     1.0000 0.22823  0.66547  0.68571  Biso   1.000  H
  H569     1.0000 0.22821  0.66547  0.68562  Biso   1.000  H
  H570     1.0000 0.22821  0.66547  0.68571  Biso   1.000  H
  H571     1.0000 0.98982  0.37458  0.56979  Biso   1.000  H
  H572     1.0000 0.00542  0.35256  0.51572  Biso   1.000  H
  H573     1.0000 0.02114  0.39307  0.48676  Biso   1.000  H
  H574     1.0000 0.02114  0.39307  0.48684  Biso   1.000  H
  H575     1.0000 0.21693  0.52276  0.95628  Biso   1.000  H
  H576     1.0000 0.19864  0.52987  0.85745  Biso   1.000  H
  C661     1.0000 0.24439  0.57487  0.90558  Biso   1.000  C
  H577     1.0000 0.19864  0.52987  0.85753  Biso   1.000  H
  C662     1.0000 0.26352  0.60028  0.99358  Biso   1.000  C
  C663     1.0000 0.26493  0.58138  0.02126  Biso   1.000  C
  C664     1.0000 0.29762  0.62117  0.00505  Biso   1.000  C
  C665     1.0000 0.29762  0.62117  0.00513  Biso   1.000  C
  C666     1.0000 0.27524  0.58617  0.07765  Biso   1.000  C
  C667     1.0000 0.70235  0.37883  0.99495  Biso   1.000  C
  C668     1.0000 0.73506  0.41864  0.97874  Biso   1.000  C
  C669     1.0000 0.72476  0.41383  0.92235  Biso   1.000  C
  C670     1.0000 0.73646  0.39975  0.00642  Biso   1.000  C
  C671     1.0000 0.73646  0.39975  0.00650  Biso   1.000  C
  C672     1.0000 0.75562  0.42516  0.09442  Biso   1.000  C
  C673     1.0000 0.75562  0.42516  0.09450  Biso   1.000  C
  C674     1.0000 0.75560  0.42516  0.09442  Biso   1.000  C
  C675     1.0000 0.75560  0.42516  0.09450  Biso   1.000  C
  C676     1.0000 0.78900  0.46035  0.07532  Biso   1.000  C
  C677     1.0000 0.78900  0.46035  0.07541  Biso   1.000  C
  C678     1.0000 0.78898  0.46035  0.07532  Biso   1.000  C
  C679     1.0000 0.78898  0.46035  0.07541  Biso   1.000  C
  O91      1.0000 0.81112  0.45401  0.00393  Biso   1.000  O
  H578     1.0000 0.78307  0.47723  0.04372  Biso   1.000  H
  H579     1.0000 0.80136  0.47013  0.14255  Biso   1.000  H
  H580     1.0000 0.78307  0.47723  0.04380  Biso   1.000  H
  H581     1.0000 0.78305  0.47723  0.04372  Biso   1.000  H
  H582     1.0000 0.78305  0.47723  0.04380  Biso   1.000  H
  C680     1.0000 0.84196  0.48199  0.96414  Biso   1.000  C
  C681     1.0000 0.85805  0.47475  0.87951  Biso   1.000  C
  C682     1.0000 0.85805  0.47475  0.87959  Biso   1.000  C
  C683     1.0000 0.85816  0.51662  0.00955  Biso   1.000  C
  C684     1.0000 0.85814  0.51662  0.00955  Biso   1.000  C
  C685     1.0000 0.84188  0.43718  0.83756  Biso   1.000  C
  C686     1.0000 0.89152  0.50198  0.83964  Biso   1.000  C
  C687     1.0000 0.89149  0.50198  0.83964  Biso   1.000  C
  C688     1.0000 0.89052  0.54232  0.97377  Biso   1.000  C
  C689     1.0000 0.89049  0.54232  0.97377  Biso   1.000  C
  H583     1.0000 0.84654  0.52175  0.06377  Biso   1.000  H
  H584     1.0000 0.84656  0.52175  0.06377  Biso   1.000  H
  O92      1.0000 0.86156  0.42235  0.88553  Biso   1.000  O
  H585     1.0000 0.81677  0.42334  0.85705  Biso   1.000  H
  H586     1.0000 0.84376  0.43723  0.75991  Biso   1.000  H
  H587     1.0000 0.81675  0.42334  0.85705  Biso   1.000  H
  H588     1.0000 0.84376  0.43723  0.75999  Biso   1.000  H
  C690     1.0000 0.90913  0.49546  0.75413  Biso   1.000  C
  C691     1.0000 0.90901  0.53655  0.88882  Biso   1.000  C
  C692     1.0000 0.90901  0.53655  0.88890  Biso   1.000  C
  H589     1.0000 0.90108  0.56474  0.00602  Biso   1.000  H
  H590     1.0000 0.90108  0.56474  0.00610  Biso   1.000  H
  H591     1.0000 0.90105  0.56474  0.00602  Biso   1.000  H
  H592     1.0000 0.90105  0.56474  0.00610  Biso   1.000  H
  C693     1.0000 0.85002  0.38682  0.84879  Biso   1.000  C
  C694     1.0000 0.85002  0.38682  0.84887  Biso   1.000  C
  C695     1.0000 0.85000  0.38682  0.84879  Biso   1.000  C
  C696     1.0000 0.85000  0.38682  0.84887  Biso   1.000  C
  H593     1.0000 0.89807  0.47315  0.72156  Biso   1.000  H
  C697     1.0000 0.94175  0.52095  0.71819  Biso   1.000  C
  C698     1.0000 0.94175  0.52095  0.71827  Biso   1.000  C
  C699     1.0000 0.94356  0.56260  0.85336  Biso   1.000  C
  H594     1.0000 0.85236  0.38663  0.77146  Biso   1.000  H
  C700     1.0000 0.87336  0.37463  0.90221  Biso   1.000  C
  C701     1.0000 0.87336  0.37463  0.90229  Biso   1.000  C
  H595     1.0000 0.82518  0.37105  0.86772  Biso   1.000  H
  H596     1.0000 0.82518  0.37105  0.86780  Biso   1.000  H
  H597     1.0000 0.82515  0.37105  0.86772  Biso   1.000  H
  H598     1.0000 0.82515  0.37105  0.86780  Biso   1.000  H
  C702     1.0000 0.95928  0.55480  0.76873  Biso   1.000  C
  H599     1.0000 0.95246  0.51614  0.66084  Biso   1.000  H
  C703     1.0000 0.96576  0.59710  0.91296  Biso   1.000  C
  C704     1.0000 0.86022  0.35066  0.98644  Biso   1.000  C
  C705     1.0000 0.90892  0.38823  0.86780  Biso   1.000  C
  C706     1.0000 0.90892  0.38823  0.86788  Biso   1.000  C
  C707     1.0000 0.90895  0.38823  0.86780  Biso   1.000  C
  C708     1.0000 0.90895  0.38823  0.86788  Biso   1.000  C
  O93      1.0000 0.99264  0.58098  0.73841  Biso   1.000  O
  O94      1.0000 0.99264  0.58098  0.73849  Biso   1.000  O
  O95      1.0000 0.99262  0.58098  0.73841  Biso   1.000  O
  O96      1.0000 0.99262  0.58098  0.73849  Biso   1.000  O
  O97      1.0000 0.98914  0.59098  0.98051  Biso   1.000  O
  H600     1.0000 0.97946  0.61655  0.86323  Biso   1.000  H
  H601     1.0000 0.95065  0.60303  0.95564  Biso   1.000  H
  O98      1.0000 0.82577  0.33891  0.01628  Biso   1.000  O
  C709     1.0000 0.88238  0.33982  0.03730  Biso   1.000  C
  O99      1.0000 0.82577  0.33891  0.01636  Biso   1.000  O
  C710     1.0000 0.88238  0.33982  0.03738  Biso   1.000  C
  C711     1.0000 0.88240  0.33982  0.03730  Biso   1.000  C
  C712     1.0000 0.88240  0.33982  0.03738  Biso   1.000  C
  C713     1.0000 0.92370  0.41297  0.78133  Biso   1.000  C
  C714     1.0000 0.93167  0.37736  0.91882  Biso   1.000  C
  C715     1.0000 0.93167  0.37736  0.91890  Biso   1.000  C
  C716     1.0000 0.00879  0.57631  0.64479  Biso   1.000  C
  C717     1.0000 0.00879  0.57631  0.64487  Biso   1.000  C
  C718     1.0000 0.00714  0.61767  0.06040  Biso   1.000  C
  C719     1.0000 0.00714  0.61767  0.06048  Biso   1.000  C
  C720     1.0000 0.81127  0.31510  0.10637  Biso   1.000  C
  C721     1.0000 0.81125  0.31510  0.10637  Biso   1.000  C
  C722     1.0000 0.91678  0.35291  0.00562  Biso   1.000  C
  H602     1.0000 0.87338  0.32344  0.09345  Biso   1.000  H
  C723     1.0000 0.91678  0.35291  0.00570  Biso   1.000  C
  C724     1.0000 0.91676  0.35291  0.00562  Biso   1.000  C
  H603     1.0000 0.87336  0.32344  0.09345  Biso   1.000  H
  C725     1.0000 0.91676  0.35291  0.00570  Biso   1.000  C
  H604     1.0000 0.90957  0.42053  0.74683  Biso   1.000  H
  H605     1.0000 0.90955  0.42053  0.74683  Biso   1.000  H
  C726     1.0000 0.95785  0.42583  0.74771  Biso   1.000  C
  C727     1.0000 0.95785  0.42583  0.74779  Biso   1.000  C
  C728     1.0000 0.95782  0.42583  0.74771  Biso   1.000  C
  C729     1.0000 0.95782  0.42583  0.74779  Biso   1.000  C
  C730     1.0000 0.96752  0.39117  0.88304  Biso   1.000  C
  H606     1.0000 0.99146  0.56613  0.58720  Biso   1.000  H
  H607     1.0000 0.99146  0.56613  0.58728  Biso   1.000  H
  H608     1.0000 0.01807  0.56044  0.65971  Biso   1.000  H
  C731     1.0000 0.03863  0.61275  0.61391  Biso   1.000  C
  C732     1.0000 0.03863  0.61275  0.61399  Biso   1.000  C
  H609     1.0000 0.99008  0.61775  0.11086  Biso   1.000  H
  H610     1.0000 0.99006  0.61775  0.11086  Biso   1.000  H
  H611     1.0000 0.02017  0.64113  0.02751  Biso   1.000  H
  C733     1.0000 0.03245  0.60883  0.11696  Biso   1.000  C
  H612     1.0000 0.02017  0.64113  0.02760  Biso   1.000  H
  C734     1.0000 0.03245  0.60883  0.11704  Biso   1.000  C
  H613     1.0000 0.82594  0.32573  0.16942  Biso   1.000  H
  H614     1.0000 0.81057  0.29274  0.09113  Biso   1.000  H
  C735     1.0000 0.77447  0.30879  0.12490  Biso   1.000  C
  H615     1.0000 0.82594  0.32573  0.16950  Biso   1.000  H
  H616     1.0000 0.81057  0.29274  0.09121  Biso   1.000  H
  C736     1.0000 0.77447  0.30879  0.12498  Biso   1.000  C
  H617     1.0000 0.82596  0.32573  0.16942  Biso   1.000  H
  H618     1.0000 0.81055  0.29274  0.09113  Biso   1.000  H
  C737     1.0000 0.77445  0.30879  0.12490  Biso   1.000  C
  H619     1.0000 0.82596  0.32573  0.16950  Biso   1.000  H
  H620     1.0000 0.81055  0.29274  0.09121  Biso   1.000  H
  C738     1.0000 0.77445  0.30879  0.12498  Biso   1.000  C
  H621     1.0000 0.93095  0.34575  0.04171  Biso   1.000  H
  H622     1.0000 0.93095  0.34575  0.04179  Biso   1.000  H
  H623     1.0000 0.96666  0.44183  0.69076  Biso   1.000  H
  C739     1.0000 0.97996  0.41503  0.79913  Biso   1.000  C
  C740     1.0000 0.99283  0.38233  0.93960  Biso   1.000  C
  C741     1.0000 0.99286  0.38233  0.93960  Biso   1.000  C
  H624     1.0000 0.05126  0.61024  0.55335  Biso   1.000  H
  H625     1.0000 0.05537  0.62245  0.67319  Biso   1.000  H
  C742     1.0000 0.02693  0.63915  0.58471  Biso   1.000  C
  H626     1.0000 0.05537  0.62245  0.67327  Biso   1.000  H
  C743     1.0000 0.02693  0.63915  0.58479  Biso   1.000  C
  H627     1.0000 0.05128  0.61024  0.55335  Biso   1.000  H
  H628     1.0000 0.05539  0.62245  0.67319  Biso   1.000  H
  C744     1.0000 0.02691  0.63915  0.58471  Biso   1.000  C
  H629     1.0000 0.05539  0.62245  0.67327  Biso   1.000  H
  C745     1.0000 0.02691  0.63915  0.58479  Biso   1.000  C
  C746     1.0000 0.02001  0.58497  0.20087  Biso   1.000  C
  C747     1.0000 0.06832  0.62267  0.08118  Biso   1.000  C
  C748     1.0000 0.06830  0.62267  0.08118  Biso   1.000  C
  H630     1.0000 0.76076  0.29923  0.05952  Biso   1.000  H
  H631     1.0000 0.76327  0.29073  0.18017  Biso   1.000  H
  C749     1.0000 0.77239  0.34086  0.15755  Biso   1.000  C
  H632     1.0000 0.76076  0.29923  0.05960  Biso   1.000  H
  H633     1.0000 0.76324  0.29073  0.18017  Biso   1.000  H
  C750     1.0000 0.77241  0.34086  0.15755  Biso   1.000  C
  O100     1.0000 0.01452  0.42732  0.76721  Biso   1.000  O
  O101     1.0000 0.01452  0.42732  0.76729  Biso   1.000  O
  H634     1.0000 0.97981  0.35887  0.97249  Biso   1.000  H
  H635     1.0000 0.00993  0.38227  0.88914  Biso   1.000  H
  H636     1.0000 0.00993  0.38227  0.88922  Biso   1.000  H
  H637     1.0000 0.00995  0.38227  0.88914  Biso   1.000  H
  H638     1.0000 0.00995  0.38227  0.88922  Biso   1.000  H
  O102     1.0000 0.01083  0.40902  0.01949  Biso   1.000  O
  O103     1.0000 0.01083  0.40902  0.01957  Biso   1.000  O
  H639     1.0000 0.01677  0.64364  0.64824  Biso   1.000  H
  H640     1.0000 0.04797  0.66144  0.56530  Biso   1.000  H
  C751     1.0000 0.00022  0.62881  0.49503  Biso   1.000  C
  H641     1.0000 0.04797  0.66144  0.56538  Biso   1.000  H
  H642     1.0000 0.01675  0.64364  0.64824  Biso   1.000  H
  O104     1.0000 0.98547  0.57270  0.23279  Biso   1.000  O
  C752     1.0000 0.04215  0.57417  0.25229  Biso   1.000  C
  C753     1.0000 0.08323  0.64711  0.99438  Biso   1.000  C
  C754     1.0000 0.09103  0.61176  0.13220  Biso   1.000  C
  C755     1.0000 0.09105  0.61176  0.13220  Biso   1.000  C
  H643     1.0000 0.78614  0.36004  0.10717  Biso   1.000  H
  H644     1.0000 0.74778  0.33525  0.15338  Biso   1.000  H
  C756     1.0000 0.78557  0.35315  0.26376  Biso   1.000  C
  H645     1.0000 0.78617  0.36004  0.10717  Biso   1.000  H
  H646     1.0000 0.74776  0.33525  0.15338  Biso   1.000  H
  C757     1.0000 0.02950  0.45492  0.68819  Biso   1.000  C
  C758     1.0000 0.02950  0.45492  0.68827  Biso   1.000  C
  C759     1.0000 0.03426  0.40293  0.08704  Biso   1.000  C
  C760     1.0000 0.03426  0.40293  0.08712  Biso   1.000  C
  C761     1.0000 0.03423  0.40293  0.08704  Biso   1.000  C
  C762     1.0000 0.03423  0.40293  0.08712  Biso   1.000  C
  H647     1.0000 0.97886  0.60693  0.51324  Biso   1.000  H
  H648     1.0000 0.99456  0.64743  0.48428  Biso   1.000  H
  H649     1.0000 0.99456  0.64743  0.48436  Biso   1.000  H
  H650     1.0000 0.97884  0.60693  0.51324  Biso   1.000  H
  H651     1.0000 0.01017  0.62544  0.43021  Biso   1.000  H
  H652     1.0000 0.01015  0.62544  0.43021  Biso   1.000  H
  C763     1.0000 0.97047  0.54507  0.31181  Biso   1.000  C
  C764     1.0000 0.97050  0.54507  0.31181  Biso   1.000  C
  C765     1.0000 0.07631  0.58705  0.21867  Biso   1.000  C
  H653     1.0000 0.03334  0.55817  0.30924  Biso   1.000  H
  H654     1.0000 0.03334  0.55817  0.30932  Biso   1.000  H
  C766     1.0000 0.07629  0.58705  0.21867  Biso   1.000  C
  H655     1.0000 0.03332  0.55817  0.30924  Biso   1.000  H
  H656     1.0000 0.03332  0.55817  0.30932  Biso   1.000  H
  H657     1.0000 0.06904  0.65428  0.95829  Biso   1.000  H
  C767     1.0000 0.11759  0.66021  0.96270  Biso   1.000  C
  H658     1.0000 0.06901  0.65428  0.95829  Biso   1.000  H
  C768     1.0000 0.11761  0.66021  0.96270  Biso   1.000  C
  C769     1.0000 0.12663  0.62539  0.09779  Biso   1.000  C
  C770     1.0000 0.12665  0.62539  0.09779  Biso   1.000  C
  H659     1.0000 0.78346  0.37375  0.27988  Biso   1.000  H
  H660     1.0000 0.81007  0.35935  0.26801  Biso   1.000  H
  H661     1.0000 0.77177  0.33453  0.31438  Biso   1.000  H
  H662     1.0000 0.81007  0.35935  0.26809  Biso   1.000  H
  H663     1.0000 0.77174  0.33453  0.31438  Biso   1.000  H
  C771     1.0000 0.06520  0.45607  0.64544  Biso   1.000  C
  C772     1.0000 0.05643  0.43742  0.14664  Biso   1.000  C
  H664     1.0000 0.02053  0.38348  0.13677  Biso   1.000  H
  H665     1.0000 0.04933  0.39697  0.04436  Biso   1.000  H
  C773     1.0000 0.05643  0.43742  0.14672  Biso   1.000  C
  C774     1.0000 0.05645  0.43742  0.14664  Biso   1.000  C
  C775     1.0000 0.05645  0.43742  0.14672  Biso   1.000  C
  C776     1.0000 0.93481  0.54395  0.35456  Biso   1.000  C
  C777     1.0000 0.93481  0.54395  0.35464  Biso   1.000  C
  H666     1.0000 0.09043  0.57946  0.25317  Biso   1.000  H
  H667     1.0000 0.09040  0.57946  0.25317  Biso   1.000  H
  H668     1.0000 0.12663  0.67659  0.90655  Biso   1.000  H
  H669     1.0000 0.12663  0.67659  0.90663  Biso   1.000  H
  H670     1.0000 0.12666  0.67659  0.90655  Biso   1.000  H
  H671     1.0000 0.12666  0.67659  0.90663  Biso   1.000  H
  C778     1.0000 0.13979  0.64936  0.01356  Biso   1.000  C
  C779     1.0000 0.13979  0.64936  0.01364  Biso   1.000  C
  C780     1.0000 0.14998  0.61318  0.15121  Biso   1.000  C
  C781     1.0000 0.08339  0.47427  0.73263  Biso   1.000  C
  C782     1.0000 0.08766  0.45615  0.65971  Biso   1.000  C
  C783     1.0000 0.04071  0.44522  0.23127  Biso   1.000  C
  C784     1.0000 0.09098  0.46347  0.11118  Biso   1.000  C
  C785     1.0000 0.04073  0.44522  0.23127  Biso   1.000  C
  C786     1.0000 0.91658  0.52573  0.26737  Biso   1.000  C
  C787     1.0000 0.91233  0.54387  0.34029  Biso   1.000  C
  O105     1.0000 0.17425  0.66112  0.98372  Biso   1.000  O
  O106     1.0000 0.13842  0.57767  0.11447  Biso   1.000  O
  H672     1.0000 0.14762  0.61337  0.22854  Biso   1.000  H
  H673     1.0000 0.17483  0.62897  0.13228  Biso   1.000  H
  O107     1.0000 0.13842  0.57767  0.11455  Biso   1.000  O
  H674     1.0000 0.14762  0.61337  0.22862  Biso   1.000  H
  H675     1.0000 0.14764  0.61337  0.22854  Biso   1.000  H
  H676     1.0000 0.17481  0.62897  0.13228  Biso   1.000  H
  H677     1.0000 0.14764  0.61337  0.22862  Biso   1.000  H
  C788     1.0000 0.12586  0.47285  0.69052  Biso   1.000  C
  O108     1.0000 0.00737  0.41904  0.26159  Biso   1.000  O
  C789     1.0000 0.05823  0.47905  0.28181  Biso   1.000  C
  O109     1.0000 0.00735  0.41904  0.26159  Biso   1.000  O
  C790     1.0000 0.05825  0.47905  0.28181  Biso   1.000  C
  C791     1.0000 0.10949  0.45770  0.02623  Biso   1.000  C
  C792     1.0000 0.10849  0.49805  0.16036  Biso   1.000  C
  C793     1.0000 0.10949  0.45770  0.02631  Biso   1.000  C
  C794     1.0000 0.10849  0.49805  0.16044  Biso   1.000  C
  C795     1.0000 0.87413  0.52717  0.30948  Biso   1.000  C
  C796     1.0000 0.18873  0.68490  0.89363  Biso   1.000  C
  C797     1.0000 0.18873  0.68490  0.89371  Biso   1.000  C
  C798     1.0000 0.18870  0.68490  0.89363  Biso   1.000  C
  C799     1.0000 0.18870  0.68490  0.89371  Biso   1.000  C
  C800     1.0000 0.15812  0.56281  0.16244  Biso   1.000  C
  C801     1.0000 0.15812  0.56281  0.16252  Biso   1.000  C
  C802     1.0000 0.99119  0.42369  0.35521  Biso   1.000  C
  H678     1.0000 0.04753  0.48386  0.33916  Biso   1.000  H
  C803     1.0000 0.09085  0.50454  0.24587  Biso   1.000  C
  H679     1.0000 0.04753  0.48386  0.33924  Biso   1.000  H
  H680     1.0000 0.04751  0.48386  0.33916  Biso   1.000  H
  C804     1.0000 0.09087  0.50454  0.24587  Biso   1.000  C
  H681     1.0000 0.04751  0.48386  0.33924  Biso   1.000  H
  C805     1.0000 0.14184  0.48338  0.99045  Biso   1.000  C
  H682     1.0000 0.09893  0.43528  0.99398  Biso   1.000  H
  C806     1.0000 0.14184  0.48338  0.99053  Biso   1.000  C
  C807     1.0000 0.14186  0.48338  0.99045  Biso   1.000  C
  C808     1.0000 0.14186  0.48338  0.99053  Biso   1.000  C
  C809     1.0000 0.14196  0.52527  0.12049  Biso   1.000  C
  C810     1.0000 0.14194  0.52527  0.12049  Biso   1.000  C
  H683     1.0000 0.17402  0.67426  0.83058  Biso   1.000  H
  H684     1.0000 0.18944  0.70729  0.90887  Biso   1.000  H
  C811     1.0000 0.22552  0.69120  0.87510  Biso   1.000  C
  H685     1.0000 0.18942  0.70729  0.90887  Biso   1.000  H
  H686     1.0000 0.18324  0.57668  0.14295  Biso   1.000  H
  H687     1.0000 0.15622  0.56276  0.24009  Biso   1.000  H
  H688     1.0000 0.18324  0.57668  0.14303  Biso   1.000  H
  H689     1.0000 0.18321  0.57668  0.14295  Biso   1.000  H
  H690     1.0000 0.15624  0.56276  0.24009  Biso   1.000  H
  H691     1.0000 0.18321  0.57668  0.14303  Biso   1.000  H
  H692     1.0000 0.98191  0.43956  0.34029  Biso   1.000  H
  C812     1.0000 0.96136  0.38727  0.38609  Biso   1.000  C
  H693     1.0000 0.00854  0.43387  0.41280  Biso   1.000  H
  H694     1.0000 0.00852  0.43387  0.41280  Biso   1.000  H
  H695     1.0000 0.10195  0.52688  0.27844  Biso   1.000  H
  H696     1.0000 0.10195  0.52688  0.27852  Biso   1.000  H
  H697     1.0000 0.10192  0.52688  0.27844  Biso   1.000  H
  H698     1.0000 0.10192  0.52688  0.27852  Biso   1.000  H
  H699     1.0000 0.15343  0.47828  0.93623  Biso   1.000  H
  H700     1.0000 0.15343  0.47828  0.93631  Biso   1.000  H
  C813     1.0000 0.15802  0.51801  0.03586  Biso   1.000  C
  C814     1.0000 0.15802  0.51801  0.03594  Biso   1.000  C
  H701     1.0000 0.23922  0.70077  0.94048  Biso   1.000  H
  H702     1.0000 0.23673  0.70926  0.81983  Biso   1.000  H
  C815     1.0000 0.22758  0.65916  0.84245  Biso   1.000  C
  H703     1.0000 0.23673  0.70926  0.81991  Biso   1.000  H
  C816     1.0000 0.22758  0.65916  0.84253  Biso   1.000  C
  C817     1.0000 0.22760  0.65916  0.84245  Biso   1.000  C
  C818     1.0000 0.22760  0.65916  0.84253  Biso   1.000  C
  H704     1.0000 0.94871  0.38978  0.44665  Biso   1.000  H
  H705     1.0000 0.94464  0.37757  0.32681  Biso   1.000  H
  C819     1.0000 0.97308  0.36087  0.41529  Biso   1.000  C
  H706     1.0000 0.94871  0.38978  0.44674  Biso   1.000  H
  H707     1.0000 0.94873  0.38978  0.44665  Biso   1.000  H
  H708     1.0000 0.94462  0.37757  0.32681  Biso   1.000  H
  C820     1.0000 0.97306  0.36087  0.41529  Biso   1.000  C
  H709     1.0000 0.94873  0.38978  0.44674  Biso   1.000  H
  O110     1.0000 0.18887  0.54598  0.99607  Biso   1.000  O
  H710     1.0000 0.21384  0.63998  0.89283  Biso   1.000  H
  H711     1.0000 0.25223  0.66478  0.84662  Biso   1.000  H
  C821     1.0000 0.21442  0.64687  0.73624  Biso   1.000  C
  H712     1.0000 0.21384  0.63998  0.89291  Biso   1.000  H
  H713     1.0000 0.25223  0.66478  0.84670  Biso   1.000  H
  C822     1.0000 0.21442  0.64687  0.73632  Biso   1.000  C
  H714     1.0000 0.25225  0.66478  0.84662  Biso   1.000  H
  H715     1.0000 0.25225  0.66478  0.84670  Biso   1.000  H
  H716     1.0000 0.98322  0.35638  0.35176  Biso   1.000  H
  H717     1.0000 0.95202  0.33856  0.43470  Biso   1.000  H
  C823     1.0000 0.99979  0.37121  0.50497  Biso   1.000  C
  H718     1.0000 0.98322  0.35638  0.35184  Biso   1.000  H
  C824     1.0000 0.99979  0.37121  0.50505  Biso   1.000  C
  C825     1.0000 0.99977  0.37121  0.50497  Biso   1.000  C
  C826     1.0000 0.99977  0.37121  0.50505  Biso   1.000  C
  C827     1.0000 0.21101  0.53968  0.92468  Biso   1.000  C
  C828     1.0000 0.21099  0.53968  0.92468  Biso   1.000  C
  H719     1.0000 0.21652  0.62627  0.72012  Biso   1.000  H
  H720     1.0000 0.18994  0.64067  0.73199  Biso   1.000  H
  H721     1.0000 0.22823  0.66547  0.68562  Biso   1.000  H
  H722     1.0000 0.21652  0.62627  0.72020  Biso   1.000  H
  H723     1.0000 0.22823  0.66547  0.68571  Biso   1.000  H
  H724     1.0000 0.22821  0.66547  0.68562  Biso   1.000  H
  H725     1.0000 0.22821  0.66547  0.68571  Biso   1.000  H
  H726     1.0000 0.98982  0.37458  0.56979  Biso   1.000  H
  H727     1.0000 0.00542  0.35256  0.51572  Biso   1.000  H
  H728     1.0000 0.02114  0.39307  0.48676  Biso   1.000  H
  H729     1.0000 0.02114  0.39307  0.48684  Biso   1.000  H
  H730     1.0000 0.21693  0.52276  0.95628  Biso   1.000  H
  H731     1.0000 0.19864  0.52987  0.85745  Biso   1.000  H
  C829     1.0000 0.24439  0.57487  0.90558  Biso   1.000  C
  H732     1.0000 0.19864  0.52987  0.85753  Biso   1.000  H
  C830     1.0000 0.26352  0.60028  0.99358  Biso   1.000  C
  C831     1.0000 0.26493  0.58138  0.02126  Biso   1.000  C
  C832     1.0000 0.29762  0.62117  0.00505  Biso   1.000  C
  C833     1.0000 0.29762  0.62117  0.00513  Biso   1.000  C
  C834     1.0000 0.27524  0.58617  0.07765  Biso   1.000  C
  C835     1.0000 0.70235  0.37883  0.99495  Biso   1.000  C
  C836     1.0000 0.73506  0.41864  0.97874  Biso   1.000  C
  C837     1.0000 0.72476  0.41383  0.92235  Biso   1.000  C
  C838     1.0000 0.73646  0.39975  0.00642  Biso   1.000  C
  C839     1.0000 0.73646  0.39975  0.00650  Biso   1.000  C
  C840     1.0000 0.75562  0.42516  0.09442  Biso   1.000  C
  C841     1.0000 0.75562  0.42516  0.09450  Biso   1.000  C
  C842     1.0000 0.75560  0.42516  0.09442  Biso   1.000  C
  C843     1.0000 0.75560  0.42516  0.09450  Biso   1.000  C
  C844     1.0000 0.78900  0.46035  0.07532  Biso   1.000  C
  C845     1.0000 0.78900  0.46035  0.07541  Biso   1.000  C
  C846     1.0000 0.78898  0.46035  0.07532  Biso   1.000  C
  C847     1.0000 0.78898  0.46035  0.07541  Biso   1.000  C
  O111     1.0000 0.81112  0.45401  0.00393  Biso   1.000  O
  H733     1.0000 0.78307  0.47723  0.04372  Biso   1.000  H
  H734     1.0000 0.80136  0.47013  0.14255  Biso   1.000  H
  H735     1.0000 0.78307  0.47723  0.04380  Biso   1.000  H
  H736     1.0000 0.78305  0.47723  0.04372  Biso   1.000  H
  H737     1.0000 0.78305  0.47723  0.04380  Biso   1.000  H
  C848     1.0000 0.84196  0.48199  0.96414  Biso   1.000  C
  C849     1.0000 0.85805  0.47475  0.87951  Biso   1.000  C
  C850     1.0000 0.85805  0.47475  0.87959  Biso   1.000  C
  C851     1.0000 0.85816  0.51662  0.00955  Biso   1.000  C
  C852     1.0000 0.85814  0.51662  0.00955  Biso   1.000  C
  C853     1.0000 0.84188  0.43718  0.83756  Biso   1.000  C
  C854     1.0000 0.89152  0.50198  0.83964  Biso   1.000  C
  C855     1.0000 0.89149  0.50198  0.83964  Biso   1.000  C
  C856     1.0000 0.89052  0.54232  0.97377  Biso   1.000  C
  C857     1.0000 0.89049  0.54232  0.97377  Biso   1.000  C
  H738     1.0000 0.84654  0.52175  0.06377  Biso   1.000  H
  H739     1.0000 0.84656  0.52175  0.06377  Biso   1.000  H
  O112     1.0000 0.86156  0.42235  0.88553  Biso   1.000  O
  H740     1.0000 0.81677  0.42334  0.85705  Biso   1.000  H
  H741     1.0000 0.84376  0.43723  0.75991  Biso   1.000  H
  H742     1.0000 0.84376  0.43723  0.75999  Biso   1.000  H
  H743     1.0000 0.81675  0.42334  0.85705  Biso   1.000  H
  C858     1.0000 0.90913  0.49546  0.75413  Biso   1.000  C
  C859     1.0000 0.90901  0.53655  0.88882  Biso   1.000  C
  C860     1.0000 0.90901  0.53655  0.88890  Biso   1.000  C
  H744     1.0000 0.90108  0.56474  0.00602  Biso   1.000  H
  H745     1.0000 0.90108  0.56474  0.00610  Biso   1.000  H
  H746     1.0000 0.90105  0.56474  0.00602  Biso   1.000  H
  H747     1.0000 0.90105  0.56474  0.00610  Biso   1.000  H
  C861     1.0000 0.85002  0.38682  0.84879  Biso   1.000  C
  C862     1.0000 0.85002  0.38682  0.84887  Biso   1.000  C
  C863     1.0000 0.85000  0.38682  0.84879  Biso   1.000  C
  C864     1.0000 0.85000  0.38682  0.84887  Biso   1.000  C
  H748     1.0000 0.89807  0.47315  0.72156  Biso   1.000  H
  C865     1.0000 0.94175  0.52095  0.71819  Biso   1.000  C
  C866     1.0000 0.94175  0.52095  0.71827  Biso   1.000  C
  C867     1.0000 0.94356  0.56260  0.85336  Biso   1.000  C
  H749     1.0000 0.85236  0.38663  0.77146  Biso   1.000  H
  C868     1.0000 0.87336  0.37463  0.90221  Biso   1.000  C
  H750     1.0000 0.82518  0.37105  0.86772  Biso   1.000  H
  C869     1.0000 0.87336  0.37463  0.90229  Biso   1.000  C
  H751     1.0000 0.82518  0.37105  0.86780  Biso   1.000  H
  H752     1.0000 0.82515  0.37105  0.86772  Biso   1.000  H
  H753     1.0000 0.82515  0.37105  0.86780  Biso   1.000  H
  C870     1.0000 0.95928  0.55480  0.76873  Biso   1.000  C
  H754     1.0000 0.95246  0.51614  0.66084  Biso   1.000  H
  C871     1.0000 0.96576  0.59710  0.91296  Biso   1.000  C
  C872     1.0000 0.86022  0.35066  0.98644  Biso   1.000  C
  C873     1.0000 0.90892  0.38823  0.86780  Biso   1.000  C
  C874     1.0000 0.90892  0.38823  0.86788  Biso   1.000  C
  C875     1.0000 0.90895  0.38823  0.86780  Biso   1.000  C
  C876     1.0000 0.90895  0.38823  0.86788  Biso   1.000  C
  O113     1.0000 0.99264  0.58098  0.73841  Biso   1.000  O
  O114     1.0000 0.99264  0.58098  0.73849  Biso   1.000  O
  O115     1.0000 0.99262  0.58098  0.73841  Biso   1.000  O
  O116     1.0000 0.99262  0.58098  0.73849  Biso   1.000  O
  O117     1.0000 0.98914  0.59098  0.98051  Biso   1.000  O
  H755     1.0000 0.97946  0.61655  0.86323  Biso   1.000  H
  H756     1.0000 0.95065  0.60303  0.95564  Biso   1.000  H
  O118     1.0000 0.82577  0.33891  0.01628  Biso   1.000  O
  C877     1.0000 0.88238  0.33982  0.03730  Biso   1.000  C
  O119     1.0000 0.82577  0.33891  0.01636  Biso   1.000  O
  C878     1.0000 0.88238  0.33982  0.03738  Biso   1.000  C
  C879     1.0000 0.88240  0.33982  0.03730  Biso   1.000  C
  C880     1.0000 0.88240  0.33982  0.03738  Biso   1.000  C
  C881     1.0000 0.92370  0.41297  0.78133  Biso   1.000  C
  C882     1.0000 0.93167  0.37736  0.91882  Biso   1.000  C
  C883     1.0000 0.93167  0.37736  0.91890  Biso   1.000  C
  C884     1.0000 0.00879  0.57631  0.64479  Biso   1.000  C
  C885     1.0000 0.00879  0.57631  0.64487  Biso   1.000  C
  C886     1.0000 0.00714  0.61767  0.06040  Biso   1.000  C
  C887     1.0000 0.00714  0.61767  0.06048  Biso   1.000  C
  C888     1.0000 0.81127  0.31510  0.10637  Biso   1.000  C
  C889     1.0000 0.81125  0.31510  0.10637  Biso   1.000  C
  C890     1.0000 0.91678  0.35291  0.00562  Biso   1.000  C
  H757     1.0000 0.87338  0.32344  0.09345  Biso   1.000  H
  C891     1.0000 0.91678  0.35291  0.00570  Biso   1.000  C
  C892     1.0000 0.91676  0.35291  0.00562  Biso   1.000  C
  H758     1.0000 0.87336  0.32344  0.09345  Biso   1.000  H
  C893     1.0000 0.91676  0.35291  0.00570  Biso   1.000  C
  H759     1.0000 0.90957  0.42053  0.74683  Biso   1.000  H
  C894     1.0000 0.95785  0.42583  0.74771  Biso   1.000  C
  C895     1.0000 0.95785  0.42583  0.74779  Biso   1.000  C
  H760     1.0000 0.90955  0.42053  0.74683  Biso   1.000  H
  C896     1.0000 0.95782  0.42583  0.74771  Biso   1.000  C
  C897     1.0000 0.95782  0.42583  0.74779  Biso   1.000  C
  C898     1.0000 0.96752  0.39117  0.88304  Biso   1.000  C
  H761     1.0000 0.99146  0.56613  0.58720  Biso   1.000  H
  H762     1.0000 0.99146  0.56613  0.58728  Biso   1.000  H
  H763     1.0000 0.01807  0.56044  0.65971  Biso   1.000  H
  C899     1.0000 0.03863  0.61275  0.61391  Biso   1.000  C
  C900     1.0000 0.03863  0.61275  0.61399  Biso   1.000  C
  H764     1.0000 0.99008  0.61775  0.11086  Biso   1.000  H
  H765     1.0000 0.99006  0.61775  0.11086  Biso   1.000  H
  H766     1.0000 0.02017  0.64113  0.02751  Biso   1.000  H
  C901     1.0000 0.03245  0.60883  0.11696  Biso   1.000  C
  H767     1.0000 0.02017  0.64113  0.02760  Biso   1.000  H
  C902     1.0000 0.03245  0.60883  0.11704  Biso   1.000  C
  H768     1.0000 0.82594  0.32573  0.16942  Biso   1.000  H
  H769     1.0000 0.81057  0.29274  0.09113  Biso   1.000  H
  C903     1.0000 0.77447  0.30879  0.12490  Biso   1.000  C
  H770     1.0000 0.82594  0.32573  0.16950  Biso   1.000  H
  H771     1.0000 0.81057  0.29274  0.09121  Biso   1.000  H
  C904     1.0000 0.77447  0.30879  0.12498  Biso   1.000  C
  H772     1.0000 0.82596  0.32573  0.16942  Biso   1.000  H
  H773     1.0000 0.81055  0.29274  0.09113  Biso   1.000  H
  C905     1.0000 0.77445  0.30879  0.12490  Biso   1.000  C
  H774     1.0000 0.82596  0.32573  0.16950  Biso   1.000  H
  H775     1.0000 0.81055  0.29274  0.09121  Biso   1.000  H
  C906     1.0000 0.77445  0.30879  0.12498  Biso   1.000  C
  H776     1.0000 0.93095  0.34575  0.04171  Biso   1.000  H
  H777     1.0000 0.93095  0.34575  0.04179  Biso   1.000  H
  H778     1.0000 0.96666  0.44183  0.69076  Biso   1.000  H
  C907     1.0000 0.97996  0.41503  0.79913  Biso   1.000  C
  C908     1.0000 0.99283  0.38233  0.93960  Biso   1.000  C
  C909     1.0000 0.99286  0.38233  0.93960  Biso   1.000  C
  H779     1.0000 0.05126  0.61024  0.55335  Biso   1.000  H
  H780     1.0000 0.05537  0.62245  0.67319  Biso   1.000  H
  C910     1.0000 0.02693  0.63915  0.58471  Biso   1.000  C
  H781     1.0000 0.05537  0.62245  0.67327  Biso   1.000  H
  C911     1.0000 0.02693  0.63915  0.58479  Biso   1.000  C
  H782     1.0000 0.05128  0.61024  0.55335  Biso   1.000  H
  H783     1.0000 0.05539  0.62245  0.67319  Biso   1.000  H
  C912     1.0000 0.02691  0.63915  0.58471  Biso   1.000  C
  H784     1.0000 0.05539  0.62245  0.67327  Biso   1.000  H
  C913     1.0000 0.02691  0.63915  0.58479  Biso   1.000  C
  C914     1.0000 0.02001  0.58497  0.20087  Biso   1.000  C
  C915     1.0000 0.06832  0.62267  0.08118  Biso   1.000  C
  C916     1.0000 0.06830  0.62267  0.08118  Biso   1.000  C
  H785     1.0000 0.76076  0.29923  0.05952  Biso   1.000  H
  H786     1.0000 0.76327  0.29073  0.18017  Biso   1.000  H
  C917     1.0000 0.77239  0.34086  0.15755  Biso   1.000  C
  H787     1.0000 0.76076  0.29923  0.05960  Biso   1.000  H
  H788     1.0000 0.76324  0.29073  0.18017  Biso   1.000  H
  C918     1.0000 0.77241  0.34086  0.15755  Biso   1.000  C
  O120     1.0000 0.01452  0.42732  0.76721  Biso   1.000  O
  O121     1.0000 0.01452  0.42732  0.76729  Biso   1.000  O
  H789     1.0000 0.97981  0.35887  0.97249  Biso   1.000  H
  H790     1.0000 0.00993  0.38227  0.88914  Biso   1.000  H
  H791     1.0000 0.00993  0.38227  0.88922  Biso   1.000  H
  H792     1.0000 0.00995  0.38227  0.88914  Biso   1.000  H
  H793     1.0000 0.00995  0.38227  0.88922  Biso   1.000  H
  O122     1.0000 0.01083  0.40902  0.01949  Biso   1.000  O
  O123     1.0000 0.01083  0.40902  0.01957  Biso   1.000  O
  H794     1.0000 0.01677  0.64364  0.64824  Biso   1.000  H
  H795     1.0000 0.04797  0.66144  0.56530  Biso   1.000  H
  C919     1.0000 0.00022  0.62881  0.49503  Biso   1.000  C
  H796     1.0000 0.04797  0.66144  0.56538  Biso   1.000  H
  H797     1.0000 0.01675  0.64364  0.64824  Biso   1.000  H
  O124     1.0000 0.98547  0.57270  0.23279  Biso   1.000  O
  C920     1.0000 0.04215  0.57417  0.25229  Biso   1.000  C
  C921     1.0000 0.08323  0.64711  0.99438  Biso   1.000  C
  C922     1.0000 0.09103  0.61176  0.13220  Biso   1.000  C
  C923     1.0000 0.09105  0.61176  0.13220  Biso   1.000  C
  H798     1.0000 0.78614  0.36004  0.10717  Biso   1.000  H
  H799     1.0000 0.74778  0.33525  0.15338  Biso   1.000  H
  C924     1.0000 0.78557  0.35315  0.26376  Biso   1.000  C
  H800     1.0000 0.78617  0.36004  0.10717  Biso   1.000  H
  H801     1.0000 0.74776  0.33525  0.15338  Biso   1.000  H
  C925     1.0000 0.02950  0.45492  0.68819  Biso   1.000  C
  C926     1.0000 0.02950  0.45492  0.68827  Biso   1.000  C
  C927     1.0000 0.03426  0.40293  0.08704  Biso   1.000  C
  C928     1.0000 0.03426  0.40293  0.08712  Biso   1.000  C
  C929     1.0000 0.03423  0.40293  0.08704  Biso   1.000  C
  C930     1.0000 0.03423  0.40293  0.08712  Biso   1.000  C
  H802     1.0000 0.99456  0.64743  0.48428  Biso   1.000  H
  H803     1.0000 0.97886  0.60693  0.51324  Biso   1.000  H
  H804     1.0000 0.99456  0.64743  0.48436  Biso   1.000  H
  H805     1.0000 0.97884  0.60693  0.51324  Biso   1.000  H
  H806     1.0000 0.01017  0.62544  0.43021  Biso   1.000  H
  H807     1.0000 0.01015  0.62544  0.43021  Biso   1.000  H
  C931     1.0000 0.97047  0.54507  0.31181  Biso   1.000  C
  C932     1.0000 0.97050  0.54507  0.31181  Biso   1.000  C
  C933     1.0000 0.07631  0.58705  0.21867  Biso   1.000  C
  H808     1.0000 0.03334  0.55817  0.30924  Biso   1.000  H
  H809     1.0000 0.03334  0.55817  0.30932  Biso   1.000  H
  C934     1.0000 0.07629  0.58705  0.21867  Biso   1.000  C
  H810     1.0000 0.03332  0.55817  0.30924  Biso   1.000  H
  H811     1.0000 0.03332  0.55817  0.30932  Biso   1.000  H
  H812     1.0000 0.06904  0.65428  0.95829  Biso   1.000  H
  C935     1.0000 0.11759  0.66021  0.96270  Biso   1.000  C
  H813     1.0000 0.06901  0.65428  0.95829  Biso   1.000  H
  C936     1.0000 0.11761  0.66021  0.96270  Biso   1.000  C
  C937     1.0000 0.12663  0.62539  0.09779  Biso   1.000  C
  C938     1.0000 0.12665  0.62539  0.09779  Biso   1.000  C
  H814     1.0000 0.78346  0.37375  0.27988  Biso   1.000  H
  H815     1.0000 0.81007  0.35935  0.26801  Biso   1.000  H
  H816     1.0000 0.77177  0.33453  0.31438  Biso   1.000  H
  H817     1.0000 0.81007  0.35935  0.26809  Biso   1.000  H
  H818     1.0000 0.77174  0.33453  0.31438  Biso   1.000  H
  C939     1.0000 0.06520  0.45607  0.64544  Biso   1.000  C
  C940     1.0000 0.05643  0.43742  0.14664  Biso   1.000  C
  H819     1.0000 0.02053  0.38348  0.13677  Biso   1.000  H
  H820     1.0000 0.04933  0.39697  0.04436  Biso   1.000  H
  C941     1.0000 0.05643  0.43742  0.14672  Biso   1.000  C
  C942     1.0000 0.05645  0.43742  0.14664  Biso   1.000  C
  C943     1.0000 0.05645  0.43742  0.14672  Biso   1.000  C
  C944     1.0000 0.93481  0.54395  0.35456  Biso   1.000  C
  C945     1.0000 0.93481  0.54395  0.35464  Biso   1.000  C
  H821     1.0000 0.09043  0.57946  0.25317  Biso   1.000  H
  H822     1.0000 0.09040  0.57946  0.25317  Biso   1.000  H
  H823     1.0000 0.12663  0.67659  0.90655  Biso   1.000  H
  H824     1.0000 0.12663  0.67659  0.90663  Biso   1.000  H
  H825     1.0000 0.12666  0.67659  0.90655  Biso   1.000  H
  H826     1.0000 0.12666  0.67659  0.90663  Biso   1.000  H
  C946     1.0000 0.13979  0.64936  0.01356  Biso   1.000  C
  C947     1.0000 0.13979  0.64936  0.01364  Biso   1.000  C
  C948     1.0000 0.14998  0.61318  0.15121  Biso   1.000  C
  C949     1.0000 0.08339  0.47427  0.73263  Biso   1.000  C
  C950     1.0000 0.08766  0.45615  0.65971  Biso   1.000  C
  C951     1.0000 0.04071  0.44522  0.23127  Biso   1.000  C
  C952     1.0000 0.09098  0.46347  0.11118  Biso   1.000  C
  C953     1.0000 0.04073  0.44522  0.23127  Biso   1.000  C
  C954     1.0000 0.91658  0.52573  0.26737  Biso   1.000  C
  C955     1.0000 0.91233  0.54387  0.34029  Biso   1.000  C
  O125     1.0000 0.17425  0.66112  0.98372  Biso   1.000  O
  O126     1.0000 0.13842  0.57767  0.11447  Biso   1.000  O
  H827     1.0000 0.14762  0.61337  0.22854  Biso   1.000  H
  H828     1.0000 0.17483  0.62897  0.13228  Biso   1.000  H
  O127     1.0000 0.13842  0.57767  0.11455  Biso   1.000  O
  H829     1.0000 0.14762  0.61337  0.22862  Biso   1.000  H
  H830     1.0000 0.14764  0.61337  0.22854  Biso   1.000  H
  H831     1.0000 0.17481  0.62897  0.13228  Biso   1.000  H
  H832     1.0000 0.14764  0.61337  0.22862  Biso   1.000  H
  C956     1.0000 0.12586  0.47285  0.69052  Biso   1.000  C
  O128     1.0000 0.00737  0.41904  0.26159  Biso   1.000  O
  C957     1.0000 0.05823  0.47905  0.28181  Biso   1.000  C
  O129     1.0000 0.00735  0.41904  0.26159  Biso   1.000  O
  C958     1.0000 0.05825  0.47905  0.28181  Biso   1.000  C
  C959     1.0000 0.10949  0.45770  0.02623  Biso   1.000  C
  C960     1.0000 0.10849  0.49805  0.16036  Biso   1.000  C
  C961     1.0000 0.10949  0.45770  0.02631  Biso   1.000  C
  C962     1.0000 0.10849  0.49805  0.16044  Biso   1.000  C
  C963     1.0000 0.87413  0.52717  0.30948  Biso   1.000  C
  C964     1.0000 0.18873  0.68490  0.89363  Biso   1.000  C
  C965     1.0000 0.18873  0.68490  0.89371  Biso   1.000  C
  C966     1.0000 0.18870  0.68490  0.89363  Biso   1.000  C
  C967     1.0000 0.18870  0.68490  0.89371  Biso   1.000  C
  C968     1.0000 0.15812  0.56281  0.16244  Biso   1.000  C
  C969     1.0000 0.15812  0.56281  0.16252  Biso   1.000  C
  C970     1.0000 0.99119  0.42369  0.35521  Biso   1.000  C
  H833     1.0000 0.04753  0.48386  0.33916  Biso   1.000  H
  C971     1.0000 0.09085  0.50454  0.24587  Biso   1.000  C
  H834     1.0000 0.04753  0.48386  0.33924  Biso   1.000  H
  H835     1.0000 0.04751  0.48386  0.33916  Biso   1.000  H
  C972     1.0000 0.09087  0.50454  0.24587  Biso   1.000  C
  H836     1.0000 0.04751  0.48386  0.33924  Biso   1.000  H
  C973     1.0000 0.14184  0.48338  0.99045  Biso   1.000  C
  H837     1.0000 0.09893  0.43528  0.99398  Biso   1.000  H
  C974     1.0000 0.14184  0.48338  0.99053  Biso   1.000  C
  C975     1.0000 0.14186  0.48338  0.99045  Biso   1.000  C
  C976     1.0000 0.14186  0.48338  0.99053  Biso   1.000  C
  C977     1.0000 0.14196  0.52527  0.12049  Biso   1.000  C
  C978     1.0000 0.14194  0.52527  0.12049  Biso   1.000  C
  H838     1.0000 0.17402  0.67426  0.83058  Biso   1.000  H
  H839     1.0000 0.18944  0.70729  0.90887  Biso   1.000  H
  C979     1.0000 0.22552  0.69120  0.87510  Biso   1.000  C
  H840     1.0000 0.18942  0.70729  0.90887  Biso   1.000  H
  H841     1.0000 0.18324  0.57668  0.14295  Biso   1.000  H
  H842     1.0000 0.15622  0.56276  0.24009  Biso   1.000  H
  H843     1.0000 0.18324  0.57668  0.14303  Biso   1.000  H
  H844     1.0000 0.18321  0.57668  0.14295  Biso   1.000  H
  H845     1.0000 0.15624  0.56276  0.24009  Biso   1.000  H
  H846     1.0000 0.18321  0.57668  0.14303  Biso   1.000  H
  H847     1.0000 0.98191  0.43956  0.34029  Biso   1.000  H
  C980     1.0000 0.96136  0.38727  0.38609  Biso   1.000  C
  H848     1.0000 0.00854  0.43387  0.41280  Biso   1.000  H
  H849     1.0000 0.00852  0.43387  0.41280  Biso   1.000  H
  H850     1.0000 0.10195  0.52688  0.27844  Biso   1.000  H
  H851     1.0000 0.10195  0.52688  0.27852  Biso   1.000  H
  H852     1.0000 0.10192  0.52688  0.27844  Biso   1.000  H
  H853     1.0000 0.10192  0.52688  0.27852  Biso   1.000  H
  H854     1.0000 0.15343  0.47828  0.93623  Biso   1.000  H
  H855     1.0000 0.15343  0.47828  0.93631  Biso   1.000  H
  C981     1.0000 0.15802  0.51801  0.03586  Biso   1.000  C
  C982     1.0000 0.15802  0.51801  0.03594  Biso   1.000  C
  H856     1.0000 0.23922  0.70077  0.94048  Biso   1.000  H
  H857     1.0000 0.23673  0.70926  0.81983  Biso   1.000  H
  C983     1.0000 0.22758  0.65916  0.84245  Biso   1.000  C
  H858     1.0000 0.23673  0.70926  0.81991  Biso   1.000  H
  C984     1.0000 0.22758  0.65916  0.84253  Biso   1.000  C
  C985     1.0000 0.22760  0.65916  0.84245  Biso   1.000  C
  C986     1.0000 0.22760  0.65916  0.84253  Biso   1.000  C
  H859     1.0000 0.94871  0.38978  0.44665  Biso   1.000  H
  H860     1.0000 0.94464  0.37757  0.32681  Biso   1.000  H
  C987     1.0000 0.97308  0.36087  0.41529  Biso   1.000  C
  H861     1.0000 0.94871  0.38978  0.44674  Biso   1.000  H
  H862     1.0000 0.94873  0.38978  0.44665  Biso   1.000  H
  H863     1.0000 0.94462  0.37757  0.32681  Biso   1.000  H
  C988     1.0000 0.97306  0.36087  0.41529  Biso   1.000  C
  H864     1.0000 0.94873  0.38978  0.44674  Biso   1.000  H
  O130     1.0000 0.18887  0.54598  0.99607  Biso   1.000  O
  H865     1.0000 0.21384  0.63998  0.89283  Biso   1.000  H
  H866     1.0000 0.25223  0.66478  0.84662  Biso   1.000  H
  C989     1.0000 0.21442  0.64687  0.73624  Biso   1.000  C
  H867     1.0000 0.21384  0.63998  0.89291  Biso   1.000  H
  H868     1.0000 0.25223  0.66478  0.84670  Biso   1.000  H
  C990     1.0000 0.21442  0.64687  0.73632  Biso   1.000  C
  H869     1.0000 0.25225  0.66478  0.84662  Biso   1.000  H
  H870     1.0000 0.25225  0.66478  0.84670  Biso   1.000  H
  H871     1.0000 0.98322  0.35638  0.35176  Biso   1.000  H
  H872     1.0000 0.95202  0.33856  0.43470  Biso   1.000  H
  C991     1.0000 0.99979  0.37121  0.50497  Biso   1.000  C
  H873     1.0000 0.98322  0.35638  0.35184  Biso   1.000  H
  C992     1.0000 0.99979  0.37121  0.50505  Biso   1.000  C
  C993     1.0000 0.99977  0.37121  0.50497  Biso   1.000  C
  C994     1.0000 0.99977  0.37121  0.50505  Biso   1.000  C
  C995     1.0000 0.21101  0.53968  0.92468  Biso   1.000  C
  C996     1.0000 0.21099  0.53968  0.92468  Biso   1.000  C
  H874     1.0000 0.21652  0.62627  0.72012  Biso   1.000  H
  H875     1.0000 0.18994  0.64067  0.73199  Biso   1.000  H
  H876     1.0000 0.22823  0.66547  0.68562  Biso   1.000  H
  H877     1.0000 0.21652  0.62627  0.72020  Biso   1.000  H
  H878     1.0000 0.22823  0.66547  0.68571  Biso   1.000  H
  H879     1.0000 0.22821  0.66547  0.68562  Biso   1.000  H
  H880     1.0000 0.22821  0.66547  0.68571  Biso   1.000  H
  H881     1.0000 0.98982  0.37458  0.56979  Biso   1.000  H
  H882     1.0000 0.00542  0.35256  0.51572  Biso   1.000  H
  H883     1.0000 0.02114  0.39307  0.48676  Biso   1.000  H
  H884     1.0000 0.02114  0.39307  0.48684  Biso   1.000  H
  H885     1.0000 0.21693  0.52276  0.95628  Biso   1.000  H
  H886     1.0000 0.19864  0.52987  0.85745  Biso   1.000  H
  C997     1.0000 0.24439  0.57487  0.90558  Biso   1.000  C
  H887     1.0000 0.19864  0.52987  0.85753  Biso   1.000  H
  C998     1.0000 0.26352  0.60028  0.99358  Biso   1.000  C
  C999     1.0000 0.26493  0.58138  0.02126  Biso   1.000  C
  C1000    1.0000 0.29762  0.62117  0.00505  Biso   1.000  C
  C1001    1.0000 0.29762  0.62117  0.00513  Biso   1.000  C
  C1002    1.0000 0.27524  0.58617  0.07765  Biso   1.000  C
  C1003    1.0000 0.70235  0.37883  0.99495  Biso   1.000  C
  C1004    1.0000 0.73506  0.41864  0.97874  Biso   1.000  C
  C1005    1.0000 0.72476  0.41383  0.92235  Biso   1.000  C
  C1006    1.0000 0.73646  0.39975  0.00642  Biso   1.000  C
  C1007    1.0000 0.73646  0.39975  0.00650  Biso   1.000  C
  C1008    1.0000 0.75562  0.42516  0.09442  Biso   1.000  C
  C1009    1.0000 0.75562  0.42516  0.09450  Biso   1.000  C
  C1010    1.0000 0.75560  0.42516  0.09442  Biso   1.000  C
  C1011    1.0000 0.75560  0.42516  0.09450  Biso   1.000  C
  C1012    1.0000 0.78900  0.46035  0.07532  Biso   1.000  C
  C1013    1.0000 0.78900  0.46035  0.07541  Biso   1.000  C
  C1014    1.0000 0.78898  0.46035  0.07532  Biso   1.000  C
  C1015    1.0000 0.78898  0.46035  0.07541  Biso   1.000  C
  O131     1.0000 0.81112  0.45401  0.00393  Biso   1.000  O
  H888     1.0000 0.78307  0.47723  0.04372  Biso   1.000  H
  H889     1.0000 0.80136  0.47013  0.14255  Biso   1.000  H
  H890     1.0000 0.78307  0.47723  0.04380  Biso   1.000  H
  H891     1.0000 0.78305  0.47723  0.04372  Biso   1.000  H
  H892     1.0000 0.78305  0.47723  0.04380  Biso   1.000  H
  C1016    1.0000 0.84196  0.48199  0.96414  Biso   1.000  C
  C1017    1.0000 0.85805  0.47475  0.87951  Biso   1.000  C
  C1018    1.0000 0.85805  0.47475  0.87959  Biso   1.000  C
  C1019    1.0000 0.85816  0.51662  0.00955  Biso   1.000  C
  C1020    1.0000 0.85814  0.51662  0.00955  Biso   1.000  C
  C1021    1.0000 0.84188  0.43718  0.83756  Biso   1.000  C
  C1022    1.0000 0.89152  0.50198  0.83964  Biso   1.000  C
  C1023    1.0000 0.89149  0.50198  0.83964  Biso   1.000  C
  C1024    1.0000 0.89052  0.54232  0.97377  Biso   1.000  C
  C1025    1.0000 0.89049  0.54232  0.97377  Biso   1.000  C
  H893     1.0000 0.84654  0.52175  0.06377  Biso   1.000  H
  H894     1.0000 0.84656  0.52175  0.06377  Biso   1.000  H
  O132     1.0000 0.86156  0.42235  0.88553  Biso   1.000  O
  H895     1.0000 0.81677  0.42334  0.85705  Biso   1.000  H
  H896     1.0000 0.84376  0.43723  0.75991  Biso   1.000  H
  H897     1.0000 0.84376  0.43723  0.75999  Biso   1.000  H
  H898     1.0000 0.81675  0.42334  0.85705  Biso   1.000  H
  C1026    1.0000 0.90913  0.49546  0.75413  Biso   1.000  C
  C1027    1.0000 0.90901  0.53655  0.88882  Biso   1.000  C
  C1028    1.0000 0.90901  0.53655  0.88890  Biso   1.000  C
  H899     1.0000 0.90108  0.56474  0.00602  Biso   1.000  H
  H900     1.0000 0.90108  0.56474  0.00610  Biso   1.000  H
  H901     1.0000 0.90105  0.56474  0.00602  Biso   1.000  H
  H902     1.0000 0.90105  0.56474  0.00610  Biso   1.000  H
  C1029    1.0000 0.85002  0.38682  0.84879  Biso   1.000  C
  C1030    1.0000 0.85002  0.38682  0.84887  Biso   1.000  C
  C1031    1.0000 0.85000  0.38682  0.84879  Biso   1.000  C
  C1032    1.0000 0.85000  0.38682  0.84887  Biso   1.000  C
  H903     1.0000 0.89807  0.47315  0.72156  Biso   1.000  H
  C1033    1.0000 0.94175  0.52095  0.71819  Biso   1.000  C
  C1034    1.0000 0.94175  0.52095  0.71827  Biso   1.000  C
  C1035    1.0000 0.94356  0.56260  0.85336  Biso   1.000  C
  H904     1.0000 0.85236  0.38663  0.77146  Biso   1.000  H
  C1036    1.0000 0.87336  0.37463  0.90221  Biso   1.000  C
  H905     1.0000 0.82518  0.37105  0.86772  Biso   1.000  H
  C1037    1.0000 0.87336  0.37463  0.90229  Biso   1.000  C
  H906     1.0000 0.82518  0.37105  0.86780  Biso   1.000  H
  H907     1.0000 0.82515  0.37105  0.86772  Biso   1.000  H
  H908     1.0000 0.82515  0.37105  0.86780  Biso   1.000  H
  C1038    1.0000 0.95928  0.55480  0.76873  Biso   1.000  C
  H909     1.0000 0.95246  0.51614  0.66084  Biso   1.000  H
  C1039    1.0000 0.96576  0.59710  0.91296  Biso   1.000  C
  C1040    1.0000 0.86022  0.35066  0.98644  Biso   1.000  C
  C1041    1.0000 0.90892  0.38823  0.86780  Biso   1.000  C
  C1042    1.0000 0.90892  0.38823  0.86788  Biso   1.000  C
  C1043    1.0000 0.90895  0.38823  0.86780  Biso   1.000  C
  C1044    1.0000 0.90895  0.38823  0.86788  Biso   1.000  C
  O133     1.0000 0.99264  0.58098  0.73841  Biso   1.000  O
  O134     1.0000 0.99264  0.58098  0.73849  Biso   1.000  O
  O135     1.0000 0.99262  0.58098  0.73841  Biso   1.000  O
  O136     1.0000 0.99262  0.58098  0.73849  Biso   1.000  O
  O137     1.0000 0.98914  0.59098  0.98051  Biso   1.000  O
  H910     1.0000 0.97946  0.61655  0.86323  Biso   1.000  H
  H911     1.0000 0.95065  0.60303  0.95564  Biso   1.000  H
  O138     1.0000 0.82577  0.33891  0.01628  Biso   1.000  O
  C1045    1.0000 0.88238  0.33982  0.03730  Biso   1.000  C
  O139     1.0000 0.82577  0.33891  0.01636  Biso   1.000  O
  C1046    1.0000 0.88238  0.33982  0.03738  Biso   1.000  C
  C1047    1.0000 0.88240  0.33982  0.03730  Biso   1.000  C
  C1048    1.0000 0.88240  0.33982  0.03738  Biso   1.000  C
  C1049    1.0000 0.92370  0.41297  0.78133  Biso   1.000  C
  C1050    1.0000 0.93167  0.37736  0.91882  Biso   1.000  C
  C1051    1.0000 0.93167  0.37736  0.91890  Biso   1.000  C
  C1052    1.0000 0.00879  0.57631  0.64479  Biso   1.000  C
  C1053    1.0000 0.00879  0.57631  0.64487  Biso   1.000  C
  C1054    1.0000 0.00714  0.61767  0.06040  Biso   1.000  C
  C1055    1.0000 0.00714  0.61767  0.06048  Biso   1.000  C
  C1056    1.0000 0.81127  0.31510  0.10637  Biso   1.000  C
  C1057    1.0000 0.81125  0.31510  0.10637  Biso   1.000  C
  C1058    1.0000 0.91678  0.35291  0.00562  Biso   1.000  C
  H912     1.0000 0.87338  0.32344  0.09345  Biso   1.000  H
  C1059    1.0000 0.91678  0.35291  0.00570  Biso   1.000  C
  C1060    1.0000 0.91676  0.35291  0.00562  Biso   1.000  C
  H913     1.0000 0.87336  0.32344  0.09345  Biso   1.000  H
  C1061    1.0000 0.91676  0.35291  0.00570  Biso   1.000  C
  H914     1.0000 0.90957  0.42053  0.74683  Biso   1.000  H
  C1062    1.0000 0.95785  0.42583  0.74771  Biso   1.000  C
  C1063    1.0000 0.95785  0.42583  0.74779  Biso   1.000  C
  H915     1.0000 0.90955  0.42053  0.74683  Biso   1.000  H
  C1064    1.0000 0.95782  0.42583  0.74771  Biso   1.000  C
  C1065    1.0000 0.95782  0.42583  0.74779  Biso   1.000  C
  C1066    1.0000 0.96752  0.39117  0.88304  Biso   1.000  C
  H916     1.0000 0.99146  0.56613  0.58720  Biso   1.000  H
  H917     1.0000 0.99146  0.56613  0.58728  Biso   1.000  H
  H918     1.0000 0.01807  0.56044  0.65971  Biso   1.000  H
  C1067    1.0000 0.03863  0.61275  0.61391  Biso   1.000  C
  C1068    1.0000 0.03863  0.61275  0.61399  Biso   1.000  C
  H919     1.0000 0.99008  0.61775  0.11086  Biso   1.000  H
  H920     1.0000 0.99006  0.61775  0.11086  Biso   1.000  H
  H921     1.0000 0.02017  0.64113  0.02751  Biso   1.000  H
  C1069    1.0000 0.03245  0.60883  0.11696  Biso   1.000  C
  H922     1.0000 0.02017  0.64113  0.02760  Biso   1.000  H
  C1070    1.0000 0.03245  0.60883  0.11704  Biso   1.000  C
  H923     1.0000 0.82594  0.32573  0.16942  Biso   1.000  H
  H924     1.0000 0.81057  0.29274  0.09113  Biso   1.000  H
  C1071    1.0000 0.77447  0.30879  0.12490  Biso   1.000  C
  H925     1.0000 0.82594  0.32573  0.16950  Biso   1.000  H
  H926     1.0000 0.81057  0.29274  0.09121  Biso   1.000  H
  C1072    1.0000 0.77447  0.30879  0.12498  Biso   1.000  C
  H927     1.0000 0.82596  0.32573  0.16942  Biso   1.000  H
  H928     1.0000 0.81055  0.29274  0.09113  Biso   1.000  H
  C1073    1.0000 0.77445  0.30879  0.12490  Biso   1.000  C
  H929     1.0000 0.82596  0.32573  0.16950  Biso   1.000  H
  H930     1.0000 0.81055  0.29274  0.09121  Biso   1.000  H
  C1074    1.0000 0.77445  0.30879  0.12498  Biso   1.000  C
  H931     1.0000 0.93095  0.34575  0.04171  Biso   1.000  H
  H932     1.0000 0.93095  0.34575  0.04179  Biso   1.000  H
  H933     1.0000 0.96666  0.44183  0.69076  Biso   1.000  H
  C1075    1.0000 0.97996  0.41503  0.79913  Biso   1.000  C
  C1076    1.0000 0.99283  0.38233  0.93960  Biso   1.000  C
  C1077    1.0000 0.99286  0.38233  0.93960  Biso   1.000  C
  H934     1.0000 0.05126  0.61024  0.55335  Biso   1.000  H
  H935     1.0000 0.05537  0.62245  0.67319  Biso   1.000  H
  C1078    1.0000 0.02693  0.63915  0.58471  Biso   1.000  C
  H936     1.0000 0.05537  0.62245  0.67327  Biso   1.000  H
  C1079    1.0000 0.02693  0.63915  0.58479  Biso   1.000  C
  H937     1.0000 0.05128  0.61024  0.55335  Biso   1.000  H
  H938     1.0000 0.05539  0.62245  0.67319  Biso   1.000  H
  C1080    1.0000 0.02691  0.63915  0.58471  Biso   1.000  C
  H939     1.0000 0.05539  0.62245  0.67327  Biso   1.000  H
  C1081    1.0000 0.02691  0.63915  0.58479  Biso   1.000  C
  C1082    1.0000 0.02001  0.58497  0.20087  Biso   1.000  C
  C1083    1.0000 0.06832  0.62267  0.08118  Biso   1.000  C
  C1084    1.0000 0.06830  0.62267  0.08118  Biso   1.000  C
  H940     1.0000 0.76076  0.29923  0.05952  Biso   1.000  H
  H941     1.0000 0.76327  0.29073  0.18017  Biso   1.000  H
  C1085    1.0000 0.77239  0.34086  0.15755  Biso   1.000  C
  H942     1.0000 0.76076  0.29923  0.05960  Biso   1.000  H
  H943     1.0000 0.76324  0.29073  0.18017  Biso   1.000  H
  C1086    1.0000 0.77241  0.34086  0.15755  Biso   1.000  C
  O140     1.0000 0.01452  0.42732  0.76721  Biso   1.000  O
  O141     1.0000 0.01452  0.42732  0.76729  Biso   1.000  O
  H944     1.0000 0.97981  0.35887  0.97249  Biso   1.000  H
  H945     1.0000 0.00993  0.38227  0.88914  Biso   1.000  H
  H946     1.0000 0.00993  0.38227  0.88922  Biso   1.000  H
  H947     1.0000 0.00995  0.38227  0.88914  Biso   1.000  H
  H948     1.0000 0.00995  0.38227  0.88922  Biso   1.000  H
  O142     1.0000 0.01083  0.40902  0.01949  Biso   1.000  O
  O143     1.0000 0.01083  0.40902  0.01957  Biso   1.000  O
  H949     1.0000 0.01677  0.64364  0.64824  Biso   1.000  H
  H950     1.0000 0.04797  0.66144  0.56530  Biso   1.000  H
  C1087    1.0000 0.00022  0.62881  0.49503  Biso   1.000  C
  H951     1.0000 0.04797  0.66144  0.56538  Biso   1.000  H
  H952     1.0000 0.01675  0.64364  0.64824  Biso   1.000  H
  O144     1.0000 0.98547  0.57270  0.23279  Biso   1.000  O
  C1088    1.0000 0.04215  0.57417  0.25229  Biso   1.000  C
  C1089    1.0000 0.08323  0.64711  0.99438  Biso   1.000  C
  C1090    1.0000 0.09103  0.61176  0.13220  Biso   1.000  C
  C1091    1.0000 0.09105  0.61176  0.13220  Biso   1.000  C
  H953     1.0000 0.78614  0.36004  0.10717  Biso   1.000  H
  H954     1.0000 0.74778  0.33525  0.15338  Biso   1.000  H
  C1092    1.0000 0.78557  0.35315  0.26376  Biso   1.000  C
  H955     1.0000 0.78617  0.36004  0.10717  Biso   1.000  H
  H956     1.0000 0.74776  0.33525  0.15338  Biso   1.000  H
  C1093    1.0000 0.02950  0.45492  0.68819  Biso   1.000  C
  C1094    1.0000 0.02950  0.45492  0.68827  Biso   1.000  C
  C1095    1.0000 0.03426  0.40293  0.08704  Biso   1.000  C
  C1096    1.0000 0.03426  0.40293  0.08712  Biso   1.000  C
  C1097    1.0000 0.03423  0.40293  0.08704  Biso   1.000  C
  C1098    1.0000 0.03423  0.40293  0.08712  Biso   1.000  C
  H957     1.0000 0.99456  0.64743  0.48428  Biso   1.000  H
  H958     1.0000 0.97886  0.60693  0.51324  Biso   1.000  H
  H959     1.0000 0.99456  0.64743  0.48436  Biso   1.000  H
  H960     1.0000 0.97884  0.60693  0.51324  Biso   1.000  H
  H961     1.0000 0.01017  0.62544  0.43021  Biso   1.000  H
  H962     1.0000 0.01015  0.62544  0.43021  Biso   1.000  H
  C1099    1.0000 0.97047  0.54507  0.31181  Biso   1.000  C
  C1100    1.0000 0.97050  0.54507  0.31181  Biso   1.000  C
  C1101    1.0000 0.07631  0.58705  0.21867  Biso   1.000  C
  H963     1.0000 0.03334  0.55817  0.30924  Biso   1.000  H
  H964     1.0000 0.03334  0.55817  0.30932  Biso   1.000  H
  C1102    1.0000 0.07629  0.58705  0.21867  Biso   1.000  C
  H965     1.0000 0.03332  0.55817  0.30924  Biso   1.000  H
  H966     1.0000 0.03332  0.55817  0.30932  Biso   1.000  H
  H967     1.0000 0.06904  0.65428  0.95829  Biso   1.000  H
  C1103    1.0000 0.11759  0.66021  0.96270  Biso   1.000  C
  H968     1.0000 0.06901  0.65428  0.95829  Biso   1.000  H
  C1104    1.0000 0.11761  0.66021  0.96270  Biso   1.000  C
  C1105    1.0000 0.12663  0.62539  0.09779  Biso   1.000  C
  C1106    1.0000 0.12665  0.62539  0.09779  Biso   1.000  C
  H969     1.0000 0.78346  0.37375  0.27988  Biso   1.000  H
  H970     1.0000 0.81007  0.35935  0.26801  Biso   1.000  H
  H971     1.0000 0.77177  0.33453  0.31438  Biso   1.000  H
  H972     1.0000 0.81007  0.35935  0.26809  Biso   1.000  H
  H973     1.0000 0.77174  0.33453  0.31438  Biso   1.000  H
  C1107    1.0000 0.06520  0.45607  0.64544  Biso   1.000  C
  C1108    1.0000 0.05643  0.43742  0.14664  Biso   1.000  C
  H974     1.0000 0.02053  0.38348  0.13677  Biso   1.000  H
  H975     1.0000 0.04933  0.39697  0.04436  Biso   1.000  H
  C1109    1.0000 0.05643  0.43742  0.14672  Biso   1.000  C
  C1110    1.0000 0.05645  0.43742  0.14664  Biso   1.000  C
  C1111    1.0000 0.05645  0.43742  0.14672  Biso   1.000  C
  C1112    1.0000 0.93481  0.54395  0.35456  Biso   1.000  C
  C1113    1.0000 0.93481  0.54395  0.35464  Biso   1.000  C
  H976     1.0000 0.09043  0.57946  0.25317  Biso   1.000  H
  H977     1.0000 0.09040  0.57946  0.25317  Biso   1.000  H
  H978     1.0000 0.12663  0.67659  0.90655  Biso   1.000  H
  H979     1.0000 0.12663  0.67659  0.90663  Biso   1.000  H
  H980     1.0000 0.12666  0.67659  0.90655  Biso   1.000  H
  H981     1.0000 0.12666  0.67659  0.90663  Biso   1.000  H
  C1114    1.0000 0.13979  0.64936  0.01356  Biso   1.000  C
  C1115    1.0000 0.13979  0.64936  0.01364  Biso   1.000  C
  C1116    1.0000 0.14998  0.61318  0.15121  Biso   1.000  C
  C1117    1.0000 0.08339  0.47427  0.73263  Biso   1.000  C
  C1118    1.0000 0.08766  0.45615  0.65971  Biso   1.000  C
  C1119    1.0000 0.04071  0.44522  0.23127  Biso   1.000  C
  C1120    1.0000 0.09098  0.46347  0.11118  Biso   1.000  C
  C1121    1.0000 0.04073  0.44522  0.23127  Biso   1.000  C
  C1122    1.0000 0.91658  0.52573  0.26737  Biso   1.000  C
  C1123    1.0000 0.91233  0.54387  0.34029  Biso   1.000  C
  O145     1.0000 0.17425  0.66112  0.98372  Biso   1.000  O
  O146     1.0000 0.13842  0.57767  0.11447  Biso   1.000  O
  H982     1.0000 0.14762  0.61337  0.22854  Biso   1.000  H
  H983     1.0000 0.17483  0.62897  0.13228  Biso   1.000  H
  O147     1.0000 0.13842  0.57767  0.11455  Biso   1.000  O
  H984     1.0000 0.14762  0.61337  0.22862  Biso   1.000  H
  H985     1.0000 0.14764  0.61337  0.22854  Biso   1.000  H
  H986     1.0000 0.17481  0.62897  0.13228  Biso   1.000  H
  H987     1.0000 0.14764  0.61337  0.22862  Biso   1.000  H
  C1124    1.0000 0.12586  0.47285  0.69052  Biso   1.000  C
  O148     1.0000 0.00737  0.41904  0.26159  Biso   1.000  O
  C1125    1.0000 0.05823  0.47905  0.28181  Biso   1.000  C
  O149     1.0000 0.00735  0.41904  0.26159  Biso   1.000  O
  C1126    1.0000 0.05825  0.47905  0.28181  Biso   1.000  C
  C1127    1.0000 0.10949  0.45770  0.02623  Biso   1.000  C
  C1128    1.0000 0.10849  0.49805  0.16036  Biso   1.000  C
  C1129    1.0000 0.10949  0.45770  0.02631  Biso   1.000  C
  C1130    1.0000 0.10849  0.49805  0.16044  Biso   1.000  C
  C1131    1.0000 0.87413  0.52717  0.30948  Biso   1.000  C
  C1132    1.0000 0.18873  0.68490  0.89363  Biso   1.000  C
  C1133    1.0000 0.18873  0.68490  0.89371  Biso   1.000  C
  C1134    1.0000 0.18870  0.68490  0.89363  Biso   1.000  C
  C1135    1.0000 0.18870  0.68490  0.89371  Biso   1.000  C
  C1136    1.0000 0.15812  0.56281  0.16244  Biso   1.000  C
  C1137    1.0000 0.15812  0.56281  0.16252  Biso   1.000  C
  C1138    1.0000 0.99119  0.42369  0.35521  Biso   1.000  C
  H988     1.0000 0.04753  0.48386  0.33916  Biso   1.000  H
  C1139    1.0000 0.09085  0.50454  0.24587  Biso   1.000  C
  H989     1.0000 0.04753  0.48386  0.33924  Biso   1.000  H
  H990     1.0000 0.04751  0.48386  0.33916  Biso   1.000  H
  C1140    1.0000 0.09087  0.50454  0.24587  Biso   1.000  C
  H991     1.0000 0.04751  0.48386  0.33924  Biso   1.000  H
  C1141    1.0000 0.14184  0.48338  0.99045  Biso   1.000  C
  H992     1.0000 0.09893  0.43528  0.99398  Biso   1.000  H
  C1142    1.0000 0.14184  0.48338  0.99053  Biso   1.000  C
  C1143    1.0000 0.14186  0.48338  0.99045  Biso   1.000  C
  C1144    1.0000 0.14186  0.48338  0.99053  Biso   1.000  C
  C1145    1.0000 0.14196  0.52527  0.12049  Biso   1.000  C
  C1146    1.0000 0.14194  0.52527  0.12049  Biso   1.000  C
  H993     1.0000 0.17402  0.67426  0.83058  Biso   1.000  H
  H994     1.0000 0.18944  0.70729  0.90887  Biso   1.000  H
  C1147    1.0000 0.22552  0.69120  0.87510  Biso   1.000  C
  H995     1.0000 0.18942  0.70729  0.90887  Biso   1.000  H
  H996     1.0000 0.18324  0.57668  0.14295  Biso   1.000  H
  H997     1.0000 0.15622  0.56276  0.24009  Biso   1.000  H
  H998     1.0000 0.18324  0.57668  0.14303  Biso   1.000  H
  H999     1.0000 0.18321  0.57668  0.14295  Biso   1.000  H
  H1000    1.0000 0.15624  0.56276  0.24009  Biso   1.000  H
  H1001    1.0000 0.18321  0.57668  0.14303  Biso   1.000  H
  H1002    1.0000 0.98191  0.43956  0.34029  Biso   1.000  H
  C1148    1.0000 0.96136  0.38727  0.38609  Biso   1.000  C
  H1003    1.0000 0.00854  0.43387  0.41280  Biso   1.000  H
  H1004    1.0000 0.00852  0.43387  0.41280  Biso   1.000  H
  H1005    1.0000 0.10195  0.52688  0.27844  Biso   1.000  H
  H1006    1.0000 0.10195  0.52688  0.27852  Biso   1.000  H
  H1007    1.0000 0.10192  0.52688  0.27844  Biso   1.000  H
  H1008    1.0000 0.10192  0.52688  0.27852  Biso   1.000  H
  H1009    1.0000 0.15343  0.47828  0.93623  Biso   1.000  H
  H1010    1.0000 0.15343  0.47828  0.93631  Biso   1.000  H
  C1149    1.0000 0.15802  0.51801  0.03586  Biso   1.000  C
  C1150    1.0000 0.15802  0.51801  0.03594  Biso   1.000  C
  H1011    1.0000 0.23922  0.70077  0.94048  Biso   1.000  H
  H1012    1.0000 0.23673  0.70926  0.81983  Biso   1.000  H
  C1151    1.0000 0.22758  0.65916  0.84245  Biso   1.000  C
  H1013    1.0000 0.23673  0.70926  0.81991  Biso   1.000  H
  C1152    1.0000 0.22758  0.65916  0.84253  Biso   1.000  C
  C1153    1.0000 0.22760  0.65916  0.84245  Biso   1.000  C
  C1154    1.0000 0.22760  0.65916  0.84253  Biso   1.000  C
  H1014    1.0000 0.94871  0.38978  0.44665  Biso   1.000  H
  H1015    1.0000 0.94464  0.37757  0.32681  Biso   1.000  H
  C1155    1.0000 0.97308  0.36087  0.41529  Biso   1.000  C
  H1016    1.0000 0.94871  0.38978  0.44674  Biso   1.000  H
  H1017    1.0000 0.94873  0.38978  0.44665  Biso   1.000  H
  H1018    1.0000 0.94462  0.37757  0.32681  Biso   1.000  H
  C1156    1.0000 0.97306  0.36087  0.41529  Biso   1.000  C
  H1019    1.0000 0.94873  0.38978  0.44674  Biso   1.000  H
  O150     1.0000 0.18887  0.54598  0.99607  Biso   1.000  O
  H1020    1.0000 0.21384  0.63998  0.89283  Biso   1.000  H
  H1021    1.0000 0.25223  0.66478  0.84662  Biso   1.000  H
  C1157    1.0000 0.21442  0.64687  0.73624  Biso   1.000  C
  H1022    1.0000 0.21384  0.63998  0.89291  Biso   1.000  H
  H1023    1.0000 0.25223  0.66478  0.84670  Biso   1.000  H
  C1158    1.0000 0.21442  0.64687  0.73632  Biso   1.000  C
  H1024    1.0000 0.25225  0.66478  0.84662  Biso   1.000  H
  H1025    1.0000 0.25225  0.66478  0.84670  Biso   1.000  H
  H1026    1.0000 0.98322  0.35638  0.35176  Biso   1.000  H
  H1027    1.0000 0.95202  0.33856  0.43470  Biso   1.000  H
  C1159    1.0000 0.99979  0.37121  0.50497  Biso   1.000  C
  H1028    1.0000 0.98322  0.35638  0.35184  Biso   1.000  H
  C1160    1.0000 0.99979  0.37121  0.50505  Biso   1.000  C
  C1161    1.0000 0.99977  0.37121  0.50497  Biso   1.000  C
  C1162    1.0000 0.99977  0.37121  0.50505  Biso   1.000  C
  C1163    1.0000 0.21101  0.53968  0.92468  Biso   1.000  C
  C1164    1.0000 0.21099  0.53968  0.92468  Biso   1.000  C
  H1029    1.0000 0.21652  0.62627  0.72012  Biso   1.000  H
  H1030    1.0000 0.18994  0.64067  0.73199  Biso   1.000  H
  H1031    1.0000 0.22823  0.66547  0.68562  Biso   1.000  H
  H1032    1.0000 0.21652  0.62627  0.72020  Biso   1.000  H
  H1033    1.0000 0.22823  0.66547  0.68571  Biso   1.000  H
  H1034    1.0000 0.22821  0.66547  0.68562  Biso   1.000  H
  H1035    1.0000 0.22821  0.66547  0.68571  Biso   1.000  H
  H1036    1.0000 0.98982  0.37458  0.56979  Biso   1.000  H
  H1037    1.0000 0.00542  0.35256  0.51572  Biso   1.000  H
  H1038    1.0000 0.02114  0.39307  0.48676  Biso   1.000  H
  H1039    1.0000 0.02114  0.39307  0.48684  Biso   1.000  H
  H1040    1.0000 0.21693  0.52276  0.95628  Biso   1.000  H
  H1041    1.0000 0.19864  0.52987  0.85745  Biso   1.000  H
  C1165    1.0000 0.24439  0.57487  0.90558  Biso   1.000  C
  H1042    1.0000 0.19864  0.52987  0.85753  Biso   1.000  H
  C1166    1.0000 0.26352  0.60028  0.99358  Biso   1.000  C
  C1167    1.0000 0.26493  0.58138  0.02126  Biso   1.000  C
  C1168    1.0000 0.29762  0.62117  0.00505  Biso   1.000  C
  C1169    1.0000 0.29762  0.62117  0.00513  Biso   1.000  C
  C1170    1.0000 0.27524  0.58617  0.07765  Biso   1.000  C
  C1171    1.0000 0.67645  0.29763  0.99495  Biso   1.000  C
  C1172    1.0000 0.68357  0.26495  0.97874  Biso   1.000  C
  C1173    1.0000 0.66327  0.26353  0.00642  Biso   1.000  C
  C1174    1.0000 0.66327  0.26353  0.00650  Biso   1.000  C
  C1175    1.0000 0.66324  0.26353  0.00642  Biso   1.000  C
  C1176    1.0000 0.66324  0.26353  0.00650  Biso   1.000  C
  C1177    1.0000 0.68906  0.27524  0.92235  Biso   1.000  C
  C1178    1.0000 0.66952  0.24437  0.09442  Biso   1.000  C
  C1179    1.0000 0.66952  0.24437  0.09450  Biso   1.000  C
  C1180    1.0000 0.67134  0.21100  0.07532  Biso   1.000  C
  C1181    1.0000 0.67134  0.21100  0.07541  Biso   1.000  C
  O151     1.0000 0.64288  0.18888  0.00393  Biso   1.000  O
  O152     1.0000 0.64287  0.18885  0.00393  Biso   1.000  O
  H1043    1.0000 0.69416  0.21693  0.04372  Biso   1.000  H
  H1044    1.0000 0.66877  0.19863  0.14255  Biso   1.000  H
  H1045    1.0000 0.69416  0.21693  0.04380  Biso   1.000  H
  H1046    1.0000 0.66874  0.19863  0.14255  Biso   1.000  H
  C1182    1.0000 0.64003  0.15804  0.96414  Biso   1.000  C
  C1183    1.0000 0.64001  0.15802  0.96414  Biso   1.000  C
  C1184    1.0000 0.61669  0.14196  0.87951  Biso   1.000  C
  C1185    1.0000 0.61669  0.14196  0.87959  Biso   1.000  C
  C1186    1.0000 0.61665  0.14193  0.87951  Biso   1.000  C
  C1187    1.0000 0.61665  0.14193  0.87959  Biso   1.000  C
  C1188    1.0000 0.65847  0.14185  0.00955  Biso   1.000  C
  C1189    1.0000 0.65843  0.14183  0.00955  Biso   1.000  C
  C1190    1.0000 0.59529  0.15812  0.83756  Biso   1.000  C
  C1191    1.0000 0.59528  0.15810  0.83756  Biso   1.000  C
  C1192    1.0000 0.61045  0.10851  0.83964  Biso   1.000  C
  C1193    1.0000 0.61043  0.10848  0.83964  Biso   1.000  C
  C1194    1.0000 0.65180  0.10950  0.97377  Biso   1.000  C
  H1047    1.0000 0.67515  0.15342  0.06377  Biso   1.000  H
  O153     1.0000 0.56078  0.13843  0.88553  Biso   1.000  O
  O154     1.0000 0.56076  0.13843  0.88553  Biso   1.000  O
  H1048    1.0000 0.60655  0.18324  0.85705  Biso   1.000  H
  H1049    1.0000 0.59346  0.15623  0.75991  Biso   1.000  H
  H1050    1.0000 0.59346  0.15623  0.75999  Biso   1.000  H
  H1051    1.0000 0.60654  0.18321  0.85705  Biso   1.000  H
  H1052    1.0000 0.59344  0.15623  0.75991  Biso   1.000  H
  H1053    1.0000 0.59344  0.15623  0.75999  Biso   1.000  H
  C1195    1.0000 0.58631  0.09087  0.75413  Biso   1.000  C
  C1196    1.0000 0.62753  0.09098  0.88882  Biso   1.000  C
  C1197    1.0000 0.62753  0.09098  0.88890  Biso   1.000  C
  C1198    1.0000 0.58630  0.09085  0.75413  Biso   1.000  C
  C1199    1.0000 0.62750  0.09098  0.88882  Biso   1.000  C
  C1200    1.0000 0.62750  0.09098  0.88890  Biso   1.000  C
  H1054    1.0000 0.66367  0.09894  0.00602  Biso   1.000  H
  H1055    1.0000 0.66367  0.09894  0.00610  Biso   1.000  H
  H1056    1.0000 0.66364  0.09891  0.00602  Biso   1.000  H
  H1057    1.0000 0.66364  0.09891  0.00610  Biso   1.000  H
  C1201    1.0000 0.53679  0.14998  0.84879  Biso   1.000  C
  C1202    1.0000 0.53679  0.14998  0.84887  Biso   1.000  C
  C1203    1.0000 0.57918  0.05825  0.71819  Biso   1.000  C
  H1058    1.0000 0.57507  0.10193  0.72156  Biso   1.000  H
  C1204    1.0000 0.57918  0.05825  0.71827  Biso   1.000  C
  C1205    1.0000 0.57917  0.05822  0.71819  Biso   1.000  C
  C1206    1.0000 0.57917  0.05822  0.71827  Biso   1.000  C
  C1207    1.0000 0.61902  0.05643  0.85336  Biso   1.000  C
  C1208    1.0000 0.61900  0.05643  0.85336  Biso   1.000  C
  C1209    1.0000 0.50124  0.12662  0.90221  Biso   1.000  C
  C1210    1.0000 0.50124  0.12662  0.90229  Biso   1.000  C
  H1059    1.0000 0.53425  0.14762  0.77146  Biso   1.000  H
  H1060    1.0000 0.54586  0.17482  0.86772  Biso   1.000  H
  H1061    1.0000 0.54586  0.17482  0.86780  Biso   1.000  H
  H1062    1.0000 0.54584  0.17482  0.86772  Biso   1.000  H
  H1063    1.0000 0.54584  0.17482  0.86780  Biso   1.000  H
  C1211    1.0000 0.59550  0.04072  0.76873  Biso   1.000  C
  H1064    1.0000 0.56367  0.04753  0.66084  Biso   1.000  H
  C1212    1.0000 0.59549  0.04069  0.76873  Biso   1.000  C
  H1065    1.0000 0.56365  0.04753  0.66084  Biso   1.000  H
  C1213    1.0000 0.63133  0.03425  0.91296  Biso   1.000  C
  C1214    1.0000 0.63132  0.03423  0.91296  Biso   1.000  C
  C1215    1.0000 0.49042  0.13980  0.98644  Biso   1.000  C
  C1216    1.0000 0.47926  0.09103  0.86780  Biso   1.000  C
  C1217    1.0000 0.47926  0.09103  0.86788  Biso   1.000  C
  C1218    1.0000 0.49041  0.13977  0.98644  Biso   1.000  C
  O155     1.0000 0.58834  0.00737  0.73841  Biso   1.000  O
  O156     1.0000 0.58834  0.00737  0.73849  Biso   1.000  O
  O157     1.0000 0.58830  0.00735  0.73841  Biso   1.000  O
  O158     1.0000 0.58830  0.00735  0.73849  Biso   1.000  O
  O159     1.0000 0.60181  0.01085  0.98051  Biso   1.000  O
  H1066    1.0000 0.63705  0.02052  0.86323  Biso   1.000  H
  H1067    1.0000 0.65235  0.04932  0.95564  Biso   1.000  H
  O160     1.0000 0.60180  0.01082  0.98051  Biso   1.000  O
  O161     1.0000 0.51313  0.17424  0.01628  Biso   1.000  O
  C1219    1.0000 0.45739  0.11759  0.03730  Biso   1.000  C
  O162     1.0000 0.51313  0.17424  0.01636  Biso   1.000  O
  C1220    1.0000 0.45739  0.11759  0.03738  Biso   1.000  C
  C1221    1.0000 0.48927  0.07631  0.78133  Biso   1.000  C
  C1222    1.0000 0.44566  0.06832  0.91882  Biso   1.000  C
  C1223    1.0000 0.44566  0.06832  0.91890  Biso   1.000  C
  C1224    1.0000 0.48924  0.07628  0.78133  Biso   1.000  C
  C1225    1.0000 0.44565  0.06829  0.91882  Biso   1.000  C
  C1226    1.0000 0.44565  0.06829  0.91890  Biso   1.000  C
  C1227    1.0000 0.56752  0.99124  0.64479  Biso   1.000  C
  C1228    1.0000 0.56752  0.99124  0.64487  Biso   1.000  C
  C1229    1.0000 0.56751  0.99121  0.64479  Biso   1.000  C
  C1230    1.0000 0.56751  0.99121  0.64487  Biso   1.000  C
  C1231    1.0000 0.61053  0.99289  0.06040  Biso   1.000  C
  C1232    1.0000 0.61053  0.99289  0.06048  Biso   1.000  C
  C1233    1.0000 0.61052  0.99287  0.06040  Biso   1.000  C
  C1234    1.0000 0.61052  0.99287  0.06048  Biso   1.000  C
  C1235    1.0000 0.50384  0.18875  0.10637  Biso   1.000  C
  C1236    1.0000 0.50383  0.18872  0.10637  Biso   1.000  C
  C1237    1.0000 0.43613  0.08323  0.00562  Biso   1.000  C
  H1068    1.0000 0.45006  0.12662  0.09345  Biso   1.000  H
  C1238    1.0000 0.43613  0.08323  0.00570  Biso   1.000  C
  C1239    1.0000 0.43610  0.08320  0.00562  Biso   1.000  C
  C1240    1.0000 0.43610  0.08320  0.00570  Biso   1.000  C
  H1069    1.0000 0.51096  0.09044  0.74683  Biso   1.000  H
  C1241    1.0000 0.46799  0.04216  0.74771  Biso   1.000  C
  C1242    1.0000 0.46799  0.04216  0.74779  Biso   1.000  C
  H1070    1.0000 0.51095  0.09042  0.74683  Biso   1.000  H
  C1243    1.0000 0.46798  0.04214  0.74771  Biso   1.000  C
  C1244    1.0000 0.46798  0.04214  0.74779  Biso   1.000  C
  C1245    1.0000 0.42362  0.03246  0.88304  Biso   1.000  C
  C1246    1.0000 0.42360  0.03244  0.88304  Biso   1.000  C
  H1071    1.0000 0.57466  0.00852  0.58720  Biso   1.000  H
  H1072    1.0000 0.57466  0.00852  0.58728  Biso   1.000  H
  H1073    1.0000 0.57464  0.00852  0.58720  Biso   1.000  H
  H1074    1.0000 0.57464  0.00852  0.58728  Biso   1.000  H
  H1075    1.0000 0.54239  0.98196  0.65971  Biso   1.000  H
  C1247    1.0000 0.57412  0.96139  0.61391  Biso   1.000  C
  C1248    1.0000 0.57412  0.96139  0.61399  Biso   1.000  C
  H1076    1.0000 0.54235  0.98194  0.65971  Biso   1.000  H
  H1077    1.0000 0.62098  0.97985  0.02751  Biso   1.000  H
  C1249    1.0000 0.57637  0.96756  0.11696  Biso   1.000  C
  H1078    1.0000 0.62098  0.97985  0.02760  Biso   1.000  H
  C1250    1.0000 0.57637  0.96756  0.11704  Biso   1.000  C
  H1079    1.0000 0.62766  0.00994  0.11086  Biso   1.000  H
  H1080    1.0000 0.62765  0.00991  0.11086  Biso   1.000  H
  H1081    1.0000 0.49976  0.17402  0.16942  Biso   1.000  H
  H1082    1.0000 0.48216  0.18944  0.09113  Biso   1.000  H
  C1251    1.0000 0.53434  0.22554  0.12490  Biso   1.000  C
  H1083    1.0000 0.49976  0.17402  0.16950  Biso   1.000  H
  H1084    1.0000 0.48216  0.18944  0.09121  Biso   1.000  H
  C1252    1.0000 0.53434  0.22554  0.12498  Biso   1.000  C
  H1085    1.0000 0.49974  0.17402  0.16942  Biso   1.000  H
  H1086    1.0000 0.48214  0.18941  0.09113  Biso   1.000  H
  C1253    1.0000 0.53430  0.22551  0.12490  Biso   1.000  C
  H1087    1.0000 0.49974  0.17402  0.16950  Biso   1.000  H
  H1088    1.0000 0.48214  0.18941  0.09121  Biso   1.000  H
  C1254    1.0000 0.53430  0.22551  0.12498  Biso   1.000  C
  H1089    1.0000 0.41476  0.06904  0.04171  Biso   1.000  H
  H1090    1.0000 0.41476  0.06904  0.04179  Biso   1.000  H
  H1091    1.0000 0.41475  0.06902  0.04171  Biso   1.000  H
  H1092    1.0000 0.41475  0.06902  0.04179  Biso   1.000  H
  H1093    1.0000 0.47517  0.03335  0.69076  Biso   1.000  H
  C1255    1.0000 0.43505  0.02001  0.79913  Biso   1.000  C
  H1094    1.0000 0.47516  0.03332  0.69076  Biso   1.000  H
  C1256    1.0000 0.38946  0.00713  0.93960  Biso   1.000  C
  H1095    1.0000 0.55896  0.94875  0.55335  Biso   1.000  H
  H1096    1.0000 0.56708  0.94466  0.67319  Biso   1.000  H
  C1257    1.0000 0.61223  0.97309  0.58471  Biso   1.000  C
  H1097    1.0000 0.56708  0.94466  0.67327  Biso   1.000  H
  C1258    1.0000 0.61223  0.97309  0.58479  Biso   1.000  C
  H1098    1.0000 0.56706  0.94464  0.67319  Biso   1.000  H
  C1259    1.0000 0.61220  0.97309  0.58471  Biso   1.000  C
  H1099    1.0000 0.56706  0.94464  0.67327  Biso   1.000  H
  C1260    1.0000 0.61220  0.97309  0.58479  Biso   1.000  C
  C1261    1.0000 0.56497  0.98001  0.20087  Biso   1.000  C
  C1262    1.0000 0.55433  0.93171  0.08118  Biso   1.000  C
  C1263    1.0000 0.56493  0.97999  0.20087  Biso   1.000  C
  H1100    1.0000 0.53846  0.23924  0.05952  Biso   1.000  H
  H1101    1.0000 0.52746  0.23673  0.18017  Biso   1.000  H
  C1264    1.0000 0.56843  0.22759  0.15755  Biso   1.000  C
  H1102    1.0000 0.53846  0.23924  0.05960  Biso   1.000  H
  H1103    1.0000 0.53845  0.23922  0.05952  Biso   1.000  H
  C1265    1.0000 0.56842  0.22757  0.15755  Biso   1.000  C
  H1104    1.0000 0.53845  0.23922  0.05960  Biso   1.000  H
  O163     1.0000 0.41279  0.98549  0.76721  Biso   1.000  O
  O164     1.0000 0.41279  0.98549  0.76729  Biso   1.000  O
  H1105    1.0000 0.37904  0.02017  0.97249  Biso   1.000  H
  H1106    1.0000 0.37900  0.02015  0.97249  Biso   1.000  H
  H1107    1.0000 0.37235  0.99009  0.88914  Biso   1.000  H
  H1108    1.0000 0.37235  0.99009  0.88922  Biso   1.000  H
  H1109    1.0000 0.37233  0.99009  0.88914  Biso   1.000  H
  H1110    1.0000 0.37233  0.99009  0.88922  Biso   1.000  H
  O165     1.0000 0.39818  0.98918  0.01949  Biso   1.000  O
  O166     1.0000 0.39818  0.98918  0.01957  Biso   1.000  O
  H1111    1.0000 0.62686  0.98325  0.64824  Biso   1.000  H
  H1112    1.0000 0.61347  0.95207  0.56530  Biso   1.000  H
  C1266    1.0000 0.62859  0.99981  0.49503  Biso   1.000  C
  H1113    1.0000 0.61347  0.95207  0.56538  Biso   1.000  H
  H1114    1.0000 0.61345  0.95204  0.56530  Biso   1.000  H
  H1115    1.0000 0.61345  0.95204  0.56538  Biso   1.000  H
  C1267    1.0000 0.53202  0.95786  0.25229  Biso   1.000  C
  C1268    1.0000 0.53200  0.95786  0.25229  Biso   1.000  C
  O167     1.0000 0.58720  0.01454  0.23279  Biso   1.000  O
  O168     1.0000 0.58719  0.01451  0.23279  Biso   1.000  O
  C1269    1.0000 0.56388  0.91680  0.99438  Biso   1.000  C
  C1270    1.0000 0.52073  0.90899  0.13220  Biso   1.000  C
  C1271    1.0000 0.52072  0.90897  0.13220  Biso   1.000  C
  H1116    1.0000 0.57386  0.21383  0.10717  Biso   1.000  H
  H1117    1.0000 0.58746  0.25223  0.15338  Biso   1.000  H
  C1272    1.0000 0.56757  0.21445  0.26376  Biso   1.000  C
  C1273    1.0000 0.56754  0.21442  0.26376  Biso   1.000  C
  C1274    1.0000 0.42544  0.97053  0.68819  Biso   1.000  C
  C1275    1.0000 0.42544  0.97053  0.68827  Biso   1.000  C
  C1276    1.0000 0.36868  0.96577  0.08704  Biso   1.000  C
  C1277    1.0000 0.36868  0.96577  0.08712  Biso   1.000  C
  C1278    1.0000 0.36866  0.96577  0.08704  Biso   1.000  C
  C1279    1.0000 0.36866  0.96577  0.08712  Biso   1.000  C
  H1118    1.0000 0.65285  0.00542  0.48428  Biso   1.000  H
  H1119    1.0000 0.62806  0.02113  0.51324  Biso   1.000  H
  H1120    1.0000 0.65285  0.00542  0.48436  Biso   1.000  H
  H1121    1.0000 0.61526  0.98985  0.43021  Biso   1.000  H
  C1280    1.0000 0.51074  0.92372  0.21867  Biso   1.000  C
  H1122    1.0000 0.52484  0.96668  0.30924  Biso   1.000  H
  H1123    1.0000 0.52484  0.96668  0.30932  Biso   1.000  H
  H1124    1.0000 0.52482  0.96668  0.30924  Biso   1.000  H
  H1125    1.0000 0.52482  0.96668  0.30932  Biso   1.000  H
  C1281    1.0000 0.57457  0.02950  0.31181  Biso   1.000  C
  C1282    1.0000 0.57455  0.02950  0.31181  Biso   1.000  C
  H1126    1.0000 0.58523  0.93098  0.95829  Biso   1.000  H
  C1283    1.0000 0.54260  0.88244  0.96270  Biso   1.000  C
  C1284    1.0000 0.54259  0.88241  0.96270  Biso   1.000  C
  C1285    1.0000 0.49875  0.87340  0.09779  Biso   1.000  C
  C1286    1.0000 0.49874  0.87338  0.09779  Biso   1.000  C
  H1127    1.0000 0.59025  0.21653  0.27988  Biso   1.000  H
  H1128    1.0000 0.54926  0.18995  0.26801  Biso   1.000  H
  H1129    1.0000 0.56276  0.22824  0.31438  Biso   1.000  H
  H1130    1.0000 0.54926  0.18995  0.26809  Biso   1.000  H
  H1131    1.0000 0.54925  0.18992  0.26801  Biso   1.000  H
  H1132    1.0000 0.54925  0.18992  0.26809  Biso   1.000  H
  C1287    1.0000 0.39086  0.93483  0.64544  Biso   1.000  C
  C1288    1.0000 0.38099  0.94360  0.14664  Biso   1.000  C
  H1133    1.0000 0.36294  0.97951  0.13677  Biso   1.000  H
  H1134    1.0000 0.34766  0.95070  0.04436  Biso   1.000  H
  C1289    1.0000 0.38099  0.94360  0.14672  Biso   1.000  C
  C1290    1.0000 0.38098  0.94357  0.14664  Biso   1.000  C
  H1135    1.0000 0.36293  0.97948  0.13677  Biso   1.000  H
  H1136    1.0000 0.34762  0.95068  0.04436  Biso   1.000  H
  C1291    1.0000 0.38098  0.94357  0.14672  Biso   1.000  C
  H1137    1.0000 0.48903  0.90958  0.25317  Biso   1.000  H
  C1292    1.0000 0.60913  0.06520  0.35456  Biso   1.000  C
  C1293    1.0000 0.60913  0.06520  0.35464  Biso   1.000  C
  C1294    1.0000 0.60912  0.06517  0.35456  Biso   1.000  C
  C1295    1.0000 0.60912  0.06517  0.35464  Biso   1.000  C
  C1296    1.0000 0.50957  0.86023  0.01356  Biso   1.000  C
  C1297    1.0000 0.50957  0.86023  0.01364  Biso   1.000  C
  H1138    1.0000 0.54996  0.87340  0.90655  Biso   1.000  H
  H1139    1.0000 0.54996  0.87340  0.90663  Biso   1.000  H
  H1140    1.0000 0.54992  0.87338  0.90655  Biso   1.000  H
  H1141    1.0000 0.54992  0.87338  0.90663  Biso   1.000  H
  C1298    1.0000 0.46320  0.85005  0.15121  Biso   1.000  C
  C1299    1.0000 0.46318  0.85002  0.15121  Biso   1.000  C
  C1300    1.0000 0.39087  0.91661  0.73263  Biso   1.000  C
  C1301    1.0000 0.36847  0.91236  0.65971  Biso   1.000  C
  C1302    1.0000 0.40451  0.95931  0.23127  Biso   1.000  C
  C1303    1.0000 0.37249  0.90905  0.11118  Biso   1.000  C
  C1304    1.0000 0.40449  0.95931  0.23127  Biso   1.000  C
  C1305    1.0000 0.37247  0.90902  0.11118  Biso   1.000  C
  C1306    1.0000 0.60912  0.08342  0.26737  Biso   1.000  C
  C1307    1.0000 0.60911  0.08339  0.26737  Biso   1.000  C
  C1308    1.0000 0.63152  0.08767  0.34029  Biso   1.000  C
  O169     1.0000 0.48686  0.82579  0.98372  Biso   1.000  O
  O170     1.0000 0.43923  0.86159  0.11447  Biso   1.000  O
  O171     1.0000 0.43923  0.86159  0.11455  Biso   1.000  O
  O172     1.0000 0.43922  0.86157  0.11447  Biso   1.000  O
  O173     1.0000 0.43922  0.86157  0.11455  Biso   1.000  O
  H1142    1.0000 0.46574  0.85240  0.22854  Biso   1.000  H
  H1143    1.0000 0.45415  0.82520  0.13228  Biso   1.000  H
  H1144    1.0000 0.46574  0.85240  0.22862  Biso   1.000  H
  H1145    1.0000 0.46572  0.85238  0.22854  Biso   1.000  H
  H1146    1.0000 0.45414  0.82518  0.13228  Biso   1.000  H
  H1147    1.0000 0.46572  0.85238  0.22862  Biso   1.000  H
  C1309    1.0000 0.34696  0.87415  0.69052  Biso   1.000  C
  O174     1.0000 0.41167  0.99265  0.26159  Biso   1.000  O
  C1310    1.0000 0.42083  0.94178  0.28181  Biso   1.000  C
  C1311    1.0000 0.42081  0.94178  0.28181  Biso   1.000  C
  C1312    1.0000 0.34821  0.89053  0.02623  Biso   1.000  C
  C1313    1.0000 0.38954  0.89152  0.16036  Biso   1.000  C
  C1314    1.0000 0.34821  0.89053  0.02631  Biso   1.000  C
  C1315    1.0000 0.38954  0.89152  0.16044  Biso   1.000  C
  C1316    1.0000 0.34819  0.89053  0.02623  Biso   1.000  C
  C1317    1.0000 0.34819  0.89053  0.02631  Biso   1.000  C
  C1318    1.0000 0.65303  0.12587  0.30948  Biso   1.000  C
  C1319    1.0000 0.65301  0.12585  0.30948  Biso   1.000  C
  C1320    1.0000 0.49617  0.81128  0.89363  Biso   1.000  C
  C1321    1.0000 0.49617  0.81128  0.89371  Biso   1.000  C
  C1322    1.0000 0.49615  0.81128  0.89363  Biso   1.000  C
  C1323    1.0000 0.49615  0.81128  0.89371  Biso   1.000  C
  C1324    1.0000 0.40470  0.84190  0.16244  Biso   1.000  C
  C1325    1.0000 0.40470  0.84190  0.16252  Biso   1.000  C
  C1326    1.0000 0.43247  0.00879  0.35521  Biso   1.000  C
  H1148    1.0000 0.43634  0.95249  0.33916  Biso   1.000  H
  C1327    1.0000 0.41368  0.90915  0.24587  Biso   1.000  C
  H1149    1.0000 0.43634  0.95249  0.33924  Biso   1.000  H
  C1328    1.0000 0.34154  0.85817  0.99045  Biso   1.000  C
  H1150    1.0000 0.33634  0.90109  0.99398  Biso   1.000  H
  C1329    1.0000 0.34154  0.85817  0.99053  Biso   1.000  C
  C1330    1.0000 0.38332  0.85807  0.12049  Biso   1.000  C
  H1151    1.0000 0.50025  0.82600  0.83058  Biso   1.000  H
  H1152    1.0000 0.51783  0.81059  0.90887  Biso   1.000  H
  C1331    1.0000 0.46568  0.77449  0.87510  Biso   1.000  C
  H1153    1.0000 0.50024  0.82598  0.83058  Biso   1.000  H
  H1154    1.0000 0.39344  0.81679  0.14295  Biso   1.000  H
  H1155    1.0000 0.40655  0.84380  0.24009  Biso   1.000  H
  H1156    1.0000 0.39344  0.81679  0.14303  Biso   1.000  H
  H1157    1.0000 0.40654  0.84377  0.24009  Biso   1.000  H
  H1158    1.0000 0.42535  0.99150  0.41280  Biso   1.000  H
  H1159    1.0000 0.42534  0.99148  0.41280  Biso   1.000  H
  H1160    1.0000 0.45763  0.01806  0.34029  Biso   1.000  H
  C1332    1.0000 0.42589  0.03864  0.38609  Biso   1.000  C
  C1333    1.0000 0.42586  0.03861  0.38609  Biso   1.000  C
  H1161    1.0000 0.42495  0.89809  0.27844  Biso   1.000  H
  H1162    1.0000 0.42495  0.89809  0.27852  Biso   1.000  H
  H1163    1.0000 0.42493  0.89809  0.27844  Biso   1.000  H
  H1164    1.0000 0.42493  0.89809  0.27852  Biso   1.000  H
  H1165    1.0000 0.32486  0.84660  0.93623  Biso   1.000  H
  H1166    1.0000 0.32486  0.84660  0.93631  Biso   1.000  H
  H1167    1.0000 0.32482  0.84658  0.93623  Biso   1.000  H
  H1168    1.0000 0.32482  0.84658  0.93631  Biso   1.000  H
  C1334    1.0000 0.35999  0.84198  0.03586  Biso   1.000  C
  C1335    1.0000 0.35999  0.84198  0.03594  Biso   1.000  C
  C1336    1.0000 0.35996  0.84198  0.03586  Biso   1.000  C
  C1337    1.0000 0.35996  0.84198  0.03594  Biso   1.000  C
  H1169    1.0000 0.46153  0.76078  0.94048  Biso   1.000  H
  H1170    1.0000 0.47255  0.76329  0.81983  Biso   1.000  H
  C1338    1.0000 0.43156  0.77243  0.84245  Biso   1.000  C
  H1171    1.0000 0.47255  0.76329  0.81991  Biso   1.000  H
  C1339    1.0000 0.43156  0.77243  0.84253  Biso   1.000  C
  H1172    1.0000 0.47251  0.76327  0.81983  Biso   1.000  H
  H1173    1.0000 0.47251  0.76327  0.81991  Biso   1.000  H
  H1174    1.0000 0.44103  0.05127  0.44665  Biso   1.000  H
  H1175    1.0000 0.43291  0.05536  0.32681  Biso   1.000  H
  C1340    1.0000 0.38779  0.02693  0.41529  Biso   1.000  C
  H1176    1.0000 0.44103  0.05127  0.44674  Biso   1.000  H
  H1177    1.0000 0.44102  0.05125  0.44665  Biso   1.000  H
  C1341    1.0000 0.38777  0.02691  0.41529  Biso   1.000  C
  H1178    1.0000 0.44102  0.05125  0.44674  Biso   1.000  H
  O175     1.0000 0.35711  0.81115  0.99607  Biso   1.000  O
  H1179    1.0000 0.42615  0.78619  0.89283  Biso   1.000  H
  H1180    1.0000 0.41256  0.74780  0.84662  Biso   1.000  H
  C1342    1.0000 0.43244  0.78558  0.73624  Biso   1.000  C
  H1181    1.0000 0.42615  0.78619  0.89291  Biso   1.000  H
  H1182    1.0000 0.41256  0.74780  0.84670  Biso   1.000  H
  C1343    1.0000 0.43244  0.78558  0.73632  Biso   1.000  C
  H1183    1.0000 0.42613  0.78619  0.89283  Biso   1.000  H
  H1184    1.0000 0.41252  0.74777  0.84662  Biso   1.000  H
  H1185    1.0000 0.42613  0.78619  0.89291  Biso   1.000  H
  H1186    1.0000 0.41252  0.74777  0.84670  Biso   1.000  H
  H1187    1.0000 0.37313  0.01678  0.35176  Biso   1.000  H
  H1188    1.0000 0.38652  0.04796  0.43470  Biso   1.000  H
  C1344    1.0000 0.37142  0.00021  0.50497  Biso   1.000  C
  H1189    1.0000 0.37313  0.01678  0.35184  Biso   1.000  H
  C1345    1.0000 0.37142  0.00021  0.50505  Biso   1.000  C
  H1190    1.0000 0.37312  0.01675  0.35176  Biso   1.000  H
  C1346    1.0000 0.37138  0.00019  0.50497  Biso   1.000  C
  H1191    1.0000 0.37312  0.01675  0.35184  Biso   1.000  H
  C1347    1.0000 0.37138  0.00019  0.50505  Biso   1.000  C
  C1348    1.0000 0.32867  0.78902  0.92468  Biso   1.000  C
  C1349    1.0000 0.32864  0.78900  0.92468  Biso   1.000  C
  H1192    1.0000 0.40974  0.78349  0.72012  Biso   1.000  H
  H1193    1.0000 0.45073  0.81008  0.73199  Biso   1.000  H
  H1194    1.0000 0.43723  0.77179  0.68562  Biso   1.000  H
  H1195    1.0000 0.40974  0.78349  0.72020  Biso   1.000  H
  H1196    1.0000 0.43723  0.77179  0.68571  Biso   1.000  H
  H1197    1.0000 0.40973  0.78347  0.72012  Biso   1.000  H
  H1198    1.0000 0.40973  0.78347  0.72020  Biso   1.000  H
  H1199    1.0000 0.34714  0.99460  0.51572  Biso   1.000  H
  H1200    1.0000 0.37193  0.97889  0.48676  Biso   1.000  H
  H1201    1.0000 0.37193  0.97889  0.48684  Biso   1.000  H
  H1202    1.0000 0.34713  0.99458  0.51572  Biso   1.000  H
  H1203    1.0000 0.38473  0.01018  0.56979  Biso   1.000  H
  H1204    1.0000 0.38472  0.01015  0.56979  Biso   1.000  H
  H1205    1.0000 0.30585  0.78309  0.95628  Biso   1.000  H
  H1206    1.0000 0.33125  0.80140  0.85745  Biso   1.000  H
  C1350    1.0000 0.33047  0.75565  0.90558  Biso   1.000  C
  H1207    1.0000 0.33125  0.80140  0.85753  Biso   1.000  H
  H1208    1.0000 0.30583  0.78309  0.95628  Biso   1.000  H
  H1209    1.0000 0.33123  0.80137  0.85745  Biso   1.000  H
  C1351    1.0000 0.33046  0.75563  0.90558  Biso   1.000  C
  H1210    1.0000 0.33123  0.80137  0.85753  Biso   1.000  H
  C1352    1.0000 0.33675  0.73649  0.99358  Biso   1.000  C
  C1353    1.0000 0.33673  0.73647  0.99358  Biso   1.000  C
  C1354    1.0000 0.31644  0.73508  0.02126  Biso   1.000  C
  C1355    1.0000 0.32354  0.70240  0.00505  Biso   1.000  C
  C1356    1.0000 0.32354  0.70240  0.00513  Biso   1.000  C
  C1357    1.0000 0.32353  0.70237  0.00505  Biso   1.000  C
  C1358    1.0000 0.32353  0.70237  0.00513  Biso   1.000  C
  C1359    1.0000 0.31095  0.72479  0.07765  Biso   1.000  C
  C1360    1.0000 0.67645  0.29763  0.99495  Biso   1.000  C
  C1361    1.0000 0.68357  0.26495  0.97874  Biso   1.000  C
  C1362    1.0000 0.66327  0.26353  0.00642  Biso   1.000  C
  C1363    1.0000 0.66327  0.26353  0.00650  Biso   1.000  C
  C1364    1.0000 0.66324  0.26353  0.00642  Biso   1.000  C
  C1365    1.0000 0.66324  0.26353  0.00650  Biso   1.000  C
  C1366    1.0000 0.68906  0.27524  0.92235  Biso   1.000  C
  C1367    1.0000 0.66952  0.24437  0.09442  Biso   1.000  C
  C1368    1.0000 0.66952  0.24437  0.09450  Biso   1.000  C
  C1369    1.0000 0.67134  0.21100  0.07532  Biso   1.000  C
  C1370    1.0000 0.67134  0.21100  0.07541  Biso   1.000  C
  O176     1.0000 0.64288  0.18888  0.00393  Biso   1.000  O
  O177     1.0000 0.64287  0.18885  0.00393  Biso   1.000  O
  H1211    1.0000 0.69416  0.21693  0.04372  Biso   1.000  H
  H1212    1.0000 0.66877  0.19863  0.14255  Biso   1.000  H
  H1213    1.0000 0.69416  0.21693  0.04380  Biso   1.000  H
  H1214    1.0000 0.66874  0.19863  0.14255  Biso   1.000  H
  C1371    1.0000 0.64003  0.15804  0.96414  Biso   1.000  C
  C1372    1.0000 0.64001  0.15802  0.96414  Biso   1.000  C
  C1373    1.0000 0.61669  0.14196  0.87951  Biso   1.000  C
  C1374    1.0000 0.61669  0.14196  0.87959  Biso   1.000  C
  C1375    1.0000 0.61665  0.14193  0.87951  Biso   1.000  C
  C1376    1.0000 0.61665  0.14193  0.87959  Biso   1.000  C
  C1377    1.0000 0.65847  0.14185  0.00955  Biso   1.000  C
  C1378    1.0000 0.65843  0.14183  0.00955  Biso   1.000  C
  C1379    1.0000 0.59529  0.15812  0.83756  Biso   1.000  C
  C1380    1.0000 0.59528  0.15810  0.83756  Biso   1.000  C
  C1381    1.0000 0.61045  0.10851  0.83964  Biso   1.000  C
  C1382    1.0000 0.61043  0.10848  0.83964  Biso   1.000  C
  C1383    1.0000 0.65180  0.10950  0.97377  Biso   1.000  C
  H1215    1.0000 0.67515  0.15342  0.06377  Biso   1.000  H
  O178     1.0000 0.56078  0.13843  0.88553  Biso   1.000  O
  O179     1.0000 0.56076  0.13843  0.88553  Biso   1.000  O
  H1216    1.0000 0.60655  0.18324  0.85705  Biso   1.000  H
  H1217    1.0000 0.60654  0.18321  0.85705  Biso   1.000  H
  H1218    1.0000 0.59346  0.15623  0.75991  Biso   1.000  H
  H1219    1.0000 0.59346  0.15623  0.75999  Biso   1.000  H
  H1220    1.0000 0.59344  0.15623  0.75991  Biso   1.000  H
  H1221    1.0000 0.59344  0.15623  0.75999  Biso   1.000  H
  C1384    1.0000 0.58631  0.09087  0.75413  Biso   1.000  C
  C1385    1.0000 0.58630  0.09085  0.75413  Biso   1.000  C
  C1386    1.0000 0.62753  0.09098  0.88882  Biso   1.000  C
  C1387    1.0000 0.62753  0.09098  0.88890  Biso   1.000  C
  C1388    1.0000 0.62750  0.09098  0.88882  Biso   1.000  C
  C1389    1.0000 0.62750  0.09098  0.88890  Biso   1.000  C
  H1222    1.0000 0.66367  0.09894  0.00602  Biso   1.000  H
  H1223    1.0000 0.66367  0.09894  0.00610  Biso   1.000  H
  H1224    1.0000 0.66364  0.09891  0.00602  Biso   1.000  H
  H1225    1.0000 0.66364  0.09891  0.00610  Biso   1.000  H
  C1390    1.0000 0.53679  0.14998  0.84879  Biso   1.000  C
  C1391    1.0000 0.53679  0.14998  0.84887  Biso   1.000  C
  H1226    1.0000 0.57507  0.10193  0.72156  Biso   1.000  H
  C1392    1.0000 0.57918  0.05825  0.71819  Biso   1.000  C
  C1393    1.0000 0.57918  0.05825  0.71827  Biso   1.000  C
  C1394    1.0000 0.57917  0.05822  0.71819  Biso   1.000  C
  C1395    1.0000 0.57917  0.05822  0.71827  Biso   1.000  C
  C1396    1.0000 0.61902  0.05643  0.85336  Biso   1.000  C
  C1397    1.0000 0.61900  0.05643  0.85336  Biso   1.000  C
  C1398    1.0000 0.50124  0.12662  0.90221  Biso   1.000  C
  C1399    1.0000 0.50124  0.12662  0.90229  Biso   1.000  C
  H1227    1.0000 0.53425  0.14762  0.77146  Biso   1.000  H
  H1228    1.0000 0.54586  0.17482  0.86772  Biso   1.000  H
  H1229    1.0000 0.54586  0.17482  0.86780  Biso   1.000  H
  H1230    1.0000 0.54584  0.17482  0.86772  Biso   1.000  H
  H1231    1.0000 0.54584  0.17482  0.86780  Biso   1.000  H
  C1400    1.0000 0.59550  0.04072  0.76873  Biso   1.000  C
  H1232    1.0000 0.56367  0.04753  0.66084  Biso   1.000  H
  C1401    1.0000 0.59549  0.04069  0.76873  Biso   1.000  C
  H1233    1.0000 0.56365  0.04753  0.66084  Biso   1.000  H
  C1402    1.0000 0.63133  0.03425  0.91296  Biso   1.000  C
  C1403    1.0000 0.63132  0.03423  0.91296  Biso   1.000  C
  C1404    1.0000 0.49042  0.13980  0.98644  Biso   1.000  C
  C1405    1.0000 0.47926  0.09103  0.86780  Biso   1.000  C
  C1406    1.0000 0.49041  0.13977  0.98644  Biso   1.000  C
  C1407    1.0000 0.47926  0.09103  0.86788  Biso   1.000  C
  O180     1.0000 0.58834  0.00737  0.73841  Biso   1.000  O
  O181     1.0000 0.58834  0.00737  0.73849  Biso   1.000  O
  O182     1.0000 0.58830  0.00735  0.73841  Biso   1.000  O
  O183     1.0000 0.58830  0.00735  0.73849  Biso   1.000  O
  O184     1.0000 0.60181  0.01085  0.98051  Biso   1.000  O
  H1234    1.0000 0.63705  0.02052  0.86323  Biso   1.000  H
  H1235    1.0000 0.65235  0.04932  0.95564  Biso   1.000  H
  O185     1.0000 0.60180  0.01082  0.98051  Biso   1.000  O
  O186     1.0000 0.51313  0.17424  0.01628  Biso   1.000  O
  C1408    1.0000 0.45739  0.11759  0.03730  Biso   1.000  C
  O187     1.0000 0.51313  0.17424  0.01636  Biso   1.000  O
  C1409    1.0000 0.45739  0.11759  0.03738  Biso   1.000  C
  C1410    1.0000 0.48927  0.07631  0.78133  Biso   1.000  C
  C1411    1.0000 0.48924  0.07628  0.78133  Biso   1.000  C
  C1412    1.0000 0.44566  0.06832  0.91882  Biso   1.000  C
  C1413    1.0000 0.44566  0.06832  0.91890  Biso   1.000  C
  C1414    1.0000 0.44565  0.06829  0.91882  Biso   1.000  C
  C1415    1.0000 0.44565  0.06829  0.91890  Biso   1.000  C
  C1416    1.0000 0.56752  0.99124  0.64479  Biso   1.000  C
  C1417    1.0000 0.56752  0.99124  0.64487  Biso   1.000  C
  C1418    1.0000 0.56751  0.99121  0.64479  Biso   1.000  C
  C1419    1.0000 0.56751  0.99121  0.64487  Biso   1.000  C
  C1420    1.0000 0.61053  0.99289  0.06040  Biso   1.000  C
  C1421    1.0000 0.61053  0.99289  0.06048  Biso   1.000  C
  C1422    1.0000 0.61052  0.99287  0.06040  Biso   1.000  C
  C1423    1.0000 0.61052  0.99287  0.06048  Biso   1.000  C
  C1424    1.0000 0.50384  0.18875  0.10637  Biso   1.000  C
  C1425    1.0000 0.50383  0.18872  0.10637  Biso   1.000  C
  C1426    1.0000 0.43613  0.08323  0.00562  Biso   1.000  C
  H1236    1.0000 0.45006  0.12662  0.09345  Biso   1.000  H
  C1427    1.0000 0.43613  0.08323  0.00570  Biso   1.000  C
  C1428    1.0000 0.43610  0.08320  0.00562  Biso   1.000  C
  C1429    1.0000 0.43610  0.08320  0.00570  Biso   1.000  C
  H1237    1.0000 0.51096  0.09044  0.74683  Biso   1.000  H
  H1238    1.0000 0.51095  0.09042  0.74683  Biso   1.000  H
  C1430    1.0000 0.46799  0.04216  0.74771  Biso   1.000  C
  C1431    1.0000 0.46799  0.04216  0.74779  Biso   1.000  C
  C1432    1.0000 0.46798  0.04214  0.74771  Biso   1.000  C
  C1433    1.0000 0.46798  0.04214  0.74779  Biso   1.000  C
  C1434    1.0000 0.42362  0.03246  0.88304  Biso   1.000  C
  C1435    1.0000 0.42360  0.03244  0.88304  Biso   1.000  C
  H1239    1.0000 0.54239  0.98196  0.65971  Biso   1.000  H
  C1436    1.0000 0.57412  0.96139  0.61391  Biso   1.000  C
  C1437    1.0000 0.57412  0.96139  0.61399  Biso   1.000  C
  H1240    1.0000 0.54235  0.98194  0.65971  Biso   1.000  H
  H1241    1.0000 0.57466  0.00852  0.58720  Biso   1.000  H
  H1242    1.0000 0.57466  0.00852  0.58728  Biso   1.000  H
  H1243    1.0000 0.57464  0.00852  0.58720  Biso   1.000  H
  H1244    1.0000 0.57464  0.00852  0.58728  Biso   1.000  H
  H1245    1.0000 0.62098  0.97985  0.02751  Biso   1.000  H
  C1438    1.0000 0.57637  0.96756  0.11696  Biso   1.000  C
  H1246    1.0000 0.62098  0.97985  0.02760  Biso   1.000  H
  C1439    1.0000 0.57637  0.96756  0.11704  Biso   1.000  C
  H1247    1.0000 0.62766  0.00994  0.11086  Biso   1.000  H
  H1248    1.0000 0.62765  0.00991  0.11086  Biso   1.000  H
  H1249    1.0000 0.49976  0.17402  0.16942  Biso   1.000  H
  H1250    1.0000 0.48216  0.18944  0.09113  Biso   1.000  H
  C1440    1.0000 0.53434  0.22554  0.12490  Biso   1.000  C
  H1251    1.0000 0.49976  0.17402  0.16950  Biso   1.000  H
  H1252    1.0000 0.48216  0.18944  0.09121  Biso   1.000  H
  C1441    1.0000 0.53434  0.22554  0.12498  Biso   1.000  C
  H1253    1.0000 0.49974  0.17402  0.16942  Biso   1.000  H
  H1254    1.0000 0.48214  0.18941  0.09113  Biso   1.000  H
  C1442    1.0000 0.53430  0.22551  0.12490  Biso   1.000  C
  H1255    1.0000 0.49974  0.17402  0.16950  Biso   1.000  H
  H1256    1.0000 0.48214  0.18941  0.09121  Biso   1.000  H
  C1443    1.0000 0.53430  0.22551  0.12498  Biso   1.000  C
  H1257    1.0000 0.41476  0.06904  0.04171  Biso   1.000  H
  H1258    1.0000 0.41476  0.06904  0.04179  Biso   1.000  H
  H1259    1.0000 0.41475  0.06902  0.04171  Biso   1.000  H
  H1260    1.0000 0.41475  0.06902  0.04179  Biso   1.000  H
  H1261    1.0000 0.47517  0.03335  0.69076  Biso   1.000  H
  C1444    1.0000 0.43505  0.02001  0.79913  Biso   1.000  C
  H1262    1.0000 0.47516  0.03332  0.69076  Biso   1.000  H
  C1445    1.0000 0.38946  0.00713  0.93960  Biso   1.000  C
  H1263    1.0000 0.55896  0.94875  0.55335  Biso   1.000  H
  H1264    1.0000 0.56708  0.94466  0.67319  Biso   1.000  H
  C1446    1.0000 0.61223  0.97309  0.58471  Biso   1.000  C
  H1265    1.0000 0.56708  0.94466  0.67327  Biso   1.000  H
  C1447    1.0000 0.61223  0.97309  0.58479  Biso   1.000  C
  H1266    1.0000 0.56706  0.94464  0.67319  Biso   1.000  H
  C1448    1.0000 0.61220  0.97309  0.58471  Biso   1.000  C
  H1267    1.0000 0.56706  0.94464  0.67327  Biso   1.000  H
  C1449    1.0000 0.61220  0.97309  0.58479  Biso   1.000  C
  C1450    1.0000 0.56497  0.98001  0.20087  Biso   1.000  C
  C1451    1.0000 0.55433  0.93171  0.08118  Biso   1.000  C
  C1452    1.0000 0.56493  0.97999  0.20087  Biso   1.000  C
  H1268    1.0000 0.53846  0.23924  0.05952  Biso   1.000  H
  H1269    1.0000 0.52746  0.23673  0.18017  Biso   1.000  H
  C1453    1.0000 0.56843  0.22759  0.15755  Biso   1.000  C
  H1270    1.0000 0.53846  0.23924  0.05960  Biso   1.000  H
  H1271    1.0000 0.53845  0.23922  0.05952  Biso   1.000  H
  C1454    1.0000 0.56842  0.22757  0.15755  Biso   1.000  C
  H1272    1.0000 0.53845  0.23922  0.05960  Biso   1.000  H
  O188     1.0000 0.41279  0.98549  0.76721  Biso   1.000  O
  O189     1.0000 0.41279  0.98549  0.76729  Biso   1.000  O
  H1273    1.0000 0.37904  0.02017  0.97249  Biso   1.000  H
  H1274    1.0000 0.37900  0.02015  0.97249  Biso   1.000  H
  H1275    1.0000 0.37235  0.99009  0.88914  Biso   1.000  H
  H1276    1.0000 0.37235  0.99009  0.88922  Biso   1.000  H
  H1277    1.0000 0.37233  0.99009  0.88914  Biso   1.000  H
  H1278    1.0000 0.37233  0.99009  0.88922  Biso   1.000  H
  O190     1.0000 0.39818  0.98918  0.01949  Biso   1.000  O
  O191     1.0000 0.39818  0.98918  0.01957  Biso   1.000  O
  H1279    1.0000 0.62686  0.98325  0.64824  Biso   1.000  H
  H1280    1.0000 0.61347  0.95207  0.56530  Biso   1.000  H
  C1455    1.0000 0.62859  0.99981  0.49503  Biso   1.000  C
  H1281    1.0000 0.61347  0.95207  0.56538  Biso   1.000  H
  H1282    1.0000 0.61345  0.95204  0.56530  Biso   1.000  H
  H1283    1.0000 0.61345  0.95204  0.56538  Biso   1.000  H
  C1456    1.0000 0.53202  0.95786  0.25229  Biso   1.000  C
  C1457    1.0000 0.53200  0.95786  0.25229  Biso   1.000  C
  O192     1.0000 0.58720  0.01454  0.23279  Biso   1.000  O
  O193     1.0000 0.58719  0.01451  0.23279  Biso   1.000  O
  C1458    1.0000 0.56388  0.91680  0.99438  Biso   1.000  C
  C1459    1.0000 0.52073  0.90899  0.13220  Biso   1.000  C
  C1460    1.0000 0.52072  0.90897  0.13220  Biso   1.000  C
  H1284    1.0000 0.57386  0.21383  0.10717  Biso   1.000  H
  H1285    1.0000 0.58746  0.25223  0.15338  Biso   1.000  H
  C1461    1.0000 0.56757  0.21445  0.26376  Biso   1.000  C
  C1462    1.0000 0.56754  0.21442  0.26376  Biso   1.000  C
  C1463    1.0000 0.42544  0.97053  0.68819  Biso   1.000  C
  C1464    1.0000 0.42544  0.97053  0.68827  Biso   1.000  C
  C1465    1.0000 0.36868  0.96577  0.08704  Biso   1.000  C
  C1466    1.0000 0.36868  0.96577  0.08712  Biso   1.000  C
  C1467    1.0000 0.36866  0.96577  0.08704  Biso   1.000  C
  C1468    1.0000 0.36866  0.96577  0.08712  Biso   1.000  C
  H1286    1.0000 0.62806  0.02113  0.51324  Biso   1.000  H
  H1287    1.0000 0.65285  0.00542  0.48428  Biso   1.000  H
  H1288    1.0000 0.65285  0.00542  0.48436  Biso   1.000  H
  H1289    1.0000 0.61526  0.98985  0.43021  Biso   1.000  H
  C1469    1.0000 0.51074  0.92372  0.21867  Biso   1.000  C
  H1290    1.0000 0.52484  0.96668  0.30924  Biso   1.000  H
  H1291    1.0000 0.52484  0.96668  0.30932  Biso   1.000  H
  H1292    1.0000 0.52482  0.96668  0.30924  Biso   1.000  H
  H1293    1.0000 0.52482  0.96668  0.30932  Biso   1.000  H
  C1470    1.0000 0.57457  0.02950  0.31181  Biso   1.000  C
  C1471    1.0000 0.57455  0.02950  0.31181  Biso   1.000  C
  H1294    1.0000 0.58523  0.93098  0.95829  Biso   1.000  H
  C1472    1.0000 0.54260  0.88244  0.96270  Biso   1.000  C
  C1473    1.0000 0.54259  0.88241  0.96270  Biso   1.000  C
  C1474    1.0000 0.49875  0.87340  0.09779  Biso   1.000  C
  C1475    1.0000 0.49874  0.87338  0.09779  Biso   1.000  C
  H1295    1.0000 0.59025  0.21653  0.27988  Biso   1.000  H
  H1296    1.0000 0.54926  0.18995  0.26801  Biso   1.000  H
  H1297    1.0000 0.56276  0.22824  0.31438  Biso   1.000  H
  H1298    1.0000 0.54926  0.18995  0.26809  Biso   1.000  H
  H1299    1.0000 0.54925  0.18992  0.26801  Biso   1.000  H
  H1300    1.0000 0.54925  0.18992  0.26809  Biso   1.000  H
  C1476    1.0000 0.39086  0.93483  0.64544  Biso   1.000  C
  C1477    1.0000 0.38099  0.94360  0.14664  Biso   1.000  C
  H1301    1.0000 0.36294  0.97951  0.13677  Biso   1.000  H
  H1302    1.0000 0.34766  0.95070  0.04436  Biso   1.000  H
  C1478    1.0000 0.38099  0.94360  0.14672  Biso   1.000  C
  C1479    1.0000 0.38098  0.94357  0.14664  Biso   1.000  C
  H1303    1.0000 0.36293  0.97948  0.13677  Biso   1.000  H
  H1304    1.0000 0.34762  0.95068  0.04436  Biso   1.000  H
  C1480    1.0000 0.38098  0.94357  0.14672  Biso   1.000  C
  H1305    1.0000 0.48903  0.90958  0.25317  Biso   1.000  H
  C1481    1.0000 0.60913  0.06520  0.35456  Biso   1.000  C
  C1482    1.0000 0.60913  0.06520  0.35464  Biso   1.000  C
  C1483    1.0000 0.60912  0.06517  0.35456  Biso   1.000  C
  C1484    1.0000 0.60912  0.06517  0.35464  Biso   1.000  C
  C1485    1.0000 0.50957  0.86023  0.01356  Biso   1.000  C
  C1486    1.0000 0.50957  0.86023  0.01364  Biso   1.000  C
  H1306    1.0000 0.54996  0.87340  0.90655  Biso   1.000  H
  H1307    1.0000 0.54996  0.87340  0.90663  Biso   1.000  H
  H1308    1.0000 0.54992  0.87338  0.90655  Biso   1.000  H
  H1309    1.0000 0.54992  0.87338  0.90663  Biso   1.000  H
  C1487    1.0000 0.46320  0.85005  0.15121  Biso   1.000  C
  C1488    1.0000 0.46318  0.85002  0.15121  Biso   1.000  C
  C1489    1.0000 0.39087  0.91661  0.73263  Biso   1.000  C
  C1490    1.0000 0.36847  0.91236  0.65971  Biso   1.000  C
  C1491    1.0000 0.40451  0.95931  0.23127  Biso   1.000  C
  C1492    1.0000 0.37249  0.90905  0.11118  Biso   1.000  C
  C1493    1.0000 0.40449  0.95931  0.23127  Biso   1.000  C
  C1494    1.0000 0.37247  0.90902  0.11118  Biso   1.000  C
  C1495    1.0000 0.60912  0.08342  0.26737  Biso   1.000  C
  C1496    1.0000 0.60911  0.08339  0.26737  Biso   1.000  C
  C1497    1.0000 0.63152  0.08767  0.34029  Biso   1.000  C
  O194     1.0000 0.48686  0.82579  0.98372  Biso   1.000  O
  O195     1.0000 0.43923  0.86159  0.11447  Biso   1.000  O
  O196     1.0000 0.43923  0.86159  0.11455  Biso   1.000  O
  O197     1.0000 0.43922  0.86157  0.11447  Biso   1.000  O
  O198     1.0000 0.43922  0.86157  0.11455  Biso   1.000  O
  H1310    1.0000 0.46574  0.85240  0.22854  Biso   1.000  H
  H1311    1.0000 0.45415  0.82520  0.13228  Biso   1.000  H
  H1312    1.0000 0.46574  0.85240  0.22862  Biso   1.000  H
  H1313    1.0000 0.46572  0.85238  0.22854  Biso   1.000  H
  H1314    1.0000 0.45414  0.82518  0.13228  Biso   1.000  H
  H1315    1.0000 0.46572  0.85238  0.22862  Biso   1.000  H
  C1498    1.0000 0.34696  0.87415  0.69052  Biso   1.000  C
  O199     1.0000 0.41167  0.99265  0.26159  Biso   1.000  O
  C1499    1.0000 0.42083  0.94178  0.28181  Biso   1.000  C
  C1500    1.0000 0.42081  0.94178  0.28181  Biso   1.000  C
  C1501    1.0000 0.34821  0.89053  0.02623  Biso   1.000  C
  C1502    1.0000 0.38954  0.89152  0.16036  Biso   1.000  C
  C1503    1.0000 0.34821  0.89053  0.02631  Biso   1.000  C
  C1504    1.0000 0.38954  0.89152  0.16044  Biso   1.000  C
  C1505    1.0000 0.34819  0.89053  0.02623  Biso   1.000  C
  C1506    1.0000 0.34819  0.89053  0.02631  Biso   1.000  C
  C1507    1.0000 0.65303  0.12587  0.30948  Biso   1.000  C
  C1508    1.0000 0.65301  0.12585  0.30948  Biso   1.000  C
  C1509    1.0000 0.49617  0.81128  0.89363  Biso   1.000  C
  C1510    1.0000 0.49617  0.81128  0.89371  Biso   1.000  C
  C1511    1.0000 0.49615  0.81128  0.89363  Biso   1.000  C
  C1512    1.0000 0.49615  0.81128  0.89371  Biso   1.000  C
  C1513    1.0000 0.40470  0.84190  0.16244  Biso   1.000  C
  C1514    1.0000 0.40470  0.84190  0.16252  Biso   1.000  C
  C1515    1.0000 0.43247  0.00879  0.35521  Biso   1.000  C
  H1316    1.0000 0.43634  0.95249  0.33916  Biso   1.000  H
  C1516    1.0000 0.41368  0.90915  0.24587  Biso   1.000  C
  H1317    1.0000 0.43634  0.95249  0.33924  Biso   1.000  H
  C1517    1.0000 0.34154  0.85817  0.99045  Biso   1.000  C
  H1318    1.0000 0.33634  0.90109  0.99398  Biso   1.000  H
  C1518    1.0000 0.34154  0.85817  0.99053  Biso   1.000  C
  C1519    1.0000 0.38332  0.85807  0.12049  Biso   1.000  C
  H1319    1.0000 0.50025  0.82600  0.83058  Biso   1.000  H
  H1320    1.0000 0.51783  0.81059  0.90887  Biso   1.000  H
  C1520    1.0000 0.46568  0.77449  0.87510  Biso   1.000  C
  H1321    1.0000 0.50024  0.82598  0.83058  Biso   1.000  H
  H1322    1.0000 0.39344  0.81679  0.14295  Biso   1.000  H
  H1323    1.0000 0.40655  0.84380  0.24009  Biso   1.000  H
  H1324    1.0000 0.39344  0.81679  0.14303  Biso   1.000  H
  H1325    1.0000 0.40654  0.84377  0.24009  Biso   1.000  H
  H1326    1.0000 0.42535  0.99150  0.41280  Biso   1.000  H
  H1327    1.0000 0.42534  0.99148  0.41280  Biso   1.000  H
  H1328    1.0000 0.45763  0.01806  0.34029  Biso   1.000  H
  C1521    1.0000 0.42589  0.03864  0.38609  Biso   1.000  C
  C1522    1.0000 0.42586  0.03861  0.38609  Biso   1.000  C
  H1329    1.0000 0.42495  0.89809  0.27844  Biso   1.000  H
  H1330    1.0000 0.42495  0.89809  0.27852  Biso   1.000  H
  H1331    1.0000 0.42493  0.89809  0.27844  Biso   1.000  H
  H1332    1.0000 0.42493  0.89809  0.27852  Biso   1.000  H
  H1333    1.0000 0.32486  0.84660  0.93623  Biso   1.000  H
  H1334    1.0000 0.32486  0.84660  0.93631  Biso   1.000  H
  H1335    1.0000 0.32482  0.84658  0.93623  Biso   1.000  H
  H1336    1.0000 0.32482  0.84658  0.93631  Biso   1.000  H
  C1523    1.0000 0.35999  0.84198  0.03586  Biso   1.000  C
  C1524    1.0000 0.35999  0.84198  0.03594  Biso   1.000  C
  C1525    1.0000 0.35996  0.84198  0.03586  Biso   1.000  C
  C1526    1.0000 0.35996  0.84198  0.03594  Biso   1.000  C
  H1337    1.0000 0.46153  0.76078  0.94048  Biso   1.000  H
  H1338    1.0000 0.47255  0.76329  0.81983  Biso   1.000  H
  C1527    1.0000 0.43156  0.77243  0.84245  Biso   1.000  C
  H1339    1.0000 0.47255  0.76329  0.81991  Biso   1.000  H
  C1528    1.0000 0.43156  0.77243  0.84253  Biso   1.000  C
  H1340    1.0000 0.47251  0.76327  0.81983  Biso   1.000  H
  H1341    1.0000 0.47251  0.76327  0.81991  Biso   1.000  H
  H1342    1.0000 0.44103  0.05127  0.44665  Biso   1.000  H
  H1343    1.0000 0.43291  0.05536  0.32681  Biso   1.000  H
  C1529    1.0000 0.38779  0.02693  0.41529  Biso   1.000  C
  H1344    1.0000 0.44103  0.05127  0.44674  Biso   1.000  H
  H1345    1.0000 0.44102  0.05125  0.44665  Biso   1.000  H
  C1530    1.0000 0.38777  0.02691  0.41529  Biso   1.000  C
  H1346    1.0000 0.44102  0.05125  0.44674  Biso   1.000  H
  O200     1.0000 0.35711  0.81115  0.99607  Biso   1.000  O
  H1347    1.0000 0.42615  0.78619  0.89283  Biso   1.000  H
  H1348    1.0000 0.41256  0.74780  0.84662  Biso   1.000  H
  C1531    1.0000 0.43244  0.78558  0.73624  Biso   1.000  C
  H1349    1.0000 0.42615  0.78619  0.89291  Biso   1.000  H
  H1350    1.0000 0.41256  0.74780  0.84670  Biso   1.000  H
  C1532    1.0000 0.43244  0.78558  0.73632  Biso   1.000  C
  H1351    1.0000 0.42613  0.78619  0.89283  Biso   1.000  H
  H1352    1.0000 0.41252  0.74777  0.84662  Biso   1.000  H
  H1353    1.0000 0.42613  0.78619  0.89291  Biso   1.000  H
  H1354    1.0000 0.41252  0.74777  0.84670  Biso   1.000  H
  H1355    1.0000 0.37313  0.01678  0.35176  Biso   1.000  H
  H1356    1.0000 0.38652  0.04796  0.43470  Biso   1.000  H
  C1533    1.0000 0.37142  0.00021  0.50497  Biso   1.000  C
  H1357    1.0000 0.37313  0.01678  0.35184  Biso   1.000  H
  C1534    1.0000 0.37142  0.00021  0.50505  Biso   1.000  C
  H1358    1.0000 0.37312  0.01675  0.35176  Biso   1.000  H
  C1535    1.0000 0.37138  0.00019  0.50497  Biso   1.000  C
  H1359    1.0000 0.37312  0.01675  0.35184  Biso   1.000  H
  C1536    1.0000 0.37138  0.00019  0.50505  Biso   1.000  C
  C1537    1.0000 0.32867  0.78902  0.92468  Biso   1.000  C
  C1538    1.0000 0.32864  0.78900  0.92468  Biso   1.000  C
  H1360    1.0000 0.40974  0.78349  0.72012  Biso   1.000  H
  H1361    1.0000 0.45073  0.81008  0.73199  Biso   1.000  H
  H1362    1.0000 0.43723  0.77179  0.68562  Biso   1.000  H
  H1363    1.0000 0.40974  0.78349  0.72020  Biso   1.000  H
  H1364    1.0000 0.43723  0.77179  0.68571  Biso   1.000  H
  H1365    1.0000 0.40973  0.78347  0.72012  Biso   1.000  H
  H1366    1.0000 0.40973  0.78347  0.72020  Biso   1.000  H
  H1367    1.0000 0.34714  0.99460  0.51572  Biso   1.000  H
  H1368    1.0000 0.37193  0.97889  0.48676  Biso   1.000  H
  H1369    1.0000 0.37193  0.97889  0.48684  Biso   1.000  H
  H1370    1.0000 0.34713  0.99458  0.51572  Biso   1.000  H
  H1371    1.0000 0.38473  0.01018  0.56979  Biso   1.000  H
  H1372    1.0000 0.38472  0.01015  0.56979  Biso   1.000  H
  H1373    1.0000 0.30585  0.78309  0.95628  Biso   1.000  H
  H1374    1.0000 0.33125  0.80140  0.85745  Biso   1.000  H
  C1539    1.0000 0.33047  0.75565  0.90558  Biso   1.000  C
  H1375    1.0000 0.33125  0.80140  0.85753  Biso   1.000  H
  H1376    1.0000 0.30583  0.78309  0.95628  Biso   1.000  H
  H1377    1.0000 0.33123  0.80137  0.85745  Biso   1.000  H
  C1540    1.0000 0.33046  0.75563  0.90558  Biso   1.000  C
  H1378    1.0000 0.33123  0.80137  0.85753  Biso   1.000  H
  C1541    1.0000 0.33675  0.73649  0.99358  Biso   1.000  C
  C1542    1.0000 0.33673  0.73647  0.99358  Biso   1.000  C
  C1543    1.0000 0.31644  0.73508  0.02126  Biso   1.000  C
  C1544    1.0000 0.32354  0.70240  0.00505  Biso   1.000  C
  C1545    1.0000 0.32354  0.70240  0.00513  Biso   1.000  C
  C1546    1.0000 0.32353  0.70237  0.00505  Biso   1.000  C
  C1547    1.0000 0.32353  0.70237  0.00513  Biso   1.000  C
  C1548    1.0000 0.31095  0.72479  0.07765  Biso   1.000  C
  C1549    1.0000 0.67645  0.29763  0.99495  Biso   1.000  C
  C1550    1.0000 0.68357  0.26495  0.97874  Biso   1.000  C
  C1551    1.0000 0.66327  0.26353  0.00642  Biso   1.000  C
  C1552    1.0000 0.66327  0.26353  0.00650  Biso   1.000  C
  C1553    1.0000 0.66324  0.26353  0.00642  Biso   1.000  C
  C1554    1.0000 0.66324  0.26353  0.00650  Biso   1.000  C
  C1555    1.0000 0.68906  0.27524  0.92235  Biso   1.000  C
  C1556    1.0000 0.66952  0.24437  0.09442  Biso   1.000  C
  C1557    1.0000 0.66952  0.24437  0.09450  Biso   1.000  C
  C1558    1.0000 0.67134  0.21100  0.07532  Biso   1.000  C
  C1559    1.0000 0.67134  0.21100  0.07541  Biso   1.000  C
  O201     1.0000 0.64288  0.18888  0.00393  Biso   1.000  O
  O202     1.0000 0.64287  0.18885  0.00393  Biso   1.000  O
  H1379    1.0000 0.69416  0.21693  0.04372  Biso   1.000  H
  H1380    1.0000 0.66877  0.19863  0.14255  Biso   1.000  H
  H1381    1.0000 0.69416  0.21693  0.04380  Biso   1.000  H
  H1382    1.0000 0.66874  0.19863  0.14255  Biso   1.000  H
  C1560    1.0000 0.64003  0.15804  0.96414  Biso   1.000  C
  C1561    1.0000 0.64001  0.15802  0.96414  Biso   1.000  C
  C1562    1.0000 0.61669  0.14196  0.87951  Biso   1.000  C
  C1563    1.0000 0.61669  0.14196  0.87959  Biso   1.000  C
  C1564    1.0000 0.61665  0.14193  0.87951  Biso   1.000  C
  C1565    1.0000 0.61665  0.14193  0.87959  Biso   1.000  C
  C1566    1.0000 0.65847  0.14185  0.00955  Biso   1.000  C
  C1567    1.0000 0.65843  0.14183  0.00955  Biso   1.000  C
  C1568    1.0000 0.59529  0.15812  0.83756  Biso   1.000  C
  C1569    1.0000 0.59528  0.15810  0.83756  Biso   1.000  C
  C1570    1.0000 0.61045  0.10851  0.83964  Biso   1.000  C
  C1571    1.0000 0.61043  0.10848  0.83964  Biso   1.000  C
  C1572    1.0000 0.65180  0.10950  0.97377  Biso   1.000  C
  H1383    1.0000 0.67515  0.15342  0.06377  Biso   1.000  H
  O203     1.0000 0.56078  0.13843  0.88553  Biso   1.000  O
  O204     1.0000 0.56076  0.13843  0.88553  Biso   1.000  O
  H1384    1.0000 0.60655  0.18324  0.85705  Biso   1.000  H
  H1385    1.0000 0.59346  0.15623  0.75991  Biso   1.000  H
  H1386    1.0000 0.59346  0.15623  0.75999  Biso   1.000  H
  H1387    1.0000 0.60654  0.18321  0.85705  Biso   1.000  H
  H1388    1.0000 0.59344  0.15623  0.75991  Biso   1.000  H
  H1389    1.0000 0.59344  0.15623  0.75999  Biso   1.000  H
  C1573    1.0000 0.58631  0.09087  0.75413  Biso   1.000  C
  C1574    1.0000 0.62753  0.09098  0.88882  Biso   1.000  C
  C1575    1.0000 0.62753  0.09098  0.88890  Biso   1.000  C
  C1576    1.0000 0.58630  0.09085  0.75413  Biso   1.000  C
  C1577    1.0000 0.62750  0.09098  0.88882  Biso   1.000  C
  C1578    1.0000 0.62750  0.09098  0.88890  Biso   1.000  C
  H1390    1.0000 0.66367  0.09894  0.00602  Biso   1.000  H
  H1391    1.0000 0.66367  0.09894  0.00610  Biso   1.000  H
  H1392    1.0000 0.66364  0.09891  0.00602  Biso   1.000  H
  H1393    1.0000 0.66364  0.09891  0.00610  Biso   1.000  H
  C1579    1.0000 0.53679  0.14998  0.84879  Biso   1.000  C
  C1580    1.0000 0.53679  0.14998  0.84887  Biso   1.000  C
  H1394    1.0000 0.57507  0.10193  0.72156  Biso   1.000  H
  C1581    1.0000 0.57918  0.05825  0.71819  Biso   1.000  C
  C1582    1.0000 0.57918  0.05825  0.71827  Biso   1.000  C
  C1583    1.0000 0.57917  0.05822  0.71819  Biso   1.000  C
  C1584    1.0000 0.57917  0.05822  0.71827  Biso   1.000  C
  C1585    1.0000 0.61902  0.05643  0.85336  Biso   1.000  C
  C1586    1.0000 0.61900  0.05643  0.85336  Biso   1.000  C
  C1587    1.0000 0.50124  0.12662  0.90221  Biso   1.000  C
  C1588    1.0000 0.50124  0.12662  0.90229  Biso   1.000  C
  H1395    1.0000 0.53425  0.14762  0.77146  Biso   1.000  H
  H1396    1.0000 0.54586  0.17482  0.86772  Biso   1.000  H
  H1397    1.0000 0.54586  0.17482  0.86780  Biso   1.000  H
  H1398    1.0000 0.54584  0.17482  0.86772  Biso   1.000  H
  H1399    1.0000 0.54584  0.17482  0.86780  Biso   1.000  H
  C1589    1.0000 0.59550  0.04072  0.76873  Biso   1.000  C
  H1400    1.0000 0.56367  0.04753  0.66084  Biso   1.000  H
  C1590    1.0000 0.59549  0.04069  0.76873  Biso   1.000  C
  H1401    1.0000 0.56365  0.04753  0.66084  Biso   1.000  H
  C1591    1.0000 0.63133  0.03425  0.91296  Biso   1.000  C
  C1592    1.0000 0.63132  0.03423  0.91296  Biso   1.000  C
  C1593    1.0000 0.47926  0.09103  0.86780  Biso   1.000  C
  C1594    1.0000 0.47926  0.09103  0.86788  Biso   1.000  C
  C1595    1.0000 0.49042  0.13980  0.98644  Biso   1.000  C
  C1596    1.0000 0.49041  0.13977  0.98644  Biso   1.000  C
  O205     1.0000 0.58834  0.00737  0.73841  Biso   1.000  O
  O206     1.0000 0.58834  0.00737  0.73849  Biso   1.000  O
  O207     1.0000 0.58830  0.00735  0.73841  Biso   1.000  O
  O208     1.0000 0.58830  0.00735  0.73849  Biso   1.000  O
  H1402    1.0000 0.63705  0.02052  0.86323  Biso   1.000  H
  H1403    1.0000 0.65235  0.04932  0.95564  Biso   1.000  H
  O209     1.0000 0.60181  0.01085  0.98051  Biso   1.000  O
  O210     1.0000 0.60180  0.01082  0.98051  Biso   1.000  O
  C1597    1.0000 0.44566  0.06832  0.91882  Biso   1.000  C
  C1598    1.0000 0.44566  0.06832  0.91890  Biso   1.000  C
  C1599    1.0000 0.44565  0.06829  0.91882  Biso   1.000  C
  C1600    1.0000 0.44565  0.06829  0.91890  Biso   1.000  C
  C1601    1.0000 0.48927  0.07631  0.78133  Biso   1.000  C
  C1602    1.0000 0.48924  0.07628  0.78133  Biso   1.000  C
  C1603    1.0000 0.45739  0.11759  0.03730  Biso   1.000  C
  C1604    1.0000 0.45739  0.11759  0.03738  Biso   1.000  C
  O211     1.0000 0.51313  0.17424  0.01628  Biso   1.000  O
  O212     1.0000 0.51313  0.17424  0.01636  Biso   1.000  O
  C1605    1.0000 0.56752  0.99124  0.64479  Biso   1.000  C
  C1606    1.0000 0.56752  0.99124  0.64487  Biso   1.000  C
  C1607    1.0000 0.56751  0.99121  0.64479  Biso   1.000  C
  C1608    1.0000 0.56751  0.99121  0.64487  Biso   1.000  C
  C1609    1.0000 0.61053  0.99289  0.06040  Biso   1.000  C
  C1610    1.0000 0.61053  0.99289  0.06048  Biso   1.000  C
  C1611    1.0000 0.61052  0.99287  0.06040  Biso   1.000  C
  C1612    1.0000 0.61052  0.99287  0.06048  Biso   1.000  C
  C1613    1.0000 0.42362  0.03246  0.88304  Biso   1.000  C
  C1614    1.0000 0.42360  0.03244  0.88304  Biso   1.000  C
  C1615    1.0000 0.43613  0.08323  0.00562  Biso   1.000  C
  C1616    1.0000 0.43613  0.08323  0.00570  Biso   1.000  C
  C1617    1.0000 0.43610  0.08320  0.00562  Biso   1.000  C
  C1618    1.0000 0.43610  0.08320  0.00570  Biso   1.000  C
  C1619    1.0000 0.46799  0.04216  0.74771  Biso   1.000  C
  C1620    1.0000 0.46799  0.04216  0.74779  Biso   1.000  C
  C1621    1.0000 0.46798  0.04214  0.74771  Biso   1.000  C
  C1622    1.0000 0.46798  0.04214  0.74779  Biso   1.000  C
  H1404    1.0000 0.51096  0.09044  0.74683  Biso   1.000  H
  H1405    1.0000 0.51095  0.09042  0.74683  Biso   1.000  H
  H1406    1.0000 0.45006  0.12662  0.09345  Biso   1.000  H
  C1623    1.0000 0.50384  0.18875  0.10637  Biso   1.000  C
  C1624    1.0000 0.50383  0.18872  0.10637  Biso   1.000  C
  H1407    1.0000 0.54239  0.98196  0.65971  Biso   1.000  H
  C1625    1.0000 0.57412  0.96139  0.61391  Biso   1.000  C
  C1626    1.0000 0.57412  0.96139  0.61399  Biso   1.000  C
  H1408    1.0000 0.54235  0.98194  0.65971  Biso   1.000  H
  H1409    1.0000 0.57466  0.00852  0.58720  Biso   1.000  H
  H1410    1.0000 0.57466  0.00852  0.58728  Biso   1.000  H
  H1411    1.0000 0.57464  0.00852  0.58720  Biso   1.000  H
  H1412    1.0000 0.57464  0.00852  0.58728  Biso   1.000  H
  C1627    1.0000 0.57637  0.96756  0.11696  Biso   1.000  C
  C1628    1.0000 0.57637  0.96756  0.11704  Biso   1.000  C
  H1413    1.0000 0.62098  0.97985  0.02751  Biso   1.000  H
  H1414    1.0000 0.62098  0.97985  0.02760  Biso   1.000  H
  H1415    1.0000 0.62766  0.00994  0.11086  Biso   1.000  H
  H1416    1.0000 0.62765  0.00991  0.11086  Biso   1.000  H
  C1629    1.0000 0.38946  0.00713  0.93960  Biso   1.000  C
  C1630    1.0000 0.43505  0.02001  0.79913  Biso   1.000  C
  H1417    1.0000 0.41476  0.06904  0.04171  Biso   1.000  H
  H1418    1.0000 0.41476  0.06904  0.04179  Biso   1.000  H
  H1419    1.0000 0.41475  0.06902  0.04171  Biso   1.000  H
  H1420    1.0000 0.41475  0.06902  0.04179  Biso   1.000  H
  H1421    1.0000 0.47517  0.03335  0.69076  Biso   1.000  H
  H1422    1.0000 0.47516  0.03332  0.69076  Biso   1.000  H
  H1423    1.0000 0.49976  0.17402  0.16942  Biso   1.000  H
  H1424    1.0000 0.48216  0.18944  0.09113  Biso   1.000  H
  C1631    1.0000 0.53434  0.22554  0.12490  Biso   1.000  C
  H1425    1.0000 0.49976  0.17402  0.16950  Biso   1.000  H
  H1426    1.0000 0.48216  0.18944  0.09121  Biso   1.000  H
  C1632    1.0000 0.53434  0.22554  0.12498  Biso   1.000  C
  H1427    1.0000 0.49974  0.17402  0.16942  Biso   1.000  H
  H1428    1.0000 0.48214  0.18941  0.09113  Biso   1.000  H
  C1633    1.0000 0.53430  0.22551  0.12490  Biso   1.000  C
  H1429    1.0000 0.49974  0.17402  0.16950  Biso   1.000  H
  H1430    1.0000 0.48214  0.18941  0.09121  Biso   1.000  H
  C1634    1.0000 0.53430  0.22551  0.12498  Biso   1.000  C
  H1431    1.0000 0.55896  0.94875  0.55335  Biso   1.000  H
  H1432    1.0000 0.56708  0.94466  0.67319  Biso   1.000  H
  C1635    1.0000 0.61223  0.97309  0.58471  Biso   1.000  C
  H1433    1.0000 0.56708  0.94466  0.67327  Biso   1.000  H
  C1636    1.0000 0.61223  0.97309  0.58479  Biso   1.000  C
  H1434    1.0000 0.56706  0.94464  0.67319  Biso   1.000  H
  C1637    1.0000 0.61220  0.97309  0.58471  Biso   1.000  C
  H1435    1.0000 0.56706  0.94464  0.67327  Biso   1.000  H
  C1638    1.0000 0.61220  0.97309  0.58479  Biso   1.000  C
  C1639    1.0000 0.55433  0.93171  0.08118  Biso   1.000  C
  C1640    1.0000 0.56497  0.98001  0.20087  Biso   1.000  C
  C1641    1.0000 0.56493  0.97999  0.20087  Biso   1.000  C
  H1436    1.0000 0.37235  0.99009  0.88914  Biso   1.000  H
  H1437    1.0000 0.37235  0.99009  0.88922  Biso   1.000  H
  H1438    1.0000 0.37233  0.99009  0.88914  Biso   1.000  H
  H1439    1.0000 0.37233  0.99009  0.88922  Biso   1.000  H
  O213     1.0000 0.39818  0.98918  0.01949  Biso   1.000  O
  O214     1.0000 0.39818  0.98918  0.01957  Biso   1.000  O
  H1440    1.0000 0.37904  0.02017  0.97249  Biso   1.000  H
  H1441    1.0000 0.37900  0.02015  0.97249  Biso   1.000  H
  O215     1.0000 0.41279  0.98549  0.76721  Biso   1.000  O
  O216     1.0000 0.41279  0.98549  0.76729  Biso   1.000  O
  H1442    1.0000 0.53846  0.23924  0.05952  Biso   1.000  H
  H1443    1.0000 0.52746  0.23673  0.18017  Biso   1.000  H
  C1642    1.0000 0.56843  0.22759  0.15755  Biso   1.000  C
  H1444    1.0000 0.53846  0.23924  0.05960  Biso   1.000  H
  H1445    1.0000 0.53845  0.23922  0.05952  Biso   1.000  H
  C1643    1.0000 0.56842  0.22757  0.15755  Biso   1.000  C
  H1446    1.0000 0.53845  0.23922  0.05960  Biso   1.000  H
  H1447    1.0000 0.62686  0.98325  0.64824  Biso   1.000  H
  H1448    1.0000 0.61347  0.95207  0.56530  Biso   1.000  H
  C1644    1.0000 0.62859  0.99981  0.49503  Biso   1.000  C
  H1449    1.0000 0.61347  0.95207  0.56538  Biso   1.000  H
  H1450    1.0000 0.61345  0.95204  0.56530  Biso   1.000  H
  H1451    1.0000 0.61345  0.95204  0.56538  Biso   1.000  H
  C1645    1.0000 0.52073  0.90899  0.13220  Biso   1.000  C
  C1646    1.0000 0.52072  0.90897  0.13220  Biso   1.000  C
  C1647    1.0000 0.56388  0.91680  0.99438  Biso   1.000  C
  C1648    1.0000 0.53202  0.95786  0.25229  Biso   1.000  C
  C1649    1.0000 0.53200  0.95786  0.25229  Biso   1.000  C
  O217     1.0000 0.58720  0.01454  0.23279  Biso   1.000  O
  O218     1.0000 0.58719  0.01451  0.23279  Biso   1.000  O
  C1650    1.0000 0.36868  0.96577  0.08704  Biso   1.000  C
  C1651    1.0000 0.36868  0.96577  0.08712  Biso   1.000  C
  C1652    1.0000 0.36866  0.96577  0.08704  Biso   1.000  C
  C1653    1.0000 0.36866  0.96577  0.08712  Biso   1.000  C
  C1654    1.0000 0.42544  0.97053  0.68819  Biso   1.000  C
  C1655    1.0000 0.42544  0.97053  0.68827  Biso   1.000  C
  H1452    1.0000 0.57386  0.21383  0.10717  Biso   1.000  H
  H1453    1.0000 0.58746  0.25223  0.15338  Biso   1.000  H
  C1656    1.0000 0.56757  0.21445  0.26376  Biso   1.000  C
  C1657    1.0000 0.56754  0.21442  0.26376  Biso   1.000  C
  H1454    1.0000 0.62806  0.02113  0.51324  Biso   1.000  H
  H1455    1.0000 0.61526  0.98985  0.43021  Biso   1.000  H
  H1456    1.0000 0.65285  0.00542  0.48428  Biso   1.000  H
  H1457    1.0000 0.65285  0.00542  0.48436  Biso   1.000  H
  C1658    1.0000 0.49875  0.87340  0.09779  Biso   1.000  C
  C1659    1.0000 0.49874  0.87338  0.09779  Biso   1.000  C
  C1660    1.0000 0.51074  0.92372  0.21867  Biso   1.000  C
  C1661    1.0000 0.54260  0.88244  0.96270  Biso   1.000  C
  C1662    1.0000 0.54259  0.88241  0.96270  Biso   1.000  C
  H1458    1.0000 0.58523  0.93098  0.95829  Biso   1.000  H
  H1459    1.0000 0.52484  0.96668  0.30924  Biso   1.000  H
  H1460    1.0000 0.52484  0.96668  0.30932  Biso   1.000  H
  H1461    1.0000 0.52482  0.96668  0.30924  Biso   1.000  H
  H1462    1.0000 0.52482  0.96668  0.30932  Biso   1.000  H
  C1663    1.0000 0.57457  0.02950  0.31181  Biso   1.000  C
  C1664    1.0000 0.57455  0.02950  0.31181  Biso   1.000  C
  C1665    1.0000 0.38099  0.94360  0.14664  Biso   1.000  C
  H1463    1.0000 0.36294  0.97951  0.13677  Biso   1.000  H
  H1464    1.0000 0.34766  0.95070  0.04436  Biso   1.000  H
  C1666    1.0000 0.38099  0.94360  0.14672  Biso   1.000  C
  C1667    1.0000 0.38098  0.94357  0.14664  Biso   1.000  C
  H1465    1.0000 0.36293  0.97948  0.13677  Biso   1.000  H
  H1466    1.0000 0.34762  0.95068  0.04436  Biso   1.000  H
  C1668    1.0000 0.38098  0.94357  0.14672  Biso   1.000  C
  C1669    1.0000 0.39086  0.93483  0.64544  Biso   1.000  C
  H1467    1.0000 0.59025  0.21653  0.27988  Biso   1.000  H
  H1468    1.0000 0.54926  0.18995  0.26801  Biso   1.000  H
  H1469    1.0000 0.56276  0.22824  0.31438  Biso   1.000  H
  H1470    1.0000 0.54926  0.18995  0.26809  Biso   1.000  H
  H1471    1.0000 0.54925  0.18992  0.26801  Biso   1.000  H
  H1472    1.0000 0.54925  0.18992  0.26809  Biso   1.000  H
  C1670    1.0000 0.46320  0.85005  0.15121  Biso   1.000  C
  C1671    1.0000 0.46318  0.85002  0.15121  Biso   1.000  C
  C1672    1.0000 0.50957  0.86023  0.01356  Biso   1.000  C
  C1673    1.0000 0.50957  0.86023  0.01364  Biso   1.000  C
  H1473    1.0000 0.48903  0.90958  0.25317  Biso   1.000  H
  H1474    1.0000 0.54996  0.87340  0.90655  Biso   1.000  H
  H1475    1.0000 0.54996  0.87340  0.90663  Biso   1.000  H
  H1476    1.0000 0.54992  0.87338  0.90655  Biso   1.000  H
  H1477    1.0000 0.54992  0.87338  0.90663  Biso   1.000  H
  C1674    1.0000 0.60913  0.06520  0.35456  Biso   1.000  C
  C1675    1.0000 0.60913  0.06520  0.35464  Biso   1.000  C
  C1676    1.0000 0.60912  0.06517  0.35456  Biso   1.000  C
  C1677    1.0000 0.60912  0.06517  0.35464  Biso   1.000  C
  C1678    1.0000 0.40451  0.95931  0.23127  Biso   1.000  C
  C1679    1.0000 0.37249  0.90905  0.11118  Biso   1.000  C
  C1680    1.0000 0.40449  0.95931  0.23127  Biso   1.000  C
  C1681    1.0000 0.37247  0.90902  0.11118  Biso   1.000  C
  C1682    1.0000 0.39087  0.91661  0.73263  Biso   1.000  C
  C1683    1.0000 0.36847  0.91236  0.65971  Biso   1.000  C
  O219     1.0000 0.43923  0.86159  0.11447  Biso   1.000  O
  O220     1.0000 0.43923  0.86159  0.11455  Biso   1.000  O
  O221     1.0000 0.43922  0.86157  0.11447  Biso   1.000  O
  O222     1.0000 0.43922  0.86157  0.11455  Biso   1.000  O
  H1478    1.0000 0.46574  0.85240  0.22854  Biso   1.000  H
  H1479    1.0000 0.45415  0.82520  0.13228  Biso   1.000  H
  H1480    1.0000 0.46574  0.85240  0.22862  Biso   1.000  H
  H1481    1.0000 0.46572  0.85238  0.22854  Biso   1.000  H
  H1482    1.0000 0.45414  0.82518  0.13228  Biso   1.000  H
  H1483    1.0000 0.46572  0.85238  0.22862  Biso   1.000  H
  O223     1.0000 0.48686  0.82579  0.98372  Biso   1.000  O
  C1684    1.0000 0.60912  0.08342  0.26737  Biso   1.000  C
  C1685    1.0000 0.60911  0.08339  0.26737  Biso   1.000  C
  C1686    1.0000 0.63152  0.08767  0.34029  Biso   1.000  C
  O224     1.0000 0.41167  0.99265  0.26159  Biso   1.000  O
  C1687    1.0000 0.42083  0.94178  0.28181  Biso   1.000  C
  C1688    1.0000 0.42081  0.94178  0.28181  Biso   1.000  C
  C1689    1.0000 0.34821  0.89053  0.02623  Biso   1.000  C
  C1690    1.0000 0.38954  0.89152  0.16036  Biso   1.000  C
  C1691    1.0000 0.34821  0.89053  0.02631  Biso   1.000  C
  C1692    1.0000 0.38954  0.89152  0.16044  Biso   1.000  C
  C1693    1.0000 0.34819  0.89053  0.02623  Biso   1.000  C
  C1694    1.0000 0.34819  0.89053  0.02631  Biso   1.000  C
  C1695    1.0000 0.34696  0.87415  0.69052  Biso   1.000  C
  C1696    1.0000 0.40470  0.84190  0.16244  Biso   1.000  C
  C1697    1.0000 0.40470  0.84190  0.16252  Biso   1.000  C
  C1698    1.0000 0.49617  0.81128  0.89363  Biso   1.000  C
  C1699    1.0000 0.49617  0.81128  0.89371  Biso   1.000  C
  C1700    1.0000 0.49615  0.81128  0.89363  Biso   1.000  C
  C1701    1.0000 0.49615  0.81128  0.89371  Biso   1.000  C
  C1702    1.0000 0.65303  0.12587  0.30948  Biso   1.000  C
  C1703    1.0000 0.65301  0.12585  0.30948  Biso   1.000  C
  C1704    1.0000 0.43247  0.00879  0.35521  Biso   1.000  C
  H1484    1.0000 0.43634  0.95249  0.33916  Biso   1.000  H
  C1705    1.0000 0.41368  0.90915  0.24587  Biso   1.000  C
  H1485    1.0000 0.43634  0.95249  0.33924  Biso   1.000  H
  C1706    1.0000 0.34154  0.85817  0.99045  Biso   1.000  C
  H1486    1.0000 0.33634  0.90109  0.99398  Biso   1.000  H
  C1707    1.0000 0.34154  0.85817  0.99053  Biso   1.000  C
  C1708    1.0000 0.38332  0.85807  0.12049  Biso   1.000  C
  H1487    1.0000 0.39344  0.81679  0.14295  Biso   1.000  H
  H1488    1.0000 0.40655  0.84380  0.24009  Biso   1.000  H
  H1489    1.0000 0.39344  0.81679  0.14303  Biso   1.000  H
  H1490    1.0000 0.40654  0.84377  0.24009  Biso   1.000  H
  H1491    1.0000 0.50025  0.82600  0.83058  Biso   1.000  H
  H1492    1.0000 0.51783  0.81059  0.90887  Biso   1.000  H
  C1709    1.0000 0.46568  0.77449  0.87510  Biso   1.000  C
  H1493    1.0000 0.50024  0.82598  0.83058  Biso   1.000  H
  H1494    1.0000 0.42535  0.99150  0.41280  Biso   1.000  H
  H1495    1.0000 0.42534  0.99148  0.41280  Biso   1.000  H
  H1496    1.0000 0.45763  0.01806  0.34029  Biso   1.000  H
  C1710    1.0000 0.42589  0.03864  0.38609  Biso   1.000  C
  C1711    1.0000 0.42586  0.03861  0.38609  Biso   1.000  C
  H1497    1.0000 0.42495  0.89809  0.27844  Biso   1.000  H
  H1498    1.0000 0.42495  0.89809  0.27852  Biso   1.000  H
  H1499    1.0000 0.42493  0.89809  0.27844  Biso   1.000  H
  H1500    1.0000 0.42493  0.89809  0.27852  Biso   1.000  H
  H1501    1.0000 0.32486  0.84660  0.93623  Biso   1.000  H
  H1502    1.0000 0.32486  0.84660  0.93631  Biso   1.000  H
  H1503    1.0000 0.32482  0.84658  0.93623  Biso   1.000  H
  H1504    1.0000 0.32482  0.84658  0.93631  Biso   1.000  H
  C1712    1.0000 0.35999  0.84198  0.03586  Biso   1.000  C
  C1713    1.0000 0.35999  0.84198  0.03594  Biso   1.000  C
  C1714    1.0000 0.35996  0.84198  0.03586  Biso   1.000  C
  C1715    1.0000 0.35996  0.84198  0.03594  Biso   1.000  C
  H1505    1.0000 0.46153  0.76078  0.94048  Biso   1.000  H
  H1506    1.0000 0.47255  0.76329  0.81983  Biso   1.000  H
  C1716    1.0000 0.43156  0.77243  0.84245  Biso   1.000  C
  H1507    1.0000 0.47255  0.76329  0.81991  Biso   1.000  H
  C1717    1.0000 0.43156  0.77243  0.84253  Biso   1.000  C
  H1508    1.0000 0.47251  0.76327  0.81983  Biso   1.000  H
  H1509    1.0000 0.47251  0.76327  0.81991  Biso   1.000  H
  H1510    1.0000 0.44103  0.05127  0.44665  Biso   1.000  H
  H1511    1.0000 0.43291  0.05536  0.32681  Biso   1.000  H
  C1718    1.0000 0.38779  0.02693  0.41529  Biso   1.000  C
  H1512    1.0000 0.44103  0.05127  0.44674  Biso   1.000  H
  H1513    1.0000 0.44102  0.05125  0.44665  Biso   1.000  H
  C1719    1.0000 0.38777  0.02691  0.41529  Biso   1.000  C
  H1514    1.0000 0.44102  0.05125  0.44674  Biso   1.000  H
  O225     1.0000 0.35711  0.81115  0.99607  Biso   1.000  O
  H1515    1.0000 0.42615  0.78619  0.89283  Biso   1.000  H
  H1516    1.0000 0.41256  0.74780  0.84662  Biso   1.000  H
  C1720    1.0000 0.43244  0.78558  0.73624  Biso   1.000  C
  H1517    1.0000 0.42615  0.78619  0.89291  Biso   1.000  H
  H1518    1.0000 0.41256  0.74780  0.84670  Biso   1.000  H
  C1721    1.0000 0.43244  0.78558  0.73632  Biso   1.000  C
  H1519    1.0000 0.42613  0.78619  0.89283  Biso   1.000  H
  H1520    1.0000 0.41252  0.74777  0.84662  Biso   1.000  H
  H1521    1.0000 0.42613  0.78619  0.89291  Biso   1.000  H
  H1522    1.0000 0.41252  0.74777  0.84670  Biso   1.000  H
  H1523    1.0000 0.37313  0.01678  0.35176  Biso   1.000  H
  H1524    1.0000 0.38652  0.04796  0.43470  Biso   1.000  H
  C1722    1.0000 0.37142  0.00021  0.50497  Biso   1.000  C
  H1525    1.0000 0.37313  0.01678  0.35184  Biso   1.000  H
  C1723    1.0000 0.37142  0.00021  0.50505  Biso   1.000  C
  H1526    1.0000 0.37312  0.01675  0.35176  Biso   1.000  H
  C1724    1.0000 0.37138  0.00019  0.50497  Biso   1.000  C
  H1527    1.0000 0.37312  0.01675  0.35184  Biso   1.000  H
  C1725    1.0000 0.37138  0.00019  0.50505  Biso   1.000  C
  C1726    1.0000 0.32867  0.78902  0.92468  Biso   1.000  C
  C1727    1.0000 0.32864  0.78900  0.92468  Biso   1.000  C
  H1528    1.0000 0.40974  0.78349  0.72012  Biso   1.000  H
  H1529    1.0000 0.45073  0.81008  0.73199  Biso   1.000  H
  H1530    1.0000 0.43723  0.77179  0.68562  Biso   1.000  H
  H1531    1.0000 0.40974  0.78349  0.72020  Biso   1.000  H
  H1532    1.0000 0.43723  0.77179  0.68571  Biso   1.000  H
  H1533    1.0000 0.40973  0.78347  0.72012  Biso   1.000  H
  H1534    1.0000 0.40973  0.78347  0.72020  Biso   1.000  H
  H1535    1.0000 0.34714  0.99460  0.51572  Biso   1.000  H
  H1536    1.0000 0.37193  0.97889  0.48676  Biso   1.000  H
  H1537    1.0000 0.37193  0.97889  0.48684  Biso   1.000  H
  H1538    1.0000 0.34713  0.99458  0.51572  Biso   1.000  H
  H1539    1.0000 0.38473  0.01018  0.56979  Biso   1.000  H
  H1540    1.0000 0.38472  0.01015  0.56979  Biso   1.000  H
  H1541    1.0000 0.30585  0.78309  0.95628  Biso   1.000  H
  H1542    1.0000 0.33125  0.80140  0.85745  Biso   1.000  H
  C1728    1.0000 0.33047  0.75565  0.90558  Biso   1.000  C
  H1543    1.0000 0.33125  0.80140  0.85753  Biso   1.000  H
  H1544    1.0000 0.30583  0.78309  0.95628  Biso   1.000  H
  H1545    1.0000 0.33123  0.80137  0.85745  Biso   1.000  H
  C1729    1.0000 0.33046  0.75563  0.90558  Biso   1.000  C
  H1546    1.0000 0.33123  0.80137  0.85753  Biso   1.000  H
  C1730    1.0000 0.33675  0.73649  0.99358  Biso   1.000  C
  C1731    1.0000 0.33673  0.73647  0.99358  Biso   1.000  C
  C1732    1.0000 0.31644  0.73508  0.02126  Biso   1.000  C
  C1733    1.0000 0.32354  0.70240  0.00505  Biso   1.000  C
  C1734    1.0000 0.32354  0.70240  0.00513  Biso   1.000  C
  C1735    1.0000 0.32353  0.70237  0.00505  Biso   1.000  C
  C1736    1.0000 0.32353  0.70237  0.00513  Biso   1.000  C
  C1737    1.0000 0.31095  0.72479  0.07765  Biso   1.000  C
  C1738    1.0000 0.67645  0.29763  0.99495  Biso   1.000  C
  C1739    1.0000 0.68357  0.26495  0.97874  Biso   1.000  C
  C1740    1.0000 0.66327  0.26353  0.00642  Biso   1.000  C
  C1741    1.0000 0.66327  0.26353  0.00650  Biso   1.000  C
  C1742    1.0000 0.66324  0.26353  0.00642  Biso   1.000  C
  C1743    1.0000 0.66324  0.26353  0.00650  Biso   1.000  C
  C1744    1.0000 0.68906  0.27524  0.92235  Biso   1.000  C
  C1745    1.0000 0.66952  0.24437  0.09442  Biso   1.000  C
  C1746    1.0000 0.66952  0.24437  0.09450  Biso   1.000  C
  C1747    1.0000 0.67134  0.21100  0.07532  Biso   1.000  C
  C1748    1.0000 0.67134  0.21100  0.07541  Biso   1.000  C
  O226     1.0000 0.64288  0.18888  0.00393  Biso   1.000  O
  O227     1.0000 0.64287  0.18885  0.00393  Biso   1.000  O
  H1547    1.0000 0.69416  0.21693  0.04372  Biso   1.000  H
  H1548    1.0000 0.66877  0.19863  0.14255  Biso   1.000  H
  H1549    1.0000 0.69416  0.21693  0.04380  Biso   1.000  H
  H1550    1.0000 0.66874  0.19863  0.14255  Biso   1.000  H
  C1749    1.0000 0.64003  0.15804  0.96414  Biso   1.000  C
  C1750    1.0000 0.64001  0.15802  0.96414  Biso   1.000  C
  C1751    1.0000 0.61669  0.14196  0.87951  Biso   1.000  C
  C1752    1.0000 0.61669  0.14196  0.87959  Biso   1.000  C
  C1753    1.0000 0.61665  0.14193  0.87951  Biso   1.000  C
  C1754    1.0000 0.61665  0.14193  0.87959  Biso   1.000  C
  C1755    1.0000 0.65847  0.14185  0.00955  Biso   1.000  C
  C1756    1.0000 0.65843  0.14183  0.00955  Biso   1.000  C
  C1757    1.0000 0.59529  0.15812  0.83756  Biso   1.000  C
  C1758    1.0000 0.59528  0.15810  0.83756  Biso   1.000  C
  C1759    1.0000 0.61045  0.10851  0.83964  Biso   1.000  C
  C1760    1.0000 0.61043  0.10848  0.83964  Biso   1.000  C
  C1761    1.0000 0.65180  0.10950  0.97377  Biso   1.000  C
  H1551    1.0000 0.67515  0.15342  0.06377  Biso   1.000  H
  O228     1.0000 0.56078  0.13843  0.88553  Biso   1.000  O
  O229     1.0000 0.56076  0.13843  0.88553  Biso   1.000  O
  H1552    1.0000 0.60655  0.18324  0.85705  Biso   1.000  H
  H1553    1.0000 0.59346  0.15623  0.75991  Biso   1.000  H
  H1554    1.0000 0.59346  0.15623  0.75999  Biso   1.000  H
  H1555    1.0000 0.60654  0.18321  0.85705  Biso   1.000  H
  H1556    1.0000 0.59344  0.15623  0.75991  Biso   1.000  H
  H1557    1.0000 0.59344  0.15623  0.75999  Biso   1.000  H
  C1762    1.0000 0.58631  0.09087  0.75413  Biso   1.000  C
  C1763    1.0000 0.62753  0.09098  0.88882  Biso   1.000  C
  C1764    1.0000 0.62753  0.09098  0.88890  Biso   1.000  C
  C1765    1.0000 0.58630  0.09085  0.75413  Biso   1.000  C
  C1766    1.0000 0.62750  0.09098  0.88882  Biso   1.000  C
  C1767    1.0000 0.62750  0.09098  0.88890  Biso   1.000  C
  H1558    1.0000 0.66367  0.09894  0.00602  Biso   1.000  H
  H1559    1.0000 0.66367  0.09894  0.00610  Biso   1.000  H
  H1560    1.0000 0.66364  0.09891  0.00602  Biso   1.000  H
  H1561    1.0000 0.66364  0.09891  0.00610  Biso   1.000  H
  C1768    1.0000 0.53679  0.14998  0.84879  Biso   1.000  C
  C1769    1.0000 0.53679  0.14998  0.84887  Biso   1.000  C
  H1562    1.0000 0.57507  0.10193  0.72156  Biso   1.000  H
  C1770    1.0000 0.57918  0.05825  0.71819  Biso   1.000  C
  C1771    1.0000 0.57918  0.05825  0.71827  Biso   1.000  C
  C1772    1.0000 0.57917  0.05822  0.71819  Biso   1.000  C
  C1773    1.0000 0.57917  0.05822  0.71827  Biso   1.000  C
  C1774    1.0000 0.61902  0.05643  0.85336  Biso   1.000  C
  C1775    1.0000 0.61900  0.05643  0.85336  Biso   1.000  C
  C1776    1.0000 0.50124  0.12662  0.90221  Biso   1.000  C
  C1777    1.0000 0.50124  0.12662  0.90229  Biso   1.000  C
  H1563    1.0000 0.53425  0.14762  0.77146  Biso   1.000  H
  H1564    1.0000 0.54586  0.17482  0.86772  Biso   1.000  H
  H1565    1.0000 0.54586  0.17482  0.86780  Biso   1.000  H
  H1566    1.0000 0.54584  0.17482  0.86772  Biso   1.000  H
  H1567    1.0000 0.54584  0.17482  0.86780  Biso   1.000  H
  C1778    1.0000 0.59550  0.04072  0.76873  Biso   1.000  C
  H1568    1.0000 0.56367  0.04753  0.66084  Biso   1.000  H
  C1779    1.0000 0.59549  0.04069  0.76873  Biso   1.000  C
  H1569    1.0000 0.56365  0.04753  0.66084  Biso   1.000  H
  C1780    1.0000 0.63133  0.03425  0.91296  Biso   1.000  C
  C1781    1.0000 0.63132  0.03423  0.91296  Biso   1.000  C
  C1782    1.0000 0.47926  0.09103  0.86780  Biso   1.000  C
  C1783    1.0000 0.47926  0.09103  0.86788  Biso   1.000  C
  C1784    1.0000 0.49042  0.13980  0.98644  Biso   1.000  C
  C1785    1.0000 0.49041  0.13977  0.98644  Biso   1.000  C
  O230     1.0000 0.58834  0.00737  0.73841  Biso   1.000  O
  O231     1.0000 0.58834  0.00737  0.73849  Biso   1.000  O
  O232     1.0000 0.58830  0.00735  0.73841  Biso   1.000  O
  O233     1.0000 0.58830  0.00735  0.73849  Biso   1.000  O
  H1570    1.0000 0.63705  0.02052  0.86323  Biso   1.000  H
  H1571    1.0000 0.65235  0.04932  0.95564  Biso   1.000  H
  O234     1.0000 0.60181  0.01085  0.98051  Biso   1.000  O
  O235     1.0000 0.60180  0.01082  0.98051  Biso   1.000  O
  C1786    1.0000 0.44566  0.06832  0.91882  Biso   1.000  C
  C1787    1.0000 0.44566  0.06832  0.91890  Biso   1.000  C
  C1788    1.0000 0.44565  0.06829  0.91882  Biso   1.000  C
  C1789    1.0000 0.44565  0.06829  0.91890  Biso   1.000  C
  C1790    1.0000 0.48927  0.07631  0.78133  Biso   1.000  C
  C1791    1.0000 0.48924  0.07628  0.78133  Biso   1.000  C
  C1792    1.0000 0.45739  0.11759  0.03730  Biso   1.000  C
  C1793    1.0000 0.45739  0.11759  0.03738  Biso   1.000  C
  O236     1.0000 0.51313  0.17424  0.01628  Biso   1.000  O
  O237     1.0000 0.51313  0.17424  0.01636  Biso   1.000  O
  C1794    1.0000 0.56752  0.99124  0.64479  Biso   1.000  C
  C1795    1.0000 0.56752  0.99124  0.64487  Biso   1.000  C
  C1796    1.0000 0.56751  0.99121  0.64479  Biso   1.000  C
  C1797    1.0000 0.56751  0.99121  0.64487  Biso   1.000  C
  C1798    1.0000 0.61053  0.99289  0.06040  Biso   1.000  C
  C1799    1.0000 0.61053  0.99289  0.06048  Biso   1.000  C
  C1800    1.0000 0.61052  0.99287  0.06040  Biso   1.000  C
  C1801    1.0000 0.61052  0.99287  0.06048  Biso   1.000  C
  C1802    1.0000 0.42362  0.03246  0.88304  Biso   1.000  C
  C1803    1.0000 0.42360  0.03244  0.88304  Biso   1.000  C
  C1804    1.0000 0.43613  0.08323  0.00562  Biso   1.000  C
  C1805    1.0000 0.43613  0.08323  0.00570  Biso   1.000  C
  C1806    1.0000 0.43610  0.08320  0.00562  Biso   1.000  C
  C1807    1.0000 0.43610  0.08320  0.00570  Biso   1.000  C
  C1808    1.0000 0.46799  0.04216  0.74771  Biso   1.000  C
  C1809    1.0000 0.46799  0.04216  0.74779  Biso   1.000  C
  C1810    1.0000 0.46798  0.04214  0.74771  Biso   1.000  C
  C1811    1.0000 0.46798  0.04214  0.74779  Biso   1.000  C
  H1572    1.0000 0.51096  0.09044  0.74683  Biso   1.000  H
  H1573    1.0000 0.51095  0.09042  0.74683  Biso   1.000  H
  H1574    1.0000 0.45006  0.12662  0.09345  Biso   1.000  H
  C1812    1.0000 0.50384  0.18875  0.10637  Biso   1.000  C
  C1813    1.0000 0.50383  0.18872  0.10637  Biso   1.000  C
  H1575    1.0000 0.54239  0.98196  0.65971  Biso   1.000  H
  C1814    1.0000 0.57412  0.96139  0.61391  Biso   1.000  C
  C1815    1.0000 0.57412  0.96139  0.61399  Biso   1.000  C
  H1576    1.0000 0.54235  0.98194  0.65971  Biso   1.000  H
  H1577    1.0000 0.57466  0.00852  0.58720  Biso   1.000  H
  H1578    1.0000 0.57466  0.00852  0.58728  Biso   1.000  H
  H1579    1.0000 0.57464  0.00852  0.58720  Biso   1.000  H
  H1580    1.0000 0.57464  0.00852  0.58728  Biso   1.000  H
  C1816    1.0000 0.57637  0.96756  0.11696  Biso   1.000  C
  C1817    1.0000 0.57637  0.96756  0.11704  Biso   1.000  C
  H1581    1.0000 0.62098  0.97985  0.02751  Biso   1.000  H
  H1582    1.0000 0.62098  0.97985  0.02760  Biso   1.000  H
  H1583    1.0000 0.62766  0.00994  0.11086  Biso   1.000  H
  H1584    1.0000 0.62765  0.00991  0.11086  Biso   1.000  H
  C1818    1.0000 0.38946  0.00713  0.93960  Biso   1.000  C
  C1819    1.0000 0.43505  0.02001  0.79913  Biso   1.000  C
  H1585    1.0000 0.41476  0.06904  0.04171  Biso   1.000  H
  H1586    1.0000 0.41476  0.06904  0.04179  Biso   1.000  H
  H1587    1.0000 0.41475  0.06902  0.04171  Biso   1.000  H
  H1588    1.0000 0.41475  0.06902  0.04179  Biso   1.000  H
  H1589    1.0000 0.47517  0.03335  0.69076  Biso   1.000  H
  H1590    1.0000 0.47516  0.03332  0.69076  Biso   1.000  H
  H1591    1.0000 0.49976  0.17402  0.16942  Biso   1.000  H
  H1592    1.0000 0.48216  0.18944  0.09113  Biso   1.000  H
  C1820    1.0000 0.53434  0.22554  0.12490  Biso   1.000  C
  H1593    1.0000 0.49976  0.17402  0.16950  Biso   1.000  H
  H1594    1.0000 0.48216  0.18944  0.09121  Biso   1.000  H
  C1821    1.0000 0.53434  0.22554  0.12498  Biso   1.000  C
  H1595    1.0000 0.49974  0.17402  0.16942  Biso   1.000  H
  H1596    1.0000 0.48214  0.18941  0.09113  Biso   1.000  H
  C1822    1.0000 0.53430  0.22551  0.12490  Biso   1.000  C
  H1597    1.0000 0.49974  0.17402  0.16950  Biso   1.000  H
  H1598    1.0000 0.48214  0.18941  0.09121  Biso   1.000  H
  C1823    1.0000 0.53430  0.22551  0.12498  Biso   1.000  C
  H1599    1.0000 0.55896  0.94875  0.55335  Biso   1.000  H
  H1600    1.0000 0.56708  0.94466  0.67319  Biso   1.000  H
  C1824    1.0000 0.61223  0.97309  0.58471  Biso   1.000  C
  H1601    1.0000 0.56708  0.94466  0.67327  Biso   1.000  H
  C1825    1.0000 0.61223  0.97309  0.58479  Biso   1.000  C
  H1602    1.0000 0.56706  0.94464  0.67319  Biso   1.000  H
  C1826    1.0000 0.61220  0.97309  0.58471  Biso   1.000  C
  H1603    1.0000 0.56706  0.94464  0.67327  Biso   1.000  H
  C1827    1.0000 0.61220  0.97309  0.58479  Biso   1.000  C
  C1828    1.0000 0.55433  0.93171  0.08118  Biso   1.000  C
  C1829    1.0000 0.56497  0.98001  0.20087  Biso   1.000  C
  C1830    1.0000 0.56493  0.97999  0.20087  Biso   1.000  C
  H1604    1.0000 0.37235  0.99009  0.88914  Biso   1.000  H
  H1605    1.0000 0.37235  0.99009  0.88922  Biso   1.000  H
  H1606    1.0000 0.37233  0.99009  0.88914  Biso   1.000  H
  H1607    1.0000 0.37233  0.99009  0.88922  Biso   1.000  H
  O238     1.0000 0.39818  0.98918  0.01949  Biso   1.000  O
  O239     1.0000 0.39818  0.98918  0.01957  Biso   1.000  O
  H1608    1.0000 0.37904  0.02017  0.97249  Biso   1.000  H
  H1609    1.0000 0.37900  0.02015  0.97249  Biso   1.000  H
  O240     1.0000 0.41279  0.98549  0.76721  Biso   1.000  O
  O241     1.0000 0.41279  0.98549  0.76729  Biso   1.000  O
  H1610    1.0000 0.53846  0.23924  0.05952  Biso   1.000  H
  H1611    1.0000 0.52746  0.23673  0.18017  Biso   1.000  H
  C1831    1.0000 0.56843  0.22759  0.15755  Biso   1.000  C
  H1612    1.0000 0.53846  0.23924  0.05960  Biso   1.000  H
  H1613    1.0000 0.53845  0.23922  0.05952  Biso   1.000  H
  C1832    1.0000 0.56842  0.22757  0.15755  Biso   1.000  C
  H1614    1.0000 0.53845  0.23922  0.05960  Biso   1.000  H
  H1615    1.0000 0.62686  0.98325  0.64824  Biso   1.000  H
  H1616    1.0000 0.61347  0.95207  0.56530  Biso   1.000  H
  C1833    1.0000 0.62859  0.99981  0.49503  Biso   1.000  C
  H1617    1.0000 0.61347  0.95207  0.56538  Biso   1.000  H
  H1618    1.0000 0.61345  0.95204  0.56530  Biso   1.000  H
  H1619    1.0000 0.61345  0.95204  0.56538  Biso   1.000  H
  C1834    1.0000 0.52073  0.90899  0.13220  Biso   1.000  C
  C1835    1.0000 0.52072  0.90897  0.13220  Biso   1.000  C
  C1836    1.0000 0.56388  0.91680  0.99438  Biso   1.000  C
  C1837    1.0000 0.53202  0.95786  0.25229  Biso   1.000  C
  C1838    1.0000 0.53200  0.95786  0.25229  Biso   1.000  C
  O242     1.0000 0.58720  0.01454  0.23279  Biso   1.000  O
  O243     1.0000 0.58719  0.01451  0.23279  Biso   1.000  O
  C1839    1.0000 0.36868  0.96577  0.08704  Biso   1.000  C
  C1840    1.0000 0.36868  0.96577  0.08712  Biso   1.000  C
  C1841    1.0000 0.36866  0.96577  0.08704  Biso   1.000  C
  C1842    1.0000 0.36866  0.96577  0.08712  Biso   1.000  C
  C1843    1.0000 0.42544  0.97053  0.68819  Biso   1.000  C
  C1844    1.0000 0.42544  0.97053  0.68827  Biso   1.000  C
  H1620    1.0000 0.57386  0.21383  0.10717  Biso   1.000  H
  H1621    1.0000 0.58746  0.25223  0.15338  Biso   1.000  H
  C1845    1.0000 0.56757  0.21445  0.26376  Biso   1.000  C
  C1846    1.0000 0.56754  0.21442  0.26376  Biso   1.000  C
  H1622    1.0000 0.62806  0.02113  0.51324  Biso   1.000  H
  H1623    1.0000 0.61526  0.98985  0.43021  Biso   1.000  H
  H1624    1.0000 0.65285  0.00542  0.48428  Biso   1.000  H
  H1625    1.0000 0.65285  0.00542  0.48436  Biso   1.000  H
  C1847    1.0000 0.49875  0.87340  0.09779  Biso   1.000  C
  C1848    1.0000 0.49874  0.87338  0.09779  Biso   1.000  C
  C1849    1.0000 0.51074  0.92372  0.21867  Biso   1.000  C
  C1850    1.0000 0.54260  0.88244  0.96270  Biso   1.000  C
  C1851    1.0000 0.54259  0.88241  0.96270  Biso   1.000  C
  H1626    1.0000 0.58523  0.93098  0.95829  Biso   1.000  H
  H1627    1.0000 0.52484  0.96668  0.30924  Biso   1.000  H
  H1628    1.0000 0.52484  0.96668  0.30932  Biso   1.000  H
  H1629    1.0000 0.52482  0.96668  0.30924  Biso   1.000  H
  H1630    1.0000 0.52482  0.96668  0.30932  Biso   1.000  H
  C1852    1.0000 0.57457  0.02950  0.31181  Biso   1.000  C
  C1853    1.0000 0.57455  0.02950  0.31181  Biso   1.000  C
  C1854    1.0000 0.38099  0.94360  0.14664  Biso   1.000  C
  H1631    1.0000 0.36294  0.97951  0.13677  Biso   1.000  H
  H1632    1.0000 0.34766  0.95070  0.04436  Biso   1.000  H
  C1855    1.0000 0.38099  0.94360  0.14672  Biso   1.000  C
  C1856    1.0000 0.38098  0.94357  0.14664  Biso   1.000  C
  H1633    1.0000 0.36293  0.97948  0.13677  Biso   1.000  H
  H1634    1.0000 0.34762  0.95068  0.04436  Biso   1.000  H
  C1857    1.0000 0.38098  0.94357  0.14672  Biso   1.000  C
  C1858    1.0000 0.39086  0.93483  0.64544  Biso   1.000  C
  H1635    1.0000 0.59025  0.21653  0.27988  Biso   1.000  H
  H1636    1.0000 0.54926  0.18995  0.26801  Biso   1.000  H
  H1637    1.0000 0.56276  0.22824  0.31438  Biso   1.000  H
  H1638    1.0000 0.54926  0.18995  0.26809  Biso   1.000  H
  H1639    1.0000 0.54925  0.18992  0.26801  Biso   1.000  H
  H1640    1.0000 0.54925  0.18992  0.26809  Biso   1.000  H
  C1859    1.0000 0.46320  0.85005  0.15121  Biso   1.000  C
  C1860    1.0000 0.46318  0.85002  0.15121  Biso   1.000  C
  C1861    1.0000 0.50957  0.86023  0.01356  Biso   1.000  C
  C1862    1.0000 0.50957  0.86023  0.01364  Biso   1.000  C
  H1641    1.0000 0.48903  0.90958  0.25317  Biso   1.000  H
  H1642    1.0000 0.54996  0.87340  0.90655  Biso   1.000  H
  H1643    1.0000 0.54996  0.87340  0.90663  Biso   1.000  H
  H1644    1.0000 0.54992  0.87338  0.90655  Biso   1.000  H
  H1645    1.0000 0.54992  0.87338  0.90663  Biso   1.000  H
  C1863    1.0000 0.60913  0.06520  0.35456  Biso   1.000  C
  C1864    1.0000 0.60913  0.06520  0.35464  Biso   1.000  C
  C1865    1.0000 0.60912  0.06517  0.35456  Biso   1.000  C
  C1866    1.0000 0.60912  0.06517  0.35464  Biso   1.000  C
  C1867    1.0000 0.40451  0.95931  0.23127  Biso   1.000  C
  C1868    1.0000 0.37249  0.90905  0.11118  Biso   1.000  C
  C1869    1.0000 0.40449  0.95931  0.23127  Biso   1.000  C
  C1870    1.0000 0.37247  0.90902  0.11118  Biso   1.000  C
  C1871    1.0000 0.39087  0.91661  0.73263  Biso   1.000  C
  C1872    1.0000 0.36847  0.91236  0.65971  Biso   1.000  C
  O244     1.0000 0.43923  0.86159  0.11447  Biso   1.000  O
  O245     1.0000 0.43923  0.86159  0.11455  Biso   1.000  O
  O246     1.0000 0.43922  0.86157  0.11447  Biso   1.000  O
  O247     1.0000 0.43922  0.86157  0.11455  Biso   1.000  O
  H1646    1.0000 0.46574  0.85240  0.22854  Biso   1.000  H
  H1647    1.0000 0.45415  0.82520  0.13228  Biso   1.000  H
  H1648    1.0000 0.46574  0.85240  0.22862  Biso   1.000  H
  H1649    1.0000 0.46572  0.85238  0.22854  Biso   1.000  H
  H1650    1.0000 0.45414  0.82518  0.13228  Biso   1.000  H
  H1651    1.0000 0.46572  0.85238  0.22862  Biso   1.000  H
  O248     1.0000 0.48686  0.82579  0.98372  Biso   1.000  O
  C1873    1.0000 0.60912  0.08342  0.26737  Biso   1.000  C
  C1874    1.0000 0.60911  0.08339  0.26737  Biso   1.000  C
  C1875    1.0000 0.63152  0.08767  0.34029  Biso   1.000  C
  O249     1.0000 0.41167  0.99265  0.26159  Biso   1.000  O
  C1876    1.0000 0.42083  0.94178  0.28181  Biso   1.000  C
  C1877    1.0000 0.42081  0.94178  0.28181  Biso   1.000  C
  C1878    1.0000 0.34821  0.89053  0.02623  Biso   1.000  C
  C1879    1.0000 0.38954  0.89152  0.16036  Biso   1.000  C
  C1880    1.0000 0.34821  0.89053  0.02631  Biso   1.000  C
  C1881    1.0000 0.38954  0.89152  0.16044  Biso   1.000  C
  C1882    1.0000 0.34819  0.89053  0.02623  Biso   1.000  C
  C1883    1.0000 0.34819  0.89053  0.02631  Biso   1.000  C
  C1884    1.0000 0.34696  0.87415  0.69052  Biso   1.000  C
  C1885    1.0000 0.40470  0.84190  0.16244  Biso   1.000  C
  C1886    1.0000 0.40470  0.84190  0.16252  Biso   1.000  C
  C1887    1.0000 0.49617  0.81128  0.89363  Biso   1.000  C
  C1888    1.0000 0.49617  0.81128  0.89371  Biso   1.000  C
  C1889    1.0000 0.49615  0.81128  0.89363  Biso   1.000  C
  C1890    1.0000 0.49615  0.81128  0.89371  Biso   1.000  C
  C1891    1.0000 0.65303  0.12587  0.30948  Biso   1.000  C
  C1892    1.0000 0.65301  0.12585  0.30948  Biso   1.000  C
  C1893    1.0000 0.43247  0.00879  0.35521  Biso   1.000  C
  H1652    1.0000 0.43634  0.95249  0.33916  Biso   1.000  H
  C1894    1.0000 0.41368  0.90915  0.24587  Biso   1.000  C
  H1653    1.0000 0.43634  0.95249  0.33924  Biso   1.000  H
  C1895    1.0000 0.34154  0.85817  0.99045  Biso   1.000  C
  H1654    1.0000 0.33634  0.90109  0.99398  Biso   1.000  H
  C1896    1.0000 0.34154  0.85817  0.99053  Biso   1.000  C
  C1897    1.0000 0.38332  0.85807  0.12049  Biso   1.000  C
  H1655    1.0000 0.39344  0.81679  0.14295  Biso   1.000  H
  H1656    1.0000 0.40655  0.84380  0.24009  Biso   1.000  H
  H1657    1.0000 0.39344  0.81679  0.14303  Biso   1.000  H
  H1658    1.0000 0.40654  0.84377  0.24009  Biso   1.000  H
  H1659    1.0000 0.50025  0.82600  0.83058  Biso   1.000  H
  H1660    1.0000 0.51783  0.81059  0.90887  Biso   1.000  H
  C1898    1.0000 0.46568  0.77449  0.87510  Biso   1.000  C
  H1661    1.0000 0.50024  0.82598  0.83058  Biso   1.000  H
  H1662    1.0000 0.42535  0.99150  0.41280  Biso   1.000  H
  H1663    1.0000 0.42534  0.99148  0.41280  Biso   1.000  H
  H1664    1.0000 0.45763  0.01806  0.34029  Biso   1.000  H
  C1899    1.0000 0.42589  0.03864  0.38609  Biso   1.000  C
  C1900    1.0000 0.42586  0.03861  0.38609  Biso   1.000  C
  H1665    1.0000 0.42495  0.89809  0.27844  Biso   1.000  H
  H1666    1.0000 0.42495  0.89809  0.27852  Biso   1.000  H
  H1667    1.0000 0.42493  0.89809  0.27844  Biso   1.000  H
  H1668    1.0000 0.42493  0.89809  0.27852  Biso   1.000  H
  H1669    1.0000 0.32486  0.84660  0.93623  Biso   1.000  H
  H1670    1.0000 0.32486  0.84660  0.93631  Biso   1.000  H
  H1671    1.0000 0.32482  0.84658  0.93623  Biso   1.000  H
  H1672    1.0000 0.32482  0.84658  0.93631  Biso   1.000  H
  C1901    1.0000 0.35999  0.84198  0.03586  Biso   1.000  C
  C1902    1.0000 0.35999  0.84198  0.03594  Biso   1.000  C
  C1903    1.0000 0.35996  0.84198  0.03586  Biso   1.000  C
  C1904    1.0000 0.35996  0.84198  0.03594  Biso   1.000  C
  H1673    1.0000 0.46153  0.76078  0.94048  Biso   1.000  H
  H1674    1.0000 0.47255  0.76329  0.81983  Biso   1.000  H
  C1905    1.0000 0.43156  0.77243  0.84245  Biso   1.000  C
  H1675    1.0000 0.47255  0.76329  0.81991  Biso   1.000  H
  C1906    1.0000 0.43156  0.77243  0.84253  Biso   1.000  C
  H1676    1.0000 0.47251  0.76327  0.81983  Biso   1.000  H
  H1677    1.0000 0.47251  0.76327  0.81991  Biso   1.000  H
  H1678    1.0000 0.44103  0.05127  0.44665  Biso   1.000  H
  H1679    1.0000 0.43291  0.05536  0.32681  Biso   1.000  H
  C1907    1.0000 0.38779  0.02693  0.41529  Biso   1.000  C
  H1680    1.0000 0.44103  0.05127  0.44674  Biso   1.000  H
  H1681    1.0000 0.44102  0.05125  0.44665  Biso   1.000  H
  C1908    1.0000 0.38777  0.02691  0.41529  Biso   1.000  C
  H1682    1.0000 0.44102  0.05125  0.44674  Biso   1.000  H
  O250     1.0000 0.35711  0.81115  0.99607  Biso   1.000  O
  H1683    1.0000 0.42615  0.78619  0.89283  Biso   1.000  H
  H1684    1.0000 0.41256  0.74780  0.84662  Biso   1.000  H
  C1909    1.0000 0.43244  0.78558  0.73624  Biso   1.000  C
  H1685    1.0000 0.42615  0.78619  0.89291  Biso   1.000  H
  H1686    1.0000 0.41256  0.74780  0.84670  Biso   1.000  H
  C1910    1.0000 0.43244  0.78558  0.73632  Biso   1.000  C
  H1687    1.0000 0.42613  0.78619  0.89283  Biso   1.000  H
  H1688    1.0000 0.41252  0.74777  0.84662  Biso   1.000  H
  H1689    1.0000 0.42613  0.78619  0.89291  Biso   1.000  H
  H1690    1.0000 0.41252  0.74777  0.84670  Biso   1.000  H
  H1691    1.0000 0.37313  0.01678  0.35176  Biso   1.000  H
  H1692    1.0000 0.38652  0.04796  0.43470  Biso   1.000  H
  C1911    1.0000 0.37142  0.00021  0.50497  Biso   1.000  C
  H1693    1.0000 0.37313  0.01678  0.35184  Biso   1.000  H
  C1912    1.0000 0.37142  0.00021  0.50505  Biso   1.000  C
  H1694    1.0000 0.37312  0.01675  0.35176  Biso   1.000  H
  C1913    1.0000 0.37138  0.00019  0.50497  Biso   1.000  C
  H1695    1.0000 0.37312  0.01675  0.35184  Biso   1.000  H
  C1914    1.0000 0.37138  0.00019  0.50505  Biso   1.000  C
  C1915    1.0000 0.32867  0.78902  0.92468  Biso   1.000  C
  C1916    1.0000 0.32864  0.78900  0.92468  Biso   1.000  C
  H1696    1.0000 0.40974  0.78349  0.72012  Biso   1.000  H
  H1697    1.0000 0.45073  0.81008  0.73199  Biso   1.000  H
  H1698    1.0000 0.43723  0.77179  0.68562  Biso   1.000  H
  H1699    1.0000 0.40974  0.78349  0.72020  Biso   1.000  H
  H1700    1.0000 0.43723  0.77179  0.68571  Biso   1.000  H
  H1701    1.0000 0.40973  0.78347  0.72012  Biso   1.000  H
  H1702    1.0000 0.40973  0.78347  0.72020  Biso   1.000  H
  H1703    1.0000 0.34714  0.99460  0.51572  Biso   1.000  H
  H1704    1.0000 0.37193  0.97889  0.48676  Biso   1.000  H
  H1705    1.0000 0.37193  0.97889  0.48684  Biso   1.000  H
  H1706    1.0000 0.34713  0.99458  0.51572  Biso   1.000  H
  H1707    1.0000 0.38473  0.01018  0.56979  Biso   1.000  H
  H1708    1.0000 0.38472  0.01015  0.56979  Biso   1.000  H
  H1709    1.0000 0.30585  0.78309  0.95628  Biso   1.000  H
  H1710    1.0000 0.33125  0.80140  0.85745  Biso   1.000  H
  C1917    1.0000 0.33047  0.75565  0.90558  Biso   1.000  C
  H1711    1.0000 0.33125  0.80140  0.85753  Biso   1.000  H
  H1712    1.0000 0.30583  0.78309  0.95628  Biso   1.000  H
  H1713    1.0000 0.33123  0.80137  0.85745  Biso   1.000  H
  C1918    1.0000 0.33046  0.75563  0.90558  Biso   1.000  C
  H1714    1.0000 0.33123  0.80137  0.85753  Biso   1.000  H
  C1919    1.0000 0.33675  0.73649  0.99358  Biso   1.000  C
  C1920    1.0000 0.33673  0.73647  0.99358  Biso   1.000  C
  C1921    1.0000 0.31644  0.73508  0.02126  Biso   1.000  C
  C1922    1.0000 0.32354  0.70240  0.00505  Biso   1.000  C
  C1923    1.0000 0.32354  0.70240  0.00513  Biso   1.000  C
  C1924    1.0000 0.32353  0.70237  0.00505  Biso   1.000  C
  C1925    1.0000 0.32353  0.70237  0.00513  Biso   1.000  C
  C1926    1.0000 0.31095  0.72479  0.07765  Biso   1.000  C
  C1927    1.0000 0.66645  0.70456  0.83836  Biso   1.000  C
  C1928    1.0000 0.63973  0.69419  0.74860  Biso   1.000  C
  H1715    1.0000 0.67210  0.68591  0.84903  Biso   1.000  H
  H1716    1.0000 0.68779  0.72642  0.82015  Biso   1.000  H
  H1717    1.0000 0.65649  0.70790  0.90310  Biso   1.000  H
  C1929    1.0000 0.62803  0.72059  0.71940  Biso   1.000  C
  H1718    1.0000 0.64989  0.68970  0.68514  Biso   1.000  H
  H1719    1.0000 0.61868  0.67191  0.76801  Biso   1.000  H
  C1930    1.0000 0.65787  0.75704  0.68851  Biso   1.000  C
  H1720    1.0000 0.61540  0.72310  0.78004  Biso   1.000  H
  H1721    1.0000 0.61130  0.71092  0.66012  Biso   1.000  H
  O251     1.0000 0.67402  0.75236  0.59490  Biso   1.000  O
  H1722    1.0000 0.67520  0.76722  0.74611  Biso   1.000  H
  H1723    1.0000 0.64859  0.77291  0.67359  Biso   1.000  H
  C1931    1.0000 0.70738  0.77855  0.56466  Biso   1.000  C
  C1932    1.0000 0.72311  0.77077  0.48003  Biso   1.000  C
  C1933    1.0000 0.72491  0.81240  0.61511  Biso   1.000  C
  C1934    1.0000 0.70090  0.73625  0.42042  Biso   1.000  C
  C1935    1.0000 0.75765  0.79680  0.44449  Biso   1.000  C
  H1724    1.0000 0.71419  0.81721  0.67255  Biso   1.000  H
  C1936    1.0000 0.75753  0.83789  0.57926  Biso   1.000  C
  O252     1.0000 0.67751  0.74237  0.35288  Biso   1.000  O
  H1725    1.0000 0.68720  0.71680  0.47008  Biso   1.000  H
  H1726    1.0000 0.71601  0.73032  0.37775  Biso   1.000  H
  C1937    1.0000 0.77614  0.79102  0.35962  Biso   1.000  C
  C1938    1.0000 0.77514  0.83137  0.49374  Biso   1.000  C
  H1727    1.0000 0.76859  0.86020  0.61182  Biso   1.000  H
  C1939    1.0000 0.65952  0.71568  0.27290  Biso   1.000  C
  C1940    1.0000 0.80850  0.81673  0.32384  Biso   1.000  C
  H1728    1.0000 0.76558  0.76861  0.32729  Biso   1.000  H
  C1941    1.0000 0.80861  0.85860  0.45379  Biso   1.000  C
  C1942    1.0000 0.63420  0.72452  0.21635  Biso   1.000  C
  H1729    1.0000 0.67658  0.71560  0.22253  Biso   1.000  H
  H1730    1.0000 0.64649  0.69222  0.30579  Biso   1.000  H
  C1943    1.0000 0.82470  0.85136  0.36924  Biso   1.000  C
  H1731    1.0000 0.82009  0.81160  0.26961  Biso   1.000  H
  C1944    1.0000 0.82478  0.89616  0.49583  Biso   1.000  C
  C1945    1.0000 0.59835  0.71071  0.25221  Biso   1.000  C
  C1946    1.0000 0.64664  0.74838  0.13244  Biso   1.000  C
  O253     1.0000 0.85553  0.87933  0.32938  Biso   1.000  O
  O254     1.0000 0.80509  0.91099  0.44786  Biso   1.000  O
  H1732    1.0000 0.84988  0.91001  0.47634  Biso   1.000  H
  H1733    1.0000 0.82290  0.89611  0.57340  Biso   1.000  H
  C1947    1.0000 0.58343  0.68623  0.33900  Biso   1.000  C
  C1948    1.0000 0.57563  0.72158  0.20119  Biso   1.000  C
  C1949    1.0000 0.62451  0.75917  0.08110  Biso   1.000  C
  O255     1.0000 0.68119  0.76064  0.10059  Biso   1.000  O
  C1950    1.0000 0.87766  0.87300  0.25798  Biso   1.000  C
  C1951    1.0000 0.81664  0.94653  0.48452  Biso   1.000  C
  C1952    1.0000 0.54907  0.67314  0.37069  Biso   1.000  C
  H1734    1.0000 0.59762  0.67907  0.37510  Biso   1.000  H
  C1953    1.0000 0.54003  0.70795  0.23560  Biso   1.000  C
  C1954    1.0000 0.59035  0.74630  0.11463  Biso   1.000  C
  H1735    1.0000 0.63332  0.77518  0.02407  Biso   1.000  H
  C1955    1.0000 0.69616  0.78827  0.02158  Biso   1.000  C
  H1736    1.0000 0.88358  0.85611  0.28959  Biso   1.000  H
  H1737    1.0000 0.86530  0.86322  0.19084  Biso   1.000  H
  C1956    1.0000 0.91103  0.90819  0.23889  Biso   1.000  C
  C1957    1.0000 0.79330  0.95871  0.43109  Biso   1.000  C
  H1738    1.0000 0.81430  0.94672  0.56193  Biso   1.000  H
  H1739    1.0000 0.84149  0.96232  0.46559  Biso   1.000  H
  C1958    1.0000 0.52687  0.68399  0.31975  Biso   1.000  C
  H1740    1.0000 0.54004  0.65679  0.42676  Biso   1.000  H
  C1959    1.0000 0.51668  0.72016  0.18218  Biso   1.000  C
  H1741    1.0000 0.57623  0.75388  0.08014  Biso   1.000  H
  C1960    1.0000 0.73185  0.78939  0.97874  Biso   1.000  C
  C1961    1.0000 0.93019  0.93360  0.32689  Biso   1.000  C
  C1962    1.0000 0.93158  0.91471  0.35464  Biso   1.000  C
  C1963    1.0000 0.75771  0.94511  0.46551  Biso   1.000  C
  C1964    1.0000 0.80644  0.98268  0.34694  Biso   1.000  C
  O256     1.0000 0.49243  0.67226  0.34967  Biso   1.000  O
  O257     1.0000 0.52823  0.75567  0.21884  Biso   1.000  O
  H1742    1.0000 0.51904  0.71998  0.10476  Biso   1.000  H
  H1743    1.0000 0.49182  0.70437  0.20111  Biso   1.000  H
  C1965    1.0000 0.75007  0.80762  0.06594  Biso   1.000  C
  C1966    1.0000 0.75433  0.78947  0.99310  Biso   1.000  C
  C1967    1.0000 0.96430  0.95452  0.33844  Biso   1.000  C
  C1968    1.0000 0.94190  0.91952  0.41104  Biso   1.000  C
  C1969    1.0000 0.73497  0.95599  0.41449  Biso   1.000  C
  C1970    1.0000 0.74296  0.92037  0.55198  Biso   1.000  C
  C1971    1.0000 0.78426  0.99353  0.29601  Biso   1.000  C
  O258     1.0000 0.84089  0.99444  0.31702  Biso   1.000  O
  C1972    1.0000 0.47793  0.64845  0.43968  Biso   1.000  C
  C1973    1.0000 0.50854  0.77053  0.17086  Biso   1.000  C
  C1974    1.0000 0.79253  0.80617  0.02391  Biso   1.000  C
  C1975    1.0000 0.69911  0.94218  0.45034  Biso   1.000  C
  C1976    1.0000 0.74987  0.98044  0.32769  Biso   1.000  C
  C1977    1.0000 0.70881  0.90752  0.58559  Biso   1.000  C
  H1744    1.0000 0.75709  0.91281  0.58656  Biso   1.000  H
  H1745    1.0000 0.79326  0.00988  0.23993  Biso   1.000  H
  C1978    1.0000 0.85537  0.01822  0.22702  Biso   1.000  C
  C1979    1.0000 0.44113  0.64214  0.45829  Biso   1.000  C
  H1746    1.0000 0.49264  0.65908  0.50281  Biso   1.000  H
  H1747    1.0000 0.47723  0.62609  0.42451  Biso   1.000  H
  H1748    1.0000 0.48342  0.75666  0.19036  Biso   1.000  H
  H1749    1.0000 0.51044  0.77058  0.09329  Biso   1.000  H
  C1980    1.0000 0.52470  0.80807  0.21290  Biso   1.000  C
  C1981    1.0000 0.67380  0.95102  0.39379  Biso   1.000  C
  C1982    1.0000 0.68667  0.91832  0.53425  Biso   1.000  C
  H1750    1.0000 0.73568  0.98760  0.29159  Biso   1.000  H
  H1751    1.0000 0.70000  0.89152  0.64263  Biso   1.000  H
  H1752    1.0000 0.84068  0.00758  0.16389  Biso   1.000  H
  H1753    1.0000 0.85607  0.04058  0.24218  Biso   1.000  H
  C1983    1.0000 0.89217  0.02452  0.20841  Biso   1.000  C
  H1754    1.0000 0.42744  0.63258  0.39291  Biso   1.000  H
  H1755    1.0000 0.42993  0.62408  0.51348  Biso   1.000  H
  C1984    1.0000 0.43909  0.67421  0.49086  Biso   1.000  C
  C1985    1.0000 0.50864  0.81534  0.29745  Biso   1.000  C
  C1986    1.0000 0.55816  0.83530  0.17295  Biso   1.000  C
  O259     1.0000 0.65583  0.92433  0.31381  Biso   1.000  O
  H1756    1.0000 0.65673  0.95107  0.44417  Biso   1.000  H
  H1757    1.0000 0.68683  0.97448  0.36090  Biso   1.000  H
  O260     1.0000 0.65214  0.90602  0.56610  Biso   1.000  O
  C1987    1.0000 0.89425  0.99249  0.17584  Biso   1.000  C
  H1758    1.0000 0.90588  0.03409  0.27378  Biso   1.000  H
  H1759    1.0000 0.90338  0.04259  0.15322  Biso   1.000  H
  H1760    1.0000 0.45281  0.69337  0.44048  Biso   1.000  H
  H1761    1.0000 0.41443  0.66857  0.48668  Biso   1.000  H
  C1988    1.0000 0.45224  0.68647  0.59706  Biso   1.000  C
  O261     1.0000 0.47778  0.78736  0.33732  Biso   1.000  O
  C1989    1.0000 0.52482  0.84997  0.34285  Biso   1.000  C
  C1990    1.0000 0.57581  0.82881  0.08744  Biso   1.000  C
  C1991    1.0000 0.57569  0.86990  0.22220  Biso   1.000  C
  C1992    1.0000 0.63240  0.93042  0.24627  Biso   1.000  C
  C1993    1.0000 0.63716  0.87842  0.64511  Biso   1.000  C
  H1762    1.0000 0.88049  0.97330  0.22622  Biso   1.000  H
  H1763    1.0000 0.91887  0.99810  0.18001  Biso   1.000  H
  C1994    1.0000 0.88110  0.98022  0.06963  Biso   1.000  C
  H1764    1.0000 0.45013  0.70707  0.61319  Biso   1.000  H
  H1765    1.0000 0.47672  0.69267  0.60140  Biso   1.000  H
  H1766    1.0000 0.43843  0.66788  0.64768  Biso   1.000  H
  C1995    1.0000 0.45566  0.79370  0.40871  Biso   1.000  C
  H1767    1.0000 0.51323  0.85507  0.39708  Biso   1.000  H
  C1996    1.0000 0.55716  0.87564  0.30708  Biso   1.000  C
  C1997    1.0000 0.60843  0.85430  0.05158  Biso   1.000  C
  H1768    1.0000 0.56471  0.80647  0.05487  Biso   1.000  H
  C1998    1.0000 0.61023  0.89592  0.18667  Biso   1.000  C
  H1769    1.0000 0.64613  0.94987  0.19653  Biso   1.000  H
  H1770    1.0000 0.61733  0.93638  0.28895  Biso   1.000  H
  C1999    1.0000 0.60147  0.87730  0.68795  Biso   1.000  C
  H1771    1.0000 0.88321  0.95962  0.05351  Biso   1.000  H
  H1772    1.0000 0.85659  0.97400  0.06530  Biso   1.000  H
  H1773    1.0000 0.89489  0.99882  0.01901  Biso   1.000  H
  H1774    1.0000 0.44973  0.81058  0.37711  Biso   1.000  H
  H1775    1.0000 0.46802  0.80348  0.47585  Biso   1.000  H
  C2000    1.0000 0.42228  0.75851  0.42780  Biso   1.000  C
  H1776    1.0000 0.56774  0.89809  0.33940  Biso   1.000  H
  C2001    1.0000 0.62596  0.88815  0.10204  Biso   1.000  C
  H1777    1.0000 0.61912  0.84949  0.99414  Biso   1.000  H
  C2002    1.0000 0.58327  0.85908  0.60075  Biso   1.000  C
  C2003    1.0000 0.57901  0.87722  0.67359  Biso   1.000  C
  C2004    1.0000 0.40313  0.73307  0.33980  Biso   1.000  C
  C2005    1.0000 0.40174  0.75199  0.31213  Biso   1.000  C
  O262     1.0000 0.65929  0.91431  0.07180  Biso   1.000  O
  C2006    1.0000 0.54081  0.86052  0.64279  Biso   1.000  C
  C2007    1.0000 0.36904  0.71218  0.32825  Biso   1.000  C
  C2008    1.0000 0.39142  0.74718  0.25574  Biso   1.000  C
  C2009    1.0000 0.67545  0.90966  0.97818  Biso   1.000  C
  H1778    1.0000 0.65812  0.89948  0.92058  Biso   1.000  H
  H1779    1.0000 0.68473  0.89379  0.99310  Biso   1.000  H
  C2010    1.0000 0.70527  0.94608  0.94730  Biso   1.000  C
  H1780    1.0000 0.72202  0.95578  0.00658  Biso   1.000  H
  H1781    1.0000 0.71792  0.94356  0.88665  Biso   1.000  H
  C2011    1.0000 0.69358  0.97248  0.91810  Biso   1.000  C
  H1782    1.0000 0.68343  0.97699  0.98155  Biso   1.000  H
  H1783    1.0000 0.71463  0.99479  0.89868  Biso   1.000  H
  C2012    1.0000 0.66686  0.96213  0.82833  Biso   1.000  C
  H1784    1.0000 0.66124  0.98078  0.81766  Biso   1.000  H
  H1785    1.0000 0.64552  0.94028  0.84654  Biso   1.000  H
  H1786    1.0000 0.67682  0.95877  0.76360  Biso   1.000  H
  C2013    1.0000 0.27719  0.32619  0.39379  Biso   1.000  C
  C2014    1.0000 0.24304  0.30089  0.45034  Biso   1.000  C
  O263     1.0000 0.26848  0.34417  0.31381  Biso   1.000  O
  H1787    1.0000 0.29433  0.34326  0.44417  Biso   1.000  H
  H1788    1.0000 0.28764  0.31318  0.36090  Biso   1.000  H
  C2015    1.0000 0.22099  0.26503  0.41449  Biso   1.000  C
  C2016    1.0000 0.23160  0.31331  0.53425  Biso   1.000  C
  C2017    1.0000 0.29800  0.36758  0.24627  Biso   1.000  C
  C2018    1.0000 0.23055  0.25012  0.32769  Biso   1.000  C
  C2019    1.0000 0.18739  0.24229  0.46551  Biso   1.000  C
  O264     1.0000 0.25387  0.34786  0.56610  Biso   1.000  O
  C2020    1.0000 0.19867  0.29119  0.58559  Biso   1.000  C
  C2021    1.0000 0.28568  0.38978  0.18667  Biso   1.000  C
  H1789    1.0000 0.30373  0.35387  0.19653  Biso   1.000  H
  H1790    1.0000 0.31904  0.38267  0.28895  Biso   1.000  H
  H1791    1.0000 0.25190  0.26431  0.29159  Biso   1.000  H
  C2022    1.0000 0.20926  0.21573  0.29601  Biso   1.000  C
  C2023    1.0000 0.16541  0.20670  0.43109  Biso   1.000  C
  C2024    1.0000 0.17741  0.25704  0.55198  Biso   1.000  C
  C2025    1.0000 0.24122  0.36282  0.64511  Biso   1.000  C
  H1792    1.0000 0.19149  0.30000  0.64263  Biso   1.000  H
  C2026    1.0000 0.26217  0.37404  0.10204  Biso   1.000  C
  C2027    1.0000 0.29419  0.42433  0.22220  Biso   1.000  C
  H1793    1.0000 0.21659  0.20670  0.23993  Biso   1.000  H
  C2028    1.0000 0.17623  0.19355  0.34694  Biso   1.000  C
  C2029    1.0000 0.12985  0.18335  0.48452  Biso   1.000  C
  H1794    1.0000 0.15570  0.24291  0.58656  Biso   1.000  H
  C2030    1.0000 0.27580  0.39852  0.68795  Biso   1.000  C
  O265     1.0000 0.25499  0.34070  0.07180  Biso   1.000  O
  C2031    1.0000 0.24585  0.39157  0.05158  Biso   1.000  C
  C2032    1.0000 0.31847  0.44282  0.30708  Biso   1.000  C
  C2033    1.0000 0.27711  0.44183  0.17295  Biso   1.000  C
  O266     1.0000 0.15353  0.15911  0.31702  Biso   1.000  O
  O267     1.0000 0.10589  0.19489  0.44786  Biso   1.000  O
  H1795    1.0000 0.13239  0.18570  0.56193  Biso   1.000  H
  H1796    1.0000 0.12081  0.15850  0.46559  Biso   1.000  H
  C2034    1.0000 0.27579  0.41674  0.60075  Biso   1.000  C
  C2035    1.0000 0.29820  0.42102  0.67359  Biso   1.000  C
  C2036    1.0000 0.23418  0.32453  0.97818  Biso   1.000  C
  C2037    1.0000 0.25298  0.42420  0.08744  Biso   1.000  C
  H1797    1.0000 0.23033  0.38088  0.99414  Biso   1.000  H
  C2038    1.0000 0.32512  0.47518  0.34285  Biso   1.000  C
  H1798    1.0000 0.33032  0.43226  0.33940  Biso   1.000  H
  C2039    1.0000 0.28334  0.47528  0.21290  Biso   1.000  C
  C2040    1.0000 0.16282  0.14460  0.22702  Biso   1.000  C
  C2041    1.0000 0.07137  0.17523  0.49583  Biso   1.000  C
  C2042    1.0000 0.31970  0.45920  0.64279  Biso   1.000  C
  H1799    1.0000 0.24132  0.34187  0.92058  Biso   1.000  H
  H1800    1.0000 0.20902  0.31526  0.99310  Biso   1.000  H
  C2043    1.0000 0.24079  0.29471  0.94730  Biso   1.000  C
  H1801    1.0000 0.24175  0.43528  0.05487  Biso   1.000  H
  C2044    1.0000 0.30670  0.49137  0.29745  Biso   1.000  C
  H1802    1.0000 0.34184  0.48677  0.39708  Biso   1.000  H
  C2045    1.0000 0.26196  0.49145  0.17086  Biso   1.000  C
  H1803    1.0000 0.16691  0.15930  0.16389  Biso   1.000  H
  H1804    1.0000 0.18450  0.14391  0.24218  Biso   1.000  H
  C2046    1.0000 0.13235  0.10781  0.20841  Biso   1.000  C
  H1805    1.0000 0.06010  0.15011  0.47634  Biso   1.000  H
  H1806    1.0000 0.07320  0.17710  0.57340  Biso   1.000  H
  C2047    1.0000 0.04999  0.19139  0.45379  Biso   1.000  C
  H1807    1.0000 0.23373  0.27796  0.00658  Biso   1.000  H
  H1808    1.0000 0.22563  0.28208  0.88665  Biso   1.000  H
  C2048    1.0000 0.27887  0.30642  0.91810  Biso   1.000  C
  O268     1.0000 0.30955  0.52220  0.33732  Biso   1.000  O
  O269     1.0000 0.22744  0.47178  0.21884  Biso   1.000  O
  H1809    1.0000 0.27322  0.51656  0.19036  Biso   1.000  H
  H1810    1.0000 0.26012  0.48958  0.09329  Biso   1.000  H
  H1811    1.0000 0.12820  0.09411  0.27378  Biso   1.000  H
  H1812    1.0000 0.13918  0.09659  0.15322  Biso   1.000  H
  C2049    1.0000 0.09823  0.10575  0.17584  Biso   1.000  C
  C2050    1.0000 0.02663  0.17531  0.36924  Biso   1.000  C
  C2051    1.0000 0.05621  0.22484  0.49374  Biso   1.000  C
  H1813    1.0000 0.29353  0.31657  0.98155  Biso   1.000  H
  H1814    1.0000 0.28012  0.28536  0.89868  Biso   1.000  H
  C2052    1.0000 0.29526  0.33314  0.82833  Biso   1.000  C
  C2053    1.0000 0.33802  0.54435  0.40871  Biso   1.000  C
  C2054    1.0000 0.20348  0.48333  0.18218  Biso   1.000  C
  H1815    1.0000 0.09279  0.11949  0.22622  Biso   1.000  H
  H1816    1.0000 0.07919  0.08109  0.18001  Biso   1.000  H
  C2055    1.0000 0.09911  0.11890  0.06963  Biso   1.000  C
  O270     1.0000 0.02378  0.14447  0.32938  Biso   1.000  O
  C2056    1.0000 0.00821  0.19150  0.32384  Biso   1.000  C
  C2057    1.0000 0.08035  0.24248  0.57926  Biso   1.000  C
  C2058    1.0000 0.03914  0.24234  0.44449  Biso   1.000  C
  H1817    1.0000 0.31953  0.33877  0.81766  Biso   1.000  H
  H1818    1.0000 0.29472  0.35446  0.84654  Biso   1.000  H
  H1819    1.0000 0.28193  0.32317  0.76360  Biso   1.000  H
  H1820    1.0000 0.36084  0.55028  0.37711  Biso   1.000  H
  H1821    1.0000 0.33542  0.53198  0.47585  Biso   1.000  H
  C2059    1.0000 0.33620  0.57772  0.42780  Biso   1.000  C
  C2060    1.0000 0.16792  0.45997  0.23560  Biso   1.000  C
  H1822    1.0000 0.20094  0.48097  0.10476  Biso   1.000  H
  H1823    1.0000 0.21252  0.50817  0.20111  Biso   1.000  H
  H1824    1.0000 0.07640  0.11679  0.05351  Biso   1.000  H
  H1825    1.0000 0.11740  0.14340  0.06530  Biso   1.000  H
  H1826    1.0000 0.10390  0.10511  0.01901  Biso   1.000  H
  C2061    1.0000 0.99528  0.12232  0.25798  Biso   1.000  C
  C2062    1.0000 0.01486  0.22385  0.35962  Biso   1.000  C
  H1827    1.0000 0.99149  0.17990  0.26961  Biso   1.000  H
  C2063    1.0000 0.08747  0.27510  0.61511  Biso   1.000  C
  H1828    1.0000 0.09159  0.23142  0.61182  Biso   1.000  H
  C2064    1.0000 0.04765  0.27689  0.48003  Biso   1.000  C
  C2065    1.0000 0.32993  0.59688  0.33980  Biso   1.000  C
  C2066    1.0000 0.35022  0.59827  0.31213  Biso   1.000  C
  C2067    1.0000 0.15709  0.47312  0.31975  Biso   1.000  C
  C2068    1.0000 0.14594  0.42438  0.20119  Biso   1.000  C
  H1829    1.0000 0.97246  0.11639  0.28959  Biso   1.000  H
  H1830    1.0000 0.99788  0.13469  0.19084  Biso   1.000  H
  C2069    1.0000 0.99711  0.08895  0.23889  Biso   1.000  C
  H1831    1.0000 0.00301  0.23441  0.32729  Biso   1.000  H
  C2070    1.0000 0.07116  0.29263  0.56466  Biso   1.000  C
  H1832    1.0000 0.10301  0.28582  0.67255  Biso   1.000  H
  C2071    1.0000 0.03533  0.29910  0.42042  Biso   1.000  C
  C2072    1.0000 0.34313  0.63098  0.32825  Biso   1.000  C
  C2073    1.0000 0.35572  0.60859  0.25574  Biso   1.000  C
  O271     1.0000 0.17980  0.50756  0.34967  Biso   1.000  O
  C2074    1.0000 0.12407  0.45094  0.37069  Biso   1.000  C
  C2075    1.0000 0.11233  0.40164  0.25221  Biso   1.000  C
  C2076    1.0000 0.15592  0.40963  0.11463  Biso   1.000  C
  C2077    1.0000 0.00340  0.06979  0.32689  Biso   1.000  C
  C2078    1.0000 0.98311  0.06840  0.35464  Biso   1.000  C
  O272     1.0000 0.07834  0.32598  0.59490  Biso   1.000  O
  O273     1.0000 0.06485  0.32250  0.35288  Biso   1.000  O
  H1833    1.0000 0.02960  0.31280  0.47008  Biso   1.000  H
  H1834    1.0000 0.01429  0.28400  0.37775  Biso   1.000  H
  C2079    1.0000 0.17051  0.52207  0.43968  Biso   1.000  C
  C2080    1.0000 0.10278  0.41655  0.33900  Biso   1.000  C
  H1835    1.0000 0.11674  0.45997  0.42676  Biso   1.000  H
  C2081    1.0000 0.09029  0.36579  0.21635  Biso   1.000  C
  C2082    1.0000 0.13466  0.37549  0.08110  Biso   1.000  C
  H1836    1.0000 0.17763  0.42377  0.08014  Biso   1.000  H
  C2083    1.0000 0.99020  0.03570  0.33844  Biso   1.000  C
  C2084    1.0000 0.97761  0.05809  0.41104  Biso   1.000  C
  C2085    1.0000 0.09915  0.34214  0.68851  Biso   1.000  C
  C2086    1.0000 0.05614  0.34048  0.27290  Biso   1.000  C
  H1837    1.0000 0.16642  0.50737  0.50281  Biso   1.000  H
  H1838    1.0000 0.14883  0.52276  0.42451  Biso   1.000  H
  C2087    1.0000 0.20098  0.55886  0.45829  Biso   1.000  C
  H1839    1.0000 0.08143  0.40237  0.37510  Biso   1.000  H
  C2088    1.0000 0.10173  0.35336  0.13244  Biso   1.000  C
  H1840    1.0000 0.14184  0.36667  0.02407  Biso   1.000  H
  H1841    1.0000 0.09201  0.32480  0.74611  Biso   1.000  H
  H1842    1.0000 0.12431  0.35141  0.67359  Biso   1.000  H
  C2089    1.0000 0.09254  0.37196  0.71940  Biso   1.000  C
  H1843    1.0000 0.03900  0.32341  0.22253  Biso   1.000  H
  H1844    1.0000 0.04568  0.35350  0.30579  Biso   1.000  H
  H1845    1.0000 0.20513  0.57257  0.39291  Biso   1.000  H
  H1846    1.0000 0.19414  0.57008  0.51348  Biso   1.000  H
  C2090    1.0000 0.23510  0.56092  0.49086  Biso   1.000  C
  O274     1.0000 0.07946  0.31881  0.10059  Biso   1.000  O
  H1847    1.0000 0.10770  0.38460  0.78004  Biso   1.000  H
  H1848    1.0000 0.09960  0.38871  0.66012  Biso   1.000  H
  C2091    1.0000 0.05446  0.36026  0.74860  Biso   1.000  C
  H1849    1.0000 0.24054  0.54718  0.44048  Biso   1.000  H
  H1850    1.0000 0.25414  0.58558  0.48668  Biso   1.000  H
  C2092    1.0000 0.23422  0.54777  0.59706  Biso   1.000  C
  C2093    1.0000 0.09211  0.30385  0.02158  Biso   1.000  C
  H1851    1.0000 0.03980  0.35010  0.68514  Biso   1.000  H
  H1852    1.0000 0.05321  0.38131  0.76801  Biso   1.000  H
  C2094    1.0000 0.03807  0.33354  0.83836  Biso   1.000  C
  H1853    1.0000 0.25693  0.54988  0.61319  Biso   1.000  H
  H1854    1.0000 0.21593  0.52327  0.60140  Biso   1.000  H
  H1855    1.0000 0.22944  0.56159  0.64768  Biso   1.000  H
  C2095    1.0000 0.05753  0.26815  0.97874  Biso   1.000  C
  H1856    1.0000 0.01380  0.32790  0.84903  Biso   1.000  H
  H1857    1.0000 0.03860  0.31221  0.82015  Biso   1.000  H
  H1858    1.0000 0.05140  0.34350  0.90310  Biso   1.000  H
  C2096    1.0000 0.05754  0.24993  0.06594  Biso   1.000  C
  C2097    1.0000 0.03513  0.24566  0.99310  Biso   1.000  C
  C2098    1.0000 0.01363  0.20748  0.02391  Biso   1.000  C
  C2099    1.0000 0.28782  0.65687  0.32825  Biso   1.000  C
  C2100    1.0000 0.26693  0.67007  0.33980  Biso   1.000  C
  C2101    1.0000 0.24804  0.64979  0.31213  Biso   1.000  C
  C2102    1.0000 0.25283  0.64428  0.25574  Biso   1.000  C
  C2103    1.0000 0.24152  0.66381  0.42780  Biso   1.000  C
  C2104    1.0000 0.20632  0.66200  0.40871  Biso   1.000  C
  O275     1.0000 0.21265  0.69045  0.33732  Biso   1.000  O
  H1859    1.0000 0.18942  0.63918  0.37711  Biso   1.000  H
  H1860    1.0000 0.19652  0.66456  0.47585  Biso   1.000  H
  C2105    1.0000 0.18467  0.69331  0.29745  Biso   1.000  C
  C2106    1.0000 0.19193  0.71666  0.21290  Biso   1.000  C
  C2107    1.0000 0.15005  0.67488  0.34285  Biso   1.000  C
  C2108    1.0000 0.22948  0.73804  0.17086  Biso   1.000  C
  C2109    1.0000 0.16471  0.72289  0.17295  Biso   1.000  C
  H1861    1.0000 0.14494  0.65818  0.39708  Biso   1.000  H
  C2110    1.0000 0.12436  0.68153  0.30708  Biso   1.000  C
  O276     1.0000 0.24431  0.77256  0.21884  Biso   1.000  O
  H1862    1.0000 0.24333  0.72676  0.19036  Biso   1.000  H
  H1863    1.0000 0.22943  0.73988  0.09329  Biso   1.000  H
  C2111    1.0000 0.17122  0.74702  0.08744  Biso   1.000  C
  C2112    1.0000 0.13012  0.70582  0.22220  Biso   1.000  C
  H1864    1.0000 0.10193  0.66967  0.33940  Biso   1.000  H
  C2113    1.0000 0.27983  0.79653  0.18218  Biso   1.000  C
  C2114    1.0000 0.14572  0.75415  0.05158  Biso   1.000  C
  H1865    1.0000 0.19353  0.75827  0.05487  Biso   1.000  H
  C2115    1.0000 0.10408  0.71431  0.18667  Biso   1.000  C
  C2116    1.0000 0.29203  0.83209  0.23560  Biso   1.000  C
  H1866    1.0000 0.28003  0.79907  0.10476  Biso   1.000  H
  H1867    1.0000 0.29562  0.78747  0.20111  Biso   1.000  H
  C2117    1.0000 0.11188  0.73783  0.10204  Biso   1.000  C
  H1868    1.0000 0.15052  0.76968  0.99414  Biso   1.000  H
  C2118    1.0000 0.06959  0.70202  0.24627  Biso   1.000  C
  C2119    1.0000 0.31600  0.84291  0.31975  Biso   1.000  C
  C2120    1.0000 0.27842  0.85406  0.20119  Biso   1.000  C
  O277     1.0000 0.08569  0.74501  0.07180  Biso   1.000  O
  O278     1.0000 0.07568  0.73152  0.31381  Biso   1.000  O
  H1869    1.0000 0.05012  0.69628  0.19653  Biso   1.000  H
  H1870    1.0000 0.06364  0.68097  0.28895  Biso   1.000  H
  O279     1.0000 0.32776  0.82020  0.34967  Biso   1.000  O
  C2121    1.0000 0.32685  0.87594  0.37069  Biso   1.000  C
  C2122    1.0000 0.25370  0.84409  0.11463  Biso   1.000  C
  C2123    1.0000 0.28930  0.88767  0.25221  Biso   1.000  C
  C2124    1.0000 0.09036  0.76583  0.97818  Biso   1.000  C
  C2125    1.0000 0.04900  0.72281  0.39379  Biso   1.000  C
  C2126    1.0000 0.35155  0.82950  0.43968  Biso   1.000  C
  C2127    1.0000 0.31376  0.89721  0.33900  Biso   1.000  C
  H1871    1.0000 0.34322  0.88329  0.42676  Biso   1.000  H
  H1872    1.0000 0.24612  0.82237  0.08014  Biso   1.000  H
  C2128    1.0000 0.24082  0.86536  0.08110  Biso   1.000  C
  C2129    1.0000 0.27549  0.90971  0.21635  Biso   1.000  C
  H1873    1.0000 0.10052  0.75867  0.92058  Biso   1.000  H
  H1874    1.0000 0.10624  0.79097  0.99310  Biso   1.000  H
  C2130    1.0000 0.05392  0.75923  0.94730  Biso   1.000  C
  H1875    1.0000 0.04895  0.70568  0.44417  Biso   1.000  H
  H1876    1.0000 0.02552  0.71236  0.36090  Biso   1.000  H
  C2131    1.0000 0.05783  0.75696  0.45034  Biso   1.000  C
  H1877    1.0000 0.34093  0.83359  0.50281  Biso   1.000  H
  H1878    1.0000 0.37393  0.85117  0.42451  Biso   1.000  H
  C2132    1.0000 0.35785  0.79901  0.45829  Biso   1.000  C
  H1879    1.0000 0.32093  0.91858  0.37510  Biso   1.000  H
  H1880    1.0000 0.22483  0.85817  0.02407  Biso   1.000  H
  C2133    1.0000 0.25164  0.89828  0.13244  Biso   1.000  C
  C2134    1.0000 0.28434  0.94389  0.27290  Biso   1.000  C
  H1881    1.0000 0.04424  0.76628  0.00658  Biso   1.000  H
  H1882    1.0000 0.05643  0.77438  0.88665  Biso   1.000  H
  C2135    1.0000 0.02751  0.72113  0.91810  Biso   1.000  C
  C2136    1.0000 0.08169  0.76839  0.53425  Biso   1.000  C
  C2137    1.0000 0.04403  0.77900  0.41449  Biso   1.000  C
  H1883    1.0000 0.36744  0.79487  0.39291  Biso   1.000  H
  H1884    1.0000 0.37593  0.80588  0.51348  Biso   1.000  H
  C2138    1.0000 0.32579  0.76489  0.49086  Biso   1.000  C
  O280     1.0000 0.23936  0.92056  0.10059  Biso   1.000  O
  O281     1.0000 0.25762  0.93515  0.35288  Biso   1.000  O
  H1885    1.0000 0.28439  0.96101  0.22253  Biso   1.000  H
  H1886    1.0000 0.30779  0.95431  0.30579  Biso   1.000  H
  H1887    1.0000 0.02304  0.70648  0.98155  Biso   1.000  H
  H1888    1.0000 0.00523  0.71987  0.89868  Biso   1.000  H
  C2139    1.0000 0.03786  0.70475  0.82833  Biso   1.000  C
  O282     1.0000 0.09398  0.74614  0.56610  Biso   1.000  O
  C2140    1.0000 0.09249  0.80134  0.58559  Biso   1.000  C
  C2141    1.0000 0.01956  0.76946  0.32769  Biso   1.000  C
  C2142    1.0000 0.05491  0.81261  0.46551  Biso   1.000  C
  H1889    1.0000 0.30663  0.75947  0.44048  Biso   1.000  H
  H1890    1.0000 0.33144  0.74587  0.48668  Biso   1.000  H
  C2143    1.0000 0.31353  0.76577  0.59706  Biso   1.000  C
  C2144    1.0000 0.21175  0.90792  0.02158  Biso   1.000  C
  C2145    1.0000 0.26375  0.96467  0.42042  Biso   1.000  C
  H1891    1.0000 0.01925  0.68049  0.81766  Biso   1.000  H
  H1892    1.0000 0.05974  0.70528  0.84654  Biso   1.000  H
  H1893    1.0000 0.04124  0.71808  0.76360  Biso   1.000  H
  C2146    1.0000 0.12159  0.75877  0.64511  Biso   1.000  C
  C2147    1.0000 0.07962  0.82261  0.55198  Biso   1.000  C
  H1894    1.0000 0.10850  0.80850  0.64263  Biso   1.000  H
  H1895    1.0000 0.01241  0.74811  0.29159  Biso   1.000  H
  C2148    1.0000 0.00646  0.79073  0.29601  Biso   1.000  C
  C2149    1.0000 0.04128  0.83460  0.43109  Biso   1.000  C
  H1896    1.0000 0.29292  0.74306  0.61319  Biso   1.000  H
  H1897    1.0000 0.30734  0.78408  0.60140  Biso   1.000  H
  H1898    1.0000 0.33213  0.77058  0.64768  Biso   1.000  H
  C2150    1.0000 0.21061  0.94247  0.97874  Biso   1.000  C
  C2151    1.0000 0.22926  0.95238  0.48003  Biso   1.000  C
  H1899    1.0000 0.28319  0.97042  0.47008  Biso   1.000  H
  H1900    1.0000 0.26969  0.98570  0.37775  Biso   1.000  H
  C2152    1.0000 0.12272  0.72420  0.68795  Biso   1.000  C
  H1901    1.0000 0.08720  0.84430  0.58656  Biso   1.000  H
  C2153    1.0000 0.01731  0.82378  0.34694  Biso   1.000  C
  H1902    1.0000 0.99009  0.78341  0.23993  Biso   1.000  H
  C2154    1.0000 0.05347  0.87014  0.48452  Biso   1.000  C
  C2155    1.0000 0.19240  0.94247  0.06594  Biso   1.000  C
  C2156    1.0000 0.21053  0.96489  0.99310  Biso   1.000  C
  C2157    1.0000 0.22145  0.92884  0.56466  Biso   1.000  C
  C2158    1.0000 0.20322  0.96088  0.44449  Biso   1.000  C
  C2159    1.0000 0.14093  0.72420  0.60075  Biso   1.000  C
  C2160    1.0000 0.12279  0.70181  0.67359  Biso   1.000  C
  O283     1.0000 0.00556  0.84647  0.31702  Biso   1.000  O
  O284     1.0000 0.08901  0.89411  0.44786  Biso   1.000  O
  H1903    1.0000 0.05329  0.86760  0.56193  Biso   1.000  H
  H1904    1.0000 0.03769  0.87920  0.46559  Biso   1.000  H
  C2161    1.0000 0.19382  0.98637  0.02391  Biso   1.000  C
  O285     1.0000 0.24763  0.92168  0.59490  Biso   1.000  O
  C2162    1.0000 0.18762  0.91254  0.61511  Biso   1.000  C
  C2163    1.0000 0.20897  0.98514  0.35962  Biso   1.000  C
  C2164    1.0000 0.16863  0.94381  0.49374  Biso   1.000  C
  C2165    1.0000 0.13950  0.68030  0.64279  Biso   1.000  C
  C2166    1.0000 0.98176  0.83717  0.22702  Biso   1.000  C
  C2167    1.0000 0.10384  0.92863  0.49583  Biso   1.000  C
  C2168    1.0000 0.24298  0.90087  0.68851  Biso   1.000  C
  H1905    1.0000 0.18279  0.89702  0.67255  Biso   1.000  H
  C2169    1.0000 0.16211  0.91965  0.57926  Biso   1.000  C
  C2170    1.0000 0.18329  0.99182  0.32384  Biso   1.000  C
  H1906    1.0000 0.23140  0.99700  0.32729  Biso   1.000  H
  C2171    1.0000 0.14141  0.95003  0.45379  Biso   1.000  C
  H1907    1.0000 0.99241  0.83311  0.16389  Biso   1.000  H
  H1908    1.0000 0.95940  0.81550  0.24218  Biso   1.000  H
  C2172    1.0000 0.97547  0.86768  0.20841  Biso   1.000  C
  H1909    1.0000 0.09000  0.93990  0.47634  Biso   1.000  H
  H1910    1.0000 0.10391  0.92681  0.57340  Biso   1.000  H
  H1911    1.0000 0.23280  0.90800  0.74611  Biso   1.000  H
  H1912    1.0000 0.22709  0.87570  0.67359  Biso   1.000  H
  C2173    1.0000 0.27942  0.90747  0.71940  Biso   1.000  C
  H1913    1.0000 0.13980  0.90840  0.61182  Biso   1.000  H
  C2174    1.0000 0.14867  0.97338  0.36924  Biso   1.000  C
  H1914    1.0000 0.18839  0.00849  0.26961  Biso   1.000  H
  C2175    1.0000 0.00751  0.90178  0.17584  Biso   1.000  C
  H1915    1.0000 0.96589  0.87180  0.27378  Biso   1.000  H
  H1916    1.0000 0.95741  0.86082  0.15322  Biso   1.000  H
  H1917    1.0000 0.27691  0.89232  0.78004  Biso   1.000  H
  H1918    1.0000 0.28910  0.90041  0.66012  Biso   1.000  H
  C2176    1.0000 0.30580  0.94557  0.74860  Biso   1.000  C
  O286     1.0000 0.12069  0.97624  0.32938  Biso   1.000  O
  H1919    1.0000 0.02670  0.90720  0.22622  Biso   1.000  H
  H1920    1.0000 0.00189  0.92080  0.18001  Biso   1.000  H
  C2177    1.0000 0.01981  0.90092  0.06963  Biso   1.000  C
  H1921    1.0000 0.31030  0.96021  0.68514  Biso   1.000  H
  H1922    1.0000 0.32810  0.94680  0.76801  Biso   1.000  H
  C2178    1.0000 0.29544  0.96192  0.83836  Biso   1.000  C
  C2179    1.0000 0.12701  0.00467  0.25798  Biso   1.000  C
  H1923    1.0000 0.04041  0.92361  0.05351  Biso   1.000  H
  H1924    1.0000 0.02600  0.88262  0.06530  Biso   1.000  H
  H1925    1.0000 0.00121  0.89611  0.01901  Biso   1.000  H
  H1926    1.0000 0.31409  0.98621  0.84903  Biso   1.000  H
  H1927    1.0000 0.27360  0.96141  0.82015  Biso   1.000  H
  H1928    1.0000 0.29210  0.94861  0.90310  Biso   1.000  H
  H1929    1.0000 0.14388  0.02749  0.28959  Biso   1.000  H
  H1930    1.0000 0.13677  0.00208  0.19084  Biso   1.000  H
  C2180    1.0000 0.09181  0.00285  0.23889  Biso   1.000  C
  C2181    1.0000 0.06640  0.99660  0.32689  Biso   1.000  C
  C2182    1.0000 0.08529  0.01688  0.35464  Biso   1.000  C
  C2183    1.0000 0.04547  0.00978  0.33844  Biso   1.000  C
  C2184    1.0000 0.08049  0.02239  0.41104  Biso   1.000  C
