data_image0
_cell_length_a       21.822
_cell_length_b       12.314
_cell_length_c       39.621
_cell_angle_alpha    90
_cell_angle_beta     97.36
_cell_angle_gamma    90

_symmetry_space_group_name_H-M    "P 1"
_symmetry_int_tables_number       1

loop_
  _symmetry_equiv_pos_as_xyz
  'x, y, z'

loop_
  _atom_site_label
  _atom_site_occupancy
  _atom_site_fract_x
  _atom_site_fract_y
  _atom_site_fract_z
  _atom_site_thermal_displace_type
  _atom_site_B_iso_or_equiv
  _atom_site_type_symbol
  O1       1.0000 0.60280  0.61718  0.51842  Biso   1.000  O
  C1       1.0000 0.61150  0.58982  0.55270  Biso   1.000  C
  C2       1.0000 0.62856  0.71886  0.50999  Biso   1.000  C
  C3       1.0000 0.64865  0.50341  0.56326  Biso   1.000  C
  C4       1.0000 0.57967  0.64382  0.57639  Biso   1.000  C
  C5       1.0000 0.69819  0.71601  0.51381  Biso   1.000  C
  H1       1.0000 0.61288  0.73745  0.48671  Biso   1.000  H
  H2       1.0000 0.61540  0.77489  0.52470  Biso   1.000  H
  C6       1.0000 0.65615  0.46589  0.59688  Biso   1.000  C
  H3       1.0000 0.66966  0.46833  0.54740  Biso   1.000  H
  C7       1.0000 0.58630  0.60752  0.60965  Biso   1.000  C
  O2       1.0000 0.54333  0.72933  0.56400  Biso   1.000  O
  H4       1.0000 0.71246  0.65478  0.50149  Biso   1.000  H
  H5       1.0000 0.71509  0.70984  0.53761  Biso   1.000  H
  O3       1.0000 0.71712  0.81809  0.49966  Biso   1.000  O
  C8       1.0000 0.69919  0.36990  0.60558  Biso   1.000  C
  C9       1.0000 0.62405  0.51884  0.62062  Biso   1.000  C
  H6       1.0000 0.56506  0.64301  0.62530  Biso   1.000  H
  C10      1.0000 0.51530  0.79276  0.58789  Biso   1.000  C
  C11      1.0000 0.76089  0.87559  0.52076  Biso   1.000  C
  C12      1.0000 0.76568  0.40547  0.61563  Biso   1.000  C
  H7       1.0000 0.69720  0.32191  0.58601  Biso   1.000  H
  H8       1.0000 0.68528  0.32938  0.62421  Biso   1.000  H
  C13      1.0000 0.62601  0.48351  0.65760  Biso   1.000  C
  H9       1.0000 0.54680  0.82215  0.60451  Biso   1.000  H
  H10      1.0000 0.49228  0.85090  0.57619  Biso   1.000  H
  H11      1.0000 0.48810  0.74785  0.59899  Biso   1.000  H
  C14      1.0000 0.82327  0.84684  0.52318  Biso   1.000  C
  C15      1.0000 0.74354  0.96443  0.53817  Biso   1.000  C
  C16      1.0000 0.79138  0.42301  0.64910  Biso   1.000  C
  C17      1.0000 0.80168  0.42764  0.58934  Biso   1.000  C
  H12      1.0000 0.58529  0.49440  0.66439  Biso   1.000  H
  H13      1.0000 0.63456  0.40620  0.65890  Biso   1.000  H
  C18      1.0000 0.67308  0.54134  0.68325  Biso   1.000  C
  C19      1.0000 0.86582  0.90604  0.54473  Biso   1.000  C
  O4       1.0000 0.83656  0.75816  0.50424  Biso   1.000  O
  H14      1.0000 0.70209  0.98433  0.53549  Biso   1.000  H
  C20      1.0000 0.78591  0.02599  0.55975  Biso   1.000  C
  C21      1.0000 0.75771  0.39833  0.67966  Biso   1.000  C
  C22      1.0000 0.85149  0.46719  0.65574  Biso   1.000  C
  C23      1.0000 0.86052  0.46987  0.59604  Biso   1.000  C
  H15      1.0000 0.78537  0.41335  0.56690  Biso   1.000  H
  C24      1.0000 0.65519  0.63773  0.69778  Biso   1.000  C
  C25      1.0000 0.73207  0.50008  0.69414  Biso   1.000  C
  C26      1.0000 0.84799  0.99423  0.56367  Biso   1.000  C
  H16      1.0000 0.90729  0.88680  0.54669  Biso   1.000  H
  C27      1.0000 0.90013  0.73965  0.49959  Biso   1.000  C
  C28      1.0000 0.76300  0.12766  0.57611  Biso   1.000  C
  H17      1.0000 0.78607  0.36333  0.69720  Biso   1.000  H
  H18      1.0000 0.72408  0.34822  0.67279  Biso   1.000  H
  H19      1.0000 0.86859  0.47929  0.67821  Biso   1.000  H
  C29      1.0000 0.88500  0.49269  0.62996  Biso   1.000  C
  O5       1.0000 0.89812  0.49570  0.57191  Biso   1.000  O
  H20      1.0000 0.61585  0.66510  0.69099  Biso   1.000  H
  C30      1.0000 0.69452  0.69368  0.72206  Biso   1.000  C
  C31      1.0000 0.77046  0.55530  0.71934  Biso   1.000  C
  C32      1.0000 0.89692  0.05092  0.58802  Biso   1.000  C
  H21      1.0000 0.92528  0.73851  0.52160  Biso   1.000  H
  H22      1.0000 0.90376  0.66924  0.48900  Biso   1.000  H
  C33      1.0000 0.92385  0.82565  0.47783  Biso   1.000  C
  H23      1.0000 0.79729  0.17777  0.58089  Biso   1.000  H
  H24      1.0000 0.73210  0.16242  0.55990  Biso   1.000  H
  C34      1.0000 0.73517  0.10703  0.60896  Biso   1.000  C
  O6       1.0000 0.94232  0.54166  0.63347  Biso   1.000  O
  C35      1.0000 0.87564  0.47158  0.53771  Biso   1.000  C
  C36      1.0000 0.75265  0.65129  0.73336  Biso   1.000  C
  O7       1.0000 0.67877  0.79081  0.73631  Biso   1.000  O
  H25      1.0000 0.80918  0.52664  0.72700  Biso   1.000  H
  C37      1.0000 0.90308  0.00382  0.62398  Biso   1.000  C
  H26      1.0000 0.93638  0.04515  0.57939  Biso   1.000  H
  H27      1.0000 0.88669  0.12742  0.58899  Biso   1.000  H
  H28      1.0000 0.89750  0.85131  0.45930  Biso   1.000  H
  C38      1.0000 0.97810  0.86568  0.48332  Biso   1.000  C
  C39      1.0000 0.67334  0.07544  0.60617  Biso   1.000  C
  C40      1.0000 0.76820  0.11946  0.64144  Biso   1.000  C
  C41      1.0000 0.97150  0.56700  0.66694  Biso   1.000  C
  H29      1.0000 0.83930  0.51381  0.53081  Biso   1.000  H
  H30      1.0000 0.90680  0.48887  0.52351  Biso   1.000  H
  H31      1.0000 0.86580  0.39573  0.53560  Biso   1.000  H
  O8       1.0000 0.78902  0.71049  0.75756  Biso   1.000  O
  C42      1.0000 0.64599  0.86755  0.71280  Biso   1.000  C
  C43      1.0000 0.93548  0.90702  0.62968  Biso   1.000  C
  C44      1.0000 0.87824  0.05335  0.65113  Biso   1.000  C
  H32      1.0000 0.99028  0.91895  0.46889  Biso   1.000  H
  H33      1.0000 0.00547  0.84164  0.50170  Biso   1.000  H
  H34      1.0000 0.65119  0.06805  0.58461  Biso   1.000  H
  C45      1.0000 0.64390  0.05465  0.63446  Biso   1.000  C
  C46      1.0000 0.83628  0.15162  0.64767  Biso   1.000  C
  C47      1.0000 0.73780  0.09916  0.66994  Biso   1.000  C
  C48      1.0000 0.94995  0.67224  0.68068  Biso   1.000  C
  H35      1.0000 0.96360  0.50861  0.68221  Biso   1.000  H
  H36      1.0000 0.01578  0.57081  0.66661  Biso   1.000  H
  C49      1.0000 0.85084  0.67314  0.76644  Biso   1.000  C
  C50      1.0000 0.67332  0.97686  0.71995  Biso   1.000  C
  H37      1.0000 0.64967  0.84652  0.68959  Biso   1.000  H
  H38      1.0000 0.60249  0.86844  0.71570  Biso   1.000  H
  C51      1.0000 0.94509  0.85756  0.66116  Biso   1.000  C
  H39      1.0000 0.95137  0.87421  0.61151  Biso   1.000  H
  C52      1.0000 0.89075  0.00512  0.68328  Biso   1.000  C
  C53      1.0000 0.67682  0.06586  0.66663  Biso   1.000  C
  O9       1.0000 0.58396  0.01738  0.63108  Biso   1.000  O
  H40      1.0000 0.84360  0.19474  0.66829  Biso   1.000  H
  H41      1.0000 0.84616  0.19612  0.62889  Biso   1.000  H
  H42      1.0000 0.75920  0.10825  0.69160  Biso   1.000  H
  H43      1.0000 0.96210  0.67573  0.70511  Biso   1.000  H
  H44      1.0000 0.90526  0.67703  0.67630  Biso   1.000  H
  O10      1.0000 0.97764  0.76092  0.66419  Biso   1.000  O
  H45      1.0000 0.87226  0.67549  0.74680  Biso   1.000  H
  H46      1.0000 0.87168  0.71894  0.78390  Biso   1.000  H
  H47      1.0000 0.85029  0.59981  0.77469  Biso   1.000  H
  H48      1.0000 0.71759  0.97434  0.71939  Biso   1.000  H
  H49      1.0000 0.66578  0.00130  0.74229  Biso   1.000  H
  O11      1.0000 0.64522  0.04905  0.69450  Biso   1.000  O
  C54      1.0000 0.92384  0.91075  0.68880  Biso   1.000  C
  H50      1.0000 0.87598  0.03849  0.70170  Biso   1.000  H
  C55      1.0000 0.53849  0.08649  0.61370  Biso   1.000  C
  O12      1.0000 0.93384  0.86625  0.72117  Biso   1.000  O
  H51      1.0000 0.55499  0.12344  0.59520  Biso   1.000  H
  H52      1.0000 0.50287  0.04442  0.60421  Biso   1.000  H
  C56      1.0000 0.52019  0.16713  0.63849  Biso   1.000  C
  C57      1.0000 0.99430  0.88883  0.73855  Biso   1.000  C
  H53      1.0000 0.49968  0.13862  0.65569  Biso   1.000  H
  C58      1.0000 0.52838  0.26709  0.63958  Biso   1.000  C
  H54      1.0000 0.99927  0.96646  0.74219  Biso   1.000  H
  H55      1.0000 0.02549  0.86438  0.72491  Biso   1.000  H
  C59      1.0000 0.00162  0.83166  0.77143  Biso   1.000  C
  H56      1.0000 0.54867  0.30112  0.62319  Biso   1.000  H
  H57      1.0000 0.51428  0.30794  0.65681  Biso   1.000  H
  H58      1.0000 0.97206  0.84302  0.78599  Biso   1.000  H
  C60      1.0000 0.04769  0.76539  0.78133  Biso   1.000  C
  H59      1.0000 0.07786  0.75264  0.76721  Biso   1.000  H
  H60      1.0000 0.05007  0.73144  0.80240  Biso   1.000  H
  O13      1.0000 0.39718  0.38290  0.48157  Biso   1.000  O
  C61      1.0000 0.38847  0.41018  0.44729  Biso   1.000  C
  C62      1.0000 0.37142  0.28122  0.49002  Biso   1.000  C
  C63      1.0000 0.35133  0.49659  0.43673  Biso   1.000  C
  C64      1.0000 0.42032  0.35618  0.42362  Biso   1.000  C
  C65      1.0000 0.30179  0.28399  0.48620  Biso   1.000  C
  H61      1.0000 0.38710  0.26263  0.51330  Biso   1.000  H
  H62      1.0000 0.38459  0.22511  0.47531  Biso   1.000  H
  C66      1.0000 0.34383  0.53411  0.40313  Biso   1.000  C
  H63      1.0000 0.33027  0.53175  0.45261  Biso   1.000  H
  C67      1.0000 0.41367  0.39248  0.39033  Biso   1.000  C
  O14      1.0000 0.45665  0.27067  0.43601  Biso   1.000  O
  H64      1.0000 0.28747  0.34522  0.49849  Biso   1.000  H
  H65      1.0000 0.28489  0.29024  0.46241  Biso   1.000  H
  O15      1.0000 0.28281  0.18191  0.50032  Biso   1.000  O
  C68      1.0000 0.37593  0.48124  0.37939  Biso   1.000  C
  C69      1.0000 0.30080  0.63010  0.39443  Biso   1.000  C
  H66      1.0000 0.43488  0.35699  0.37471  Biso   1.000  H
  C70      1.0000 0.48464  0.20732  0.41212  Biso   1.000  C
  C71      1.0000 0.23909  0.12441  0.47923  Biso   1.000  C
  C72      1.0000 0.37393  0.51649  0.34239  Biso   1.000  C
  C73      1.0000 0.23430  0.59453  0.38435  Biso   1.000  C
  H67      1.0000 0.30278  0.67809  0.41400  Biso   1.000  H
  H68      1.0000 0.31470  0.67062  0.37580  Biso   1.000  H
  H69      1.0000 0.45318  0.17793  0.39550  Biso   1.000  H
  H70      1.0000 0.50770  0.14910  0.42380  Biso   1.000  H
  H71      1.0000 0.51188  0.25223  0.40100  Biso   1.000  H
  C74      1.0000 0.25644  0.03557  0.46182  Biso   1.000  C
  C75      1.0000 0.17666  0.15324  0.47681  Biso   1.000  C
  C76      1.0000 0.32691  0.45875  0.31676  Biso   1.000  C
  H72      1.0000 0.41469  0.50560  0.33559  Biso   1.000  H
  H73      1.0000 0.36538  0.59380  0.34109  Biso   1.000  H
  C77      1.0000 0.20860  0.57699  0.35091  Biso   1.000  C
  C78      1.0000 0.19830  0.57244  0.41064  Biso   1.000  C
  C79      1.0000 0.21408  0.97401  0.44026  Biso   1.000  C
  H74      1.0000 0.29789  0.01567  0.46449  Biso   1.000  H
  C80      1.0000 0.13417  0.09404  0.45528  Biso   1.000  C
  O16      1.0000 0.16342  0.24184  0.49574  Biso   1.000  O
  C81      1.0000 0.34478  0.36227  0.30220  Biso   1.000  C
  C82      1.0000 0.26787  0.49992  0.30587  Biso   1.000  C
  C83      1.0000 0.24223  0.60175  0.32035  Biso   1.000  C
  C84      1.0000 0.14849  0.53281  0.34427  Biso   1.000  C
  C85      1.0000 0.13946  0.53013  0.40395  Biso   1.000  C
  H75      1.0000 0.21456  0.58673  0.43309  Biso   1.000  H
  C86      1.0000 0.23694  0.87242  0.42388  Biso   1.000  C
  C87      1.0000 0.15199  0.00577  0.43635  Biso   1.000  C
  H76      1.0000 0.09269  0.11320  0.45329  Biso   1.000  H
  C88      1.0000 0.09980  0.26044  0.50040  Biso   1.000  C
  C89      1.0000 0.30545  0.30632  0.27793  Biso   1.000  C
  H77      1.0000 0.38408  0.33490  0.30900  Biso   1.000  H
  C90      1.0000 0.22951  0.44470  0.28065  Biso   1.000  C
  H78      1.0000 0.21390  0.63675  0.30279  Biso   1.000  H
  H79      1.0000 0.27590  0.65178  0.32720  Biso   1.000  H
  H80      1.0000 0.13140  0.52071  0.32180  Biso   1.000  H
  C91      1.0000 0.11493  0.50731  0.37003  Biso   1.000  C
  O17      1.0000 0.10186  0.50439  0.42807  Biso   1.000  O
  C92      1.0000 0.26477  0.89297  0.39105  Biso   1.000  C
  H81      1.0000 0.20269  0.82232  0.41909  Biso   1.000  H
  H82      1.0000 0.26788  0.83758  0.44009  Biso   1.000  H
  C93      1.0000 0.10307  0.94908  0.41199  Biso   1.000  C
  H83      1.0000 0.07470  0.26149  0.47839  Biso   1.000  H
  H84      1.0000 0.09617  0.33084  0.51099  Biso   1.000  H
  C94      1.0000 0.07608  0.17444  0.52216  Biso   1.000  C
  C95      1.0000 0.24734  0.34871  0.26665  Biso   1.000  C
  O18      1.0000 0.32121  0.20919  0.26370  Biso   1.000  O
  H85      1.0000 0.19080  0.47344  0.27299  Biso   1.000  H
  O19      1.0000 0.05766  0.45834  0.36651  Biso   1.000  O
  C96      1.0000 0.12429  0.52842  0.46228  Biso   1.000  C
  C97      1.0000 0.32664  0.92464  0.39382  Biso   1.000  C
  C98      1.0000 0.23178  0.88062  0.35855  Biso   1.000  C
  C99      1.0000 0.09690  0.99618  0.37603  Biso   1.000  C
  H86      1.0000 0.06359  0.95493  0.42059  Biso   1.000  H
  H87      1.0000 0.11328  0.87258  0.41100  Biso   1.000  H
  H88      1.0000 0.10248  0.14869  0.54071  Biso   1.000  H
  C100     1.0000 0.02188  0.13432  0.51669  Biso   1.000  C
  O20      1.0000 0.21096  0.28959  0.24245  Biso   1.000  O
  C101     1.0000 0.35398  0.13253  0.28719  Biso   1.000  C
  C102     1.0000 0.02848  0.43300  0.33305  Biso   1.000  C
  H89      1.0000 0.16068  0.48619  0.46920  Biso   1.000  H
  H90      1.0000 0.09319  0.51113  0.47650  Biso   1.000  H
  H91      1.0000 0.13418  0.60435  0.46439  Biso   1.000  H
  C103     1.0000 0.35608  0.94543  0.36555  Biso   1.000  C
  H92      1.0000 0.34879  0.93203  0.41540  Biso   1.000  H
  C104     1.0000 0.26217  0.90093  0.33005  Biso   1.000  C
  C105     1.0000 0.16370  0.84838  0.35231  Biso   1.000  C
  C106     1.0000 0.12175  0.94673  0.34888  Biso   1.000  C
  C107     1.0000 0.06446  0.09298  0.37033  Biso   1.000  C
  H93      1.0000 0.00970  0.08113  0.53109  Biso   1.000  H
  H94      1.0000 0.99446  0.15844  0.49829  Biso   1.000  H
  C108     1.0000 0.14913  0.32694  0.23354  Biso   1.000  C
  C109     1.0000 0.32666  0.02323  0.28004  Biso   1.000  C
  H95      1.0000 0.35031  0.15348  0.31040  Biso   1.000  H
  H96      1.0000 0.39749  0.13164  0.28429  Biso   1.000  H
  C110     1.0000 0.04998  0.32784  0.31931  Biso   1.000  C
  H97      1.0000 0.03639  0.49139  0.31780  Biso   1.000  H
  H98      1.0000 0.98420  0.42919  0.33340  Biso   1.000  H
  C111     1.0000 0.32316  0.93422  0.33338  Biso   1.000  C
  O21      1.0000 0.41603  0.98262  0.36893  Biso   1.000  O
  H99      1.0000 0.24078  0.89183  0.30839  Biso   1.000  H
  H100     1.0000 0.15638  0.80526  0.33170  Biso   1.000  H
  H101     1.0000 0.15377  0.80388  0.37109  Biso   1.000  H
  C112     1.0000 0.10923  0.99488  0.31674  Biso   1.000  C
  C113     1.0000 0.05489  0.14252  0.33885  Biso   1.000  C
  H102     1.0000 0.04857  0.12579  0.38850  Biso   1.000  H
  H103     1.0000 0.12767  0.32451  0.25319  Biso   1.000  H
  H104     1.0000 0.12831  0.28114  0.21611  Biso   1.000  H
  H105     1.0000 0.14969  0.40019  0.22530  Biso   1.000  H
  H106     1.0000 0.28238  0.02566  0.28060  Biso   1.000  H
  H107     1.0000 0.33420  0.99870  0.25769  Biso   1.000  H
  O22      1.0000 0.35476  0.95095  0.30549  Biso   1.000  O
  H108     1.0000 0.03789  0.32435  0.29490  Biso   1.000  H
  H109     1.0000 0.09468  0.32305  0.32371  Biso   1.000  H
  O23      1.0000 0.02234  0.23916  0.33582  Biso   1.000  O
  C114     1.0000 0.46149  0.91351  0.38629  Biso   1.000  C
  C115     1.0000 0.07614  0.08933  0.31119  Biso   1.000  C
  H110     1.0000 0.12401  0.96151  0.29831  Biso   1.000  H
  H111     1.0000 0.44499  0.87656  0.40479  Biso   1.000  H
  H112     1.0000 0.49711  0.95558  0.39581  Biso   1.000  H
  C116     1.0000 0.47979  0.83287  0.36153  Biso   1.000  C
  O24      1.0000 0.06613  0.13383  0.27882  Biso   1.000  O
  H113     1.0000 0.50030  0.86138  0.34430  Biso   1.000  H
  C117     1.0000 0.47161  0.73291  0.36043  Biso   1.000  C
  C118     1.0000 0.00569  0.11117  0.26146  Biso   1.000  C
  H114     1.0000 0.45131  0.69888  0.37680  Biso   1.000  H
  H115     1.0000 0.48570  0.69206  0.34320  Biso   1.000  H
  H116     1.0000 0.00071  0.03362  0.25780  Biso   1.000  H
  H117     1.0000 0.97449  0.13562  0.27510  Biso   1.000  H
  C119     1.0000 0.99835  0.16843  0.22856  Biso   1.000  C
  H118     1.0000 0.02792  0.15698  0.21400  Biso   1.000  H
  C120     1.0000 0.95229  0.23461  0.21868  Biso   1.000  C
  H119     1.0000 0.92208  0.24744  0.23281  Biso   1.000  H
  H120     1.0000 0.94991  0.26864  0.19761  Biso   1.000  H
  C121     1.0000 0.57850  0.31127  0.49885  Biso   1.000  C
  O25      1.0000 0.64302  0.31062  0.49452  Biso   1.000  O
  H121     1.0000 0.56669  0.38233  0.50641  Biso   1.000  H
  H122     1.0000 0.55348  0.29487  0.47739  Biso   1.000  H
  C122     1.0000 0.56853  0.22811  0.52458  Biso   1.000  C
  C123     1.0000 0.66236  0.39142  0.47424  Biso   1.000  C
  H123     1.0000 0.59427  0.22852  0.54519  Biso   1.000  H
  C124     1.0000 0.52501  0.15348  0.51969  Biso   1.000  C
  C125     1.0000 0.62278  0.45899  0.45360  Biso   1.000  C
  C126     1.0000 0.72598  0.40531  0.47508  Biso   1.000  C
  H124     1.0000 0.49868  0.15153  0.49931  Biso   1.000  H
  H125     1.0000 0.52060  0.10297  0.53659  Biso   1.000  H
  C127     1.0000 0.64480  0.54410  0.43520  Biso   1.000  C
  H126     1.0000 0.58041  0.44721  0.45189  Biso   1.000  H
  C128     1.0000 0.74791  0.49350  0.45846  Biso   1.000  C
  O26      1.0000 0.76829  0.33961  0.49445  Biso   1.000  O
  C129     1.0000 0.59861  0.60720  0.41077  Biso   1.000  C
  C130     1.0000 0.70847  0.56578  0.43902  Biso   1.000  C
  H127     1.0000 0.79027  0.50503  0.46029  Biso   1.000  H
  C131     1.0000 0.76642  0.22584  0.48503  Biso   1.000  C
  C132     1.0000 0.59431  0.55928  0.37494  Biso   1.000  C
  H128     1.0000 0.55827  0.60460  0.41861  Biso   1.000  H
  H129     1.0000 0.61138  0.68264  0.41031  Biso   1.000  H
  C133     1.0000 0.73531  0.66818  0.42494  Biso   1.000  C
  H130     1.0000 0.73410  0.18889  0.49521  Biso   1.000  H
  H131     1.0000 0.75778  0.21837  0.46050  Biso   1.000  H
  C134     1.0000 0.82821  0.17663  0.49750  Biso   1.000  C
  C135     1.0000 0.62218  0.60598  0.34839  Biso   1.000  C
  C136     1.0000 0.56187  0.46208  0.36886  Biso   1.000  C
  C137     1.0000 0.76459  0.65210  0.39245  Biso   1.000  C
  H132     1.0000 0.76629  0.69774  0.44230  Biso   1.000  H
  H133     1.0000 0.70258  0.72170  0.42059  Biso   1.000  H
  H134     1.0000 0.82419  0.09818  0.49740  Biso   1.000  H
  H135     1.0000 0.84050  0.19937  0.52081  Biso   1.000  H
  O27      1.0000 0.87569  0.20619  0.47745  Biso   1.000  O
  C138     1.0000 0.61142  0.55790  0.31630  Biso   1.000  C
  C139     1.0000 0.66569  0.70302  0.35282  Biso   1.000  C
  C140     1.0000 0.55473  0.41165  0.33737  Biso   1.000  C
  H136     1.0000 0.54437  0.43000  0.38659  Biso   1.000  H
  C141     1.0000 0.73300  0.66770  0.35967  Biso   1.000  C
  C142     1.0000 0.82663  0.62295  0.39578  Biso   1.000  C
  C143     1.0000 0.87523  0.15486  0.44632  Biso   1.000  C
  C144     1.0000 0.57744  0.46362  0.31030  Biso   1.000  C
  H137     1.0000 0.62781  0.59055  0.29831  Biso   1.000  H
  H138     1.0000 0.65567  0.74720  0.37160  Biso   1.000  H
  H139     1.0000 0.65980  0.74720  0.33239  Biso   1.000  H
  O28      1.0000 0.52290  0.31363  0.33430  Biso   1.000  O
  C145     1.0000 0.76515  0.65072  0.33160  Biso   1.000  C
  H140     1.0000 0.84779  0.61499  0.41759  Biso   1.000  H
  C146     1.0000 0.85833  0.60508  0.36812  Biso   1.000  C
  C147     1.0000 0.84087  0.06554  0.43551  Biso   1.000  C
  C148     1.0000 0.91438  0.20067  0.42469  Biso   1.000  C
  O29      1.0000 0.56972  0.41879  0.27788  Biso   1.000  O
  C149     1.0000 0.55170  0.22649  0.31763  Biso   1.000  C
  C150     1.0000 0.82630  0.61743  0.33562  Biso   1.000  C
  H141     1.0000 0.74491  0.66201  0.30979  Biso   1.000  H
  O30      1.0000 0.91852  0.57041  0.37158  Biso   1.000  O
  C151     1.0000 0.84115  0.02103  0.40301  Biso   1.000  C
  H142     1.0000 0.81649  0.03313  0.45029  Biso   1.000  H
  C152     1.0000 0.91418  0.15909  0.39232  Biso   1.000  C
  O31      1.0000 0.94886  0.28723  0.43797  Biso   1.000  O
  C153     1.0000 0.50857  0.44291  0.25927  Biso   1.000  C
  H143     1.0000 0.54070  0.23177  0.29320  Biso   1.000  H
  H144     1.0000 0.59627  0.23177  0.32269  Biso   1.000  H
  C154     1.0000 0.53005  0.11889  0.33015  Biso   1.000  C
  O32      1.0000 0.85900  0.60265  0.30798  Biso   1.000  O
  C155     1.0000 0.96156  0.63058  0.39346  Biso   1.000  C
  C156     1.0000 0.80058  0.92163  0.39407  Biso   1.000  C
  C157     1.0000 0.87699  0.07041  0.38059  Biso   1.000  C
  H145     1.0000 0.93949  0.19068  0.37779  Biso   1.000  H
  C158     1.0000 0.98257  0.34562  0.41545  Biso   1.000  C
  C159     1.0000 0.49899  0.37997  0.22932  Biso   1.000  C
  H146     1.0000 0.50589  0.51941  0.25350  Biso   1.000  H
  H147     1.0000 0.47677  0.42659  0.27350  Biso   1.000  H
  H148     1.0000 0.53899  0.06253  0.31439  Biso   1.000  H
  H149     1.0000 0.48558  0.12181  0.32989  Biso   1.000  H
  O33      1.0000 0.55753  0.08982  0.36359  Biso   1.000  O
  C160     1.0000 0.83240  0.53021  0.28205  Biso   1.000  C
  H150     1.0000 0.94249  0.66363  0.41179  Biso   1.000  H
  H151     1.0000 0.99608  0.58592  0.40301  Biso   1.000  H
  C161     1.0000 0.98179  0.71691  0.36896  Biso   1.000  C
  C162     1.0000 0.98000  0.74322  0.39161  Biso   1.000  C
  H152     1.0000 0.94808  0.62303  0.41571  Biso   1.000  H
  H153     1.0000 0.99979  0.58982  0.39451  Biso   1.000  H
  C163     1.0000 0.73381  0.95347  0.38306  Biso   1.000  C
  H154     1.0000 0.80260  0.87421  0.41380  Biso   1.000  H
  H155     1.0000 0.81610  0.88168  0.37590  Biso   1.000  H
  C164     1.0000 0.87821  0.03386  0.34386  Biso   1.000  C
  H156     1.0000 0.95488  0.36950  0.39611  Biso   1.000  H
  H157     1.0000 0.00210  0.40742  0.42711  Biso   1.000  H
  H158     1.0000 0.01360  0.29909  0.40800  Biso   1.000  H
  C165     1.0000 0.44777  0.32248  0.22191  Biso   1.000  C
  H159     1.0000 0.52897  0.37884  0.21461  Biso   1.000  H
  C166     1.0000 0.61456  0.04060  0.36761  Biso   1.000  C
  H160     1.0000 0.78789  0.52761  0.28179  Biso   1.000  H
  H161     1.0000 0.84120  0.55498  0.26001  Biso   1.000  H
  C167     1.0000 0.85959  0.41968  0.28943  Biso   1.000  C
  C168     1.0000 0.97060  0.81208  0.36753  Biso   1.000  C
  H162     1.0000 0.00620  0.69149  0.35310  Biso   1.000  H
  H163     1.0000 0.00248  0.76969  0.41141  Biso   1.000  H
  C169     1.0000 0.70990  0.97288  0.34939  Biso   1.000  C
  C170     1.0000 0.69613  0.97101  0.40861  Biso   1.000  C
  C171     1.0000 0.83219  0.09209  0.31763  Biso   1.000  C
  H164     1.0000 0.91951  0.04531  0.33801  Biso   1.000  H
  H165     1.0000 0.86978  0.95663  0.34249  Biso   1.000  H
  H166     1.0000 0.41771  0.32337  0.23650  Biso   1.000  H
  H167     1.0000 0.44188  0.28131  0.20209  Biso   1.000  H
  C172     1.0000 0.65058  0.01730  0.34221  Biso   1.000  C
  C173     1.0000 0.63750  0.01283  0.40143  Biso   1.000  C
  H168     1.0000 0.85460  0.39825  0.31251  Biso   1.000  H
  H169     1.0000 0.90341  0.42058  0.28729  Biso   1.000  H
  O34      1.0000 0.82814  0.34432  0.26551  Biso   1.000  O
  H170     1.0000 0.94640  0.84302  0.38270  Biso   1.000  H
  H171     1.0000 0.98598  0.85512  0.35130  Biso   1.000  H
  H172     1.0000 0.94841  0.79211  0.34679  Biso   1.000  H
  H173     1.0000 0.98589  0.88241  0.37061  Biso   1.000  H
  C174     1.0000 0.74611  0.95030  0.31969  Biso   1.000  C
  H174     1.0000 0.71119  0.95404  0.43100  Biso   1.000  H
  C175     1.0000 0.77345  0.05140  0.30602  Biso   1.000  C
  C176     1.0000 0.85038  0.18938  0.30340  Biso   1.000  C
  H175     1.0000 0.63498  0.03159  0.31969  Biso   1.000  H
  O35      1.0000 0.59799  0.03330  0.42525  Biso   1.000  O
  C177     1.0000 0.81242  0.24598  0.27910  Biso   1.000  C
  H176     1.0000 0.71887  0.91603  0.30149  Biso   1.000  H
  H177     1.0000 0.77918  0.89971  0.32709  Biso   1.000  H
  C178     1.0000 0.73589  0.10776  0.28050  Biso   1.000  C
  H178     1.0000 0.88961  0.21683  0.31070  Biso   1.000  H
  C179     1.0000 0.62127  0.01121  0.45953  Biso   1.000  C
  C180     1.0000 0.75399  0.20432  0.26706  Biso   1.000  C
  H179     1.0000 0.69737  0.07918  0.27230  Biso   1.000  H
  H180     1.0000 0.65696  0.05571  0.46620  Biso   1.000  H
  H181     1.0000 0.59011  0.02696  0.47391  Biso   1.000  H
  H182     1.0000 0.63268  0.93601  0.46190  Biso   1.000  H
  O36      1.0000 0.71800  0.26433  0.24296  Biso   1.000  O
  C181     1.0000 0.65557  0.22698  0.23405  Biso   1.000  C
  H183     1.0000 0.63419  0.22982  0.25380  Biso   1.000  H
  H184     1.0000 0.63490  0.27270  0.21649  Biso   1.000  H
  H185     1.0000 0.65602  0.15357  0.22591  Biso   1.000  H
  C182     1.0000 0.42148  0.68873  0.50114  Biso   1.000  C
  C183     1.0000 0.43144  0.77189  0.47541  Biso   1.000  C
  H186     1.0000 0.43329  0.61775  0.49361  Biso   1.000  H
  H187     1.0000 0.44650  0.70513  0.52259  Biso   1.000  H
  O37      1.0000 0.35696  0.68938  0.50546  Biso   1.000  O
  H188     1.0000 0.40571  0.77148  0.45480  Biso   1.000  H
  C184     1.0000 0.47498  0.84652  0.48032  Biso   1.000  C
  C185     1.0000 0.33762  0.60858  0.52575  Biso   1.000  C
  H189     1.0000 0.50130  0.84855  0.50071  Biso   1.000  H
  H190     1.0000 0.47938  0.89703  0.46340  Biso   1.000  H
  C186     1.0000 0.37720  0.54101  0.54641  Biso   1.000  C
  C187     1.0000 0.27400  0.59469  0.52491  Biso   1.000  C
  C188     1.0000 0.35518  0.45590  0.56481  Biso   1.000  C
  H191     1.0000 0.41957  0.55279  0.54809  Biso   1.000  H
  C189     1.0000 0.25207  0.50650  0.54155  Biso   1.000  C
  O38      1.0000 0.23169  0.66039  0.50557  Biso   1.000  O
  C190     1.0000 0.40132  0.39280  0.58922  Biso   1.000  C
  C191     1.0000 0.29151  0.43422  0.56099  Biso   1.000  C
  H192     1.0000 0.20966  0.49505  0.53969  Biso   1.000  H
  C192     1.0000 0.23352  0.77424  0.51498  Biso   1.000  C
  H193     1.0000 0.44166  0.39540  0.58140  Biso   1.000  H
  H194     1.0000 0.38860  0.31744  0.58970  Biso   1.000  H
  C193     1.0000 0.40567  0.44072  0.62505  Biso   1.000  C
  C194     1.0000 0.26467  0.33182  0.57504  Biso   1.000  C
  H195     1.0000 0.26589  0.81111  0.50480  Biso   1.000  H
  H196     1.0000 0.24220  0.78163  0.53949  Biso   1.000  H
  C195     1.0000 0.17173  0.82345  0.50251  Biso   1.000  C
  C196     1.0000 0.37780  0.39402  0.65162  Biso   1.000  C
  C197     1.0000 0.43811  0.53792  0.63116  Biso   1.000  C
  H197     1.0000 0.23370  0.30234  0.55771  Biso   1.000  H
  H198     1.0000 0.29740  0.27830  0.57939  Biso   1.000  H
  C198     1.0000 0.23539  0.34790  0.60757  Biso   1.000  C
  H199     1.0000 0.17578  0.90182  0.50259  Biso   1.000  H
  H200     1.0000 0.15948  0.80063  0.47920  Biso   1.000  H
  O39      1.0000 0.12429  0.79381  0.52254  Biso   1.000  O
  C199     1.0000 0.33424  0.29698  0.64719  Biso   1.000  C
  C200     1.0000 0.38856  0.44210  0.68371  Biso   1.000  C
  C201     1.0000 0.44524  0.58844  0.66261  Biso   1.000  C
  H201     1.0000 0.45556  0.57000  0.61339  Biso   1.000  H
  C202     1.0000 0.17335  0.37713  0.60423  Biso   1.000  C
  C203     1.0000 0.26698  0.33230  0.64032  Biso   1.000  C
  C204     1.0000 0.12470  0.84514  0.55369  Biso   1.000  C
  H202     1.0000 0.34426  0.25280  0.62841  Biso   1.000  H
  H203     1.0000 0.34018  0.25280  0.66760  Biso   1.000  H
  H204     1.0000 0.37217  0.40953  0.70170  Biso   1.000  H
  C205     1.0000 0.42254  0.53638  0.68969  Biso   1.000  C
  O40      1.0000 0.47708  0.68645  0.66569  Biso   1.000  O
  H205     1.0000 0.15219  0.38501  0.58240  Biso   1.000  H
  C206     1.0000 0.14160  0.39492  0.63187  Biso   1.000  C
  C207     1.0000 0.23484  0.34928  0.66841  Biso   1.000  C
  C208     1.0000 0.15911  0.93455  0.56451  Biso   1.000  C
  C209     1.0000 0.08556  0.79933  0.57532  Biso   1.000  C
  O41      1.0000 0.43021  0.58121  0.72211  Biso   1.000  O
  C210     1.0000 0.44828  0.77351  0.68236  Biso   1.000  C
  C211     1.0000 0.17369  0.38257  0.66439  Biso   1.000  C
  O42      1.0000 0.08146  0.42959  0.62843  Biso   1.000  O
  H206     1.0000 0.25507  0.33799  0.69020  Biso   1.000  H
  C212     1.0000 0.15879  0.97905  0.59700  Biso   1.000  C
  H207     1.0000 0.18349  0.96695  0.54969  Biso   1.000  H
  C213     1.0000 0.08576  0.84091  0.60769  Biso   1.000  C
  O43      1.0000 0.05112  0.71277  0.56201  Biso   1.000  O
  C214     1.0000 0.49136  0.55709  0.74071  Biso   1.000  C
  H208     1.0000 0.45928  0.76823  0.70679  Biso   1.000  H
  H209     1.0000 0.40366  0.76823  0.67729  Biso   1.000  H
  C215     1.0000 0.46993  0.88111  0.66984  Biso   1.000  C
  O44      1.0000 0.14098  0.39743  0.69203  Biso   1.000  O
  C216     1.0000 0.03843  0.36942  0.60655  Biso   1.000  C
  C217     1.0000 0.12299  0.92959  0.61940  Biso   1.000  C
  C218     1.0000 0.19940  0.07845  0.60591  Biso   1.000  C
  H210     1.0000 0.06049  0.80932  0.62220  Biso   1.000  H
  C219     1.0000 0.01741  0.65438  0.58453  Biso   1.000  C
  H211     1.0000 0.49408  0.48059  0.74649  Biso   1.000  H
  H212     1.0000 0.52316  0.57341  0.72649  Biso   1.000  H
  C220     1.0000 0.50099  0.62003  0.77067  Biso   1.000  C
  H213     1.0000 0.46099  0.93755  0.68559  Biso   1.000  H
  H214     1.0000 0.51439  0.87819  0.67009  Biso   1.000  H
  O45      1.0000 0.44240  0.91026  0.63640  Biso   1.000  O
  C221     1.0000 0.16758  0.46979  0.71794  Biso   1.000  C
  H215     1.0000 0.05749  0.33645  0.58820  Biso   1.000  H
  H216     1.0000 0.00390  0.41408  0.59700  Biso   1.000  H
  C222     1.0000 0.01819  0.28309  0.63103  Biso   1.000  C
  C223     1.0000 0.01998  0.25678  0.60840  Biso   1.000  C
  H217     1.0000 0.05191  0.37697  0.58430  Biso   1.000  H
  H218     1.0000 0.00020  0.41018  0.60550  Biso   1.000  H
  C224     1.0000 0.12177  0.96614  0.65612  Biso   1.000  C
  C225     1.0000 0.26617  0.04653  0.61696  Biso   1.000  C
  H219     1.0000 0.19738  0.12579  0.58619  Biso   1.000  H
  H220     1.0000 0.18388  0.11832  0.62411  Biso   1.000  H
  H221     1.0000 0.04510  0.63050  0.60390  Biso   1.000  H
  H222     1.0000 0.99788  0.59258  0.57290  Biso   1.000  H
  H223     1.0000 0.98638  0.70091  0.59199  Biso   1.000  H
  H224     1.0000 0.47096  0.62124  0.78540  Biso   1.000  H
  C226     1.0000 0.55216  0.67752  0.77810  Biso   1.000  C
  C227     1.0000 0.38543  0.95940  0.63240  Biso   1.000  C
  H225     1.0000 0.21209  0.47239  0.71819  Biso   1.000  H
  H226     1.0000 0.15878  0.44502  0.74000  Biso   1.000  H
  C228     1.0000 0.14039  0.58032  0.71056  Biso   1.000  C
  C229     1.0000 0.02938  0.18792  0.63248  Biso   1.000  C
  H227     1.0000 0.99379  0.30851  0.64691  Biso   1.000  H
  H228     1.0000 0.99750  0.23031  0.58861  Biso   1.000  H
  H229     1.0000 0.08047  0.95469  0.66200  Biso   1.000  H
  C230     1.0000 0.16779  0.90791  0.68238  Biso   1.000  C
  H230     1.0000 0.13020  0.04345  0.65750  Biso   1.000  H
  C231     1.0000 0.29004  0.02712  0.65060  Biso   1.000  C
  C232     1.0000 0.30385  0.02899  0.59141  Biso   1.000  C
  H231     1.0000 0.58226  0.67663  0.76349  Biso   1.000  H
  H232     1.0000 0.55810  0.71869  0.79790  Biso   1.000  H
  C233     1.0000 0.34936  0.98270  0.65780  Biso   1.000  C
  C234     1.0000 0.36249  0.98725  0.59858  Biso   1.000  C
  H233     1.0000 0.14538  0.60184  0.68750  Biso   1.000  H
  H234     1.0000 0.09657  0.57942  0.71269  Biso   1.000  H
  O46      1.0000 0.17184  0.65568  0.73448  Biso   1.000  O
  H235     1.0000 0.05357  0.15698  0.61729  Biso   1.000  H
  H236     1.0000 0.01400  0.14488  0.64869  Biso   1.000  H
  H237     1.0000 0.05157  0.20789  0.65319  Biso   1.000  H
  H238     1.0000 0.01409  0.11759  0.62940  Biso   1.000  H
  C235     1.0000 0.14960  0.81062  0.69659  Biso   1.000  C
  C236     1.0000 0.22649  0.94860  0.69399  Biso   1.000  C
  C237     1.0000 0.25382  0.04970  0.68030  Biso   1.000  C
  H239     1.0000 0.28879  0.04605  0.56901  Biso   1.000  H
  H240     1.0000 0.36499  0.96841  0.68030  Biso   1.000  H
  O47      1.0000 0.40199  0.96670  0.57474  Biso   1.000  O
  C238     1.0000 0.18757  0.75402  0.72091  Biso   1.000  C
  H241     1.0000 0.11038  0.78325  0.68931  Biso   1.000  H
  C239     1.0000 0.26408  0.89224  0.71949  Biso   1.000  C
  H242     1.0000 0.28106  0.08405  0.69849  Biso   1.000  H
  H243     1.0000 0.22076  0.10029  0.67289  Biso   1.000  H
  C240     1.0000 0.37866  0.98879  0.54046  Biso   1.000  C
  C241     1.0000 0.24595  0.79568  0.73293  Biso   1.000  C
  H244     1.0000 0.30256  0.92082  0.72771  Biso   1.000  H
  H245     1.0000 0.34297  0.94429  0.53379  Biso   1.000  H
  H246     1.0000 0.40987  0.97304  0.52610  Biso   1.000  H
  H247     1.0000 0.36730  0.06399  0.53809  Biso   1.000  H
  O48      1.0000 0.28198  0.73575  0.75705  Biso   1.000  O
  C242     1.0000 0.34441  0.77302  0.76596  Biso   1.000  C
  H248     1.0000 0.36580  0.77018  0.74621  Biso   1.000  H
  H249     1.0000 0.36508  0.72730  0.78349  Biso   1.000  H
  H250     1.0000 0.34397  0.84643  0.77410  Biso   1.000  H
  C243     1.0000 0.55217  0.82256  0.27808  Biso   1.000  C
  C244     1.0000 0.50100  0.88006  0.27067  Biso   1.000  C
  H251     1.0000 0.58227  0.82345  0.26350  Biso   1.000  H
  H252     1.0000 0.55811  0.78131  0.29790  Biso   1.000  H
  C245     1.0000 0.49138  0.94291  0.24072  Biso   1.000  C
  H253     1.0000 0.47097  0.87884  0.28541  Biso   1.000  H
  O49      1.0000 0.43023  0.91879  0.22212  Biso   1.000  O
  H254     1.0000 0.52317  0.92659  0.22649  Biso   1.000  H
  H255     1.0000 0.49409  0.01941  0.24650  Biso   1.000  H
  C246     1.0000 0.42255  0.96362  0.18970  Biso   1.000  C
  C247     1.0000 0.44526  0.91165  0.16262  Biso   1.000  C
  C248     1.0000 0.38857  0.05790  0.18369  Biso   1.000  C
  O50      1.0000 0.47709  0.81363  0.16570  Biso   1.000  O
  C249     1.0000 0.43812  0.96216  0.13114  Biso   1.000  C
  C250     1.0000 0.37780  0.10606  0.15160  Biso   1.000  C
  H256     1.0000 0.37218  0.09055  0.20171  Biso   1.000  H
  C251     1.0000 0.44829  0.72649  0.18237  Biso   1.000  C
  H257     1.0000 0.45558  0.93000  0.11340  Biso   1.000  H
  C252     1.0000 0.40568  0.05936  0.12506  Biso   1.000  C
  C253     1.0000 0.33429  0.20302  0.14717  Biso   1.000  C
  C254     1.0000 0.46994  0.61889  0.16985  Biso   1.000  C
  H258     1.0000 0.45929  0.73185  0.20680  Biso   1.000  H
  H259     1.0000 0.40372  0.73185  0.17730  Biso   1.000  H
  C255     1.0000 0.40138  0.10720  0.08922  Biso   1.000  C
  C256     1.0000 0.26699  0.16770  0.14032  Biso   1.000  C
  H260     1.0000 0.34432  0.24720  0.12839  Biso   1.000  H
  H261     1.0000 0.34019  0.24720  0.16761  Biso   1.000  H
  O51      1.0000 0.44241  0.58982  0.13641  Biso   1.000  O
  H262     1.0000 0.46100  0.56253  0.18560  Biso   1.000  H
  H263     1.0000 0.51441  0.62181  0.17010  Biso   1.000  H
  H264     1.0000 0.44172  0.10460  0.08141  Biso   1.000  H
  H265     1.0000 0.38861  0.18264  0.08971  Biso   1.000  H
  C257     1.0000 0.35519  0.04410  0.06479  Biso   1.000  C
  C258     1.0000 0.23485  0.15072  0.16842  Biso   1.000  C
  C259     1.0000 0.23540  0.15210  0.10757  Biso   1.000  C
  C260     1.0000 0.38544  0.54060  0.13241  Biso   1.000  C
  C261     1.0000 0.37722  0.95899  0.04642  Biso   1.000  C
  C262     1.0000 0.29152  0.06586  0.06100  Biso   1.000  C
  C263     1.0000 0.17370  0.11743  0.16440  Biso   1.000  C
  H266     1.0000 0.25508  0.16201  0.19020  Biso   1.000  H
  C264     1.0000 0.17335  0.12295  0.10421  Biso   1.000  C
  C265     1.0000 0.26468  0.16826  0.07505  Biso   1.000  C
  C266     1.0000 0.34941  0.51730  0.15778  Biso   1.000  C
  C267     1.0000 0.36250  0.51283  0.09859  Biso   1.000  C
  C268     1.0000 0.33763  0.89142  0.02575  Biso   1.000  C
  H267     1.0000 0.41958  0.94721  0.04810  Biso   1.000  H
  C269     1.0000 0.25208  0.99350  0.04153  Biso   1.000  C
  O52      1.0000 0.14099  0.10265  0.19204  Biso   1.000  O
  C270     1.0000 0.14166  0.10516  0.13188  Biso   1.000  C
  H268     1.0000 0.15220  0.11499  0.08240  Biso   1.000  H
  H269     1.0000 0.23370  0.19774  0.05769  Biso   1.000  H
  H270     1.0000 0.29741  0.22170  0.07940  Biso   1.000  H
  C271     1.0000 0.29005  0.47288  0.15061  Biso   1.000  C
  H271     1.0000 0.36501  0.53159  0.18030  Biso   1.000  H
  C272     1.0000 0.30387  0.47101  0.09141  Biso   1.000  C
  O53      1.0000 0.40200  0.53330  0.07474  Biso   1.000  O
  C273     1.0000 0.27401  0.90531  0.02491  Biso   1.000  C
  O54      1.0000 0.35697  0.81062  0.00547  Biso   1.000  O
  H272     1.0000 0.20972  0.00503  0.03970  Biso   1.000  H
  C274     1.0000 0.16759  0.03021  0.21794  Biso   1.000  C
  O55      1.0000 0.08147  0.07041  0.12844  Biso   1.000  O
  C275     1.0000 0.25383  0.45030  0.18030  Biso   1.000  C
  C276     1.0000 0.26618  0.45355  0.11694  Biso   1.000  C
  H273     1.0000 0.28880  0.45404  0.06899  Biso   1.000  H
  C277     1.0000 0.37872  0.51121  0.04046  Biso   1.000  C
  O56      1.0000 0.23170  0.83961  0.00555  Biso   1.000  O
  C278     1.0000 0.42149  0.81135  0.00115  Biso   1.000  C
  C279     1.0000 0.14040  0.91968  0.21056  Biso   1.000  C
  H274     1.0000 0.21210  0.02761  0.21820  Biso   1.000  H
  H275     1.0000 0.15879  0.05506  0.24001  Biso   1.000  H
  C280     1.0000 0.03843  0.13066  0.10653  Biso   1.000  C
  H276     1.0000 0.28112  0.41603  0.19850  Biso   1.000  H
  H277     1.0000 0.22081  0.39971  0.17290  Biso   1.000  H
  C281     1.0000 0.22650  0.55140  0.19400  Biso   1.000  C
  C282     1.0000 0.19941  0.42163  0.10592  Biso   1.000  C
  H278     1.0000 0.34298  0.55571  0.03380  Biso   1.000  H
  H279     1.0000 0.40989  0.52704  0.02611  Biso   1.000  H
  H280     1.0000 0.36731  0.43601  0.03810  Biso   1.000  H
  C283     1.0000 0.23353  0.72584  0.01499  Biso   1.000  C
  H281     1.0000 0.44651  0.79495  0.02260  Biso   1.000  H
  H282     1.0000 0.43330  0.88233  0.99359  Biso   1.000  H
  C284     1.0000 0.43145  0.72811  0.97539  Biso   1.000  C
  O57      1.0000 0.17185  0.84432  0.23449  Biso   1.000  O
  H283     1.0000 0.14539  0.89825  0.18751  Biso   1.000  H
  H284     1.0000 0.09658  0.92066  0.21270  Biso   1.000  H
  H285     1.0000 0.05750  0.16363  0.08821  Biso   1.000  H
  H286     1.0000 0.00391  0.08592  0.09701  Biso   1.000  H
  C285     1.0000 0.01820  0.21691  0.13104  Biso   1.000  C
  C286     1.0000 0.01999  0.24322  0.10841  Biso   1.000  C
  H287     1.0000 0.05192  0.12303  0.08431  Biso   1.000  H
  H288     1.0000 0.00021  0.08982  0.10551  Biso   1.000  H
  C287     1.0000 0.16780  0.59209  0.18239  Biso   1.000  C
  C288     1.0000 0.26409  0.60784  0.21950  Biso   1.000  C
  H289     1.0000 0.19739  0.37421  0.08620  Biso   1.000  H
  H290     1.0000 0.18389  0.38168  0.12409  Biso   1.000  H
  C289     1.0000 0.15880  0.52103  0.09701  Biso   1.000  C
  C290     1.0000 0.17179  0.67663  0.00252  Biso   1.000  C
  H291     1.0000 0.26590  0.68889  0.00481  Biso   1.000  H
  H292     1.0000 0.24221  0.71845  0.03950  Biso   1.000  H
  H293     1.0000 0.40571  0.72852  0.95478  Biso   1.000  H
  C291     1.0000 0.47497  0.65348  0.98028  Biso   1.000  C
  C292     1.0000 0.18758  0.74598  0.22092  Biso   1.000  C
  H294     1.0000 0.99379  0.19149  0.14689  Biso   1.000  H
  C293     1.0000 0.02939  0.31217  0.13246  Biso   1.000  C
  H295     1.0000 0.99751  0.26969  0.08859  Biso   1.000  H
  C294     1.0000 0.12178  0.53395  0.15613  Biso   1.000  C
  C295     1.0000 0.14961  0.68938  0.19659  Biso   1.000  C
  C296     1.0000 0.24600  0.70432  0.23293  Biso   1.000  C
  H296     1.0000 0.30257  0.57918  0.22769  Biso   1.000  H
  C297     1.0000 0.12300  0.57041  0.11941  Biso   1.000  C
  C298     1.0000 0.15912  0.56554  0.06449  Biso   1.000  C
  O58      1.0000 0.12430  0.70619  0.02255  Biso   1.000  O
  H297     1.0000 0.17579  0.59818  0.00260  Biso   1.000  H
  H298     1.0000 0.15949  0.69945  0.97918  Biso   1.000  H
  H299     1.0000 0.50131  0.65153  0.00071  Biso   1.000  H
  H300     1.0000 0.47938  0.60305  0.96338  Biso   1.000  H
  H301     1.0000 0.05359  0.34302  0.11729  Biso   1.000  H
  H302     1.0000 0.01401  0.35512  0.14870  Biso   1.000  H
  H303     1.0000 0.05158  0.29211  0.15320  Biso   1.000  H
  H304     1.0000 0.01411  0.38241  0.12941  Biso   1.000  H
  H305     1.0000 0.08048  0.54531  0.16201  Biso   1.000  H
  H306     1.0000 0.13021  0.45663  0.15750  Biso   1.000  H
  H307     1.0000 0.11038  0.71683  0.18929  Biso   1.000  H
  O59      1.0000 0.28200  0.76433  0.25706  Biso   1.000  O
  C299     1.0000 0.08577  0.65909  0.10770  Biso   1.000  C
  H308     1.0000 0.18350  0.53313  0.04970  Biso   1.000  H
  C300     1.0000 0.12476  0.65495  0.05367  Biso   1.000  C
  C301     1.0000 0.34441  0.72698  0.26594  Biso   1.000  C
  C302     1.0000 0.08562  0.70075  0.07533  Biso   1.000  C
  H309     1.0000 0.06050  0.69068  0.12221  Biso   1.000  H
  H310     1.0000 0.36580  0.72982  0.24619  Biso   1.000  H
  H311     1.0000 0.36509  0.77270  0.28350  Biso   1.000  H
  H312     1.0000 0.34398  0.65365  0.27411  Biso   1.000  H
  O60      1.0000 0.05113  0.78723  0.06202  Biso   1.000  O
  C303     1.0000 0.01742  0.84562  0.08454  Biso   1.000  C
  H313     1.0000 0.04511  0.86950  0.10391  Biso   1.000  H
  H314     1.0000 0.99790  0.90742  0.07291  Biso   1.000  H
  H315     1.0000 0.98639  0.79909  0.09200  Biso   1.000  H
  C304     1.0000 0.44776  0.17752  0.72191  Biso   1.000  C
  C305     1.0000 0.49898  0.12003  0.72931  Biso   1.000  C
  H316     1.0000 0.41766  0.17663  0.73649  Biso   1.000  H
  H317     1.0000 0.44188  0.21869  0.70211  Biso   1.000  H
  C306     1.0000 0.50856  0.05709  0.75929  Biso   1.000  C
  H318     1.0000 0.52896  0.12116  0.71460  Biso   1.000  H
  H319     1.0000 0.47676  0.07341  0.77349  Biso   1.000  H
  O61      1.0000 0.56971  0.08121  0.77787  Biso   1.000  O
  H320     1.0000 0.50588  0.98059  0.75349  Biso   1.000  H
  C307     1.0000 0.57744  0.03638  0.81032  Biso   1.000  C
  C308     1.0000 0.55472  0.08844  0.83737  Biso   1.000  C
  C309     1.0000 0.61141  0.94210  0.81630  Biso   1.000  C
  C310     1.0000 0.56181  0.03792  0.86885  Biso   1.000  C
  O62      1.0000 0.52284  0.18645  0.83429  Biso   1.000  O
  C311     1.0000 0.62217  0.89402  0.84839  Biso   1.000  C
  H321     1.0000 0.62775  0.90953  0.79830  Biso   1.000  H
  H322     1.0000 0.54436  0.07000  0.88659  Biso   1.000  H
  C312     1.0000 0.59430  0.94072  0.87493  Biso   1.000  C
  C313     1.0000 0.55169  0.27351  0.81765  Biso   1.000  C
  C314     1.0000 0.66568  0.79698  0.85282  Biso   1.000  C
  C315     1.0000 0.59861  0.89280  0.91079  Biso   1.000  C
  H323     1.0000 0.54069  0.26823  0.79319  Biso   1.000  H
  H324     1.0000 0.59627  0.26823  0.82271  Biso   1.000  H
  C316     1.0000 0.52999  0.38111  0.83014  Biso   1.000  C
  C317     1.0000 0.73299  0.83230  0.85966  Biso   1.000  C
  H325     1.0000 0.65566  0.75280  0.87160  Biso   1.000  H
  H326     1.0000 0.65979  0.75280  0.83241  Biso   1.000  H
  H327     1.0000 0.55826  0.89540  0.91860  Biso   1.000  H
  H328     1.0000 0.61137  0.81736  0.91030  Biso   1.000  H
  C318     1.0000 0.64479  0.95590  0.93519  Biso   1.000  C
  H329     1.0000 0.53897  0.43755  0.81439  Biso   1.000  H
  H330     1.0000 0.48557  0.37819  0.82989  Biso   1.000  H
  O63      1.0000 0.55752  0.41018  0.86358  Biso   1.000  O
  C319     1.0000 0.76458  0.84790  0.89244  Biso   1.000  C
  C320     1.0000 0.76514  0.84928  0.83159  Biso   1.000  C
  C321     1.0000 0.62277  0.04101  0.95359  Biso   1.000  C
  C322     1.0000 0.70846  0.93422  0.93901  Biso   1.000  C
  C323     1.0000 0.61454  0.45940  0.86760  Biso   1.000  C
  C324     1.0000 0.73529  0.83182  0.92494  Biso   1.000  C
  C325     1.0000 0.82662  0.87713  0.89577  Biso   1.000  C
  C326     1.0000 0.82629  0.88257  0.83561  Biso   1.000  C
  H331     1.0000 0.74486  0.83799  0.80981  Biso   1.000  H
  H332     1.0000 0.58035  0.05279  0.95189  Biso   1.000  H
  C327     1.0000 0.66235  0.10858  0.97423  Biso   1.000  C
  C328     1.0000 0.74790  0.00650  0.95845  Biso   1.000  C
  C329     1.0000 0.65057  0.48270  0.84220  Biso   1.000  C
  C330     1.0000 0.63749  0.48725  0.90142  Biso   1.000  C
  H333     1.0000 0.76628  0.80226  0.94229  Biso   1.000  H
  H334     1.0000 0.70257  0.77830  0.92059  Biso   1.000  H
  H335     1.0000 0.84779  0.88501  0.91761  Biso   1.000  H
  C331     1.0000 0.85832  0.89492  0.86811  Biso   1.000  C
  O64      1.0000 0.85899  0.89735  0.80797  Biso   1.000  O
  C332     1.0000 0.72597  0.09469  0.97507  Biso   1.000  C
  O65      1.0000 0.64301  0.18938  0.99454  Biso   1.000  O
  H336     1.0000 0.79026  0.99497  0.96029  Biso   1.000  H
  C333     1.0000 0.70988  0.52712  0.84938  Biso   1.000  C
  H337     1.0000 0.63498  0.46841  0.81971  Biso   1.000  H
  C334     1.0000 0.69612  0.52899  0.90860  Biso   1.000  C
  O66      1.0000 0.59798  0.46670  0.92524  Biso   1.000  O
  O67      1.0000 0.91846  0.92959  0.87157  Biso   1.000  O
  C335     1.0000 0.83239  0.96979  0.78207  Biso   1.000  C
  O68      1.0000 0.76828  0.16039  0.99444  Biso   1.000  O
  C336     1.0000 0.57848  0.18873  0.99884  Biso   1.000  C
  C337     1.0000 0.74610  0.54970  0.81971  Biso   1.000  C
  C338     1.0000 0.73375  0.54653  0.88305  Biso   1.000  C
  H338     1.0000 0.71118  0.54605  0.93099  Biso   1.000  H
  C339     1.0000 0.62127  0.48879  0.95955  Biso   1.000  C
  C340     1.0000 0.96154  0.86942  0.89346  Biso   1.000  C
  C341     1.0000 0.85959  0.08032  0.78945  Biso   1.000  C
  H339     1.0000 0.78788  0.97239  0.78179  Biso   1.000  H
  H340     1.0000 0.84119  0.94502  0.76000  Biso   1.000  H
  C342     1.0000 0.76641  0.27424  0.98502  Biso   1.000  C
  H341     1.0000 0.55347  0.20513  0.97739  Biso   1.000  H
  H342     1.0000 0.56668  0.11767  0.00642  Biso   1.000  H
  C343     1.0000 0.56853  0.27189  0.02462  Biso   1.000  C
  H343     1.0000 0.71887  0.58405  0.80151  Biso   1.000  H
  H344     1.0000 0.77917  0.60029  0.82709  Biso   1.000  H
  C344     1.0000 0.77344  0.44860  0.80601  Biso   1.000  C
  C345     1.0000 0.80052  0.57845  0.89407  Biso   1.000  C
  H345     1.0000 0.65695  0.44429  0.96619  Biso   1.000  H
  H346     1.0000 0.59005  0.47304  0.97390  Biso   1.000  H
  H347     1.0000 0.63267  0.56399  0.96189  Biso   1.000  H
  H348     1.0000 0.94249  0.83637  0.91181  Biso   1.000  H
  H349     1.0000 0.99607  0.91408  0.90300  Biso   1.000  H
  C346     1.0000 0.98178  0.78309  0.86895  Biso   1.000  C
  C347     1.0000 0.97999  0.75678  0.89160  Biso   1.000  C
  H350     1.0000 0.94807  0.87705  0.91570  Biso   1.000  H
  H351     1.0000 0.99978  0.91018  0.89450  Biso   1.000  H
  H352     1.0000 0.85459  0.10184  0.81250  Biso   1.000  H
  H353     1.0000 0.90336  0.07942  0.78731  Biso   1.000  H
  O69      1.0000 0.82813  0.15568  0.76550  Biso   1.000  O
  H354     1.0000 0.73409  0.31111  0.99520  Biso   1.000  H
  H355     1.0000 0.75777  0.28163  0.96049  Biso   1.000  H
  C348     1.0000 0.82819  0.32337  0.99749  Biso   1.000  C
  H356     1.0000 0.59427  0.27148  0.04523  Biso   1.000  H
  C349     1.0000 0.52500  0.34652  0.01971  Biso   1.000  C
  C350     1.0000 0.83218  0.40791  0.81762  Biso   1.000  C
  C351     1.0000 0.73588  0.39224  0.78049  Biso   1.000  C
  H357     1.0000 0.80259  0.62579  0.91379  Biso   1.000  H
  H358     1.0000 0.81609  0.61832  0.87590  Biso   1.000  H
  C352     1.0000 0.84114  0.47905  0.90300  Biso   1.000  C
  C353     1.0000 0.97059  0.68792  0.86752  Biso   1.000  C
  H359     1.0000 0.00618  0.80851  0.85310  Biso   1.000  H
  H360     1.0000 0.00247  0.73031  0.91140  Biso   1.000  H
  C354     1.0000 0.81241  0.25402  0.77909  Biso   1.000  C
  H361     1.0000 0.82418  0.40182  0.99739  Biso   1.000  H
  O70      1.0000 0.87568  0.29381  0.97744  Biso   1.000  O
  H362     1.0000 0.84050  0.30063  0.02083  Biso   1.000  H
  H363     1.0000 0.49867  0.34855  0.99930  Biso   1.000  H
  H364     1.0000 0.52055  0.39703  0.03663  Biso   1.000  H
  C355     1.0000 0.87820  0.46614  0.84386  Biso   1.000  C
  C356     1.0000 0.85033  0.31062  0.80342  Biso   1.000  C
  C357     1.0000 0.75398  0.29568  0.76708  Biso   1.000  C
  H365     1.0000 0.69736  0.42082  0.77230  Biso   1.000  H
  C358     1.0000 0.84086  0.43455  0.93550  Biso   1.000  C
  C359     1.0000 0.87699  0.42959  0.88061  Biso   1.000  C
  H366     1.0000 0.94639  0.65698  0.88269  Biso   1.000  H
  H367     1.0000 0.98597  0.64488  0.85129  Biso   1.000  H
  H368     1.0000 0.94836  0.70789  0.84681  Biso   1.000  H
  H369     1.0000 0.98588  0.61759  0.87060  Biso   1.000  H
  C360     1.0000 0.87522  0.34514  0.94631  Biso   1.000  C
  H370     1.0000 0.91946  0.45469  0.83800  Biso   1.000  H
  H371     1.0000 0.86977  0.54345  0.84251  Biso   1.000  H
  H372     1.0000 0.88960  0.28317  0.81070  Biso   1.000  H
  O71      1.0000 0.71799  0.23567  0.74295  Biso   1.000  O
  H373     1.0000 0.81649  0.46695  0.95031  Biso   1.000  H
  C361     1.0000 0.91417  0.34091  0.89231  Biso   1.000  C
  C362     1.0000 0.91437  0.29933  0.92468  Biso   1.000  C
  C363     1.0000 0.65556  0.27302  0.73405  Biso   1.000  C
  H374     1.0000 0.93948  0.30932  0.87781  Biso   1.000  H
  O72      1.0000 0.94885  0.21277  0.93797  Biso   1.000  O
  H375     1.0000 0.63417  0.27018  0.75379  Biso   1.000  H
  H376     1.0000 0.63489  0.22730  0.71649  Biso   1.000  H
  H377     1.0000 0.65596  0.34643  0.72590  Biso   1.000  H
  C364     1.0000 0.98257  0.15438  0.91547  Biso   1.000  C
  H378     1.0000 0.95487  0.13050  0.89610  Biso   1.000  H
  H379     1.0000 0.00209  0.09258  0.92710  Biso   1.000  H
  H380     1.0000 0.01359  0.20091  0.90799  Biso   1.000  H
  O73      1.0000 0.67878  0.70919  0.23629  Biso   1.000  O
  C365     1.0000 0.64600  0.63253  0.21280  Biso   1.000  C
  C366     1.0000 0.69453  0.80632  0.22207  Biso   1.000  C
  C367     1.0000 0.67333  0.52323  0.21995  Biso   1.000  C
  H381     1.0000 0.64968  0.65348  0.18959  Biso   1.000  H
  H382     1.0000 0.60250  0.63164  0.21570  Biso   1.000  H
  C368     1.0000 0.65521  0.86235  0.19779  Biso   1.000  C
  C369     1.0000 0.75265  0.84871  0.23334  Biso   1.000  C
  O74      1.0000 0.64523  0.45095  0.19451  Biso   1.000  O
  H383     1.0000 0.71760  0.52574  0.21939  Biso   1.000  H
  H384     1.0000 0.66579  0.49870  0.24230  Biso   1.000  H
  C370     1.0000 0.67309  0.95875  0.18326  Biso   1.000  C
  H385     1.0000 0.61591  0.83490  0.19099  Biso   1.000  H
  C371     1.0000 0.77047  0.94470  0.21934  Biso   1.000  C
  O75      1.0000 0.78903  0.78959  0.25757  Biso   1.000  O
  C372     1.0000 0.67683  0.43422  0.16664  Biso   1.000  C
  C373     1.0000 0.73208  0.99992  0.19415  Biso   1.000  C
  C374     1.0000 0.62606  0.01649  0.15760  Biso   1.000  C
  H386     1.0000 0.80919  0.97344  0.22700  Biso   1.000  H
  C375     1.0000 0.85086  0.82694  0.26645  Biso   1.000  C
  C376     1.0000 0.64392  0.44543  0.13447  Biso   1.000  C
  C377     1.0000 0.73781  0.40093  0.16995  Biso   1.000  C
  C378     1.0000 0.75776  0.10175  0.17967  Biso   1.000  C
  C379     1.0000 0.62406  0.98124  0.12063  Biso   1.000  C
  H387     1.0000 0.58530  0.00560  0.16440  Biso   1.000  H
  H388     1.0000 0.63461  0.09380  0.15890  Biso   1.000  H
  H389     1.0000 0.87232  0.82451  0.24680  Biso   1.000  H
  H390     1.0000 0.87169  0.78114  0.28391  Biso   1.000  H
  H391     1.0000 0.85030  0.90019  0.27469  Biso   1.000  H
  O76      1.0000 0.58397  0.48262  0.13109  Biso   1.000  O
  C380     1.0000 0.67335  0.42464  0.10617  Biso   1.000  C
  C381     1.0000 0.76821  0.38062  0.14144  Biso   1.000  C
  H392     1.0000 0.75921  0.39183  0.19160  Biso   1.000  H
  H393     1.0000 0.78608  0.13675  0.19720  Biso   1.000  H
  H394     1.0000 0.72409  0.15186  0.17280  Biso   1.000  H
  C382     1.0000 0.79139  0.07707  0.14908  Biso   1.000  C
  C383     1.0000 0.58632  0.89256  0.10966  Biso   1.000  C
  C384     1.0000 0.65615  0.03411  0.09686  Biso   1.000  C
  C385     1.0000 0.53850  0.41351  0.11371  Biso   1.000  C
  C386     1.0000 0.73518  0.39305  0.10897  Biso   1.000  C
  H395     1.0000 0.65119  0.43203  0.08459  Biso   1.000  H
  C387     1.0000 0.83629  0.34838  0.14768  Biso   1.000  C
  C388     1.0000 0.85150  0.03281  0.15575  Biso   1.000  C
  C389     1.0000 0.76569  0.09453  0.11564  Biso   1.000  C
  C390     1.0000 0.57968  0.85626  0.07640  Biso   1.000  C
  H396     1.0000 0.56512  0.85699  0.12531  Biso   1.000  H
  C391     1.0000 0.64866  0.99659  0.06327  Biso   1.000  C
  C392     1.0000 0.69920  0.13010  0.10559  Biso   1.000  C
  C393     1.0000 0.52020  0.33287  0.13847  Biso   1.000  C
  H397     1.0000 0.55500  0.37664  0.09520  Biso   1.000  H
  H398     1.0000 0.50288  0.45558  0.10419  Biso   1.000  H
  C394     1.0000 0.76301  0.37242  0.07612  Biso   1.000  C
  H399     1.0000 0.84361  0.30534  0.16829  Biso   1.000  H
  H400     1.0000 0.84618  0.30388  0.12890  Biso   1.000  H
  C395     1.0000 0.87825  0.44673  0.15114  Biso   1.000  C
  C396     1.0000 0.88505  0.00731  0.12997  Biso   1.000  C
  H401     1.0000 0.86859  0.02071  0.17819  Biso   1.000  H
  C397     1.0000 0.80169  0.07244  0.08935  Biso   1.000  C
  C398     1.0000 0.61152  0.91018  0.05270  Biso   1.000  C
  O77      1.0000 0.54334  0.77075  0.06398  Biso   1.000  O
  H402     1.0000 0.66972  0.03175  0.04741  Biso   1.000  H
  H403     1.0000 0.69721  0.17809  0.08599  Biso   1.000  H
  H404     1.0000 0.68529  0.17062  0.12419  Biso   1.000  H
  H405     1.0000 0.49969  0.36138  0.15570  Biso   1.000  H
  C399     1.0000 0.52839  0.23291  0.13959  Biso   1.000  C
  C400     1.0000 0.78591  0.47401  0.05973  Biso   1.000  C
  H406     1.0000 0.79730  0.32232  0.08090  Biso   1.000  H
  H407     1.0000 0.73211  0.33758  0.05991  Biso   1.000  H
  C401     1.0000 0.89076  0.49488  0.18326  Biso   1.000  C
  C402     1.0000 0.90309  0.49618  0.12399  Biso   1.000  C
  O78      1.0000 0.94233  0.95834  0.13348  Biso   1.000  O
  C403     1.0000 0.86053  0.03013  0.09604  Biso   1.000  C
  H408     1.0000 0.78538  0.08673  0.06690  Biso   1.000  H
  O79      1.0000 0.60281  0.88290  0.01842  Biso   1.000  O
  C404     1.0000 0.51536  0.70732  0.08790  Biso   1.000  C
  H409     1.0000 0.54868  0.19888  0.12320  Biso   1.000  H
  H410     1.0000 0.51429  0.19214  0.15679  Biso   1.000  H
  C405     1.0000 0.84800  0.50585  0.06365  Biso   1.000  C
  C406     1.0000 0.74355  0.53565  0.03817  Biso   1.000  C
  H411     1.0000 0.87599  0.46151  0.20171  Biso   1.000  H
  C407     1.0000 0.92385  0.58933  0.18880  Biso   1.000  C
  C408     1.0000 0.89693  0.44908  0.08803  Biso   1.000  C
  C409     1.0000 0.93548  0.59298  0.12966  Biso   1.000  C
  C410     1.0000 0.97151  0.93300  0.16694  Biso   1.000  C
  O80      1.0000 0.89813  0.00439  0.07192  Biso   1.000  O
  C411     1.0000 0.62857  0.78122  0.01000  Biso   1.000  C
  H412     1.0000 0.54680  0.67793  0.10449  Biso   1.000  H
  H413     1.0000 0.49229  0.64910  0.07619  Biso   1.000  H
  H414     1.0000 0.48811  0.75223  0.09900  Biso   1.000  H
  C412     1.0000 0.86583  0.59404  0.04474  Biso   1.000  C
  C413     1.0000 0.76090  0.62441  0.02077  Biso   1.000  C
  H415     1.0000 0.70210  0.51567  0.03550  Biso   1.000  H
  C414     1.0000 0.94510  0.64252  0.16114  Biso   1.000  C
  O81      1.0000 0.93386  0.63383  0.22118  Biso   1.000  O
  H416     1.0000 0.93639  0.45493  0.07940  Biso   1.000  H
  H417     1.0000 0.88671  0.37258  0.08899  Biso   1.000  H
  H418     1.0000 0.95137  0.62579  0.11149  Biso   1.000  H
  C415     1.0000 0.94996  0.82784  0.18069  Biso   1.000  C
  H419     1.0000 0.96360  0.99139  0.18219  Biso   1.000  H
  H420     1.0000 0.01579  0.92919  0.16659  Biso   1.000  H
  C416     1.0000 0.87570  0.02842  0.03772  Biso   1.000  C
  C417     1.0000 0.69820  0.78399  0.01382  Biso   1.000  C
  H421     1.0000 0.61541  0.72511  0.02471  Biso   1.000  H
  H422     1.0000 0.61288  0.76263  0.98666  Biso   1.000  H
  H423     1.0000 0.90730  0.61320  0.04670  Biso   1.000  H
  C418     1.0000 0.82328  0.65324  0.02318  Biso   1.000  C
  O82      1.0000 0.71717  0.68199  0.99964  Biso   1.000  O
  O83      1.0000 0.97765  0.73916  0.16417  Biso   1.000  O
  C419     1.0000 0.99430  0.61126  0.23853  Biso   1.000  C
  H424     1.0000 0.96210  0.82435  0.20509  Biso   1.000  H
  H425     1.0000 0.90532  0.82305  0.17631  Biso   1.000  H
  H426     1.0000 0.83930  0.98619  0.03079  Biso   1.000  H
  H427     1.0000 0.90680  0.01113  0.02349  Biso   1.000  H
  H428     1.0000 0.86581  0.10435  0.03560  Biso   1.000  H
  H429     1.0000 0.71252  0.84522  0.00150  Biso   1.000  H
  H430     1.0000 0.71509  0.79024  0.03759  Biso   1.000  H
  O84      1.0000 0.83657  0.74184  0.00425  Biso   1.000  O
  H431     1.0000 0.99928  0.53362  0.24220  Biso   1.000  H
  H432     1.0000 0.02550  0.63562  0.22489  Biso   1.000  H
  C420     1.0000 0.00164  0.66843  0.27144  Biso   1.000  C
  C421     1.0000 0.90018  0.76044  0.99957  Biso   1.000  C
  H433     1.0000 0.97207  0.65698  0.28599  Biso   1.000  H
  C422     1.0000 0.04770  0.73461  0.28134  Biso   1.000  C
  H434     1.0000 0.92529  0.76149  0.02161  Biso   1.000  H
  H435     1.0000 0.90382  0.83084  0.98898  Biso   1.000  H
  C423     1.0000 0.92390  0.67444  0.97781  Biso   1.000  C
  H436     1.0000 0.07791  0.74744  0.26719  Biso   1.000  H
  H437     1.0000 0.05008  0.76864  0.30241  Biso   1.000  H
  H438     1.0000 0.89750  0.64869  0.95928  Biso   1.000  H
  C424     1.0000 0.97811  0.63432  0.98331  Biso   1.000  C
  H439     1.0000 0.99029  0.58113  0.96888  Biso   1.000  H
  H440     1.0000 0.00548  0.65844  0.00171  Biso   1.000  H
  O85      1.0000 0.32115  0.29081  0.76369  Biso   1.000  O
  C425     1.0000 0.30544  0.19368  0.77792  Biso   1.000  C
  C426     1.0000 0.35397  0.36755  0.78718  Biso   1.000  C
  C427     1.0000 0.24733  0.15129  0.76665  Biso   1.000  C
  C428     1.0000 0.34477  0.13773  0.80220  Biso   1.000  C
  C429     1.0000 0.32665  0.47677  0.78003  Biso   1.000  C
  H441     1.0000 0.35025  0.34652  0.81039  Biso   1.000  H
  H442     1.0000 0.39748  0.36844  0.78431  Biso   1.000  H
  O86      1.0000 0.21095  0.21041  0.74244  Biso   1.000  O
  C430     1.0000 0.22950  0.05530  0.78064  Biso   1.000  C
  C431     1.0000 0.32689  0.04134  0.81675  Biso   1.000  C
  H443     1.0000 0.38407  0.16510  0.80899  Biso   1.000  H
  H444     1.0000 0.28237  0.47434  0.78059  Biso   1.000  H
  H445     1.0000 0.33419  0.50130  0.75769  Biso   1.000  H
  O87      1.0000 0.35475  0.54905  0.80548  Biso   1.000  O
  C432     1.0000 0.14912  0.17314  0.73354  Biso   1.000  C
  H446     1.0000 0.19079  0.02664  0.77301  Biso   1.000  H
  C433     1.0000 0.26786  0.00008  0.80586  Biso   1.000  C
  C434     1.0000 0.37391  0.98351  0.84238  Biso   1.000  C
  C435     1.0000 0.32315  0.56578  0.83337  Biso   1.000  C
  H447     1.0000 0.12767  0.17549  0.75321  Biso   1.000  H
  H448     1.0000 0.12829  0.21894  0.71610  Biso   1.000  H
  H449     1.0000 0.14968  0.09981  0.72529  Biso   1.000  H
  C436     1.0000 0.24222  0.89833  0.82034  Biso   1.000  C
  C437     1.0000 0.37592  0.01884  0.87938  Biso   1.000  C
  H450     1.0000 0.41468  0.99440  0.83559  Biso   1.000  H
  H451     1.0000 0.36537  0.90620  0.84111  Biso   1.000  H
  C438     1.0000 0.35607  0.55465  0.86554  Biso   1.000  C
  C439     1.0000 0.26216  0.59907  0.83004  Biso   1.000  C
  H452     1.0000 0.21390  0.86333  0.80281  Biso   1.000  H
  H453     1.0000 0.27589  0.84822  0.82719  Biso   1.000  H
  C440     1.0000 0.20859  0.92301  0.85091  Biso   1.000  C
  C441     1.0000 0.41366  0.10752  0.89033  Biso   1.000  C
  C442     1.0000 0.34382  0.96589  0.90313  Biso   1.000  C
  C443     1.0000 0.32663  0.57544  0.89384  Biso   1.000  C
  O88      1.0000 0.41602  0.51738  0.86892  Biso   1.000  O
  H454     1.0000 0.24077  0.60825  0.80841  Biso   1.000  H
  C444     1.0000 0.23177  0.61938  0.85857  Biso   1.000  C
  C445     1.0000 0.14848  0.96719  0.84426  Biso   1.000  C
  C446     1.0000 0.23429  0.90547  0.88435  Biso   1.000  C
  C447     1.0000 0.42030  0.14382  0.92361  Biso   1.000  C
  H455     1.0000 0.43486  0.14301  0.87470  Biso   1.000  H
  C448     1.0000 0.30078  0.86990  0.89442  Biso   1.000  C
  C449     1.0000 0.35132  0.00341  0.93675  Biso   1.000  C
  C450     1.0000 0.26476  0.60703  0.89104  Biso   1.000  C
  H456     1.0000 0.34878  0.56805  0.91539  Biso   1.000  H
  C451     1.0000 0.46148  0.58649  0.88631  Biso   1.000  C
  C452     1.0000 0.16369  0.65162  0.85231  Biso   1.000  C
  H457     1.0000 0.13138  0.97929  0.82179  Biso   1.000  H
  C453     1.0000 0.11492  0.99269  0.87002  Biso   1.000  C
  C454     1.0000 0.19825  0.92756  0.91066  Biso   1.000  C
  C455     1.0000 0.38846  0.08982  0.94728  Biso   1.000  C
  O89      1.0000 0.45664  0.22933  0.93601  Biso   1.000  O
  H458     1.0000 0.30277  0.82191  0.91399  Biso   1.000  H
  H459     1.0000 0.31469  0.82938  0.87580  Biso   1.000  H
  H460     1.0000 0.33026  0.96833  0.95260  Biso   1.000  H
  C456     1.0000 0.23692  0.62758  0.92387  Biso   1.000  C
  H461     1.0000 0.44498  0.62344  0.90481  Biso   1.000  H
  H462     1.0000 0.49705  0.54442  0.89580  Biso   1.000  H
  C457     1.0000 0.47978  0.66713  0.86152  Biso   1.000  C
  H463     1.0000 0.15637  0.69474  0.83169  Biso   1.000  H
  H464     1.0000 0.15376  0.69612  0.87109  Biso   1.000  H
  C458     1.0000 0.12174  0.55335  0.84887  Biso   1.000  C
  O90      1.0000 0.05765  0.04166  0.86651  Biso   1.000  O
  C459     1.0000 0.13945  0.96987  0.90397  Biso   1.000  C
  H465     1.0000 0.21456  0.91327  0.93311  Biso   1.000  H
  O91      1.0000 0.39717  0.11710  0.98159  Biso   1.000  O
  C460     1.0000 0.48463  0.29268  0.91211  Biso   1.000  C
  C461     1.0000 0.21407  0.52599  0.94026  Biso   1.000  C
  H466     1.0000 0.20269  0.67768  0.91911  Biso   1.000  H
  H467     1.0000 0.26788  0.66242  0.94010  Biso   1.000  H
  H468     1.0000 0.50029  0.63862  0.84429  Biso   1.000  H
  C462     1.0000 0.47160  0.76709  0.86042  Biso   1.000  C
  C463     1.0000 0.10917  0.50512  0.81673  Biso   1.000  C
  C464     1.0000 0.09684  0.50382  0.87602  Biso   1.000  C
  C465     1.0000 0.02843  0.06700  0.83307  Biso   1.000  C
  O92      1.0000 0.10185  0.99561  0.92807  Biso   1.000  O
  C466     1.0000 0.37141  0.21878  0.99001  Biso   1.000  C
  H469     1.0000 0.45317  0.32207  0.89549  Biso   1.000  H
  H470     1.0000 0.50769  0.35090  0.92379  Biso   1.000  H
  H471     1.0000 0.51187  0.24777  0.90099  Biso   1.000  H
  C467     1.0000 0.15193  0.49423  0.93634  Biso   1.000  C
  C468     1.0000 0.25643  0.46443  0.96184  Biso   1.000  C
  H472     1.0000 0.45125  0.80112  0.87679  Biso   1.000  H
  H473     1.0000 0.48569  0.80794  0.84320  Biso   1.000  H
  H474     1.0000 0.12400  0.53849  0.79830  Biso   1.000  H
  C469     1.0000 0.07613  0.41067  0.81121  Biso   1.000  C
  C470     1.0000 0.06445  0.40702  0.87032  Biso   1.000  C
  C471     1.0000 0.10305  0.55092  0.91198  Biso   1.000  C
  C472     1.0000 0.04997  0.17224  0.81930  Biso   1.000  C
  H475     1.0000 0.03638  0.00861  0.81780  Biso   1.000  H
  H476     1.0000 0.98419  0.07081  0.83340  Biso   1.000  H
  C473     1.0000 0.12428  0.97158  0.96227  Biso   1.000  C
  C474     1.0000 0.30178  0.21601  0.98619  Biso   1.000  C
  H477     1.0000 0.38458  0.27489  0.97530  Biso   1.000  H
  H478     1.0000 0.38710  0.23737  0.01332  Biso   1.000  H
  C475     1.0000 0.13416  0.40604  0.95527  Biso   1.000  C
  C476     1.0000 0.23908  0.37559  0.97922  Biso   1.000  C
  H479     1.0000 0.29789  0.48433  0.96451  Biso   1.000  H
  C477     1.0000 0.05488  0.35748  0.83884  Biso   1.000  C
  O93      1.0000 0.06612  0.36625  0.77881  Biso   1.000  O
  H480     1.0000 0.04856  0.37421  0.88849  Biso   1.000  H
  H481     1.0000 0.06358  0.54515  0.92059  Biso   1.000  H
  H482     1.0000 0.11327  0.62742  0.91099  Biso   1.000  H
  H483     1.0000 0.03788  0.17573  0.79489  Biso   1.000  H
  H484     1.0000 0.09466  0.17703  0.82370  Biso   1.000  H
  O94      1.0000 0.02233  0.26084  0.83582  Biso   1.000  O
  H485     1.0000 0.16067  0.01381  0.96919  Biso   1.000  H
  H486     1.0000 0.09318  0.98887  0.97650  Biso   1.000  H
  H487     1.0000 0.13417  0.89573  0.96441  Biso   1.000  H
  H488     1.0000 0.28746  0.15478  0.99851  Biso   1.000  H
  H489     1.0000 0.28488  0.20984  0.96240  Biso   1.000  H
  O95      1.0000 0.28280  0.31809  0.00034  Biso   1.000  O
  C478     1.0000 0.17665  0.34684  0.97683  Biso   1.000  C
  H490     1.0000 0.09268  0.38680  0.95329  Biso   1.000  H
  C479     1.0000 0.00567  0.38883  0.76145  Biso   1.000  C
  O96      1.0000 0.16341  0.25816  0.99574  Biso   1.000  O
  H491     1.0000 0.00065  0.46638  0.75779  Biso   1.000  H
  H492     1.0000 0.97448  0.36438  0.77509  Biso   1.000  H
  C480     1.0000 0.99834  0.33157  0.72855  Biso   1.000  C
  C481     1.0000 0.09980  0.23965  0.00044  Biso   1.000  C
  H493     1.0000 0.02786  0.34302  0.71399  Biso   1.000  H
  C482     1.0000 0.95228  0.26539  0.71867  Biso   1.000  C
  H494     1.0000 0.07465  0.23851  0.97841  Biso   1.000  H
  H495     1.0000 0.09617  0.16924  0.01103  Biso   1.000  H
  C483     1.0000 0.07608  0.32565  0.02218  Biso   1.000  C
  H496     1.0000 0.92207  0.25264  0.73280  Biso   1.000  H
  H497     1.0000 0.94990  0.23144  0.69760  Biso   1.000  H
  H498     1.0000 0.10248  0.35131  0.04073  Biso   1.000  H
  C484     1.0000 0.02188  0.36568  0.01671  Biso   1.000  C
  H499     1.0000 0.99445  0.34164  0.99831  Biso   1.000  H
  H500     1.0000 0.00970  0.41887  0.03114  Biso   1.000  H
