data_image0
_cell_length_a       24.19
_cell_length_b       24.19
_cell_length_c       10.973
_cell_angle_alpha    90
_cell_angle_beta     90
_cell_angle_gamma    120

_symmetry_space_group_name_H-M    "P 1"
_symmetry_int_tables_number       1

loop_
  _symmetry_equiv_pos_as_xyz
  'x, y, z'

loop_
  _atom_site_label
  _atom_site_occupancy
  _atom_site_fract_x
  _atom_site_fract_y
  _atom_site_fract_z
  _atom_site_thermal_displace_type
  _atom_site_B_iso_or_equiv
  _atom_site_type_symbol
  C1       1.0000 0.30691  0.92429  0.58279  Biso   1.000  C
  C2       1.0000 0.32921  0.87951  0.53149  Biso   1.000  C
  C3       1.0000 0.36660  0.97670  0.63547  Biso   1.000  C
  H1       1.0000 0.29040  0.93980  0.51882  Biso   1.000  H
  H2       1.0000 0.27420  0.90309  0.64467  Biso   1.000  H
  N1       1.0000 0.28761  0.83698  0.43452  Biso   1.000  N
  C4       1.0000 0.39500  0.92691  0.48401  Biso   1.000  C
  H3       1.0000 0.33281  0.85421  0.59747  Biso   1.000  H
  C5       1.0000 0.42172  0.97531  0.58289  Biso   1.000  C
  H4       1.0000 0.36629  0.97169  0.72323  Biso   1.000  H
  H5       1.0000 0.36951  0.01732  0.61806  Biso   1.000  H
  C6       1.0000 0.26378  0.77750  0.44837  Biso   1.000  C
  N2       1.0000 0.43049  0.89431  0.45621  Biso   1.000  N
  H6       1.0000 0.39069  0.94691  0.40973  Biso   1.000  H
  H7       1.0000 0.44270  0.96328  0.64394  Biso   1.000  H
  H8       1.0000 0.45231  0.01689  0.55044  Biso   1.000  H
  C7       1.0000 0.22170  0.73129  0.35578  Biso   1.000  C
  H9       1.0000 0.27311  0.76242  0.51900  Biso   1.000  H
  C8       1.0000 0.44402  0.88911  0.34767  Biso   1.000  C
  C9       1.0000 0.18829  0.66819  0.39196  Biso   1.000  C
  C10      1.0000 0.21270  0.74900  0.24004  Biso   1.000  C
  C11      1.0000 0.47568  0.85478  0.30903  Biso   1.000  C
  H10      1.0000 0.43271  0.90882  0.28771  Biso   1.000  H
  C12      1.0000 0.14521  0.62088  0.30903  Biso   1.000  C
  H11      1.0000 0.19391  0.65669  0.46988  Biso   1.000  H
  C13      1.0000 0.17001  0.70232  0.15894  Biso   1.000  C
  H12      1.0000 0.23491  0.79168  0.21653  Biso   1.000  H
  C14      1.0000 0.47988  0.81168  0.39196  Biso   1.000  C
  C15      1.0000 0.50160  0.86099  0.19557  Biso   1.000  C
  C16      1.0000 0.11090  0.55491  0.34767  Biso   1.000  C
  C17      1.0000 0.13898  0.64060  0.19557  Biso   1.000  C
  C18      1.0000 0.16051  0.72060  0.03618  Biso   1.000  C
  C19      1.0000 0.50962  0.77831  0.35578  Biso   1.000  C
  H13      1.0000 0.46278  0.80609  0.46988  Biso   1.000  H
  C20      1.0000 0.53228  0.83001  0.15894  Biso   1.000  C
  H14      1.0000 0.49801  0.88820  0.14044  Biso   1.000  H
  N3       1.0000 0.10572  0.53620  0.45621  Biso   1.000  N
  H15      1.0000 0.09121  0.52389  0.28771  Biso   1.000  H
  H16      1.0000 0.11181  0.60981  0.14044  Biso   1.000  H
  N4       1.0000 0.11792  0.68132  0.96774  Biso   1.000  N
  H17      1.0000 0.18659  0.76218  0.00939  Biso   1.000  H
  C21      1.0000 0.51370  0.73621  0.44837  Biso   1.000  C
  C22      1.0000 0.53631  0.78729  0.24004  Biso   1.000  C
  C23      1.0000 0.56010  0.83951  0.03618  Biso   1.000  C
  C24      1.0000 0.07311  0.46809  0.48401  Biso   1.000  C
  C25      1.0000 0.11210  0.70241  0.84781  Biso   1.000  C
  N5       1.0000 0.54942  0.71239  0.43452  Biso   1.000  N
  H18      1.0000 0.48929  0.72690  0.51900  Biso   1.000  H
  H19      1.0000 0.55679  0.76509  0.21653  Biso   1.000  H
  N6       1.0000 0.56341  0.88209  0.96774  Biso   1.000  N
  H20      1.0000 0.57561  0.81340  0.00939  Biso   1.000  H
  C26      1.0000 0.12051  0.44971  0.53149  Biso   1.000  C
  H21      1.0000 0.05311  0.44379  0.40973  Biso   1.000  H
  C27      1.0000 0.02470  0.44641  0.58289  Biso   1.000  C
  C28      1.0000 0.12111  0.66470  0.75084  Biso   1.000  C
  H22      1.0000 0.14320  0.74791  0.83778  Biso   1.000  H
  C29      1.0000 0.04570  0.69048  0.82420  Biso   1.000  C
  C30      1.0000 0.55029  0.67081  0.53149  Biso   1.000  C
  C31      1.0000 0.59030  0.88791  0.84781  Biso   1.000  C
  N7       1.0000 0.16301  0.45061  0.43452  Biso   1.000  N
  H23      1.0000 0.14578  0.47859  0.59747  Biso   1.000  H
  C32      1.0000 0.07571  0.38259  0.58279  Biso   1.000  C
  C33      1.0000 0.02331  0.38990  0.63547  Biso   1.000  C
  H24      1.0000 0.03668  0.47940  0.64394  Biso   1.000  H
  H25      1.0000 0.98309  0.43539  0.55044  Biso   1.000  H
  N8       1.0000 0.18819  0.68461  0.73426  Biso   1.000  N
  H26      1.0000 0.09692  0.61921  0.77071  Biso   1.000  H
  C34      1.0000 0.09269  0.67831  0.63793  Biso   1.000  C
  C35      1.0000 0.03851  0.68480  0.68659  Biso   1.000  C
  H27      1.0000 0.04111  0.72571  0.85391  Biso   1.000  H
  H28      1.0000 0.01421  0.65148  0.86357  Biso   1.000  H
  C36      1.0000 0.53189  0.60499  0.48401  Biso   1.000  C
  H29      1.0000 0.52140  0.66719  0.59747  Biso   1.000  H
  C37      1.0000 0.61741  0.69311  0.58279  Biso   1.000  C
  C38      1.0000 0.54358  0.87889  0.75084  Biso   1.000  C
  H30      1.0000 0.60471  0.85679  0.83778  Biso   1.000  H
  C39      1.0000 0.64479  0.95431  0.82420  Biso   1.000  C
  C40      1.0000 0.22249  0.48632  0.44837  Biso   1.000  C
  H31      1.0000 0.06022  0.35061  0.51882  Biso   1.000  H
  H32      1.0000 0.09691  0.37109  0.64467  Biso   1.000  H
  H33      1.0000 0.02832  0.39462  0.72323  Biso   1.000  H
  H34      1.0000 0.98271  0.35219  0.61806  Biso   1.000  H
  C41      1.0000 0.20402  0.64260  0.74683  Biso   1.000  C
  H35      1.0000 0.12401  0.71731  0.59810  Biso   1.000  H
  H36      1.0000 0.07760  0.64341  0.58006  Biso   1.000  H
  H37      1.0000 0.99810  0.64771  0.66490  Biso   1.000  H
  H38      1.0000 0.03971  0.72242  0.65288  Biso   1.000  H
  N9       1.0000 0.46380  0.56952  0.45621  Biso   1.000  N
  H39      1.0000 0.55619  0.60928  0.40973  Biso   1.000  H
  C42      1.0000 0.55360  0.57830  0.58289  Biso   1.000  C
  C43      1.0000 0.61008  0.63339  0.63547  Biso   1.000  C
  H40      1.0000 0.64940  0.70962  0.51882  Biso   1.000  H
  H41      1.0000 0.62892  0.72580  0.64467  Biso   1.000  H
  N10      1.0000 0.49640  0.81182  0.73426  Biso   1.000  N
  H42      1.0000 0.52228  0.90309  0.77071  Biso   1.000  H
  C44      1.0000 0.58560  0.90729  0.63793  Biso   1.000  C
  C45      1.0000 0.64632  0.96152  0.68659  Biso   1.000  C
  H43      1.0000 0.68461  0.95889  0.85391  Biso   1.000  H
  H44      1.0000 0.63731  0.98582  0.86357  Biso   1.000  H
  C46      1.0000 0.26867  0.49038  0.35578  Biso   1.000  C
  H45      1.0000 0.23762  0.51071  0.51900  Biso   1.000  H
  C47      1.0000 0.27003  0.65382  0.74428  Biso   1.000  C
  H46      1.0000 0.17129  0.60079  0.75868  Biso   1.000  H
  C48      1.0000 0.44510  0.55601  0.34767  Biso   1.000  C
  H47      1.0000 0.52061  0.55730  0.64394  Biso   1.000  H
  H48      1.0000 0.56459  0.54771  0.55044  Biso   1.000  H
  H49      1.0000 0.64777  0.63048  0.61806  Biso   1.000  H
  H50      1.0000 0.60539  0.63368  0.72323  Biso   1.000  H
  C49      1.0000 0.43861  0.79602  0.74683  Biso   1.000  C
  H51      1.0000 0.59330  0.87598  0.59810  Biso   1.000  H
  H52      1.0000 0.56580  0.92242  0.58006  Biso   1.000  H
  H53      1.0000 0.68270  0.96028  0.65288  Biso   1.000  H
  H54      1.0000 0.64961  0.00190  0.66490  Biso   1.000  H
  C50      1.0000 0.25099  0.46369  0.24004  Biso   1.000  C
  C51      1.0000 0.33182  0.52012  0.39196  Biso   1.000  C
  C52      1.0000 0.28310  0.60432  0.74319  Biso   1.000  C
  C53      1.0000 0.32119  0.71688  0.74319  Biso   1.000  C
  C54      1.0000 0.37911  0.52432  0.30903  Biso   1.000  C
  H55      1.0000 0.47607  0.56728  0.28771  Biso   1.000  H
  C55      1.0000 0.38381  0.73001  0.74428  Biso   1.000  C
  H56      1.0000 0.42949  0.82872  0.75868  Biso   1.000  H
  C56      1.0000 0.29772  0.46770  0.15894  Biso   1.000  C
  H57      1.0000 0.20830  0.44322  0.21653  Biso   1.000  H
  H58      1.0000 0.34330  0.53721  0.46988  Biso   1.000  H
  C57      1.0000 0.34622  0.61621  0.74428  Biso   1.000  C
  H59      1.0000 0.24949  0.56231  0.74182  Biso   1.000  H
  H60      1.0000 0.31278  0.75048  0.74182  Biso   1.000  H
  C58      1.0000 0.35941  0.49840  0.19557  Biso   1.000  C
  C59      1.0000 0.39570  0.67879  0.74319  Biso   1.000  C
  C60      1.0000 0.27941  0.43992  0.03618  Biso   1.000  C
  C61      1.0000 0.35739  0.56141  0.74683  Biso   1.000  C
  H61      1.0000 0.39018  0.50198  0.14044  Biso   1.000  H
  H62      1.0000 0.43768  0.68719  0.74182  Biso   1.000  H
  H63      1.0000 0.23779  0.42441  0.00939  Biso   1.000  H
  N11      1.0000 0.31870  0.43658  0.96774  Biso   1.000  N
  N12      1.0000 0.31538  0.50360  0.73426  Biso   1.000  N
  H64      1.0000 0.39917  0.57048  0.75868  Biso   1.000  H
  C62      1.0000 0.29762  0.40971  0.84781  Biso   1.000  C
  C63      1.0000 0.33531  0.45639  0.75084  Biso   1.000  C
  H65      1.0000 0.25209  0.39529  0.83778  Biso   1.000  H
  C64      1.0000 0.30951  0.35519  0.82420  Biso   1.000  C
  H66      1.0000 0.38080  0.47768  0.77071  Biso   1.000  H
  C65      1.0000 0.32170  0.41438  0.63793  Biso   1.000  C
  H67      1.0000 0.27431  0.31538  0.85391  Biso   1.000  H
  H68      1.0000 0.34848  0.36269  0.86357  Biso   1.000  H
  C66      1.0000 0.31522  0.35371  0.68659  Biso   1.000  C
  H69      1.0000 0.28268  0.40670  0.59810  Biso   1.000  H
  H70      1.0000 0.35662  0.43419  0.58006  Biso   1.000  H
  H71      1.0000 0.35231  0.35042  0.66490  Biso   1.000  H
  H72      1.0000 0.27758  0.31729  0.65288  Biso   1.000  H
  C67      1.0000 0.01029  0.80800  0.07710  Biso   1.000  C
  C68      1.0000 0.95101  0.80619  0.03773  Biso   1.000  C
  N13      1.0000 0.02627  0.81607  0.18710  Biso   1.000  N
  H73      1.0000 0.03589  0.80299  0.01996  Biso   1.000  H
  N14      1.0000 0.02629  0.81612  0.18710  Biso   1.000  N
  C69      1.0000 0.92662  0.78562  0.92290  Biso   1.000  C
  C70      1.0000 0.92278  0.83011  0.11428  Biso   1.000  C
  C71      1.0000 0.08841  0.82610  0.22537  Biso   1.000  C
  C72      1.0000 0.87262  0.78781  0.88800  Biso   1.000  C
  H74      1.0000 0.94580  0.77039  0.86959  Biso   1.000  H
  C73      1.0000 0.86812  0.82991  0.08220  Biso   1.000  C
  H75      1.0000 0.94139  0.84681  0.18947  Biso   1.000  H
  C74      1.0000 0.12808  0.89288  0.26583  Biso   1.000  C
  C75      1.0000 0.12811  0.89292  0.26583  Biso   1.000  C
  H76      1.0000 0.10919  0.81641  0.15884  Biso   1.000  H
  C76      1.0000 0.08282  0.78681  0.33911  Biso   1.000  C
  C77      1.0000 0.84308  0.76619  0.76643  Biso   1.000  C
  C78      1.0000 0.84241  0.80891  0.96892  Biso   1.000  C
  C79      1.0000 0.83888  0.85378  0.17106  Biso   1.000  C
  N15      1.0000 0.15500  0.93827  0.16331  Biso   1.000  N
  N16      1.0000 0.15502  0.93832  0.16331  Biso   1.000  N
  H77      1.0000 0.10210  0.90457  0.31641  Biso   1.000  H
  C80      1.0000 0.17858  0.89159  0.34403  Biso   1.000  C
  H78      1.0000 0.10212  0.90462  0.31641  Biso   1.000  H
  H79      1.0000 0.08599  0.74958  0.31769  Biso   1.000  H
  H80      1.0000 0.04237  0.77287  0.38011  Biso   1.000  H
  C81      1.0000 0.13911  0.83249  0.42058  Biso   1.000  C
  H81      1.0000 0.04239  0.77292  0.38011  Biso   1.000  H
  N17      1.0000 0.86201  0.74089  0.69124  Biso   1.000  N
  H82      1.0000 0.80908  0.77187  0.74519  Biso   1.000  H
  H83      1.0000 0.80911  0.77192  0.74519  Biso   1.000  H
  H84      1.0000 0.80540  0.80882  0.94596  Biso   1.000  H
  N18      1.0000 0.78331  0.84500  0.16331  Biso   1.000  N
  H85      1.0000 0.86349  0.87689  0.23749  Biso   1.000  H
  C82      1.0000 0.14621  0.98510  0.17106  Biso   1.000  C
  H86      1.0000 0.20039  0.92958  0.39424  Biso   1.000  H
  H87      1.0000 0.20968  0.88748  0.29500  Biso   1.000  H
  H88      1.0000 0.12369  0.84309  0.49358  Biso   1.000  H
  H89      1.0000 0.16422  0.81311  0.44427  Biso   1.000  H
  C83      1.0000 0.82899  0.72461  0.57304  Biso   1.000  C
  C84      1.0000 0.76479  0.87187  0.26583  Biso   1.000  C
  C85      1.0000 0.76482  0.87192  0.26583  Biso   1.000  C
  C86      1.0000 0.17010  0.03818  0.08220  Biso   1.000  C
  H90      1.0000 0.12310  0.98658  0.23749  Biso   1.000  H
  C87      1.0000 0.87781  0.75760  0.47079  Biso   1.000  C
  H91      1.0000 0.79640  0.73740  0.57086  Biso   1.000  H
  C88      1.0000 0.79952  0.65401  0.54342  Biso   1.000  C
  H92      1.0000 0.80248  0.89789  0.31641  Biso   1.000  H
  C89      1.0000 0.73769  0.91159  0.22537  Biso   1.000  C
  C90      1.0000 0.71300  0.82137  0.34403  Biso   1.000  C
  C91      1.0000 0.71302  0.82142  0.34403  Biso   1.000  C
  C92      1.0000 0.19112  0.03350  0.96892  Biso   1.000  C
  C93      1.0000 0.16991  0.09269  0.11428  Biso   1.000  C
  N19      1.0000 0.89661  0.82471  0.46004  Biso   1.000  N
  H93      1.0000 0.91551  0.75330  0.48492  Biso   1.000  H
  C94      1.0000 0.84050  0.71779  0.35888  Biso   1.000  C
  C95      1.0000 0.79771  0.65229  0.40654  Biso   1.000  C
  H94      1.0000 0.82563  0.63711  0.57468  Biso   1.000  H
  H95      1.0000 0.75690  0.62972  0.57733  Biso   1.000  H
  N20      1.0000 0.78978  0.97369  0.18710  Biso   1.000  N
  H96      1.0000 0.70719  0.89078  0.15884  Biso   1.000  H
  C96      1.0000 0.70398  0.91717  0.33911  Biso   1.000  C
  H97      1.0000 0.70721  0.89082  0.15884  Biso   1.000  H
  C97      1.0000 0.70400  0.91722  0.33911  Biso   1.000  C
  C98      1.0000 0.69341  0.86089  0.42058  Biso   1.000  C
  H98      1.0000 0.72919  0.79960  0.39424  Biso   1.000  H
  H99      1.0000 0.67778  0.79029  0.29500  Biso   1.000  H
  C99      1.0000 0.21217  0.08477  0.88800  Biso   1.000  C
  C100     1.0000 0.21219  0.08482  0.88800  Biso   1.000  C
  H100     1.0000 0.19119  0.99660  0.94596  Biso   1.000  H
  C101     1.0000 0.19380  0.14477  0.03773  Biso   1.000  C
  C102     1.0000 0.19382  0.14482  0.03773  Biso   1.000  C
  H101     1.0000 0.15321  0.09460  0.18947  Biso   1.000  H
  C103     1.0000 0.95399  0.86581  0.47307  Biso   1.000  C
  H102     1.0000 0.81580  0.73511  0.32252  Biso   1.000  H
  H103     1.0000 0.86941  0.71740  0.29810  Biso   1.000  H
  H104     1.0000 0.81159  0.62351  0.37683  Biso   1.000  H
  H105     1.0000 0.75440  0.63688  0.37838  Biso   1.000  H
  H106     1.0000 0.75443  0.63692  0.37838  Biso   1.000  H
  C104     1.0000 0.79769  0.98968  0.07710  Biso   1.000  C
  H107     1.0000 0.66360  0.91397  0.31769  Biso   1.000  H
  H108     1.0000 0.73052  0.95760  0.38011  Biso   1.000  H
  H109     1.0000 0.66363  0.91402  0.31769  Biso   1.000  H
  H110     1.0000 0.71939  0.87631  0.49358  Biso   1.000  H
  H111     1.0000 0.64890  0.83579  0.44427  Biso   1.000  H
  C105     1.0000 0.23382  0.07689  0.76643  Biso   1.000  C
  C106     1.0000 0.21440  0.14100  0.92290  Biso   1.000  C
  C107     1.0000 0.19201  0.20229  0.07710  Biso   1.000  C
  C108     1.0000 0.97679  0.93398  0.47216  Biso   1.000  C
  C109     1.0000 0.97681  0.93402  0.47216  Biso   1.000  C
  H112     1.0000 0.98352  0.85221  0.48392  Biso   1.000  H
  C110     1.0000 0.85522  0.04902  0.03773  Biso   1.000  C
  H113     1.0000 0.76708  0.96410  0.01996  Biso   1.000  H
  N21      1.0000 0.25910  0.12110  0.69124  Biso   1.000  N
  H114     1.0000 0.22810  0.03718  0.74519  Biso   1.000  H
  H115     1.0000 0.22960  0.17537  0.86959  Biso   1.000  H
  H116     1.0000 0.22963  0.17542  0.86959  Biso   1.000  H
  N22      1.0000 0.18390  0.21022  0.18710  Biso   1.000  N
  H117     1.0000 0.19702  0.23289  0.01996  Biso   1.000  H
  C111     1.0000 0.04191  0.97651  0.47006  Biso   1.000  C
  C112     1.0000 0.93460  0.95808  0.47006  Biso   1.000  C
  C113     1.0000 0.85899  0.07341  0.92290  Biso   1.000  C
  C114     1.0000 0.90730  0.07718  0.11428  Biso   1.000  C
  C115     1.0000 0.27539  0.10439  0.57304  Biso   1.000  C
  C116     1.0000 0.17389  0.26229  0.22537  Biso   1.000  C
  H118     1.0000 0.07011  0.96090  0.46706  Biso   1.000  H
  C117     1.0000 0.06601  0.04281  0.47216  Biso   1.000  C
  H119     1.0000 0.89077  0.92987  0.46706  Biso   1.000  H
  H120     1.0000 0.89080  0.92992  0.46706  Biso   1.000  H
  C118     1.0000 0.95719  0.02319  0.47216  Biso   1.000  C
  C119     1.0000 0.91521  0.12740  0.88800  Biso   1.000  C
  H121     1.0000 0.82461  0.05417  0.86959  Biso   1.000  H
  H122     1.0000 0.82463  0.05422  0.86959  Biso   1.000  H
  C120     1.0000 0.96181  0.13188  0.08220  Biso   1.000  C
  H123     1.0000 0.90541  0.05861  0.18947  Biso   1.000  H
  C121     1.0000 0.24240  0.12019  0.47079  Biso   1.000  C
  H124     1.0000 0.26261  0.05899  0.57086  Biso   1.000  H
  C122     1.0000 0.34600  0.14549  0.54342  Biso   1.000  C
  C123     1.0000 0.10709  0.23518  0.26583  Biso   1.000  C
  H125     1.0000 0.18360  0.29280  0.15884  Biso   1.000  H
  C124     1.0000 0.21319  0.29600  0.33911  Biso   1.000  C
  C125     1.0000 0.13422  0.08821  0.47307  Biso   1.000  C
  C126     1.0000 0.02348  0.06539  0.47006  Biso   1.000  C
  C127     1.0000 0.91180  0.04601  0.47307  Biso   1.000  C
  C128     1.0000 0.92309  0.15690  0.76643  Biso   1.000  C
  C129     1.0000 0.96649  0.15761  0.96892  Biso   1.000  C
  C130     1.0000 0.01490  0.16110  0.17106  Biso   1.000  C
  N23      1.0000 0.17530  0.07188  0.46004  Biso   1.000  N
  H126     1.0000 0.24670  0.16219  0.48492  Biso   1.000  H
  C131     1.0000 0.28217  0.12267  0.35888  Biso   1.000  C
  C132     1.0000 0.28219  0.12272  0.35888  Biso   1.000  C
  C133     1.0000 0.34769  0.14539  0.40654  Biso   1.000  C
  H127     1.0000 0.36291  0.18850  0.57468  Biso   1.000  H
  H128     1.0000 0.37030  0.12721  0.57733  Biso   1.000  H
  N24      1.0000 0.06172  0.21671  0.16331  Biso   1.000  N
  H129     1.0000 0.09539  0.19747  0.31641  Biso   1.000  H
  C134     1.0000 0.10839  0.28697  0.34403  Biso   1.000  C
  H130     1.0000 0.09541  0.19752  0.31641  Biso   1.000  H
  C135     1.0000 0.10841  0.28702  0.34403  Biso   1.000  C
  H131     1.0000 0.25037  0.33638  0.31769  Biso   1.000  H
  H132     1.0000 0.22710  0.26950  0.38011  Biso   1.000  H
  C136     1.0000 0.16748  0.30659  0.42058  Biso   1.000  C
  H133     1.0000 0.14780  0.13131  0.48392  Biso   1.000  H
  H134     1.0000 0.03910  0.10921  0.46706  Biso   1.000  H
  N25      1.0000 0.92809  0.10339  0.46004  Biso   1.000  N
  H135     1.0000 0.86869  0.01651  0.48392  Biso   1.000  H
  N26      1.0000 0.87888  0.13799  0.69124  Biso   1.000  N
  H136     1.0000 0.96278  0.19088  0.74519  Biso   1.000  H
  H137     1.0000 0.00342  0.19461  0.94596  Biso   1.000  H
  H138     1.0000 0.01340  0.13651  0.23749  Biso   1.000  H
  H139     1.0000 0.26491  0.08071  0.32252  Biso   1.000  H
  H140     1.0000 0.28260  0.15198  0.29810  Biso   1.000  H
  H141     1.0000 0.37649  0.18811  0.37683  Biso   1.000  H
  H142     1.0000 0.36310  0.11752  0.37838  Biso   1.000  H
  H143     1.0000 0.07041  0.27079  0.39424  Biso   1.000  H
  H144     1.0000 0.11249  0.32220  0.29500  Biso   1.000  H
  H145     1.0000 0.15691  0.28058  0.49358  Biso   1.000  H
  H146     1.0000 0.18691  0.35108  0.44427  Biso   1.000  H
  C137     1.0000 0.87978  0.12219  0.47079  Biso   1.000  C
  C138     1.0000 0.89558  0.17098  0.57304  Biso   1.000  C
  H147     1.0000 0.83778  0.08448  0.48492  Biso   1.000  H
  C139     1.0000 0.87730  0.15947  0.35888  Biso   1.000  C
  C140     1.0000 0.87732  0.15952  0.35888  Biso   1.000  C
  H148     1.0000 0.94098  0.20358  0.57086  Biso   1.000  H
  C141     1.0000 0.85448  0.20048  0.54342  Biso   1.000  C
  C142     1.0000 0.85460  0.20229  0.40654  Biso   1.000  C
  H149     1.0000 0.91930  0.18420  0.32252  Biso   1.000  H
  H150     1.0000 0.84802  0.13059  0.29810  Biso   1.000  H
  H151     1.0000 0.81152  0.17441  0.57468  Biso   1.000  H
  H152     1.0000 0.87281  0.24311  0.57733  Biso   1.000  H
  H153     1.0000 0.81189  0.18840  0.37683  Biso   1.000  H
  H154     1.0000 0.88249  0.24559  0.37838  Biso   1.000  H
  C143     1.0000 0.01029  0.80800  0.07710  Biso   1.000  C
  C144     1.0000 0.95101  0.80619  0.03773  Biso   1.000  C
  N27      1.0000 0.02627  0.81607  0.18710  Biso   1.000  N
  H155     1.0000 0.03589  0.80299  0.01996  Biso   1.000  H
  N28      1.0000 0.02629  0.81612  0.18710  Biso   1.000  N
  C145     1.0000 0.92662  0.78562  0.92290  Biso   1.000  C
  C146     1.0000 0.92278  0.83011  0.11428  Biso   1.000  C
  C147     1.0000 0.08841  0.82610  0.22537  Biso   1.000  C
  C148     1.0000 0.87262  0.78781  0.88800  Biso   1.000  C
  H156     1.0000 0.94580  0.77039  0.86959  Biso   1.000  H
  C149     1.0000 0.86812  0.82991  0.08220  Biso   1.000  C
  H157     1.0000 0.94139  0.84681  0.18947  Biso   1.000  H
  C150     1.0000 0.12808  0.89288  0.26583  Biso   1.000  C
  C151     1.0000 0.12811  0.89292  0.26583  Biso   1.000  C
  H158     1.0000 0.10919  0.81641  0.15884  Biso   1.000  H
  C152     1.0000 0.08282  0.78681  0.33911  Biso   1.000  C
  C153     1.0000 0.84308  0.76619  0.76643  Biso   1.000  C
  C154     1.0000 0.84241  0.80891  0.96892  Biso   1.000  C
  C155     1.0000 0.83888  0.85378  0.17106  Biso   1.000  C
  N29      1.0000 0.15500  0.93827  0.16331  Biso   1.000  N
  N30      1.0000 0.15502  0.93832  0.16331  Biso   1.000  N
  H159     1.0000 0.10210  0.90457  0.31641  Biso   1.000  H
  C156     1.0000 0.17858  0.89159  0.34403  Biso   1.000  C
  H160     1.0000 0.10212  0.90462  0.31641  Biso   1.000  H
  H161     1.0000 0.08599  0.74958  0.31769  Biso   1.000  H
  H162     1.0000 0.04237  0.77287  0.38011  Biso   1.000  H
  C157     1.0000 0.13911  0.83249  0.42058  Biso   1.000  C
  H163     1.0000 0.04239  0.77292  0.38011  Biso   1.000  H
  N31      1.0000 0.86201  0.74089  0.69124  Biso   1.000  N
  H164     1.0000 0.80908  0.77187  0.74519  Biso   1.000  H
  H165     1.0000 0.80911  0.77192  0.74519  Biso   1.000  H
  H166     1.0000 0.80540  0.80882  0.94596  Biso   1.000  H
  N32      1.0000 0.78331  0.84500  0.16331  Biso   1.000  N
  H167     1.0000 0.86349  0.87689  0.23749  Biso   1.000  H
  C158     1.0000 0.14621  0.98510  0.17106  Biso   1.000  C
  H168     1.0000 0.20039  0.92958  0.39424  Biso   1.000  H
  H169     1.0000 0.20968  0.88748  0.29500  Biso   1.000  H
  H170     1.0000 0.12369  0.84309  0.49358  Biso   1.000  H
  H171     1.0000 0.16422  0.81311  0.44427  Biso   1.000  H
  C159     1.0000 0.82899  0.72461  0.57304  Biso   1.000  C
  C160     1.0000 0.76479  0.87187  0.26583  Biso   1.000  C
  C161     1.0000 0.76482  0.87192  0.26583  Biso   1.000  C
  C162     1.0000 0.17010  0.03818  0.08220  Biso   1.000  C
  H172     1.0000 0.12310  0.98658  0.23749  Biso   1.000  H
  C163     1.0000 0.87781  0.75760  0.47079  Biso   1.000  C
  H173     1.0000 0.79640  0.73740  0.57086  Biso   1.000  H
  C164     1.0000 0.79952  0.65401  0.54342  Biso   1.000  C
  H174     1.0000 0.80248  0.89789  0.31641  Biso   1.000  H
  C165     1.0000 0.73769  0.91159  0.22537  Biso   1.000  C
  C166     1.0000 0.71300  0.82137  0.34403  Biso   1.000  C
  C167     1.0000 0.71302  0.82142  0.34403  Biso   1.000  C
  C168     1.0000 0.19112  0.03350  0.96892  Biso   1.000  C
  C169     1.0000 0.16991  0.09269  0.11428  Biso   1.000  C
  N33      1.0000 0.89661  0.82471  0.46004  Biso   1.000  N
  H175     1.0000 0.91551  0.75330  0.48492  Biso   1.000  H
  C170     1.0000 0.84050  0.71779  0.35888  Biso   1.000  C
  C171     1.0000 0.79771  0.65229  0.40654  Biso   1.000  C
  H176     1.0000 0.82563  0.63711  0.57468  Biso   1.000  H
  H177     1.0000 0.75690  0.62972  0.57733  Biso   1.000  H
  N34      1.0000 0.78978  0.97369  0.18710  Biso   1.000  N
  H178     1.0000 0.70719  0.89078  0.15884  Biso   1.000  H
  C172     1.0000 0.70398  0.91717  0.33911  Biso   1.000  C
  H179     1.0000 0.70721  0.89082  0.15884  Biso   1.000  H
  C173     1.0000 0.70400  0.91722  0.33911  Biso   1.000  C
  C174     1.0000 0.69341  0.86089  0.42058  Biso   1.000  C
  H180     1.0000 0.72919  0.79960  0.39424  Biso   1.000  H
  H181     1.0000 0.67778  0.79029  0.29500  Biso   1.000  H
  C175     1.0000 0.21217  0.08477  0.88800  Biso   1.000  C
  C176     1.0000 0.21219  0.08482  0.88800  Biso   1.000  C
  H182     1.0000 0.19119  0.99660  0.94596  Biso   1.000  H
  C177     1.0000 0.19380  0.14477  0.03773  Biso   1.000  C
  C178     1.0000 0.19382  0.14482  0.03773  Biso   1.000  C
  H183     1.0000 0.15321  0.09460  0.18947  Biso   1.000  H
  C179     1.0000 0.95399  0.86581  0.47307  Biso   1.000  C
  H184     1.0000 0.81580  0.73511  0.32252  Biso   1.000  H
  H185     1.0000 0.86941  0.71740  0.29810  Biso   1.000  H
  H186     1.0000 0.81159  0.62351  0.37683  Biso   1.000  H
  H187     1.0000 0.75440  0.63688  0.37838  Biso   1.000  H
  H188     1.0000 0.75443  0.63692  0.37838  Biso   1.000  H
  C180     1.0000 0.79769  0.98968  0.07710  Biso   1.000  C
  H189     1.0000 0.66360  0.91397  0.31769  Biso   1.000  H
  H190     1.0000 0.73052  0.95760  0.38011  Biso   1.000  H
  H191     1.0000 0.66363  0.91402  0.31769  Biso   1.000  H
  H192     1.0000 0.71939  0.87631  0.49358  Biso   1.000  H
  H193     1.0000 0.64890  0.83579  0.44427  Biso   1.000  H
  C181     1.0000 0.23382  0.07689  0.76643  Biso   1.000  C
  C182     1.0000 0.21440  0.14100  0.92290  Biso   1.000  C
  C183     1.0000 0.19201  0.20229  0.07710  Biso   1.000  C
  C184     1.0000 0.97679  0.93398  0.47216  Biso   1.000  C
  C185     1.0000 0.97681  0.93402  0.47216  Biso   1.000  C
  H194     1.0000 0.98352  0.85221  0.48392  Biso   1.000  H
  C186     1.0000 0.85522  0.04902  0.03773  Biso   1.000  C
  H195     1.0000 0.76708  0.96410  0.01996  Biso   1.000  H
  N35      1.0000 0.25910  0.12110  0.69124  Biso   1.000  N
  H196     1.0000 0.22810  0.03718  0.74519  Biso   1.000  H
  H197     1.0000 0.22960  0.17537  0.86959  Biso   1.000  H
  H198     1.0000 0.22963  0.17542  0.86959  Biso   1.000  H
  N36      1.0000 0.18390  0.21022  0.18710  Biso   1.000  N
  H199     1.0000 0.19702  0.23289  0.01996  Biso   1.000  H
  C187     1.0000 0.04191  0.97651  0.47006  Biso   1.000  C
  C188     1.0000 0.93460  0.95808  0.47006  Biso   1.000  C
  C189     1.0000 0.85899  0.07341  0.92290  Biso   1.000  C
  C190     1.0000 0.90730  0.07718  0.11428  Biso   1.000  C
  C191     1.0000 0.27539  0.10439  0.57304  Biso   1.000  C
  C192     1.0000 0.17389  0.26229  0.22537  Biso   1.000  C
  H200     1.0000 0.07011  0.96090  0.46706  Biso   1.000  H
  C193     1.0000 0.06601  0.04281  0.47216  Biso   1.000  C
  H201     1.0000 0.89077  0.92987  0.46706  Biso   1.000  H
  H202     1.0000 0.89080  0.92992  0.46706  Biso   1.000  H
  C194     1.0000 0.95719  0.02319  0.47216  Biso   1.000  C
  C195     1.0000 0.91521  0.12740  0.88800  Biso   1.000  C
  H203     1.0000 0.82461  0.05417  0.86959  Biso   1.000  H
  H204     1.0000 0.82463  0.05422  0.86959  Biso   1.000  H
  C196     1.0000 0.96181  0.13188  0.08220  Biso   1.000  C
  H205     1.0000 0.90541  0.05861  0.18947  Biso   1.000  H
  C197     1.0000 0.24240  0.12019  0.47079  Biso   1.000  C
  H206     1.0000 0.26261  0.05899  0.57086  Biso   1.000  H
  C198     1.0000 0.34600  0.14549  0.54342  Biso   1.000  C
  C199     1.0000 0.10709  0.23518  0.26583  Biso   1.000  C
  H207     1.0000 0.18360  0.29280  0.15884  Biso   1.000  H
  C200     1.0000 0.21319  0.29600  0.33911  Biso   1.000  C
  C201     1.0000 0.13422  0.08821  0.47307  Biso   1.000  C
  C202     1.0000 0.02348  0.06539  0.47006  Biso   1.000  C
  C203     1.0000 0.91180  0.04601  0.47307  Biso   1.000  C
  C204     1.0000 0.92309  0.15690  0.76643  Biso   1.000  C
  C205     1.0000 0.96649  0.15761  0.96892  Biso   1.000  C
  C206     1.0000 0.01490  0.16110  0.17106  Biso   1.000  C
  N37      1.0000 0.17530  0.07188  0.46004  Biso   1.000  N
  H208     1.0000 0.24670  0.16219  0.48492  Biso   1.000  H
  C207     1.0000 0.28217  0.12267  0.35888  Biso   1.000  C
  C208     1.0000 0.28219  0.12272  0.35888  Biso   1.000  C
  C209     1.0000 0.34769  0.14539  0.40654  Biso   1.000  C
  H209     1.0000 0.36291  0.18850  0.57468  Biso   1.000  H
  H210     1.0000 0.37030  0.12721  0.57733  Biso   1.000  H
  N38      1.0000 0.06172  0.21671  0.16331  Biso   1.000  N
  H211     1.0000 0.09539  0.19747  0.31641  Biso   1.000  H
  C210     1.0000 0.10839  0.28697  0.34403  Biso   1.000  C
  H212     1.0000 0.09541  0.19752  0.31641  Biso   1.000  H
  C211     1.0000 0.10841  0.28702  0.34403  Biso   1.000  C
  H213     1.0000 0.25037  0.33638  0.31769  Biso   1.000  H
  H214     1.0000 0.22710  0.26950  0.38011  Biso   1.000  H
  C212     1.0000 0.16748  0.30659  0.42058  Biso   1.000  C
  H215     1.0000 0.14780  0.13131  0.48392  Biso   1.000  H
  H216     1.0000 0.03910  0.10921  0.46706  Biso   1.000  H
  N39      1.0000 0.92809  0.10339  0.46004  Biso   1.000  N
  H217     1.0000 0.86869  0.01651  0.48392  Biso   1.000  H
  N40      1.0000 0.87888  0.13799  0.69124  Biso   1.000  N
  H218     1.0000 0.96278  0.19088  0.74519  Biso   1.000  H
  H219     1.0000 0.00342  0.19461  0.94596  Biso   1.000  H
  H220     1.0000 0.01340  0.13651  0.23749  Biso   1.000  H
  H221     1.0000 0.26491  0.08071  0.32252  Biso   1.000  H
  H222     1.0000 0.28260  0.15198  0.29810  Biso   1.000  H
  H223     1.0000 0.37649  0.18811  0.37683  Biso   1.000  H
  H224     1.0000 0.36310  0.11752  0.37838  Biso   1.000  H
  H225     1.0000 0.07041  0.27079  0.39424  Biso   1.000  H
  H226     1.0000 0.11249  0.32220  0.29500  Biso   1.000  H
  H227     1.0000 0.15691  0.28058  0.49358  Biso   1.000  H
  H228     1.0000 0.18691  0.35108  0.44427  Biso   1.000  H
  C213     1.0000 0.87978  0.12219  0.47079  Biso   1.000  C
  C214     1.0000 0.89558  0.17098  0.57304  Biso   1.000  C
  H229     1.0000 0.83778  0.08448  0.48492  Biso   1.000  H
  C215     1.0000 0.87730  0.15947  0.35888  Biso   1.000  C
  C216     1.0000 0.87732  0.15952  0.35888  Biso   1.000  C
  H230     1.0000 0.94098  0.20358  0.57086  Biso   1.000  H
  C217     1.0000 0.85448  0.20048  0.54342  Biso   1.000  C
  C218     1.0000 0.85460  0.20229  0.40654  Biso   1.000  C
  H231     1.0000 0.91930  0.18420  0.32252  Biso   1.000  H
  H232     1.0000 0.84802  0.13059  0.29810  Biso   1.000  H
  H233     1.0000 0.81152  0.17441  0.57468  Biso   1.000  H
  H234     1.0000 0.87281  0.24311  0.57733  Biso   1.000  H
  H235     1.0000 0.81189  0.18840  0.37683  Biso   1.000  H
  H236     1.0000 0.88249  0.24559  0.37838  Biso   1.000  H
  C219     1.0000 0.01029  0.80800  0.07710  Biso   1.000  C
  C220     1.0000 0.95101  0.80619  0.03773  Biso   1.000  C
  N41      1.0000 0.02627  0.81607  0.18710  Biso   1.000  N
  H237     1.0000 0.03589  0.80299  0.01996  Biso   1.000  H
  N42      1.0000 0.02629  0.81612  0.18710  Biso   1.000  N
  C221     1.0000 0.92662  0.78562  0.92290  Biso   1.000  C
  C222     1.0000 0.92278  0.83011  0.11428  Biso   1.000  C
  C223     1.0000 0.08841  0.82610  0.22537  Biso   1.000  C
  C224     1.0000 0.87262  0.78781  0.88800  Biso   1.000  C
  H238     1.0000 0.94580  0.77039  0.86959  Biso   1.000  H
  C225     1.0000 0.86812  0.82991  0.08220  Biso   1.000  C
  H239     1.0000 0.94139  0.84681  0.18947  Biso   1.000  H
  C226     1.0000 0.12808  0.89288  0.26583  Biso   1.000  C
  C227     1.0000 0.12811  0.89292  0.26583  Biso   1.000  C
  H240     1.0000 0.10919  0.81641  0.15884  Biso   1.000  H
  C228     1.0000 0.08282  0.78681  0.33911  Biso   1.000  C
  C229     1.0000 0.84308  0.76619  0.76643  Biso   1.000  C
  C230     1.0000 0.84241  0.80891  0.96892  Biso   1.000  C
  C231     1.0000 0.83888  0.85378  0.17106  Biso   1.000  C
  N43      1.0000 0.15500  0.93827  0.16331  Biso   1.000  N
  N44      1.0000 0.15502  0.93832  0.16331  Biso   1.000  N
  H241     1.0000 0.10210  0.90457  0.31641  Biso   1.000  H
  C232     1.0000 0.17858  0.89159  0.34403  Biso   1.000  C
  H242     1.0000 0.10212  0.90462  0.31641  Biso   1.000  H
  H243     1.0000 0.08599  0.74958  0.31769  Biso   1.000  H
  H244     1.0000 0.04237  0.77287  0.38011  Biso   1.000  H
  C233     1.0000 0.13911  0.83249  0.42058  Biso   1.000  C
  H245     1.0000 0.04239  0.77292  0.38011  Biso   1.000  H
  N45      1.0000 0.86201  0.74089  0.69124  Biso   1.000  N
  H246     1.0000 0.80908  0.77187  0.74519  Biso   1.000  H
  H247     1.0000 0.80911  0.77192  0.74519  Biso   1.000  H
  H248     1.0000 0.80540  0.80882  0.94596  Biso   1.000  H
  N46      1.0000 0.78331  0.84500  0.16331  Biso   1.000  N
  H249     1.0000 0.86349  0.87689  0.23749  Biso   1.000  H
  C234     1.0000 0.14621  0.98510  0.17106  Biso   1.000  C
  H250     1.0000 0.20039  0.92958  0.39424  Biso   1.000  H
  H251     1.0000 0.20968  0.88748  0.29500  Biso   1.000  H
  H252     1.0000 0.12369  0.84309  0.49358  Biso   1.000  H
  H253     1.0000 0.16422  0.81311  0.44427  Biso   1.000  H
  C235     1.0000 0.82899  0.72461  0.57304  Biso   1.000  C
  C236     1.0000 0.76479  0.87187  0.26583  Biso   1.000  C
  C237     1.0000 0.76482  0.87192  0.26583  Biso   1.000  C
  C238     1.0000 0.17010  0.03818  0.08220  Biso   1.000  C
  H254     1.0000 0.12310  0.98658  0.23749  Biso   1.000  H
  C239     1.0000 0.87781  0.75760  0.47079  Biso   1.000  C
  H255     1.0000 0.79640  0.73740  0.57086  Biso   1.000  H
  C240     1.0000 0.79952  0.65401  0.54342  Biso   1.000  C
  H256     1.0000 0.80248  0.89789  0.31641  Biso   1.000  H
  C241     1.0000 0.73769  0.91159  0.22537  Biso   1.000  C
  C242     1.0000 0.71300  0.82137  0.34403  Biso   1.000  C
  C243     1.0000 0.71302  0.82142  0.34403  Biso   1.000  C
  C244     1.0000 0.19112  0.03350  0.96892  Biso   1.000  C
  C245     1.0000 0.16991  0.09269  0.11428  Biso   1.000  C
  N47      1.0000 0.89661  0.82471  0.46004  Biso   1.000  N
  H257     1.0000 0.91551  0.75330  0.48492  Biso   1.000  H
  C246     1.0000 0.84050  0.71779  0.35888  Biso   1.000  C
  C247     1.0000 0.79771  0.65229  0.40654  Biso   1.000  C
  H258     1.0000 0.82563  0.63711  0.57468  Biso   1.000  H
  H259     1.0000 0.75690  0.62972  0.57733  Biso   1.000  H
  N48      1.0000 0.78978  0.97369  0.18710  Biso   1.000  N
  H260     1.0000 0.70719  0.89078  0.15884  Biso   1.000  H
  C248     1.0000 0.70398  0.91717  0.33911  Biso   1.000  C
  H261     1.0000 0.70721  0.89082  0.15884  Biso   1.000  H
  C249     1.0000 0.70400  0.91722  0.33911  Biso   1.000  C
  C250     1.0000 0.69341  0.86089  0.42058  Biso   1.000  C
  H262     1.0000 0.72919  0.79960  0.39424  Biso   1.000  H
  H263     1.0000 0.67778  0.79029  0.29500  Biso   1.000  H
  C251     1.0000 0.21217  0.08477  0.88800  Biso   1.000  C
  C252     1.0000 0.21219  0.08482  0.88800  Biso   1.000  C
  H264     1.0000 0.19119  0.99660  0.94596  Biso   1.000  H
  C253     1.0000 0.19380  0.14477  0.03773  Biso   1.000  C
  C254     1.0000 0.19382  0.14482  0.03773  Biso   1.000  C
  H265     1.0000 0.15321  0.09460  0.18947  Biso   1.000  H
  C255     1.0000 0.95399  0.86581  0.47307  Biso   1.000  C
  H266     1.0000 0.81580  0.73511  0.32252  Biso   1.000  H
  H267     1.0000 0.86941  0.71740  0.29810  Biso   1.000  H
  H268     1.0000 0.81159  0.62351  0.37683  Biso   1.000  H
  H269     1.0000 0.75440  0.63688  0.37838  Biso   1.000  H
  H270     1.0000 0.75443  0.63692  0.37838  Biso   1.000  H
  C256     1.0000 0.79769  0.98968  0.07710  Biso   1.000  C
  H271     1.0000 0.66360  0.91397  0.31769  Biso   1.000  H
  H272     1.0000 0.73052  0.95760  0.38011  Biso   1.000  H
  H273     1.0000 0.66363  0.91402  0.31769  Biso   1.000  H
  H274     1.0000 0.71939  0.87631  0.49358  Biso   1.000  H
  H275     1.0000 0.64890  0.83579  0.44427  Biso   1.000  H
  C257     1.0000 0.23382  0.07689  0.76643  Biso   1.000  C
  C258     1.0000 0.21440  0.14100  0.92290  Biso   1.000  C
  C259     1.0000 0.19201  0.20229  0.07710  Biso   1.000  C
  C260     1.0000 0.97679  0.93398  0.47216  Biso   1.000  C
  C261     1.0000 0.97681  0.93402  0.47216  Biso   1.000  C
  H276     1.0000 0.98352  0.85221  0.48392  Biso   1.000  H
  C262     1.0000 0.85522  0.04902  0.03773  Biso   1.000  C
  H277     1.0000 0.76708  0.96410  0.01996  Biso   1.000  H
  N49      1.0000 0.25910  0.12110  0.69124  Biso   1.000  N
  H278     1.0000 0.22810  0.03718  0.74519  Biso   1.000  H
  H279     1.0000 0.22960  0.17537  0.86959  Biso   1.000  H
  H280     1.0000 0.22963  0.17542  0.86959  Biso   1.000  H
  N50      1.0000 0.18390  0.21022  0.18710  Biso   1.000  N
  H281     1.0000 0.19702  0.23289  0.01996  Biso   1.000  H
  C263     1.0000 0.04191  0.97651  0.47006  Biso   1.000  C
  C264     1.0000 0.93460  0.95808  0.47006  Biso   1.000  C
  C265     1.0000 0.85899  0.07341  0.92290  Biso   1.000  C
  C266     1.0000 0.90730  0.07718  0.11428  Biso   1.000  C
  C267     1.0000 0.27539  0.10439  0.57304  Biso   1.000  C
  C268     1.0000 0.17389  0.26229  0.22537  Biso   1.000  C
  H282     1.0000 0.07011  0.96090  0.46706  Biso   1.000  H
  C269     1.0000 0.06601  0.04281  0.47216  Biso   1.000  C
  H283     1.0000 0.89077  0.92987  0.46706  Biso   1.000  H
  H284     1.0000 0.89080  0.92992  0.46706  Biso   1.000  H
  C270     1.0000 0.95719  0.02319  0.47216  Biso   1.000  C
  C271     1.0000 0.91521  0.12740  0.88800  Biso   1.000  C
  H285     1.0000 0.82461  0.05417  0.86959  Biso   1.000  H
  H286     1.0000 0.82463  0.05422  0.86959  Biso   1.000  H
  C272     1.0000 0.96181  0.13188  0.08220  Biso   1.000  C
  H287     1.0000 0.90541  0.05861  0.18947  Biso   1.000  H
  C273     1.0000 0.24240  0.12019  0.47079  Biso   1.000  C
  H288     1.0000 0.26261  0.05899  0.57086  Biso   1.000  H
  C274     1.0000 0.34600  0.14549  0.54342  Biso   1.000  C
  C275     1.0000 0.10709  0.23518  0.26583  Biso   1.000  C
  H289     1.0000 0.18360  0.29280  0.15884  Biso   1.000  H
  C276     1.0000 0.21319  0.29600  0.33911  Biso   1.000  C
  C277     1.0000 0.13422  0.08821  0.47307  Biso   1.000  C
  C278     1.0000 0.02348  0.06539  0.47006  Biso   1.000  C
  C279     1.0000 0.91180  0.04601  0.47307  Biso   1.000  C
  C280     1.0000 0.92309  0.15690  0.76643  Biso   1.000  C
  C281     1.0000 0.96649  0.15761  0.96892  Biso   1.000  C
  C282     1.0000 0.01490  0.16110  0.17106  Biso   1.000  C
  N51      1.0000 0.17530  0.07188  0.46004  Biso   1.000  N
  H290     1.0000 0.24670  0.16219  0.48492  Biso   1.000  H
  C283     1.0000 0.28217  0.12267  0.35888  Biso   1.000  C
  C284     1.0000 0.28219  0.12272  0.35888  Biso   1.000  C
  C285     1.0000 0.34769  0.14539  0.40654  Biso   1.000  C
  H291     1.0000 0.36291  0.18850  0.57468  Biso   1.000  H
  H292     1.0000 0.37030  0.12721  0.57733  Biso   1.000  H
  N52      1.0000 0.06172  0.21671  0.16331  Biso   1.000  N
  H293     1.0000 0.09539  0.19747  0.31641  Biso   1.000  H
  C286     1.0000 0.10839  0.28697  0.34403  Biso   1.000  C
  H294     1.0000 0.09541  0.19752  0.31641  Biso   1.000  H
  C287     1.0000 0.10841  0.28702  0.34403  Biso   1.000  C
  H295     1.0000 0.25037  0.33638  0.31769  Biso   1.000  H
  H296     1.0000 0.22710  0.26950  0.38011  Biso   1.000  H
  C288     1.0000 0.16748  0.30659  0.42058  Biso   1.000  C
  H297     1.0000 0.14780  0.13131  0.48392  Biso   1.000  H
  H298     1.0000 0.03910  0.10921  0.46706  Biso   1.000  H
  N53      1.0000 0.92809  0.10339  0.46004  Biso   1.000  N
  H299     1.0000 0.86869  0.01651  0.48392  Biso   1.000  H
  N54      1.0000 0.87888  0.13799  0.69124  Biso   1.000  N
  H300     1.0000 0.96278  0.19088  0.74519  Biso   1.000  H
  H301     1.0000 0.00342  0.19461  0.94596  Biso   1.000  H
  H302     1.0000 0.01340  0.13651  0.23749  Biso   1.000  H
  H303     1.0000 0.26491  0.08071  0.32252  Biso   1.000  H
  H304     1.0000 0.28260  0.15198  0.29810  Biso   1.000  H
  H305     1.0000 0.37649  0.18811  0.37683  Biso   1.000  H
  H306     1.0000 0.36310  0.11752  0.37838  Biso   1.000  H
  H307     1.0000 0.07041  0.27079  0.39424  Biso   1.000  H
  H308     1.0000 0.11249  0.32220  0.29500  Biso   1.000  H
  H309     1.0000 0.15691  0.28058  0.49358  Biso   1.000  H
  H310     1.0000 0.18691  0.35108  0.44427  Biso   1.000  H
  C289     1.0000 0.87978  0.12219  0.47079  Biso   1.000  C
  C290     1.0000 0.89558  0.17098  0.57304  Biso   1.000  C
  H311     1.0000 0.83778  0.08448  0.48492  Biso   1.000  H
  C291     1.0000 0.87730  0.15947  0.35888  Biso   1.000  C
  C292     1.0000 0.87732  0.15952  0.35888  Biso   1.000  C
  H312     1.0000 0.94098  0.20358  0.57086  Biso   1.000  H
  C293     1.0000 0.85448  0.20048  0.54342  Biso   1.000  C
  C294     1.0000 0.85460  0.20229  0.40654  Biso   1.000  C
  H313     1.0000 0.91930  0.18420  0.32252  Biso   1.000  H
  H314     1.0000 0.84802  0.13059  0.29810  Biso   1.000  H
  H315     1.0000 0.81152  0.17441  0.57468  Biso   1.000  H
  H316     1.0000 0.87281  0.24311  0.57733  Biso   1.000  H
  H317     1.0000 0.81189  0.18840  0.37683  Biso   1.000  H
  H318     1.0000 0.88249  0.24559  0.37838  Biso   1.000  H
  C295     1.0000 0.01029  0.80800  0.07710  Biso   1.000  C
  C296     1.0000 0.95101  0.80619  0.03773  Biso   1.000  C
  N55      1.0000 0.02627  0.81607  0.18710  Biso   1.000  N
  H319     1.0000 0.03589  0.80299  0.01996  Biso   1.000  H
  N56      1.0000 0.02629  0.81612  0.18710  Biso   1.000  N
  C297     1.0000 0.92662  0.78562  0.92290  Biso   1.000  C
  C298     1.0000 0.92278  0.83011  0.11428  Biso   1.000  C
  C299     1.0000 0.08841  0.82610  0.22537  Biso   1.000  C
  C300     1.0000 0.87262  0.78781  0.88800  Biso   1.000  C
  H320     1.0000 0.94580  0.77039  0.86959  Biso   1.000  H
  C301     1.0000 0.86812  0.82991  0.08220  Biso   1.000  C
  H321     1.0000 0.94139  0.84681  0.18947  Biso   1.000  H
  C302     1.0000 0.12808  0.89288  0.26583  Biso   1.000  C
  C303     1.0000 0.12811  0.89292  0.26583  Biso   1.000  C
  H322     1.0000 0.10919  0.81641  0.15884  Biso   1.000  H
  C304     1.0000 0.08282  0.78681  0.33911  Biso   1.000  C
  C305     1.0000 0.84308  0.76619  0.76643  Biso   1.000  C
  C306     1.0000 0.84241  0.80891  0.96892  Biso   1.000  C
  C307     1.0000 0.83888  0.85378  0.17106  Biso   1.000  C
  N57      1.0000 0.15500  0.93827  0.16331  Biso   1.000  N
  N58      1.0000 0.15502  0.93832  0.16331  Biso   1.000  N
  H323     1.0000 0.10210  0.90457  0.31641  Biso   1.000  H
  C308     1.0000 0.17858  0.89159  0.34403  Biso   1.000  C
  H324     1.0000 0.10212  0.90462  0.31641  Biso   1.000  H
  H325     1.0000 0.08599  0.74958  0.31769  Biso   1.000  H
  H326     1.0000 0.04237  0.77287  0.38011  Biso   1.000  H
  C309     1.0000 0.13911  0.83249  0.42058  Biso   1.000  C
  H327     1.0000 0.04239  0.77292  0.38011  Biso   1.000  H
  N59      1.0000 0.86201  0.74089  0.69124  Biso   1.000  N
  H328     1.0000 0.80908  0.77187  0.74519  Biso   1.000  H
  H329     1.0000 0.80911  0.77192  0.74519  Biso   1.000  H
  H330     1.0000 0.80540  0.80882  0.94596  Biso   1.000  H
  N60      1.0000 0.78331  0.84500  0.16331  Biso   1.000  N
  H331     1.0000 0.86349  0.87689  0.23749  Biso   1.000  H
  C310     1.0000 0.14621  0.98510  0.17106  Biso   1.000  C
  H332     1.0000 0.20039  0.92958  0.39424  Biso   1.000  H
  H333     1.0000 0.20968  0.88748  0.29500  Biso   1.000  H
  H334     1.0000 0.12369  0.84309  0.49358  Biso   1.000  H
  H335     1.0000 0.16422  0.81311  0.44427  Biso   1.000  H
  C311     1.0000 0.82899  0.72461  0.57304  Biso   1.000  C
  C312     1.0000 0.76479  0.87187  0.26583  Biso   1.000  C
  C313     1.0000 0.76482  0.87192  0.26583  Biso   1.000  C
  C314     1.0000 0.17010  0.03818  0.08220  Biso   1.000  C
  H336     1.0000 0.12310  0.98658  0.23749  Biso   1.000  H
  C315     1.0000 0.87781  0.75760  0.47079  Biso   1.000  C
  H337     1.0000 0.79640  0.73740  0.57086  Biso   1.000  H
  C316     1.0000 0.79952  0.65401  0.54342  Biso   1.000  C
  H338     1.0000 0.80248  0.89789  0.31641  Biso   1.000  H
  C317     1.0000 0.73769  0.91159  0.22537  Biso   1.000  C
  C318     1.0000 0.71300  0.82137  0.34403  Biso   1.000  C
  C319     1.0000 0.71302  0.82142  0.34403  Biso   1.000  C
  C320     1.0000 0.19112  0.03350  0.96892  Biso   1.000  C
  C321     1.0000 0.16991  0.09269  0.11428  Biso   1.000  C
  N61      1.0000 0.89661  0.82471  0.46004  Biso   1.000  N
  H339     1.0000 0.91551  0.75330  0.48492  Biso   1.000  H
  C322     1.0000 0.84050  0.71779  0.35888  Biso   1.000  C
  C323     1.0000 0.79771  0.65229  0.40654  Biso   1.000  C
  H340     1.0000 0.82563  0.63711  0.57468  Biso   1.000  H
  H341     1.0000 0.75690  0.62972  0.57733  Biso   1.000  H
  N62      1.0000 0.78978  0.97369  0.18710  Biso   1.000  N
  H342     1.0000 0.70719  0.89078  0.15884  Biso   1.000  H
  C324     1.0000 0.70398  0.91717  0.33911  Biso   1.000  C
  H343     1.0000 0.70721  0.89082  0.15884  Biso   1.000  H
  C325     1.0000 0.70400  0.91722  0.33911  Biso   1.000  C
  C326     1.0000 0.69341  0.86089  0.42058  Biso   1.000  C
  H344     1.0000 0.72919  0.79960  0.39424  Biso   1.000  H
  H345     1.0000 0.67778  0.79029  0.29500  Biso   1.000  H
  C327     1.0000 0.21217  0.08477  0.88800  Biso   1.000  C
  C328     1.0000 0.21219  0.08482  0.88800  Biso   1.000  C
  H346     1.0000 0.19119  0.99660  0.94596  Biso   1.000  H
  C329     1.0000 0.19380  0.14477  0.03773  Biso   1.000  C
  C330     1.0000 0.19382  0.14482  0.03773  Biso   1.000  C
  H347     1.0000 0.15321  0.09460  0.18947  Biso   1.000  H
  C331     1.0000 0.95399  0.86581  0.47307  Biso   1.000  C
  H348     1.0000 0.81580  0.73511  0.32252  Biso   1.000  H
  H349     1.0000 0.86941  0.71740  0.29810  Biso   1.000  H
  H350     1.0000 0.81159  0.62351  0.37683  Biso   1.000  H
  H351     1.0000 0.75440  0.63688  0.37838  Biso   1.000  H
  H352     1.0000 0.75443  0.63692  0.37838  Biso   1.000  H
  C332     1.0000 0.79769  0.98968  0.07710  Biso   1.000  C
  H353     1.0000 0.66360  0.91397  0.31769  Biso   1.000  H
  H354     1.0000 0.73052  0.95760  0.38011  Biso   1.000  H
  H355     1.0000 0.66363  0.91402  0.31769  Biso   1.000  H
  H356     1.0000 0.71939  0.87631  0.49358  Biso   1.000  H
  H357     1.0000 0.64890  0.83579  0.44427  Biso   1.000  H
  C333     1.0000 0.23382  0.07689  0.76643  Biso   1.000  C
  C334     1.0000 0.21440  0.14100  0.92290  Biso   1.000  C
  C335     1.0000 0.19201  0.20229  0.07710  Biso   1.000  C
  C336     1.0000 0.97679  0.93398  0.47216  Biso   1.000  C
  C337     1.0000 0.97681  0.93402  0.47216  Biso   1.000  C
  H358     1.0000 0.98352  0.85221  0.48392  Biso   1.000  H
  C338     1.0000 0.85522  0.04902  0.03773  Biso   1.000  C
  H359     1.0000 0.76708  0.96410  0.01996  Biso   1.000  H
  N63      1.0000 0.25910  0.12110  0.69124  Biso   1.000  N
  H360     1.0000 0.22810  0.03718  0.74519  Biso   1.000  H
  H361     1.0000 0.22960  0.17537  0.86959  Biso   1.000  H
  H362     1.0000 0.22963  0.17542  0.86959  Biso   1.000  H
  N64      1.0000 0.18390  0.21022  0.18710  Biso   1.000  N
  H363     1.0000 0.19702  0.23289  0.01996  Biso   1.000  H
  C339     1.0000 0.04191  0.97651  0.47006  Biso   1.000  C
  C340     1.0000 0.93460  0.95808  0.47006  Biso   1.000  C
  C341     1.0000 0.85899  0.07341  0.92290  Biso   1.000  C
  C342     1.0000 0.90730  0.07718  0.11428  Biso   1.000  C
  C343     1.0000 0.27539  0.10439  0.57304  Biso   1.000  C
  C344     1.0000 0.17389  0.26229  0.22537  Biso   1.000  C
  H364     1.0000 0.07011  0.96090  0.46706  Biso   1.000  H
  C345     1.0000 0.06601  0.04281  0.47216  Biso   1.000  C
  H365     1.0000 0.89077  0.92987  0.46706  Biso   1.000  H
  H366     1.0000 0.89080  0.92992  0.46706  Biso   1.000  H
  C346     1.0000 0.95719  0.02319  0.47216  Biso   1.000  C
  C347     1.0000 0.91521  0.12740  0.88800  Biso   1.000  C
  H367     1.0000 0.82461  0.05417  0.86959  Biso   1.000  H
  H368     1.0000 0.82463  0.05422  0.86959  Biso   1.000  H
  C348     1.0000 0.96181  0.13188  0.08220  Biso   1.000  C
  H369     1.0000 0.90541  0.05861  0.18947  Biso   1.000  H
  C349     1.0000 0.24240  0.12019  0.47079  Biso   1.000  C
  H370     1.0000 0.26261  0.05899  0.57086  Biso   1.000  H
  C350     1.0000 0.34600  0.14549  0.54342  Biso   1.000  C
  C351     1.0000 0.10709  0.23518  0.26583  Biso   1.000  C
  H371     1.0000 0.18360  0.29280  0.15884  Biso   1.000  H
  C352     1.0000 0.21319  0.29600  0.33911  Biso   1.000  C
  C353     1.0000 0.13422  0.08821  0.47307  Biso   1.000  C
  C354     1.0000 0.02348  0.06539  0.47006  Biso   1.000  C
  C355     1.0000 0.91180  0.04601  0.47307  Biso   1.000  C
  C356     1.0000 0.92309  0.15690  0.76643  Biso   1.000  C
  C357     1.0000 0.96649  0.15761  0.96892  Biso   1.000  C
  C358     1.0000 0.01490  0.16110  0.17106  Biso   1.000  C
  N65      1.0000 0.17530  0.07188  0.46004  Biso   1.000  N
  H372     1.0000 0.24670  0.16219  0.48492  Biso   1.000  H
  C359     1.0000 0.28217  0.12267  0.35888  Biso   1.000  C
  C360     1.0000 0.28219  0.12272  0.35888  Biso   1.000  C
  C361     1.0000 0.34769  0.14539  0.40654  Biso   1.000  C
  H373     1.0000 0.36291  0.18850  0.57468  Biso   1.000  H
  H374     1.0000 0.37030  0.12721  0.57733  Biso   1.000  H
  N66      1.0000 0.06172  0.21671  0.16331  Biso   1.000  N
  H375     1.0000 0.09539  0.19747  0.31641  Biso   1.000  H
  C362     1.0000 0.10839  0.28697  0.34403  Biso   1.000  C
  H376     1.0000 0.09541  0.19752  0.31641  Biso   1.000  H
  C363     1.0000 0.10841  0.28702  0.34403  Biso   1.000  C
  H377     1.0000 0.25037  0.33638  0.31769  Biso   1.000  H
  H378     1.0000 0.22710  0.26950  0.38011  Biso   1.000  H
  C364     1.0000 0.16748  0.30659  0.42058  Biso   1.000  C
  H379     1.0000 0.14780  0.13131  0.48392  Biso   1.000  H
  H380     1.0000 0.03910  0.10921  0.46706  Biso   1.000  H
  N67      1.0000 0.92809  0.10339  0.46004  Biso   1.000  N
  H381     1.0000 0.86869  0.01651  0.48392  Biso   1.000  H
  N68      1.0000 0.87888  0.13799  0.69124  Biso   1.000  N
  H382     1.0000 0.96278  0.19088  0.74519  Biso   1.000  H
  H383     1.0000 0.00342  0.19461  0.94596  Biso   1.000  H
  H384     1.0000 0.01340  0.13651  0.23749  Biso   1.000  H
  H385     1.0000 0.26491  0.08071  0.32252  Biso   1.000  H
  H386     1.0000 0.28260  0.15198  0.29810  Biso   1.000  H
  H387     1.0000 0.37649  0.18811  0.37683  Biso   1.000  H
  H388     1.0000 0.36310  0.11752  0.37838  Biso   1.000  H
  H389     1.0000 0.07041  0.27079  0.39424  Biso   1.000  H
  H390     1.0000 0.11249  0.32220  0.29500  Biso   1.000  H
  H391     1.0000 0.15691  0.28058  0.49358  Biso   1.000  H
  H392     1.0000 0.18691  0.35108  0.44427  Biso   1.000  H
  C365     1.0000 0.87978  0.12219  0.47079  Biso   1.000  C
  C366     1.0000 0.89558  0.17098  0.57304  Biso   1.000  C
  H393     1.0000 0.83778  0.08448  0.48492  Biso   1.000  H
  C367     1.0000 0.87730  0.15947  0.35888  Biso   1.000  C
  C368     1.0000 0.87732  0.15952  0.35888  Biso   1.000  C
  H394     1.0000 0.94098  0.20358  0.57086  Biso   1.000  H
  C369     1.0000 0.85448  0.20048  0.54342  Biso   1.000  C
  C370     1.0000 0.85460  0.20229  0.40654  Biso   1.000  C
  H395     1.0000 0.91930  0.18420  0.32252  Biso   1.000  H
  H396     1.0000 0.84802  0.13059  0.29810  Biso   1.000  H
  H397     1.0000 0.81152  0.17441  0.57468  Biso   1.000  H
  H398     1.0000 0.87281  0.24311  0.57733  Biso   1.000  H
  H399     1.0000 0.81189  0.18840  0.37683  Biso   1.000  H
  H400     1.0000 0.88249  0.24559  0.37838  Biso   1.000  H
  C371     1.0000 0.37830  0.35710  0.32616  Biso   1.000  C
  C372     1.0000 0.36748  0.34388  0.19457  Biso   1.000  C
  C373     1.0000 0.44680  0.36942  0.35123  Biso   1.000  C
  H401     1.0000 0.34708  0.32078  0.37319  Biso   1.000  H
  H402     1.0000 0.37498  0.39419  0.34776  Biso   1.000  H
  H403     1.0000 0.36149  0.37639  0.15511  Biso   1.000  H
  H404     1.0000 0.32960  0.30269  0.18117  Biso   1.000  H
  C374     1.0000 0.42612  0.34402  0.14262  Biso   1.000  C
  C375     1.0000 0.45471  0.32951  0.25198  Biso   1.000  C
  N69      1.0000 0.45140  0.34679  0.47207  Biso   1.000  N
  H405     1.0000 0.47839  0.41481  0.34147  Biso   1.000  H
  H406     1.0000 0.41401  0.31152  0.08038  Biso   1.000  H
  H407     1.0000 0.45582  0.38522  0.10799  Biso   1.000  H
  N70      1.0000 0.52191  0.34989  0.23421  Biso   1.000  N
  H408     1.0000 0.43039  0.28402  0.27240  Biso   1.000  H
  C376     1.0000 0.49000  0.38761  0.54488  Biso   1.000  C
  C377     1.0000 0.53721  0.30832  0.24260  Biso   1.000  C
  C378     1.0000 0.49682  0.36851  0.66764  Biso   1.000  C
  H409     1.0000 0.51429  0.42999  0.52091  Biso   1.000  H
  C379     1.0000 0.60452  0.32140  0.23448  Biso   1.000  C
  H410     1.0000 0.50492  0.26631  0.25472  Biso   1.000  H
  C380     1.0000 0.46509  0.30579  0.70601  Biso   1.000  C
  C381     1.0000 0.53672  0.41491  0.74747  Biso   1.000  C
  C382     1.0000 0.61620  0.27108  0.23576  Biso   1.000  C
  C383     1.0000 0.65489  0.38379  0.23576  Biso   1.000  C
  H411     1.0000 0.43701  0.27419  0.65306  Biso   1.000  H
  C384     1.0000 0.47449  0.28879  0.82311  Biso   1.000  C
  C385     1.0000 0.54551  0.39949  0.86676  Biso   1.000  C
  H412     1.0000 0.55841  0.45720  0.72241  Biso   1.000  H
  H413     1.0000 0.58241  0.22932  0.23749  Biso   1.000  H
  C386     1.0000 0.67860  0.28311  0.23448  Biso   1.000  C
  C387     1.0000 0.71688  0.39548  0.23448  Biso   1.000  C
  H414     1.0000 0.64691  0.41758  0.23749  Biso   1.000  H
  C388     1.0000 0.51589  0.33619  0.90121  Biso   1.000  C
  C389     1.0000 0.44042  0.22082  0.85838  Biso   1.000  C
  C390     1.0000 0.59012  0.44961  0.95416  Biso   1.000  C
  C391     1.0000 0.72891  0.34512  0.23576  Biso   1.000  C
  C392     1.0000 0.69171  0.22889  0.24260  Biso   1.000  C
  C393     1.0000 0.77108  0.46279  0.24260  Biso   1.000  C
  H415     1.0000 0.52392  0.32531  0.97785  Biso   1.000  H
  N71      1.0000 0.44161  0.20120  0.96273  Biso   1.000  N
  H416     1.0000 0.41648  0.19080  0.79914  Biso   1.000  H
  N72      1.0000 0.61580  0.50809  0.93584  Biso   1.000  N
  H417     1.0000 0.59919  0.43601  0.02698  Biso   1.000  H
  H418     1.0000 0.77068  0.35309  0.23749  Biso   1.000  H
  N73      1.0000 0.65011  0.17199  0.23421  Biso   1.000  N
  H419     1.0000 0.73367  0.23858  0.25472  Biso   1.000  H
  N74      1.0000 0.82802  0.47811  0.23421  Biso   1.000  N
  H420     1.0000 0.76140  0.49510  0.25472  Biso   1.000  H
  C394     1.0000 0.40829  0.13390  0.98114  Biso   1.000  C
  C395     1.0000 0.65820  0.54890  0.03099  Biso   1.000  C
  C396     1.0000 0.67050  0.12521  0.25198  Biso   1.000  C
  C397     1.0000 0.87481  0.54532  0.25198  Biso   1.000  C
  H421     1.0000 0.38781  0.11179  0.90522  Biso   1.000  H
  C398     1.0000 0.35919  0.11442  0.08202  Biso   1.000  C
  C399     1.0000 0.45110  0.10931  0.03099  Biso   1.000  C
  C400     1.0000 0.72562  0.59172  0.98114  Biso   1.000  C
  C401     1.0000 0.64102  0.59821  0.07282  Biso   1.000  C
  H422     1.0000 0.65869  0.52341  0.09997  Biso   1.000  H
  H423     1.0000 0.71599  0.14640  0.27240  Biso   1.000  H
  C402     1.0000 0.63059  0.07738  0.35123  Biso   1.000  C
  C403     1.0000 0.65602  0.08210  0.14262  Biso   1.000  C
  H424     1.0000 0.85360  0.56962  0.27240  Biso   1.000  H
  C404     1.0000 0.92261  0.55320  0.35123  Biso   1.000  C
  C405     1.0000 0.91792  0.57391  0.14262  Biso   1.000  C
  H425     1.0000 0.37580  0.14449  0.14909  Biso   1.000  H
  H426     1.0000 0.32037  0.11218  0.05213  Biso   1.000  H
  C406     1.0000 0.34712  0.05141  0.12048  Biso   1.000  C
  N75      1.0000 0.49188  0.10769  0.93584  Biso   1.000  N
  C407     1.0000 0.40181  0.04282  0.07282  Biso   1.000  C
  H427     1.0000 0.47661  0.13528  0.09997  Biso   1.000  H
  N76      1.0000 0.75960  0.55840  0.96273  Biso   1.000  N
  H428     1.0000 0.72400  0.61220  0.90522  Biso   1.000  H
  C408     1.0000 0.75520  0.64079  0.08202  Biso   1.000  C
  C409     1.0000 0.70430  0.65291  0.12048  Biso   1.000  C
  H429     1.0000 0.60900  0.58122  0.13679  Biso   1.000  H
  H430     1.0000 0.62491  0.61220  0.00547  Biso   1.000  H
  N77      1.0000 0.65320  0.10459  0.47207  Biso   1.000  N
  H431     1.0000 0.58520  0.06358  0.34147  Biso   1.000  H
  C410     1.0000 0.64288  0.02119  0.32616  Biso   1.000  C
  C411     1.0000 0.65611  0.02358  0.19457  Biso   1.000  C
  H432     1.0000 0.68849  0.10249  0.08038  Biso   1.000  H
  H433     1.0000 0.61480  0.07060  0.10799  Biso   1.000  H
  N78      1.0000 0.89539  0.54861  0.47207  Biso   1.000  N
  H434     1.0000 0.93641  0.52160  0.34147  Biso   1.000  H
  C412     1.0000 0.97881  0.62170  0.32616  Biso   1.000  C
  C413     1.0000 0.97639  0.63248  0.19457  Biso   1.000  C
  H435     1.0000 0.89750  0.58599  0.08038  Biso   1.000  H
  H436     1.0000 0.92941  0.54422  0.10799  Biso   1.000  H
  H437     1.0000 0.30671  0.01838  0.08749  Biso   1.000  H
  H438     1.0000 0.34499  0.04831  0.20860  Biso   1.000  H
  C414     1.0000 0.55040  0.14048  0.95416  Biso   1.000  C
  H439     1.0000 0.41881  0.02778  0.13679  Biso   1.000  H
  H440     1.0000 0.38779  0.01270  0.00547  Biso   1.000  H
  C415     1.0000 0.78042  0.55959  0.85838  Biso   1.000  C
  H441     1.0000 0.76868  0.62418  0.14909  Biso   1.000  H
  H442     1.0000 0.79180  0.67960  0.05213  Biso   1.000  H
  H443     1.0000 0.71172  0.69330  0.08749  Biso   1.000  H
  H444     1.0000 0.70332  0.65501  0.20860  Biso   1.000  H
  C416     1.0000 0.61238  0.10239  0.54488  Biso   1.000  C
  H445     1.0000 0.67921  0.02630  0.37319  Biso   1.000  H
  H446     1.0000 0.60582  0.98081  0.34776  Biso   1.000  H
  H447     1.0000 0.69730  0.02692  0.18117  Biso   1.000  H
  H448     1.0000 0.62360  0.98511  0.15511  Biso   1.000  H
  C417     1.0000 0.89758  0.51000  0.54488  Biso   1.000  C
  H449     1.0000 0.97371  0.65291  0.37319  Biso   1.000  H
  H450     1.0000 0.01919  0.62499  0.34776  Biso   1.000  H
  H451     1.0000 0.97310  0.67039  0.18117  Biso   1.000  H
  H452     1.0000 0.01491  0.63850  0.15511  Biso   1.000  H
  C418     1.0000 0.60050  0.14602  0.86676  Biso   1.000  C
  H453     1.0000 0.56399  0.16320  0.02698  Biso   1.000  H
  C419     1.0000 0.81431  0.52551  0.82311  Biso   1.000  C
  H454     1.0000 0.77431  0.58351  0.79914  Biso   1.000  H
  C420     1.0000 0.63150  0.12831  0.66764  Biso   1.000  C
  H455     1.0000 0.57001  0.08430  0.52091  Biso   1.000  H
  C421     1.0000 0.87170  0.50322  0.66764  Biso   1.000  C
  H456     1.0000 0.91569  0.48570  0.52091  Biso   1.000  H
  C422     1.0000 0.66382  0.17972  0.90121  Biso   1.000  C
  C423     1.0000 0.58509  0.12182  0.74747  Biso   1.000  C
  C424     1.0000 0.84071  0.53491  0.70601  Biso   1.000  C
  C425     1.0000 0.82029  0.48408  0.90121  Biso   1.000  C
  C426     1.0000 0.69420  0.15929  0.70601  Biso   1.000  C
  C427     1.0000 0.87820  0.46331  0.74747  Biso   1.000  C
  C428     1.0000 0.71120  0.18569  0.82311  Biso   1.000  C
  H457     1.0000 0.67471  0.19862  0.97785  Biso   1.000  H
  H458     1.0000 0.54279  0.10120  0.72241  Biso   1.000  H
  H459     1.0000 0.83718  0.56298  0.65306  Biso   1.000  H
  H460     1.0000 0.80138  0.47611  0.97785  Biso   1.000  H
  C429     1.0000 0.85399  0.45448  0.86676  Biso   1.000  C
  H461     1.0000 0.72581  0.16282  0.65306  Biso   1.000  H
  H462     1.0000 0.89880  0.44159  0.72241  Biso   1.000  H
  C430     1.0000 0.77920  0.21958  0.85838  Biso   1.000  C
  C431     1.0000 0.85952  0.40990  0.95416  Biso   1.000  C
  N79      1.0000 0.79878  0.24039  0.96273  Biso   1.000  N
  H463     1.0000 0.80921  0.22569  0.79914  Biso   1.000  H
  N80      1.0000 0.89231  0.38422  0.93584  Biso   1.000  N
  H464     1.0000 0.83681  0.40078  0.02698  Biso   1.000  H
  C432     1.0000 0.86609  0.27438  0.98114  Biso   1.000  C
  C433     1.0000 0.89069  0.34178  0.03099  Biso   1.000  C
  H465     1.0000 0.88819  0.27600  0.90522  Biso   1.000  H
  C434     1.0000 0.88560  0.24478  0.08202  Biso   1.000  C
  C435     1.0000 0.95722  0.35901  0.07282  Biso   1.000  C
  H466     1.0000 0.86470  0.34130  0.09997  Biso   1.000  H
  H467     1.0000 0.85551  0.23132  0.14909  Biso   1.000  H
  H468     1.0000 0.88782  0.20822  0.05213  Biso   1.000  H
  C436     1.0000 0.94860  0.29572  0.12048  Biso   1.000  C
  H469     1.0000 0.97218  0.39099  0.13679  Biso   1.000  H
  H470     1.0000 0.98730  0.37510  0.00547  Biso   1.000  H
  H471     1.0000 0.98161  0.28832  0.08749  Biso   1.000  H
  H472     1.0000 0.95171  0.29672  0.20860  Biso   1.000  H
