data_image0
_cell_length_a       24.215
_cell_length_b       24.214
_cell_length_c       10.988
_cell_angle_alpha    90
_cell_angle_beta     90
_cell_angle_gamma    120

_symmetry_space_group_name_H-M    "P 1"
_symmetry_int_tables_number       1

loop_
  _symmetry_equiv_pos_as_xyz
  'x, y, z'

loop_
  _atom_site_label
  _atom_site_occupancy
  _atom_site_fract_x
  _atom_site_fract_y
  _atom_site_fract_z
  _atom_site_thermal_displace_type
  _atom_site_B_iso_or_equiv
  _atom_site_type_symbol
  C1       1.0000 0.86985  0.78512  0.89152  Biso   1.000  C
  C2       1.0000 0.84215  0.76490  0.76711  Biso   1.000  C
  C3       1.0000 0.84219  0.76490  0.76711  Biso   1.000  C
  C4       1.0000 0.92435  0.78369  0.92683  Biso   1.000  C
  C5       1.0000 0.83998  0.80682  0.97133  Biso   1.000  C
  C6       1.0000 0.92439  0.78369  0.92683  Biso   1.000  C
  N1       1.0000 0.86467  0.74139  0.69421  Biso   1.000  N
  C7       1.0000 0.86987  0.78508  0.89152  Biso   1.000  C
  H1       1.0000 0.80719  0.76982  0.74299  Biso   1.000  H
  H2       1.0000 0.80715  0.76982  0.74299  Biso   1.000  H
  C8       1.0000 0.86989  0.78512  0.89152  Biso   1.000  C
  H3       1.0000 0.94454  0.76939  0.87131  Biso   1.000  H
  H4       1.0000 0.94456  0.76943  0.87131  Biso   1.000  H
  H5       1.0000 0.94458  0.76939  0.87131  Biso   1.000  H
  H6       1.0000 0.94460  0.76943  0.87131  Biso   1.000  H
  C9       1.0000 0.94899  0.80282  0.04159  Biso   1.000  C
  C10      1.0000 0.94894  0.80282  0.04159  Biso   1.000  C
  H7       1.0000 0.80296  0.80801  0.94712  Biso   1.000  H
  H8       1.0000 0.80300  0.80801  0.94712  Biso   1.000  H
  C11      1.0000 0.86548  0.82642  0.08637  Biso   1.000  C
  C12      1.0000 0.83514  0.72427  0.57171  Biso   1.000  C
  C13      1.0000 0.83520  0.72432  0.57171  Biso   1.000  C
  C14      1.0000 0.83518  0.72427  0.57171  Biso   1.000  C
  C15      1.0000 0.91933  0.82528  0.12241  Biso   1.000  C
  C16      1.0000 0.91940  0.82532  0.12241  Biso   1.000  C
  C17      1.0000 0.91937  0.82528  0.12241  Biso   1.000  C
  C18      1.0000 0.00860  0.80468  0.08191  Biso   1.000  C
  C19      1.0000 0.00862  0.80472  0.08191  Biso   1.000  C
  C20      1.0000 0.00856  0.80468  0.08191  Biso   1.000  C
  C21      1.0000 0.83777  0.85079  0.17910  Biso   1.000  C
  C22      1.0000 0.83783  0.85084  0.17910  Biso   1.000  C
  C23      1.0000 0.83779  0.85084  0.17910  Biso   1.000  C
  C24      1.0000 0.80776  0.65408  0.54432  Biso   1.000  C
  C25      1.0000 0.80778  0.65413  0.54432  Biso   1.000  C
  C26      1.0000 0.88475  0.75751  0.47379  Biso   1.000  C
  C27      1.0000 0.88479  0.75751  0.47379  Biso   1.000  C
  H9       1.0000 0.80115  0.73601  0.56462  Biso   1.000  H
  H10      1.0000 0.80119  0.73601  0.56462  Biso   1.000  H
  H11      1.0000 0.93656  0.83958  0.20140  Biso   1.000  H
  H12      1.0000 0.93663  0.83963  0.20140  Biso   1.000  H
  H13      1.0000 0.93659  0.83963  0.20140  Biso   1.000  H
  N2       1.0000 0.02468  0.81479  0.19439  Biso   1.000  N
  H14      1.0000 0.03452  0.79862  0.02485  Biso   1.000  H
  N3       1.0000 0.02470  0.81483  0.19439  Biso   1.000  N
  H15      1.0000 0.03448  0.79862  0.02485  Biso   1.000  H
  N4       1.0000 0.02474  0.81483  0.19439  Biso   1.000  N
  N5       1.0000 0.78265  0.84488  0.16736  Biso   1.000  N
  H16      1.0000 0.86215  0.87149  0.24954  Biso   1.000  H
  N6       1.0000 0.78268  0.84492  0.16736  Biso   1.000  N
  H17      1.0000 0.86222  0.87153  0.24954  Biso   1.000  H
  N7       1.0000 0.78269  0.84488  0.16736  Biso   1.000  N
  H18      1.0000 0.86220  0.87149  0.24954  Biso   1.000  H
  H19      1.0000 0.86218  0.87153  0.24954  Biso   1.000  H
  C28      1.0000 0.81153  0.64907  0.41081  Biso   1.000  C
  H20      1.0000 0.83284  0.63758  0.58591  Biso   1.000  H
  H21      1.0000 0.76295  0.62938  0.57199  Biso   1.000  H
  H22      1.0000 0.83290  0.63763  0.58591  Biso   1.000  H
  H23      1.0000 0.76302  0.62942  0.57199  Biso   1.000  H
  C29      1.0000 0.81160  0.64912  0.41081  Biso   1.000  C
  H24      1.0000 0.83288  0.63758  0.58591  Biso   1.000  H
  H25      1.0000 0.76299  0.62938  0.57199  Biso   1.000  H
  C30      1.0000 0.81158  0.64907  0.41081  Biso   1.000  C
  H26      1.0000 0.76298  0.62942  0.57199  Biso   1.000  H
  C31      1.0000 0.85206  0.71741  0.36149  Biso   1.000  C
  C32      1.0000 0.85210  0.71741  0.36149  Biso   1.000  C
  N8       1.0000 0.90134  0.82399  0.46059  Biso   1.000  N
  H27      1.0000 0.92396  0.75508  0.49317  Biso   1.000  H
  N9       1.0000 0.90141  0.82404  0.46059  Biso   1.000  N
  H28      1.0000 0.92403  0.75513  0.49317  Biso   1.000  H
  N10      1.0000 0.90138  0.82399  0.46059  Biso   1.000  N
  H29      1.0000 0.92399  0.75513  0.49317  Biso   1.000  H
  C33      1.0000 0.08739  0.82499  0.22834  Biso   1.000  C
  C34      1.0000 0.08741  0.82504  0.22834  Biso   1.000  C
  C35      1.0000 0.08737  0.82504  0.22834  Biso   1.000  C
  C36      1.0000 0.76246  0.87048  0.26756  Biso   1.000  C
  C37      1.0000 0.76252  0.87053  0.26756  Biso   1.000  C
  C38      1.0000 0.76248  0.87053  0.26756  Biso   1.000  C
  H30      1.0000 0.76836  0.62838  0.37468  Biso   1.000  H
  H31      1.0000 0.83167  0.62327  0.39043  Biso   1.000  H
  H32      1.0000 0.76842  0.62842  0.37468  Biso   1.000  H
  H33      1.0000 0.83170  0.62332  0.39043  Biso   1.000  H
  H34      1.0000 0.76838  0.62842  0.37468  Biso   1.000  H
  H35      1.0000 0.88377  0.71979  0.30178  Biso   1.000  H
  H36      1.0000 0.82479  0.73190  0.32190  Biso   1.000  H
  H37      1.0000 0.88373  0.71979  0.30178  Biso   1.000  H
  C39      1.0000 0.95785  0.86581  0.47379  Biso   1.000  C
  C40      1.0000 0.95789  0.86581  0.47379  Biso   1.000  C
  H38      1.0000 0.10701  0.81450  0.15854  Biso   1.000  H
  C41      1.0000 0.08233  0.78422  0.34101  Biso   1.000  C
  C42      1.0000 0.12948  0.89199  0.26756  Biso   1.000  C
  C43      1.0000 0.08228  0.78422  0.34101  Biso   1.000  C
  C44      1.0000 0.12950  0.89204  0.26756  Biso   1.000  C
  H39      1.0000 0.10696  0.81450  0.15854  Biso   1.000  H
  H40      1.0000 0.80046  0.89619  0.32062  Biso   1.000  H
  C45      1.0000 0.71046  0.82132  0.34565  Biso   1.000  C
  C46      1.0000 0.73755  0.91259  0.22834  Biso   1.000  C
  H41      1.0000 0.80053  0.89624  0.32062  Biso   1.000  H
  C47      1.0000 0.71050  0.82132  0.34565  Biso   1.000  C
  C48      1.0000 0.73761  0.91264  0.22834  Biso   1.000  C
  C49      1.0000 0.73759  0.91259  0.22834  Biso   1.000  C
  H42      1.0000 0.80048  0.89624  0.32062  Biso   1.000  H
  C50      1.0000 0.98018  0.93501  0.47124  Biso   1.000  C
  H43      1.0000 0.98855  0.85279  0.48626  Biso   1.000  H
  H44      1.0000 0.98862  0.85284  0.48626  Biso   1.000  H
  H45      1.0000 0.98859  0.85279  0.48626  Biso   1.000  H
  H46      1.0000 0.98857  0.85284  0.48626  Biso   1.000  H
  H47      1.0000 0.08760  0.74759  0.31753  Biso   1.000  H
  H48      1.0000 0.04060  0.76791  0.38196  Biso   1.000  H
  C51      1.0000 0.13811  0.83129  0.42592  Biso   1.000  C
  C52      1.0000 0.13809  0.83133  0.42592  Biso   1.000  C
  C53      1.0000 0.13807  0.83129  0.42592  Biso   1.000  C
  H49      1.0000 0.08755  0.74759  0.31753  Biso   1.000  H
  H50      1.0000 0.04056  0.76791  0.38196  Biso   1.000  H
  C54      1.0000 0.13814  0.83133  0.42592  Biso   1.000  C
  N11      1.0000 0.15512  0.93782  0.16736  Biso   1.000  N
  H51      1.0000 0.10379  0.90429  0.32062  Biso   1.000  H
  C55      1.0000 0.17870  0.88918  0.34565  Biso   1.000  C
  N12      1.0000 0.15508  0.93782  0.16736  Biso   1.000  N
  H52      1.0000 0.10381  0.90434  0.32062  Biso   1.000  H
  C56      1.0000 0.17868  0.88923  0.34565  Biso   1.000  C
  C57      1.0000 0.17866  0.88918  0.34565  Biso   1.000  C
  H53      1.0000 0.72596  0.79747  0.39498  Biso   1.000  H
  H54      1.0000 0.67368  0.79080  0.29605  Biso   1.000  H
  C58      1.0000 0.69317  0.86190  0.42592  Biso   1.000  C
  H55      1.0000 0.72602  0.79752  0.39498  Biso   1.000  H
  C59      1.0000 0.69321  0.86190  0.42592  Biso   1.000  C
  H56      1.0000 0.72598  0.79752  0.39498  Biso   1.000  H
  N13      1.0000 0.79005  0.97530  0.19439  Biso   1.000  N
  H57      1.0000 0.70747  0.89299  0.15854  Biso   1.000  H
  C60      1.0000 0.70186  0.91769  0.34101  Biso   1.000  C
  N14      1.0000 0.79009  0.97530  0.19439  Biso   1.000  N
  H58      1.0000 0.70750  0.89304  0.15854  Biso   1.000  H
  C61      1.0000 0.70192  0.91774  0.34101  Biso   1.000  C
  C62      1.0000 0.70190  0.91769  0.34101  Biso   1.000  C
  C63      1.0000 0.70188  0.91774  0.34101  Biso   1.000  C
  C64      1.0000 0.93527  0.95561  0.47215  Biso   1.000  C
  C65      1.0000 0.93531  0.95561  0.47215  Biso   1.000  C
  C66      1.0000 0.04440  0.97969  0.47215  Biso   1.000  C
  C67      1.0000 0.04442  0.97974  0.47215  Biso   1.000  C
  C68      1.0000 0.04436  0.97969  0.47215  Biso   1.000  C
  H59      1.0000 0.12150  0.84340  0.49727  Biso   1.000  H
  H60      1.0000 0.16330  0.81188  0.45495  Biso   1.000  H
  H61      1.0000 0.16329  0.81192  0.45495  Biso   1.000  H
  H62      1.0000 0.16326  0.81188  0.45495  Biso   1.000  H
  H63      1.0000 0.12145  0.84340  0.49727  Biso   1.000  H
  C69      1.0000 0.14918  0.98698  0.17910  Biso   1.000  C
  C70      1.0000 0.14920  0.98703  0.17910  Biso   1.000  C
  C71      1.0000 0.14916  0.98703  0.17910  Biso   1.000  C
  H64      1.0000 0.20250  0.92852  0.39498  Biso   1.000  H
  H65      1.0000 0.20917  0.88288  0.29605  Biso   1.000  H
  H66      1.0000 0.20919  0.88293  0.29605  Biso   1.000  H
  H67      1.0000 0.20924  0.88293  0.29605  Biso   1.000  H
  H68      1.0000 0.72186  0.87850  0.49727  Biso   1.000  H
  H69      1.0000 0.64857  0.83672  0.45495  Biso   1.000  H
  H70      1.0000 0.72191  0.87850  0.49727  Biso   1.000  H
  H71      1.0000 0.64861  0.83672  0.45495  Biso   1.000  H
  C72      1.0000 0.79608  0.99142  0.08191  Biso   1.000  C
  C73      1.0000 0.79612  0.99142  0.08191  Biso   1.000  C
  H72      1.0000 0.65998  0.91240  0.31753  Biso   1.000  H
  H73      1.0000 0.72726  0.95942  0.38196  Biso   1.000  H
  H74      1.0000 0.65994  0.91240  0.31753  Biso   1.000  H
  H75      1.0000 0.72731  0.95942  0.38196  Biso   1.000  H
  H76      1.0000 0.89097  0.92499  0.47343  Biso   1.000  H
  H77      1.0000 0.89095  0.92504  0.47343  Biso   1.000  H
  H78      1.0000 0.89099  0.92504  0.47343  Biso   1.000  H
  C74      1.0000 0.95477  0.01979  0.47124  Biso   1.000  C
  C75      1.0000 0.95483  0.01984  0.47124  Biso   1.000  C
  C76      1.0000 0.95479  0.01984  0.47124  Biso   1.000  C
  H79      1.0000 0.07501  0.96600  0.47343  Biso   1.000  H
  H80      1.0000 0.07497  0.96600  0.47343  Biso   1.000  H
  C77      1.0000 0.06502  0.04521  0.47124  Biso   1.000  C
  C78      1.0000 0.06497  0.04521  0.47124  Biso   1.000  C
  H81      1.0000 0.12849  0.99070  0.24954  Biso   1.000  H
  C79      1.0000 0.17359  0.03911  0.08637  Biso   1.000  C
  H82      1.0000 0.76406  0.96552  0.02485  Biso   1.000  H
  H83      1.0000 0.76410  0.96552  0.02485  Biso   1.000  H
  C80      1.0000 0.85374  0.05098  0.04159  Biso   1.000  C
  C81      1.0000 0.85380  0.05103  0.04159  Biso   1.000  C
  C82      1.0000 0.85378  0.05098  0.04159  Biso   1.000  C
  C83      1.0000 0.90786  0.04211  0.47379  Biso   1.000  C
  C84      1.0000 0.90790  0.04211  0.47379  Biso   1.000  C
  C85      1.0000 0.02030  0.06471  0.47215  Biso   1.000  C
  C86      1.0000 0.13421  0.09209  0.47379  Biso   1.000  C
  C87      1.0000 0.13419  0.09213  0.47379  Biso   1.000  C
  C88      1.0000 0.13423  0.09213  0.47379  Biso   1.000  C
  C89      1.0000 0.19318  0.03319  0.97133  Biso   1.000  C
  C90      1.0000 0.19320  0.03324  0.97133  Biso   1.000  C
  C91      1.0000 0.19325  0.03324  0.97133  Biso   1.000  C
  C92      1.0000 0.17469  0.09409  0.12241  Biso   1.000  C
  C93      1.0000 0.17472  0.09414  0.12241  Biso   1.000  C
  C94      1.0000 0.85927  0.07559  0.92683  Biso   1.000  C
  C95      1.0000 0.85929  0.07563  0.92683  Biso   1.000  C
  C96      1.0000 0.90587  0.08059  0.12241  Biso   1.000  C
  C97      1.0000 0.90590  0.08064  0.12241  Biso   1.000  C
  N15      1.0000 0.92257  0.09862  0.46059  Biso   1.000  N
  H84      1.0000 0.86418  0.01140  0.48626  Biso   1.000  H
  N16      1.0000 0.92261  0.09862  0.46059  Biso   1.000  N
  H85      1.0000 0.03402  0.10902  0.47343  Biso   1.000  H
  H86      1.0000 0.03398  0.10902  0.47343  Biso   1.000  H
  N17      1.0000 0.17601  0.07740  0.46059  Biso   1.000  N
  H87      1.0000 0.14720  0.13582  0.48626  Biso   1.000  H
  N18      1.0000 0.17597  0.07740  0.46059  Biso   1.000  N
  H88      1.0000 0.14724  0.13582  0.48626  Biso   1.000  H
  C98      1.0000 0.21489  0.08479  0.89152  Biso   1.000  C
  C99      1.0000 0.21491  0.08484  0.89152  Biso   1.000  C
  H89      1.0000 0.19201  0.99500  0.94712  Biso   1.000  H
  H90      1.0000 0.19199  0.99504  0.94712  Biso   1.000  H
  H91      1.0000 0.19196  0.99500  0.94712  Biso   1.000  H
  H92      1.0000 0.19203  0.99504  0.94712  Biso   1.000  H
  C100     1.0000 0.19720  0.14621  0.04159  Biso   1.000  C
  H93      1.0000 0.16041  0.09700  0.20140  Biso   1.000  H
  H94      1.0000 0.16037  0.09700  0.20140  Biso   1.000  H
  C101     1.0000 0.91514  0.13009  0.89152  Biso   1.000  C
  C102     1.0000 0.91520  0.13014  0.89152  Biso   1.000  C
  C103     1.0000 0.91518  0.13009  0.89152  Biso   1.000  C
  H95      1.0000 0.82482  0.05542  0.87131  Biso   1.000  H
  H96      1.0000 0.82477  0.05542  0.87131  Biso   1.000  H
  H97      1.0000 0.90303  0.06343  0.20140  Biso   1.000  H
  C104     1.0000 0.96088  0.13453  0.08637  Biso   1.000  C
  H98      1.0000 0.90299  0.06343  0.20140  Biso   1.000  H
  C105     1.0000 0.96092  0.13453  0.08637  Biso   1.000  C
  C106     1.0000 0.87268  0.11522  0.47379  Biso   1.000  C
  C107     1.0000 0.24252  0.12733  0.47379  Biso   1.000  C
  C108     1.0000 0.24248  0.12733  0.47379  Biso   1.000  C
  C109     1.0000 0.23510  0.07730  0.76711  Biso   1.000  C
  C110     1.0000 0.23506  0.07730  0.76711  Biso   1.000  C
  C111     1.0000 0.21630  0.14073  0.92683  Biso   1.000  C
  C112     1.0000 0.19528  0.20391  0.08191  Biso   1.000  C
  C113     1.0000 0.19532  0.20391  0.08191  Biso   1.000  C
  C114     1.0000 0.92267  0.15780  0.76711  Biso   1.000  C
  C115     1.0000 0.96676  0.15999  0.97133  Biso   1.000  C
  C116     1.0000 0.96682  0.16004  0.97133  Biso   1.000  C
  C117     1.0000 0.96678  0.16004  0.97133  Biso   1.000  C
  C118     1.0000 0.01299  0.16219  0.17910  Biso   1.000  C
  C119     1.0000 0.01302  0.16224  0.17910  Biso   1.000  C
  H99      1.0000 0.83107  0.07602  0.49317  Biso   1.000  H
  C120     1.0000 0.88909  0.16481  0.57171  Biso   1.000  C
  C121     1.0000 0.86529  0.14793  0.36149  Biso   1.000  C
  H100     1.0000 0.83111  0.07602  0.49317  Biso   1.000  H
  H101     1.0000 0.24489  0.16891  0.49317  Biso   1.000  H
  C122     1.0000 0.27569  0.11092  0.57171  Biso   1.000  C
  C123     1.0000 0.28260  0.13472  0.36149  Biso   1.000  C
  N19      1.0000 0.25860  0.12332  0.69421  Biso   1.000  N
  H102     1.0000 0.23017  0.03739  0.74299  Biso   1.000  H
  H103     1.0000 0.23020  0.03744  0.74299  Biso   1.000  H
  H104     1.0000 0.23024  0.03744  0.74299  Biso   1.000  H
  H105     1.0000 0.23061  0.17521  0.87131  Biso   1.000  H
  H106     1.0000 0.23057  0.17521  0.87131  Biso   1.000  H
  N20      1.0000 0.18520  0.20992  0.19439  Biso   1.000  N
  H107     1.0000 0.20141  0.23591  0.02485  Biso   1.000  H
  H108     1.0000 0.20137  0.23591  0.02485  Biso   1.000  H
  N21      1.0000 0.87665  0.13529  0.69421  Biso   1.000  N
  N22      1.0000 0.87671  0.13534  0.69421  Biso   1.000  N
  N23      1.0000 0.87669  0.13529  0.69421  Biso   1.000  N
  N24      1.0000 0.87667  0.13534  0.69421  Biso   1.000  N
  H109     1.0000 0.96255  0.19280  0.74299  Biso   1.000  H
  H110     1.0000 0.96260  0.19280  0.74299  Biso   1.000  H
  H111     1.0000 0.00500  0.19700  0.94712  Biso   1.000  H
  H112     1.0000 0.00502  0.19705  0.94712  Biso   1.000  H
  H113     1.0000 0.00496  0.19700  0.94712  Biso   1.000  H
  N25      1.0000 0.06219  0.21731  0.16736  Biso   1.000  N
  H114     1.0000 0.00932  0.13782  0.24954  Biso   1.000  H
  H115     1.0000 0.00927  0.13782  0.24954  Biso   1.000  H
  H116     1.0000 0.93475  0.19881  0.56462  Biso   1.000  H
  C124     1.0000 0.84631  0.19223  0.54432  Biso   1.000  C
  H117     1.0000 0.93479  0.19881  0.56462  Biso   1.000  H
  C125     1.0000 0.84627  0.19223  0.54432  Biso   1.000  C
  C126     1.0000 0.83746  0.18842  0.41081  Biso   1.000  C
  H118     1.0000 0.83601  0.11622  0.30178  Biso   1.000  H
  H119     1.0000 0.90705  0.17521  0.32190  Biso   1.000  H
  C127     1.0000 0.83750  0.18842  0.41081  Biso   1.000  C
  H120     1.0000 0.90709  0.17521  0.32190  Biso   1.000  H
  H121     1.0000 0.83597  0.11622  0.30178  Biso   1.000  H
  H122     1.0000 0.26398  0.06519  0.56462  Biso   1.000  H
  C128     1.0000 0.34589  0.15370  0.54432  Biso   1.000  C
  H123     1.0000 0.26400  0.06524  0.56462  Biso   1.000  H
  C129     1.0000 0.34592  0.15375  0.54432  Biso   1.000  C
  C130     1.0000 0.34585  0.15370  0.54432  Biso   1.000  C
  C131     1.0000 0.35088  0.16252  0.41081  Biso   1.000  C
  H124     1.0000 0.28018  0.16400  0.30178  Biso   1.000  H
  H125     1.0000 0.26809  0.09290  0.32190  Biso   1.000  H
  H126     1.0000 0.28020  0.16405  0.30178  Biso   1.000  H
  H127     1.0000 0.26811  0.09295  0.32190  Biso   1.000  H
  C132     1.0000 0.35092  0.16252  0.41081  Biso   1.000  C
  H128     1.0000 0.28024  0.16405  0.30178  Biso   1.000  H
  C133     1.0000 0.17502  0.26243  0.22834  Biso   1.000  C
  C134     1.0000 0.17498  0.26243  0.22834  Biso   1.000  C
  C135     1.0000 0.10800  0.23749  0.26756  Biso   1.000  C
  C136     1.0000 0.10798  0.23753  0.26756  Biso   1.000  C
  C137     1.0000 0.10796  0.23749  0.26756  Biso   1.000  C
  C138     1.0000 0.10802  0.23753  0.26756  Biso   1.000  C
  H129     1.0000 0.80471  0.16710  0.58591  Biso   1.000  H
  H130     1.0000 0.86638  0.23701  0.57199  Biso   1.000  H
  H131     1.0000 0.80473  0.16715  0.58591  Biso   1.000  H
  H132     1.0000 0.80467  0.16710  0.58591  Biso   1.000  H
  H133     1.0000 0.80469  0.16715  0.58591  Biso   1.000  H
  H134     1.0000 0.85997  0.23162  0.37468  Biso   1.000  H
  H135     1.0000 0.79155  0.16829  0.39043  Biso   1.000  H
  H136     1.0000 0.86001  0.23162  0.37468  Biso   1.000  H
  H137     1.0000 0.79162  0.16834  0.39043  Biso   1.000  H
  H138     1.0000 0.79160  0.16829  0.39043  Biso   1.000  H
  H139     1.0000 0.79158  0.16834  0.39043  Biso   1.000  H
  H140     1.0000 0.36241  0.19533  0.58591  Biso   1.000  H
  H141     1.0000 0.37059  0.13362  0.57199  Biso   1.000  H
  H142     1.0000 0.36237  0.19533  0.58591  Biso   1.000  H
  H143     1.0000 0.37063  0.13362  0.57199  Biso   1.000  H
  H144     1.0000 0.37159  0.14001  0.37468  Biso   1.000  H
  H145     1.0000 0.37667  0.20840  0.39043  Biso   1.000  H
  H146     1.0000 0.37669  0.20844  0.39043  Biso   1.000  H
  H147     1.0000 0.37671  0.20840  0.39043  Biso   1.000  H
  H148     1.0000 0.37673  0.20844  0.39043  Biso   1.000  H
  H149     1.0000 0.18548  0.29252  0.15854  Biso   1.000  H
  C139     1.0000 0.21578  0.29810  0.34101  Biso   1.000  C
  C140     1.0000 0.21580  0.29814  0.34101  Biso   1.000  C
  H150     1.0000 0.18553  0.29252  0.15854  Biso   1.000  H
  C141     1.0000 0.21584  0.29814  0.34101  Biso   1.000  C
  H151     1.0000 0.09571  0.19953  0.32062  Biso   1.000  H
  C142     1.0000 0.11080  0.28951  0.34565  Biso   1.000  C
  H152     1.0000 0.09567  0.19953  0.32062  Biso   1.000  H
  C143     1.0000 0.11076  0.28951  0.34565  Biso   1.000  C
  H153     1.0000 0.25239  0.34001  0.31753  Biso   1.000  H
  H154     1.0000 0.23212  0.27273  0.38196  Biso   1.000  H
  C144     1.0000 0.16868  0.30682  0.42592  Biso   1.000  C
  H155     1.0000 0.23208  0.27273  0.38196  Biso   1.000  H
  H156     1.0000 0.25243  0.34001  0.31753  Biso   1.000  H
  C145     1.0000 0.16873  0.30682  0.42592  Biso   1.000  C
  H157     1.0000 0.07150  0.27401  0.39498  Biso   1.000  H
  H158     1.0000 0.11711  0.32633  0.29605  Biso   1.000  H
  H159     1.0000 0.07146  0.27401  0.39498  Biso   1.000  H
  H160     1.0000 0.11707  0.32633  0.29605  Biso   1.000  H
  H161     1.0000 0.15660  0.27812  0.49727  Biso   1.000  H
  H162     1.0000 0.18809  0.35141  0.45495  Biso   1.000  H
  H163     1.0000 0.15656  0.27812  0.49727  Biso   1.000  H
  H164     1.0000 0.18813  0.35141  0.45495  Biso   1.000  H
  C146     1.0000 0.86985  0.78512  0.89152  Biso   1.000  C
  C147     1.0000 0.84219  0.76490  0.76711  Biso   1.000  C
  C148     1.0000 0.84215  0.76490  0.76711  Biso   1.000  C
  C149     1.0000 0.83998  0.80682  0.97133  Biso   1.000  C
  C150     1.0000 0.92439  0.78369  0.92683  Biso   1.000  C
  C151     1.0000 0.92435  0.78369  0.92683  Biso   1.000  C
  N26      1.0000 0.86467  0.74139  0.69421  Biso   1.000  N
  C152     1.0000 0.86987  0.78508  0.89152  Biso   1.000  C
  H165     1.0000 0.80719  0.76982  0.74299  Biso   1.000  H
  H166     1.0000 0.80715  0.76982  0.74299  Biso   1.000  H
  C153     1.0000 0.86989  0.78512  0.89152  Biso   1.000  C
  H167     1.0000 0.80300  0.80801  0.94712  Biso   1.000  H
  H168     1.0000 0.80296  0.80801  0.94712  Biso   1.000  H
  C154     1.0000 0.86548  0.82642  0.08637  Biso   1.000  C
  H169     1.0000 0.94454  0.76939  0.87131  Biso   1.000  H
  H170     1.0000 0.94456  0.76943  0.87131  Biso   1.000  H
  H171     1.0000 0.94458  0.76939  0.87131  Biso   1.000  H
  H172     1.0000 0.94460  0.76943  0.87131  Biso   1.000  H
  C155     1.0000 0.94899  0.80282  0.04159  Biso   1.000  C
  C156     1.0000 0.94894  0.80282  0.04159  Biso   1.000  C
  C157     1.0000 0.83520  0.72432  0.57171  Biso   1.000  C
  C158     1.0000 0.83514  0.72427  0.57171  Biso   1.000  C
  C159     1.0000 0.83518  0.72427  0.57171  Biso   1.000  C
  C160     1.0000 0.91933  0.82528  0.12241  Biso   1.000  C
  C161     1.0000 0.83777  0.85079  0.17910  Biso   1.000  C
  C162     1.0000 0.91940  0.82532  0.12241  Biso   1.000  C
  C163     1.0000 0.83783  0.85084  0.17910  Biso   1.000  C
  C164     1.0000 0.91937  0.82528  0.12241  Biso   1.000  C
  C165     1.0000 0.83779  0.85084  0.17910  Biso   1.000  C
  C166     1.0000 0.00860  0.80468  0.08191  Biso   1.000  C
  C167     1.0000 0.00862  0.80472  0.08191  Biso   1.000  C
  C168     1.0000 0.00856  0.80468  0.08191  Biso   1.000  C
  C169     1.0000 0.80776  0.65408  0.54432  Biso   1.000  C
  C170     1.0000 0.80778  0.65413  0.54432  Biso   1.000  C
  C171     1.0000 0.88475  0.75751  0.47379  Biso   1.000  C
  C172     1.0000 0.88479  0.75751  0.47379  Biso   1.000  C
  H173     1.0000 0.80119  0.73601  0.56462  Biso   1.000  H
  H174     1.0000 0.80115  0.73601  0.56462  Biso   1.000  H
  H175     1.0000 0.93656  0.83958  0.20140  Biso   1.000  H
  H176     1.0000 0.93663  0.83963  0.20140  Biso   1.000  H
  H177     1.0000 0.93659  0.83963  0.20140  Biso   1.000  H
  N27      1.0000 0.78265  0.84488  0.16736  Biso   1.000  N
  H178     1.0000 0.86215  0.87149  0.24954  Biso   1.000  H
  N28      1.0000 0.78268  0.84492  0.16736  Biso   1.000  N
  H179     1.0000 0.86222  0.87153  0.24954  Biso   1.000  H
  N29      1.0000 0.78269  0.84488  0.16736  Biso   1.000  N
  H180     1.0000 0.86220  0.87149  0.24954  Biso   1.000  H
  H181     1.0000 0.86218  0.87153  0.24954  Biso   1.000  H
  N30      1.0000 0.02468  0.81479  0.19439  Biso   1.000  N
  H182     1.0000 0.03452  0.79862  0.02485  Biso   1.000  H
  N31      1.0000 0.02470  0.81483  0.19439  Biso   1.000  N
  H183     1.0000 0.03448  0.79862  0.02485  Biso   1.000  H
  N32      1.0000 0.02474  0.81483  0.19439  Biso   1.000  N
  C173     1.0000 0.81160  0.64912  0.41081  Biso   1.000  C
  C174     1.0000 0.81153  0.64907  0.41081  Biso   1.000  C
  C175     1.0000 0.81158  0.64907  0.41081  Biso   1.000  C
  H184     1.0000 0.83290  0.63763  0.58591  Biso   1.000  H
  H185     1.0000 0.83284  0.63758  0.58591  Biso   1.000  H
  H186     1.0000 0.76295  0.62938  0.57199  Biso   1.000  H
  H187     1.0000 0.76302  0.62942  0.57199  Biso   1.000  H
  H188     1.0000 0.83288  0.63758  0.58591  Biso   1.000  H
  H189     1.0000 0.76299  0.62938  0.57199  Biso   1.000  H
  H190     1.0000 0.76298  0.62942  0.57199  Biso   1.000  H
  C176     1.0000 0.85206  0.71741  0.36149  Biso   1.000  C
  C177     1.0000 0.85210  0.71741  0.36149  Biso   1.000  C
  H191     1.0000 0.92396  0.75508  0.49317  Biso   1.000  H
  N33      1.0000 0.90141  0.82404  0.46059  Biso   1.000  N
  N34      1.0000 0.90134  0.82399  0.46059  Biso   1.000  N
  H192     1.0000 0.92403  0.75513  0.49317  Biso   1.000  H
  N35      1.0000 0.90138  0.82399  0.46059  Biso   1.000  N
  H193     1.0000 0.92399  0.75513  0.49317  Biso   1.000  H
  C178     1.0000 0.76246  0.87048  0.26756  Biso   1.000  C
  C179     1.0000 0.76252  0.87053  0.26756  Biso   1.000  C
  C180     1.0000 0.76248  0.87053  0.26756  Biso   1.000  C
  C181     1.0000 0.08739  0.82499  0.22834  Biso   1.000  C
  C182     1.0000 0.08741  0.82504  0.22834  Biso   1.000  C
  C183     1.0000 0.08737  0.82504  0.22834  Biso   1.000  C
  H194     1.0000 0.76836  0.62838  0.37468  Biso   1.000  H
  H195     1.0000 0.83167  0.62327  0.39043  Biso   1.000  H
  H196     1.0000 0.83170  0.62332  0.39043  Biso   1.000  H
  H197     1.0000 0.76842  0.62842  0.37468  Biso   1.000  H
  H198     1.0000 0.76838  0.62842  0.37468  Biso   1.000  H
  H199     1.0000 0.82479  0.73190  0.32190  Biso   1.000  H
  H200     1.0000 0.88377  0.71979  0.30178  Biso   1.000  H
  H201     1.0000 0.88373  0.71979  0.30178  Biso   1.000  H
  C184     1.0000 0.95789  0.86581  0.47379  Biso   1.000  C
  C185     1.0000 0.95785  0.86581  0.47379  Biso   1.000  C
  H202     1.0000 0.80046  0.89619  0.32062  Biso   1.000  H
  C186     1.0000 0.71046  0.82132  0.34565  Biso   1.000  C
  C187     1.0000 0.73755  0.91259  0.22834  Biso   1.000  C
  H203     1.0000 0.80053  0.89624  0.32062  Biso   1.000  H
  C188     1.0000 0.71050  0.82132  0.34565  Biso   1.000  C
  C189     1.0000 0.73761  0.91264  0.22834  Biso   1.000  C
  C190     1.0000 0.73759  0.91259  0.22834  Biso   1.000  C
  H204     1.0000 0.80048  0.89624  0.32062  Biso   1.000  H
  H205     1.0000 0.10701  0.81450  0.15854  Biso   1.000  H
  C191     1.0000 0.08233  0.78422  0.34101  Biso   1.000  C
  C192     1.0000 0.12948  0.89199  0.26756  Biso   1.000  C
  C193     1.0000 0.08228  0.78422  0.34101  Biso   1.000  C
  C194     1.0000 0.12950  0.89204  0.26756  Biso   1.000  C
  H206     1.0000 0.10696  0.81450  0.15854  Biso   1.000  H
  C195     1.0000 0.98018  0.93501  0.47124  Biso   1.000  C
  H207     1.0000 0.98855  0.85279  0.48626  Biso   1.000  H
  H208     1.0000 0.98862  0.85284  0.48626  Biso   1.000  H
  H209     1.0000 0.98859  0.85279  0.48626  Biso   1.000  H
  H210     1.0000 0.98857  0.85284  0.48626  Biso   1.000  H
  H211     1.0000 0.72596  0.79747  0.39498  Biso   1.000  H
  H212     1.0000 0.67368  0.79080  0.29605  Biso   1.000  H
  C196     1.0000 0.69317  0.86190  0.42592  Biso   1.000  C
  H213     1.0000 0.72602  0.79752  0.39498  Biso   1.000  H
  C197     1.0000 0.69321  0.86190  0.42592  Biso   1.000  C
  H214     1.0000 0.72598  0.79752  0.39498  Biso   1.000  H
  N36      1.0000 0.79005  0.97530  0.19439  Biso   1.000  N
  H215     1.0000 0.70747  0.89299  0.15854  Biso   1.000  H
  C198     1.0000 0.70186  0.91769  0.34101  Biso   1.000  C
  N37      1.0000 0.79009  0.97530  0.19439  Biso   1.000  N
  H216     1.0000 0.70750  0.89304  0.15854  Biso   1.000  H
  C199     1.0000 0.70192  0.91774  0.34101  Biso   1.000  C
  C200     1.0000 0.70190  0.91769  0.34101  Biso   1.000  C
  C201     1.0000 0.70188  0.91774  0.34101  Biso   1.000  C
  H217     1.0000 0.08760  0.74759  0.31753  Biso   1.000  H
  H218     1.0000 0.04060  0.76791  0.38196  Biso   1.000  H
  C202     1.0000 0.13811  0.83129  0.42592  Biso   1.000  C
  C203     1.0000 0.13809  0.83133  0.42592  Biso   1.000  C
  C204     1.0000 0.13807  0.83129  0.42592  Biso   1.000  C
  H219     1.0000 0.08755  0.74759  0.31753  Biso   1.000  H
  H220     1.0000 0.04056  0.76791  0.38196  Biso   1.000  H
  C205     1.0000 0.13814  0.83133  0.42592  Biso   1.000  C
  N38      1.0000 0.15512  0.93782  0.16736  Biso   1.000  N
  H221     1.0000 0.10379  0.90429  0.32062  Biso   1.000  H
  C206     1.0000 0.17870  0.88918  0.34565  Biso   1.000  C
  N39      1.0000 0.15508  0.93782  0.16736  Biso   1.000  N
  H222     1.0000 0.10381  0.90434  0.32062  Biso   1.000  H
  C207     1.0000 0.17868  0.88923  0.34565  Biso   1.000  C
  C208     1.0000 0.17866  0.88918  0.34565  Biso   1.000  C
  C209     1.0000 0.93527  0.95561  0.47215  Biso   1.000  C
  C210     1.0000 0.93531  0.95561  0.47215  Biso   1.000  C
  C211     1.0000 0.04440  0.97969  0.47215  Biso   1.000  C
  C212     1.0000 0.04442  0.97974  0.47215  Biso   1.000  C
  C213     1.0000 0.04436  0.97969  0.47215  Biso   1.000  C
  H223     1.0000 0.72186  0.87850  0.49727  Biso   1.000  H
  H224     1.0000 0.64857  0.83672  0.45495  Biso   1.000  H
  H225     1.0000 0.72191  0.87850  0.49727  Biso   1.000  H
  H226     1.0000 0.64861  0.83672  0.45495  Biso   1.000  H
  C214     1.0000 0.79608  0.99142  0.08191  Biso   1.000  C
  C215     1.0000 0.79612  0.99142  0.08191  Biso   1.000  C
  H227     1.0000 0.65998  0.91240  0.31753  Biso   1.000  H
  H228     1.0000 0.72726  0.95942  0.38196  Biso   1.000  H
  H229     1.0000 0.65994  0.91240  0.31753  Biso   1.000  H
  H230     1.0000 0.72731  0.95942  0.38196  Biso   1.000  H
  H231     1.0000 0.12150  0.84340  0.49727  Biso   1.000  H
  H232     1.0000 0.16330  0.81188  0.45495  Biso   1.000  H
  H233     1.0000 0.16329  0.81192  0.45495  Biso   1.000  H
  H234     1.0000 0.16326  0.81188  0.45495  Biso   1.000  H
  H235     1.0000 0.12145  0.84340  0.49727  Biso   1.000  H
  C216     1.0000 0.14918  0.98698  0.17910  Biso   1.000  C
  C217     1.0000 0.14920  0.98703  0.17910  Biso   1.000  C
  C218     1.0000 0.14916  0.98703  0.17910  Biso   1.000  C
  H236     1.0000 0.20250  0.92852  0.39498  Biso   1.000  H
  H237     1.0000 0.20917  0.88288  0.29605  Biso   1.000  H
  H238     1.0000 0.20919  0.88293  0.29605  Biso   1.000  H
  H239     1.0000 0.20924  0.88293  0.29605  Biso   1.000  H
  H240     1.0000 0.89097  0.92499  0.47343  Biso   1.000  H
  H241     1.0000 0.89095  0.92504  0.47343  Biso   1.000  H
  H242     1.0000 0.89099  0.92504  0.47343  Biso   1.000  H
  C219     1.0000 0.95477  0.01979  0.47124  Biso   1.000  C
  C220     1.0000 0.95483  0.01984  0.47124  Biso   1.000  C
  C221     1.0000 0.95479  0.01984  0.47124  Biso   1.000  C
  H243     1.0000 0.07501  0.96600  0.47343  Biso   1.000  H
  H244     1.0000 0.07497  0.96600  0.47343  Biso   1.000  H
  C222     1.0000 0.06502  0.04521  0.47124  Biso   1.000  C
  C223     1.0000 0.06497  0.04521  0.47124  Biso   1.000  C
  H245     1.0000 0.76406  0.96552  0.02485  Biso   1.000  H
  H246     1.0000 0.76410  0.96552  0.02485  Biso   1.000  H
  C224     1.0000 0.85374  0.05098  0.04159  Biso   1.000  C
  C225     1.0000 0.85380  0.05103  0.04159  Biso   1.000  C
  C226     1.0000 0.85378  0.05098  0.04159  Biso   1.000  C
  H247     1.0000 0.12849  0.99070  0.24954  Biso   1.000  H
  C227     1.0000 0.17359  0.03911  0.08637  Biso   1.000  C
  C228     1.0000 0.90786  0.04211  0.47379  Biso   1.000  C
  C229     1.0000 0.90790  0.04211  0.47379  Biso   1.000  C
  C230     1.0000 0.02030  0.06471  0.47215  Biso   1.000  C
  C231     1.0000 0.13421  0.09209  0.47379  Biso   1.000  C
  C232     1.0000 0.13419  0.09213  0.47379  Biso   1.000  C
  C233     1.0000 0.13423  0.09213  0.47379  Biso   1.000  C
  C234     1.0000 0.85927  0.07559  0.92683  Biso   1.000  C
  C235     1.0000 0.85929  0.07563  0.92683  Biso   1.000  C
  C236     1.0000 0.90587  0.08059  0.12241  Biso   1.000  C
  C237     1.0000 0.90590  0.08064  0.12241  Biso   1.000  C
  C238     1.0000 0.19318  0.03319  0.97133  Biso   1.000  C
  C239     1.0000 0.19320  0.03324  0.97133  Biso   1.000  C
  C240     1.0000 0.19325  0.03324  0.97133  Biso   1.000  C
  C241     1.0000 0.17469  0.09409  0.12241  Biso   1.000  C
  C242     1.0000 0.17472  0.09414  0.12241  Biso   1.000  C
  N40      1.0000 0.92257  0.09862  0.46059  Biso   1.000  N
  H248     1.0000 0.86418  0.01140  0.48626  Biso   1.000  H
  N41      1.0000 0.92261  0.09862  0.46059  Biso   1.000  N
  H249     1.0000 0.03402  0.10902  0.47343  Biso   1.000  H
  H250     1.0000 0.03398  0.10902  0.47343  Biso   1.000  H
  N42      1.0000 0.17601  0.07740  0.46059  Biso   1.000  N
  H251     1.0000 0.14720  0.13582  0.48626  Biso   1.000  H
  N43      1.0000 0.17597  0.07740  0.46059  Biso   1.000  N
  H252     1.0000 0.14724  0.13582  0.48626  Biso   1.000  H
  C243     1.0000 0.91514  0.13009  0.89152  Biso   1.000  C
  C244     1.0000 0.91520  0.13014  0.89152  Biso   1.000  C
  C245     1.0000 0.91518  0.13009  0.89152  Biso   1.000  C
  H253     1.0000 0.82482  0.05542  0.87131  Biso   1.000  H
  H254     1.0000 0.82477  0.05542  0.87131  Biso   1.000  H
  C246     1.0000 0.96088  0.13453  0.08637  Biso   1.000  C
  C247     1.0000 0.96092  0.13453  0.08637  Biso   1.000  C
  H255     1.0000 0.90303  0.06343  0.20140  Biso   1.000  H
  H256     1.0000 0.90299  0.06343  0.20140  Biso   1.000  H
  C248     1.0000 0.21489  0.08479  0.89152  Biso   1.000  C
  C249     1.0000 0.21491  0.08484  0.89152  Biso   1.000  C
  H257     1.0000 0.19201  0.99500  0.94712  Biso   1.000  H
  H258     1.0000 0.19199  0.99504  0.94712  Biso   1.000  H
  H259     1.0000 0.19196  0.99500  0.94712  Biso   1.000  H
  H260     1.0000 0.19203  0.99504  0.94712  Biso   1.000  H
  C250     1.0000 0.19720  0.14621  0.04159  Biso   1.000  C
  H261     1.0000 0.16041  0.09700  0.20140  Biso   1.000  H
  H262     1.0000 0.16037  0.09700  0.20140  Biso   1.000  H
  C251     1.0000 0.87268  0.11522  0.47379  Biso   1.000  C
  C252     1.0000 0.24252  0.12733  0.47379  Biso   1.000  C
  C253     1.0000 0.24248  0.12733  0.47379  Biso   1.000  C
  C254     1.0000 0.92267  0.15780  0.76711  Biso   1.000  C
  C255     1.0000 0.96676  0.15999  0.97133  Biso   1.000  C
  C256     1.0000 0.96682  0.16004  0.97133  Biso   1.000  C
  C257     1.0000 0.96678  0.16004  0.97133  Biso   1.000  C
  C258     1.0000 0.01299  0.16219  0.17910  Biso   1.000  C
  C259     1.0000 0.01302  0.16224  0.17910  Biso   1.000  C
  C260     1.0000 0.23510  0.07730  0.76711  Biso   1.000  C
  C261     1.0000 0.23506  0.07730  0.76711  Biso   1.000  C
  C262     1.0000 0.21630  0.14073  0.92683  Biso   1.000  C
  C263     1.0000 0.19528  0.20391  0.08191  Biso   1.000  C
  C264     1.0000 0.19532  0.20391  0.08191  Biso   1.000  C
  H263     1.0000 0.83107  0.07602  0.49317  Biso   1.000  H
  C265     1.0000 0.88909  0.16481  0.57171  Biso   1.000  C
  C266     1.0000 0.86529  0.14793  0.36149  Biso   1.000  C
  H264     1.0000 0.83111  0.07602  0.49317  Biso   1.000  H
  H265     1.0000 0.24489  0.16891  0.49317  Biso   1.000  H
  C267     1.0000 0.27569  0.11092  0.57171  Biso   1.000  C
  C268     1.0000 0.28260  0.13472  0.36149  Biso   1.000  C
  N44      1.0000 0.87665  0.13529  0.69421  Biso   1.000  N
  N45      1.0000 0.87671  0.13534  0.69421  Biso   1.000  N
  N46      1.0000 0.87669  0.13529  0.69421  Biso   1.000  N
  N47      1.0000 0.87667  0.13534  0.69421  Biso   1.000  N
  H266     1.0000 0.96255  0.19280  0.74299  Biso   1.000  H
  H267     1.0000 0.96260  0.19280  0.74299  Biso   1.000  H
  H268     1.0000 0.00500  0.19700  0.94712  Biso   1.000  H
  H269     1.0000 0.00502  0.19705  0.94712  Biso   1.000  H
  H270     1.0000 0.00496  0.19700  0.94712  Biso   1.000  H
  N48      1.0000 0.06219  0.21731  0.16736  Biso   1.000  N
  H271     1.0000 0.00932  0.13782  0.24954  Biso   1.000  H
  H272     1.0000 0.00927  0.13782  0.24954  Biso   1.000  H
  N49      1.0000 0.25860  0.12332  0.69421  Biso   1.000  N
  H273     1.0000 0.23017  0.03739  0.74299  Biso   1.000  H
  H274     1.0000 0.23020  0.03744  0.74299  Biso   1.000  H
  H275     1.0000 0.23024  0.03744  0.74299  Biso   1.000  H
  H276     1.0000 0.23061  0.17521  0.87131  Biso   1.000  H
  H277     1.0000 0.23057  0.17521  0.87131  Biso   1.000  H
  N50      1.0000 0.18520  0.20992  0.19439  Biso   1.000  N
  H278     1.0000 0.20141  0.23591  0.02485  Biso   1.000  H
  H279     1.0000 0.20137  0.23591  0.02485  Biso   1.000  H
  H280     1.0000 0.93475  0.19881  0.56462  Biso   1.000  H
  C269     1.0000 0.84631  0.19223  0.54432  Biso   1.000  C
  H281     1.0000 0.93479  0.19881  0.56462  Biso   1.000  H
  C270     1.0000 0.84627  0.19223  0.54432  Biso   1.000  C
  C271     1.0000 0.83746  0.18842  0.41081  Biso   1.000  C
  H282     1.0000 0.83601  0.11622  0.30178  Biso   1.000  H
  H283     1.0000 0.90705  0.17521  0.32190  Biso   1.000  H
  C272     1.0000 0.83750  0.18842  0.41081  Biso   1.000  C
  H284     1.0000 0.90709  0.17521  0.32190  Biso   1.000  H
  H285     1.0000 0.83597  0.11622  0.30178  Biso   1.000  H
  H286     1.0000 0.26398  0.06519  0.56462  Biso   1.000  H
  C273     1.0000 0.34589  0.15370  0.54432  Biso   1.000  C
  H287     1.0000 0.26400  0.06524  0.56462  Biso   1.000  H
  C274     1.0000 0.34592  0.15375  0.54432  Biso   1.000  C
  C275     1.0000 0.34585  0.15370  0.54432  Biso   1.000  C
  C276     1.0000 0.35088  0.16252  0.41081  Biso   1.000  C
  H288     1.0000 0.28018  0.16400  0.30178  Biso   1.000  H
  H289     1.0000 0.26809  0.09290  0.32190  Biso   1.000  H
  H290     1.0000 0.28020  0.16405  0.30178  Biso   1.000  H
  H291     1.0000 0.26811  0.09295  0.32190  Biso   1.000  H
  C277     1.0000 0.35092  0.16252  0.41081  Biso   1.000  C
  H292     1.0000 0.28024  0.16405  0.30178  Biso   1.000  H
  C278     1.0000 0.10800  0.23749  0.26756  Biso   1.000  C
  C279     1.0000 0.10798  0.23753  0.26756  Biso   1.000  C
  C280     1.0000 0.10796  0.23749  0.26756  Biso   1.000  C
  C281     1.0000 0.10802  0.23753  0.26756  Biso   1.000  C
  C282     1.0000 0.17502  0.26243  0.22834  Biso   1.000  C
  C283     1.0000 0.17498  0.26243  0.22834  Biso   1.000  C
  H293     1.0000 0.80471  0.16710  0.58591  Biso   1.000  H
  H294     1.0000 0.86638  0.23701  0.57199  Biso   1.000  H
  H295     1.0000 0.80473  0.16715  0.58591  Biso   1.000  H
  H296     1.0000 0.80467  0.16710  0.58591  Biso   1.000  H
  H297     1.0000 0.80469  0.16715  0.58591  Biso   1.000  H
  H298     1.0000 0.85997  0.23162  0.37468  Biso   1.000  H
  H299     1.0000 0.79155  0.16829  0.39043  Biso   1.000  H
  H300     1.0000 0.86001  0.23162  0.37468  Biso   1.000  H
  H301     1.0000 0.79162  0.16834  0.39043  Biso   1.000  H
  H302     1.0000 0.79160  0.16829  0.39043  Biso   1.000  H
  H303     1.0000 0.79158  0.16834  0.39043  Biso   1.000  H
  H304     1.0000 0.36241  0.19533  0.58591  Biso   1.000  H
  H305     1.0000 0.37059  0.13362  0.57199  Biso   1.000  H
  H306     1.0000 0.36237  0.19533  0.58591  Biso   1.000  H
  H307     1.0000 0.37063  0.13362  0.57199  Biso   1.000  H
  H308     1.0000 0.37159  0.14001  0.37468  Biso   1.000  H
  H309     1.0000 0.37667  0.20840  0.39043  Biso   1.000  H
  H310     1.0000 0.37669  0.20844  0.39043  Biso   1.000  H
  H311     1.0000 0.37671  0.20840  0.39043  Biso   1.000  H
  H312     1.0000 0.37673  0.20844  0.39043  Biso   1.000  H
  H313     1.0000 0.09571  0.19953  0.32062  Biso   1.000  H
  C284     1.0000 0.11080  0.28951  0.34565  Biso   1.000  C
  H314     1.0000 0.09567  0.19953  0.32062  Biso   1.000  H
  C285     1.0000 0.11076  0.28951  0.34565  Biso   1.000  C
  H315     1.0000 0.18548  0.29252  0.15854  Biso   1.000  H
  C286     1.0000 0.21578  0.29810  0.34101  Biso   1.000  C
  C287     1.0000 0.21580  0.29814  0.34101  Biso   1.000  C
  H316     1.0000 0.18553  0.29252  0.15854  Biso   1.000  H
  C288     1.0000 0.21584  0.29814  0.34101  Biso   1.000  C
  C289     1.0000 0.16868  0.30682  0.42592  Biso   1.000  C
  H317     1.0000 0.07150  0.27401  0.39498  Biso   1.000  H
  H318     1.0000 0.11711  0.32633  0.29605  Biso   1.000  H
  H319     1.0000 0.07146  0.27401  0.39498  Biso   1.000  H
  H320     1.0000 0.11707  0.32633  0.29605  Biso   1.000  H
  C290     1.0000 0.16873  0.30682  0.42592  Biso   1.000  C
  H321     1.0000 0.25239  0.34001  0.31753  Biso   1.000  H
  H322     1.0000 0.23212  0.27273  0.38196  Biso   1.000  H
  H323     1.0000 0.23208  0.27273  0.38196  Biso   1.000  H
  H324     1.0000 0.25243  0.34001  0.31753  Biso   1.000  H
  H325     1.0000 0.15660  0.27812  0.49727  Biso   1.000  H
  H326     1.0000 0.18809  0.35141  0.45495  Biso   1.000  H
  H327     1.0000 0.15656  0.27812  0.49727  Biso   1.000  H
  H328     1.0000 0.18813  0.35141  0.45495  Biso   1.000  H
  C291     1.0000 0.86985  0.78512  0.89152  Biso   1.000  C
  C292     1.0000 0.84219  0.76490  0.76711  Biso   1.000  C
  C293     1.0000 0.84215  0.76490  0.76711  Biso   1.000  C
  C294     1.0000 0.83998  0.80682  0.97133  Biso   1.000  C
  C295     1.0000 0.92435  0.78369  0.92683  Biso   1.000  C
  C296     1.0000 0.92439  0.78369  0.92683  Biso   1.000  C
  N51      1.0000 0.86467  0.74139  0.69421  Biso   1.000  N
  H329     1.0000 0.80719  0.76982  0.74299  Biso   1.000  H
  C297     1.0000 0.86987  0.78508  0.89152  Biso   1.000  C
  H330     1.0000 0.80715  0.76982  0.74299  Biso   1.000  H
  C298     1.0000 0.86989  0.78512  0.89152  Biso   1.000  C
  H331     1.0000 0.80300  0.80801  0.94712  Biso   1.000  H
  H332     1.0000 0.80296  0.80801  0.94712  Biso   1.000  H
  C299     1.0000 0.86548  0.82642  0.08637  Biso   1.000  C
  H333     1.0000 0.94454  0.76939  0.87131  Biso   1.000  H
  H334     1.0000 0.94456  0.76943  0.87131  Biso   1.000  H
  H335     1.0000 0.94458  0.76939  0.87131  Biso   1.000  H
  H336     1.0000 0.94460  0.76943  0.87131  Biso   1.000  H
  C300     1.0000 0.94899  0.80282  0.04159  Biso   1.000  C
  C301     1.0000 0.94894  0.80282  0.04159  Biso   1.000  C
  C302     1.0000 0.83514  0.72427  0.57171  Biso   1.000  C
  C303     1.0000 0.83520  0.72432  0.57171  Biso   1.000  C
  C304     1.0000 0.83518  0.72427  0.57171  Biso   1.000  C
  C305     1.0000 0.91933  0.82528  0.12241  Biso   1.000  C
  C306     1.0000 0.83777  0.85079  0.17910  Biso   1.000  C
  C307     1.0000 0.91940  0.82532  0.12241  Biso   1.000  C
  C308     1.0000 0.83783  0.85084  0.17910  Biso   1.000  C
  C309     1.0000 0.91937  0.82528  0.12241  Biso   1.000  C
  C310     1.0000 0.83779  0.85084  0.17910  Biso   1.000  C
  C311     1.0000 0.00860  0.80468  0.08191  Biso   1.000  C
  C312     1.0000 0.00862  0.80472  0.08191  Biso   1.000  C
  C313     1.0000 0.00856  0.80468  0.08191  Biso   1.000  C
  C314     1.0000 0.88475  0.75751  0.47379  Biso   1.000  C
  C315     1.0000 0.88479  0.75751  0.47379  Biso   1.000  C
  C316     1.0000 0.80776  0.65408  0.54432  Biso   1.000  C
  C317     1.0000 0.80778  0.65413  0.54432  Biso   1.000  C
  H337     1.0000 0.80119  0.73601  0.56462  Biso   1.000  H
  H338     1.0000 0.80115  0.73601  0.56462  Biso   1.000  H
  H339     1.0000 0.93656  0.83958  0.20140  Biso   1.000  H
  H340     1.0000 0.93663  0.83963  0.20140  Biso   1.000  H
  H341     1.0000 0.93659  0.83963  0.20140  Biso   1.000  H
  N52      1.0000 0.78265  0.84488  0.16736  Biso   1.000  N
  H342     1.0000 0.86215  0.87149  0.24954  Biso   1.000  H
  N53      1.0000 0.78268  0.84492  0.16736  Biso   1.000  N
  H343     1.0000 0.86222  0.87153  0.24954  Biso   1.000  H
  N54      1.0000 0.78269  0.84488  0.16736  Biso   1.000  N
  H344     1.0000 0.86220  0.87149  0.24954  Biso   1.000  H
  H345     1.0000 0.86218  0.87153  0.24954  Biso   1.000  H
  N55      1.0000 0.02468  0.81479  0.19439  Biso   1.000  N
  H346     1.0000 0.03452  0.79862  0.02485  Biso   1.000  H
  N56      1.0000 0.02470  0.81483  0.19439  Biso   1.000  N
  H347     1.0000 0.03448  0.79862  0.02485  Biso   1.000  H
  N57      1.0000 0.02474  0.81483  0.19439  Biso   1.000  N
  C318     1.0000 0.85206  0.71741  0.36149  Biso   1.000  C
  N58      1.0000 0.90134  0.82399  0.46059  Biso   1.000  N
  H348     1.0000 0.92396  0.75508  0.49317  Biso   1.000  H
  N59      1.0000 0.90141  0.82404  0.46059  Biso   1.000  N
  H349     1.0000 0.92403  0.75513  0.49317  Biso   1.000  H
  N60      1.0000 0.90138  0.82399  0.46059  Biso   1.000  N
  C319     1.0000 0.85210  0.71741  0.36149  Biso   1.000  C
  H350     1.0000 0.92399  0.75513  0.49317  Biso   1.000  H
  C320     1.0000 0.81153  0.64907  0.41081  Biso   1.000  C
  C321     1.0000 0.81160  0.64912  0.41081  Biso   1.000  C
  C322     1.0000 0.81158  0.64907  0.41081  Biso   1.000  C
  H351     1.0000 0.83284  0.63758  0.58591  Biso   1.000  H
  H352     1.0000 0.76295  0.62938  0.57199  Biso   1.000  H
  H353     1.0000 0.83290  0.63763  0.58591  Biso   1.000  H
  H354     1.0000 0.76302  0.62942  0.57199  Biso   1.000  H
  H355     1.0000 0.83288  0.63758  0.58591  Biso   1.000  H
  H356     1.0000 0.76299  0.62938  0.57199  Biso   1.000  H
  H357     1.0000 0.76298  0.62942  0.57199  Biso   1.000  H
  C323     1.0000 0.76246  0.87048  0.26756  Biso   1.000  C
  C324     1.0000 0.76252  0.87053  0.26756  Biso   1.000  C
  C325     1.0000 0.76248  0.87053  0.26756  Biso   1.000  C
  C326     1.0000 0.08739  0.82499  0.22834  Biso   1.000  C
  C327     1.0000 0.08741  0.82504  0.22834  Biso   1.000  C
  C328     1.0000 0.08737  0.82504  0.22834  Biso   1.000  C
  H358     1.0000 0.82479  0.73190  0.32190  Biso   1.000  H
  H359     1.0000 0.88377  0.71979  0.30178  Biso   1.000  H
  H360     1.0000 0.88373  0.71979  0.30178  Biso   1.000  H
  C329     1.0000 0.95789  0.86581  0.47379  Biso   1.000  C
  C330     1.0000 0.95785  0.86581  0.47379  Biso   1.000  C
  H361     1.0000 0.76836  0.62838  0.37468  Biso   1.000  H
  H362     1.0000 0.83167  0.62327  0.39043  Biso   1.000  H
  H363     1.0000 0.76842  0.62842  0.37468  Biso   1.000  H
  H364     1.0000 0.83170  0.62332  0.39043  Biso   1.000  H
  H365     1.0000 0.76838  0.62842  0.37468  Biso   1.000  H
  H366     1.0000 0.80046  0.89619  0.32062  Biso   1.000  H
  C331     1.0000 0.71046  0.82132  0.34565  Biso   1.000  C
  C332     1.0000 0.73755  0.91259  0.22834  Biso   1.000  C
  H367     1.0000 0.80053  0.89624  0.32062  Biso   1.000  H
  C333     1.0000 0.71050  0.82132  0.34565  Biso   1.000  C
  C334     1.0000 0.73761  0.91264  0.22834  Biso   1.000  C
  C335     1.0000 0.73759  0.91259  0.22834  Biso   1.000  C
  H368     1.0000 0.80048  0.89624  0.32062  Biso   1.000  H
  H369     1.0000 0.10701  0.81450  0.15854  Biso   1.000  H
  C336     1.0000 0.08233  0.78422  0.34101  Biso   1.000  C
  C337     1.0000 0.12948  0.89199  0.26756  Biso   1.000  C
  C338     1.0000 0.08228  0.78422  0.34101  Biso   1.000  C
  C339     1.0000 0.12950  0.89204  0.26756  Biso   1.000  C
  H370     1.0000 0.10696  0.81450  0.15854  Biso   1.000  H
  C340     1.0000 0.98018  0.93501  0.47124  Biso   1.000  C
  H371     1.0000 0.98855  0.85279  0.48626  Biso   1.000  H
  H372     1.0000 0.98862  0.85284  0.48626  Biso   1.000  H
  H373     1.0000 0.98859  0.85279  0.48626  Biso   1.000  H
  H374     1.0000 0.98857  0.85284  0.48626  Biso   1.000  H
  H375     1.0000 0.72596  0.79747  0.39498  Biso   1.000  H
  H376     1.0000 0.67368  0.79080  0.29605  Biso   1.000  H
  C341     1.0000 0.69317  0.86190  0.42592  Biso   1.000  C
  H377     1.0000 0.72602  0.79752  0.39498  Biso   1.000  H
  C342     1.0000 0.69321  0.86190  0.42592  Biso   1.000  C
  H378     1.0000 0.72598  0.79752  0.39498  Biso   1.000  H
  N61      1.0000 0.79005  0.97530  0.19439  Biso   1.000  N
  H379     1.0000 0.70747  0.89299  0.15854  Biso   1.000  H
  C343     1.0000 0.70186  0.91769  0.34101  Biso   1.000  C
  N62      1.0000 0.79009  0.97530  0.19439  Biso   1.000  N
  H380     1.0000 0.70750  0.89304  0.15854  Biso   1.000  H
  C344     1.0000 0.70192  0.91774  0.34101  Biso   1.000  C
  C345     1.0000 0.70190  0.91769  0.34101  Biso   1.000  C
  C346     1.0000 0.70188  0.91774  0.34101  Biso   1.000  C
  H381     1.0000 0.08760  0.74759  0.31753  Biso   1.000  H
  H382     1.0000 0.04060  0.76791  0.38196  Biso   1.000  H
  C347     1.0000 0.13811  0.83129  0.42592  Biso   1.000  C
  C348     1.0000 0.13809  0.83133  0.42592  Biso   1.000  C
  C349     1.0000 0.13807  0.83129  0.42592  Biso   1.000  C
  H383     1.0000 0.08755  0.74759  0.31753  Biso   1.000  H
  H384     1.0000 0.04056  0.76791  0.38196  Biso   1.000  H
  C350     1.0000 0.13814  0.83133  0.42592  Biso   1.000  C
  N63      1.0000 0.15512  0.93782  0.16736  Biso   1.000  N
  H385     1.0000 0.10379  0.90429  0.32062  Biso   1.000  H
  C351     1.0000 0.17870  0.88918  0.34565  Biso   1.000  C
  N64      1.0000 0.15508  0.93782  0.16736  Biso   1.000  N
  H386     1.0000 0.10381  0.90434  0.32062  Biso   1.000  H
  C352     1.0000 0.17868  0.88923  0.34565  Biso   1.000  C
  C353     1.0000 0.17866  0.88918  0.34565  Biso   1.000  C
  C354     1.0000 0.93527  0.95561  0.47215  Biso   1.000  C
  C355     1.0000 0.93531  0.95561  0.47215  Biso   1.000  C
  C356     1.0000 0.04440  0.97969  0.47215  Biso   1.000  C
  C357     1.0000 0.04442  0.97974  0.47215  Biso   1.000  C
  C358     1.0000 0.04436  0.97969  0.47215  Biso   1.000  C
  H387     1.0000 0.72186  0.87850  0.49727  Biso   1.000  H
  H388     1.0000 0.64857  0.83672  0.45495  Biso   1.000  H
  H389     1.0000 0.72191  0.87850  0.49727  Biso   1.000  H
  H390     1.0000 0.64861  0.83672  0.45495  Biso   1.000  H
  C359     1.0000 0.79608  0.99142  0.08191  Biso   1.000  C
  C360     1.0000 0.79612  0.99142  0.08191  Biso   1.000  C
  H391     1.0000 0.65998  0.91240  0.31753  Biso   1.000  H
  H392     1.0000 0.72726  0.95942  0.38196  Biso   1.000  H
  H393     1.0000 0.65994  0.91240  0.31753  Biso   1.000  H
  H394     1.0000 0.72731  0.95942  0.38196  Biso   1.000  H
  H395     1.0000 0.12150  0.84340  0.49727  Biso   1.000  H
  H396     1.0000 0.16330  0.81188  0.45495  Biso   1.000  H
  H397     1.0000 0.16329  0.81192  0.45495  Biso   1.000  H
  H398     1.0000 0.16326  0.81188  0.45495  Biso   1.000  H
  H399     1.0000 0.12145  0.84340  0.49727  Biso   1.000  H
  C361     1.0000 0.14918  0.98698  0.17910  Biso   1.000  C
  C362     1.0000 0.14920  0.98703  0.17910  Biso   1.000  C
  C363     1.0000 0.14916  0.98703  0.17910  Biso   1.000  C
  H400     1.0000 0.20250  0.92852  0.39498  Biso   1.000  H
  H401     1.0000 0.20917  0.88288  0.29605  Biso   1.000  H
  H402     1.0000 0.20919  0.88293  0.29605  Biso   1.000  H
  H403     1.0000 0.20924  0.88293  0.29605  Biso   1.000  H
  H404     1.0000 0.89097  0.92499  0.47343  Biso   1.000  H
  H405     1.0000 0.89095  0.92504  0.47343  Biso   1.000  H
  H406     1.0000 0.89099  0.92504  0.47343  Biso   1.000  H
  C364     1.0000 0.95477  0.01979  0.47124  Biso   1.000  C
  C365     1.0000 0.95483  0.01984  0.47124  Biso   1.000  C
  C366     1.0000 0.95479  0.01984  0.47124  Biso   1.000  C
  H407     1.0000 0.07501  0.96600  0.47343  Biso   1.000  H
  H408     1.0000 0.07497  0.96600  0.47343  Biso   1.000  H
  C367     1.0000 0.06502  0.04521  0.47124  Biso   1.000  C
  C368     1.0000 0.06497  0.04521  0.47124  Biso   1.000  C
  H409     1.0000 0.76406  0.96552  0.02485  Biso   1.000  H
  H410     1.0000 0.76410  0.96552  0.02485  Biso   1.000  H
  C369     1.0000 0.85374  0.05098  0.04159  Biso   1.000  C
  C370     1.0000 0.85380  0.05103  0.04159  Biso   1.000  C
  C371     1.0000 0.85378  0.05098  0.04159  Biso   1.000  C
  H411     1.0000 0.12849  0.99070  0.24954  Biso   1.000  H
  C372     1.0000 0.17359  0.03911  0.08637  Biso   1.000  C
  C373     1.0000 0.90786  0.04211  0.47379  Biso   1.000  C
  C374     1.0000 0.90790  0.04211  0.47379  Biso   1.000  C
  C375     1.0000 0.02030  0.06471  0.47215  Biso   1.000  C
  C376     1.0000 0.13421  0.09209  0.47379  Biso   1.000  C
  C377     1.0000 0.13419  0.09213  0.47379  Biso   1.000  C
  C378     1.0000 0.13423  0.09213  0.47379  Biso   1.000  C
  C379     1.0000 0.85927  0.07559  0.92683  Biso   1.000  C
  C380     1.0000 0.85929  0.07563  0.92683  Biso   1.000  C
  C381     1.0000 0.90587  0.08059  0.12241  Biso   1.000  C
  C382     1.0000 0.90590  0.08064  0.12241  Biso   1.000  C
  C383     1.0000 0.19318  0.03319  0.97133  Biso   1.000  C
  C384     1.0000 0.19320  0.03324  0.97133  Biso   1.000  C
  C385     1.0000 0.19325  0.03324  0.97133  Biso   1.000  C
  C386     1.0000 0.17469  0.09409  0.12241  Biso   1.000  C
  C387     1.0000 0.17472  0.09414  0.12241  Biso   1.000  C
  N65      1.0000 0.92257  0.09862  0.46059  Biso   1.000  N
  H412     1.0000 0.86418  0.01140  0.48626  Biso   1.000  H
  N66      1.0000 0.92261  0.09862  0.46059  Biso   1.000  N
  H413     1.0000 0.03402  0.10902  0.47343  Biso   1.000  H
  H414     1.0000 0.03398  0.10902  0.47343  Biso   1.000  H
  N67      1.0000 0.17601  0.07740  0.46059  Biso   1.000  N
  H415     1.0000 0.14720  0.13582  0.48626  Biso   1.000  H
  N68      1.0000 0.17597  0.07740  0.46059  Biso   1.000  N
  H416     1.0000 0.14724  0.13582  0.48626  Biso   1.000  H
  C388     1.0000 0.91514  0.13009  0.89152  Biso   1.000  C
  C389     1.0000 0.91520  0.13014  0.89152  Biso   1.000  C
  C390     1.0000 0.91518  0.13009  0.89152  Biso   1.000  C
  H417     1.0000 0.82482  0.05542  0.87131  Biso   1.000  H
  H418     1.0000 0.82477  0.05542  0.87131  Biso   1.000  H
  C391     1.0000 0.96088  0.13453  0.08637  Biso   1.000  C
  C392     1.0000 0.96092  0.13453  0.08637  Biso   1.000  C
  H419     1.0000 0.90303  0.06343  0.20140  Biso   1.000  H
  H420     1.0000 0.90299  0.06343  0.20140  Biso   1.000  H
  C393     1.0000 0.21489  0.08479  0.89152  Biso   1.000  C
  C394     1.0000 0.21491  0.08484  0.89152  Biso   1.000  C
  H421     1.0000 0.19201  0.99500  0.94712  Biso   1.000  H
  H422     1.0000 0.19199  0.99504  0.94712  Biso   1.000  H
  H423     1.0000 0.19196  0.99500  0.94712  Biso   1.000  H
  H424     1.0000 0.19203  0.99504  0.94712  Biso   1.000  H
  C395     1.0000 0.19720  0.14621  0.04159  Biso   1.000  C
  H425     1.0000 0.16041  0.09700  0.20140  Biso   1.000  H
  H426     1.0000 0.16037  0.09700  0.20140  Biso   1.000  H
  C396     1.0000 0.87268  0.11522  0.47379  Biso   1.000  C
  C397     1.0000 0.24252  0.12733  0.47379  Biso   1.000  C
  C398     1.0000 0.24248  0.12733  0.47379  Biso   1.000  C
  C399     1.0000 0.92267  0.15780  0.76711  Biso   1.000  C
  C400     1.0000 0.96676  0.15999  0.97133  Biso   1.000  C
  C401     1.0000 0.96682  0.16004  0.97133  Biso   1.000  C
  C402     1.0000 0.96678  0.16004  0.97133  Biso   1.000  C
  C403     1.0000 0.01299  0.16219  0.17910  Biso   1.000  C
  C404     1.0000 0.01302  0.16224  0.17910  Biso   1.000  C
  C405     1.0000 0.23510  0.07730  0.76711  Biso   1.000  C
  C406     1.0000 0.23506  0.07730  0.76711  Biso   1.000  C
  C407     1.0000 0.21630  0.14073  0.92683  Biso   1.000  C
  C408     1.0000 0.19528  0.20391  0.08191  Biso   1.000  C
  C409     1.0000 0.19532  0.20391  0.08191  Biso   1.000  C
  H427     1.0000 0.83107  0.07602  0.49317  Biso   1.000  H
  C410     1.0000 0.88909  0.16481  0.57171  Biso   1.000  C
  C411     1.0000 0.86529  0.14793  0.36149  Biso   1.000  C
  H428     1.0000 0.83111  0.07602  0.49317  Biso   1.000  H
  H429     1.0000 0.24489  0.16891  0.49317  Biso   1.000  H
  C412     1.0000 0.27569  0.11092  0.57171  Biso   1.000  C
  C413     1.0000 0.28260  0.13472  0.36149  Biso   1.000  C
  N69      1.0000 0.87665  0.13529  0.69421  Biso   1.000  N
  N70      1.0000 0.87671  0.13534  0.69421  Biso   1.000  N
  N71      1.0000 0.87669  0.13529  0.69421  Biso   1.000  N
  N72      1.0000 0.87667  0.13534  0.69421  Biso   1.000  N
  H430     1.0000 0.96255  0.19280  0.74299  Biso   1.000  H
  H431     1.0000 0.96260  0.19280  0.74299  Biso   1.000  H
  H432     1.0000 0.00500  0.19700  0.94712  Biso   1.000  H
  H433     1.0000 0.00502  0.19705  0.94712  Biso   1.000  H
  H434     1.0000 0.00496  0.19700  0.94712  Biso   1.000  H
  N73      1.0000 0.06219  0.21731  0.16736  Biso   1.000  N
  H435     1.0000 0.00932  0.13782  0.24954  Biso   1.000  H
  H436     1.0000 0.00927  0.13782  0.24954  Biso   1.000  H
  N74      1.0000 0.25860  0.12332  0.69421  Biso   1.000  N
  H437     1.0000 0.23017  0.03739  0.74299  Biso   1.000  H
  H438     1.0000 0.23020  0.03744  0.74299  Biso   1.000  H
  H439     1.0000 0.23024  0.03744  0.74299  Biso   1.000  H
  H440     1.0000 0.23061  0.17521  0.87131  Biso   1.000  H
  H441     1.0000 0.23057  0.17521  0.87131  Biso   1.000  H
  N75      1.0000 0.18520  0.20992  0.19439  Biso   1.000  N
  H442     1.0000 0.20141  0.23591  0.02485  Biso   1.000  H
  H443     1.0000 0.20137  0.23591  0.02485  Biso   1.000  H
  H444     1.0000 0.93475  0.19881  0.56462  Biso   1.000  H
  C414     1.0000 0.84631  0.19223  0.54432  Biso   1.000  C
  H445     1.0000 0.93479  0.19881  0.56462  Biso   1.000  H
  C415     1.0000 0.84627  0.19223  0.54432  Biso   1.000  C
  C416     1.0000 0.83746  0.18842  0.41081  Biso   1.000  C
  H446     1.0000 0.83601  0.11622  0.30178  Biso   1.000  H
  H447     1.0000 0.90705  0.17521  0.32190  Biso   1.000  H
  C417     1.0000 0.83750  0.18842  0.41081  Biso   1.000  C
  H448     1.0000 0.90709  0.17521  0.32190  Biso   1.000  H
  H449     1.0000 0.83597  0.11622  0.30178  Biso   1.000  H
  H450     1.0000 0.26398  0.06519  0.56462  Biso   1.000  H
  C418     1.0000 0.34589  0.15370  0.54432  Biso   1.000  C
  H451     1.0000 0.26400  0.06524  0.56462  Biso   1.000  H
  C419     1.0000 0.34592  0.15375  0.54432  Biso   1.000  C
  C420     1.0000 0.34585  0.15370  0.54432  Biso   1.000  C
  C421     1.0000 0.35088  0.16252  0.41081  Biso   1.000  C
  H452     1.0000 0.28018  0.16400  0.30178  Biso   1.000  H
  H453     1.0000 0.26809  0.09290  0.32190  Biso   1.000  H
  H454     1.0000 0.28020  0.16405  0.30178  Biso   1.000  H
  H455     1.0000 0.26811  0.09295  0.32190  Biso   1.000  H
  C422     1.0000 0.35092  0.16252  0.41081  Biso   1.000  C
  H456     1.0000 0.28024  0.16405  0.30178  Biso   1.000  H
  C423     1.0000 0.10800  0.23749  0.26756  Biso   1.000  C
  C424     1.0000 0.10798  0.23753  0.26756  Biso   1.000  C
  C425     1.0000 0.10796  0.23749  0.26756  Biso   1.000  C
  C426     1.0000 0.10802  0.23753  0.26756  Biso   1.000  C
  C427     1.0000 0.17502  0.26243  0.22834  Biso   1.000  C
  C428     1.0000 0.17498  0.26243  0.22834  Biso   1.000  C
  H457     1.0000 0.80471  0.16710  0.58591  Biso   1.000  H
  H458     1.0000 0.86638  0.23701  0.57199  Biso   1.000  H
  H459     1.0000 0.80473  0.16715  0.58591  Biso   1.000  H
  H460     1.0000 0.80467  0.16710  0.58591  Biso   1.000  H
  H461     1.0000 0.80469  0.16715  0.58591  Biso   1.000  H
  H462     1.0000 0.85997  0.23162  0.37468  Biso   1.000  H
  H463     1.0000 0.79155  0.16829  0.39043  Biso   1.000  H
  H464     1.0000 0.86001  0.23162  0.37468  Biso   1.000  H
  H465     1.0000 0.79162  0.16834  0.39043  Biso   1.000  H
  H466     1.0000 0.79160  0.16829  0.39043  Biso   1.000  H
  H467     1.0000 0.79158  0.16834  0.39043  Biso   1.000  H
  H468     1.0000 0.36241  0.19533  0.58591  Biso   1.000  H
  H469     1.0000 0.37059  0.13362  0.57199  Biso   1.000  H
  H470     1.0000 0.36237  0.19533  0.58591  Biso   1.000  H
  H471     1.0000 0.37063  0.13362  0.57199  Biso   1.000  H
  H472     1.0000 0.37159  0.14001  0.37468  Biso   1.000  H
  H473     1.0000 0.37667  0.20840  0.39043  Biso   1.000  H
  H474     1.0000 0.37669  0.20844  0.39043  Biso   1.000  H
  H475     1.0000 0.37671  0.20840  0.39043  Biso   1.000  H
  H476     1.0000 0.37673  0.20844  0.39043  Biso   1.000  H
  H477     1.0000 0.09571  0.19953  0.32062  Biso   1.000  H
  C429     1.0000 0.11080  0.28951  0.34565  Biso   1.000  C
  H478     1.0000 0.09567  0.19953  0.32062  Biso   1.000  H
  C430     1.0000 0.11076  0.28951  0.34565  Biso   1.000  C
  H479     1.0000 0.18548  0.29252  0.15854  Biso   1.000  H
  C431     1.0000 0.21578  0.29810  0.34101  Biso   1.000  C
  C432     1.0000 0.21580  0.29814  0.34101  Biso   1.000  C
  H480     1.0000 0.18553  0.29252  0.15854  Biso   1.000  H
  C433     1.0000 0.21584  0.29814  0.34101  Biso   1.000  C
  C434     1.0000 0.16868  0.30682  0.42592  Biso   1.000  C
  H481     1.0000 0.07150  0.27401  0.39498  Biso   1.000  H
  H482     1.0000 0.11711  0.32633  0.29605  Biso   1.000  H
  H483     1.0000 0.07146  0.27401  0.39498  Biso   1.000  H
  H484     1.0000 0.11707  0.32633  0.29605  Biso   1.000  H
  C435     1.0000 0.16873  0.30682  0.42592  Biso   1.000  C
  H485     1.0000 0.25239  0.34001  0.31753  Biso   1.000  H
  H486     1.0000 0.23212  0.27273  0.38196  Biso   1.000  H
  H487     1.0000 0.23208  0.27273  0.38196  Biso   1.000  H
  H488     1.0000 0.25243  0.34001  0.31753  Biso   1.000  H
  H489     1.0000 0.15660  0.27812  0.49727  Biso   1.000  H
  H490     1.0000 0.18809  0.35141  0.45495  Biso   1.000  H
  H491     1.0000 0.15656  0.27812  0.49727  Biso   1.000  H
  H492     1.0000 0.18813  0.35141  0.45495  Biso   1.000  H
  C436     1.0000 0.86985  0.78512  0.89152  Biso   1.000  C
  C437     1.0000 0.84215  0.76490  0.76711  Biso   1.000  C
  C438     1.0000 0.84219  0.76490  0.76711  Biso   1.000  C
  C439     1.0000 0.83998  0.80682  0.97133  Biso   1.000  C
  C440     1.0000 0.92435  0.78369  0.92683  Biso   1.000  C
  C441     1.0000 0.92439  0.78369  0.92683  Biso   1.000  C
  N76      1.0000 0.86467  0.74139  0.69421  Biso   1.000  N
  C442     1.0000 0.86987  0.78508  0.89152  Biso   1.000  C
  H493     1.0000 0.80719  0.76982  0.74299  Biso   1.000  H
  H494     1.0000 0.80715  0.76982  0.74299  Biso   1.000  H
  C443     1.0000 0.86989  0.78512  0.89152  Biso   1.000  C
  H495     1.0000 0.80296  0.80801  0.94712  Biso   1.000  H
  H496     1.0000 0.80300  0.80801  0.94712  Biso   1.000  H
  C444     1.0000 0.86548  0.82642  0.08637  Biso   1.000  C
  H497     1.0000 0.94454  0.76939  0.87131  Biso   1.000  H
  H498     1.0000 0.94456  0.76943  0.87131  Biso   1.000  H
  H499     1.0000 0.94458  0.76939  0.87131  Biso   1.000  H
  H500     1.0000 0.94460  0.76943  0.87131  Biso   1.000  H
  C445     1.0000 0.94899  0.80282  0.04159  Biso   1.000  C
  C446     1.0000 0.94894  0.80282  0.04159  Biso   1.000  C
  C447     1.0000 0.83514  0.72427  0.57171  Biso   1.000  C
  C448     1.0000 0.83520  0.72432  0.57171  Biso   1.000  C
  C449     1.0000 0.83518  0.72427  0.57171  Biso   1.000  C
  C450     1.0000 0.91933  0.82528  0.12241  Biso   1.000  C
  C451     1.0000 0.83777  0.85079  0.17910  Biso   1.000  C
  C452     1.0000 0.91940  0.82532  0.12241  Biso   1.000  C
  C453     1.0000 0.83783  0.85084  0.17910  Biso   1.000  C
  C454     1.0000 0.91937  0.82528  0.12241  Biso   1.000  C
  C455     1.0000 0.83779  0.85084  0.17910  Biso   1.000  C
  C456     1.0000 0.00860  0.80468  0.08191  Biso   1.000  C
  C457     1.0000 0.00862  0.80472  0.08191  Biso   1.000  C
  C458     1.0000 0.00856  0.80468  0.08191  Biso   1.000  C
  C459     1.0000 0.88475  0.75751  0.47379  Biso   1.000  C
  H501     1.0000 0.80115  0.73601  0.56462  Biso   1.000  H
  C460     1.0000 0.80776  0.65408  0.54432  Biso   1.000  C
  H502     1.0000 0.80119  0.73601  0.56462  Biso   1.000  H
  C461     1.0000 0.80778  0.65413  0.54432  Biso   1.000  C
  C462     1.0000 0.88479  0.75751  0.47379  Biso   1.000  C
  H503     1.0000 0.93656  0.83958  0.20140  Biso   1.000  H
  H504     1.0000 0.93663  0.83963  0.20140  Biso   1.000  H
  H505     1.0000 0.93659  0.83963  0.20140  Biso   1.000  H
  N77      1.0000 0.78265  0.84488  0.16736  Biso   1.000  N
  H506     1.0000 0.86215  0.87149  0.24954  Biso   1.000  H
  N78      1.0000 0.78268  0.84492  0.16736  Biso   1.000  N
  H507     1.0000 0.86222  0.87153  0.24954  Biso   1.000  H
  N79      1.0000 0.78269  0.84488  0.16736  Biso   1.000  N
  H508     1.0000 0.86220  0.87149  0.24954  Biso   1.000  H
  H509     1.0000 0.86218  0.87153  0.24954  Biso   1.000  H
  N80      1.0000 0.02468  0.81479  0.19439  Biso   1.000  N
  H510     1.0000 0.03452  0.79862  0.02485  Biso   1.000  H
  N81      1.0000 0.02470  0.81483  0.19439  Biso   1.000  N
  H511     1.0000 0.03448  0.79862  0.02485  Biso   1.000  H
  N82      1.0000 0.02474  0.81483  0.19439  Biso   1.000  N
  N83      1.0000 0.90134  0.82399  0.46059  Biso   1.000  N
  H512     1.0000 0.92396  0.75508  0.49317  Biso   1.000  H
  C463     1.0000 0.85206  0.71741  0.36149  Biso   1.000  C
  N84      1.0000 0.90141  0.82404  0.46059  Biso   1.000  N
  H513     1.0000 0.92403  0.75513  0.49317  Biso   1.000  H
  N85      1.0000 0.90138  0.82399  0.46059  Biso   1.000  N
  C464     1.0000 0.85210  0.71741  0.36149  Biso   1.000  C
  H514     1.0000 0.92399  0.75513  0.49317  Biso   1.000  H
  H515     1.0000 0.83284  0.63758  0.58591  Biso   1.000  H
  H516     1.0000 0.76295  0.62938  0.57199  Biso   1.000  H
  C465     1.0000 0.81153  0.64907  0.41081  Biso   1.000  C
  H517     1.0000 0.83290  0.63763  0.58591  Biso   1.000  H
  H518     1.0000 0.76302  0.62942  0.57199  Biso   1.000  H
  C466     1.0000 0.81160  0.64912  0.41081  Biso   1.000  C
  H519     1.0000 0.83288  0.63758  0.58591  Biso   1.000  H
  H520     1.0000 0.76299  0.62938  0.57199  Biso   1.000  H
  C467     1.0000 0.81158  0.64907  0.41081  Biso   1.000  C
  H521     1.0000 0.76298  0.62942  0.57199  Biso   1.000  H
  C468     1.0000 0.76246  0.87048  0.26756  Biso   1.000  C
  C469     1.0000 0.76252  0.87053  0.26756  Biso   1.000  C
  C470     1.0000 0.76248  0.87053  0.26756  Biso   1.000  C
  C471     1.0000 0.08739  0.82499  0.22834  Biso   1.000  C
  C472     1.0000 0.08741  0.82504  0.22834  Biso   1.000  C
  C473     1.0000 0.08737  0.82504  0.22834  Biso   1.000  C
  C474     1.0000 0.95785  0.86581  0.47379  Biso   1.000  C
  C475     1.0000 0.95789  0.86581  0.47379  Biso   1.000  C
  H522     1.0000 0.82479  0.73190  0.32190  Biso   1.000  H
  H523     1.0000 0.88377  0.71979  0.30178  Biso   1.000  H
  H524     1.0000 0.88373  0.71979  0.30178  Biso   1.000  H
  H525     1.0000 0.76836  0.62838  0.37468  Biso   1.000  H
  H526     1.0000 0.83167  0.62327  0.39043  Biso   1.000  H
  H527     1.0000 0.76842  0.62842  0.37468  Biso   1.000  H
  H528     1.0000 0.83170  0.62332  0.39043  Biso   1.000  H
  H529     1.0000 0.76838  0.62842  0.37468  Biso   1.000  H
  H530     1.0000 0.80046  0.89619  0.32062  Biso   1.000  H
  C476     1.0000 0.71046  0.82132  0.34565  Biso   1.000  C
  C477     1.0000 0.73755  0.91259  0.22834  Biso   1.000  C
  H531     1.0000 0.80053  0.89624  0.32062  Biso   1.000  H
  C478     1.0000 0.71050  0.82132  0.34565  Biso   1.000  C
  C479     1.0000 0.73761  0.91264  0.22834  Biso   1.000  C
  C480     1.0000 0.73759  0.91259  0.22834  Biso   1.000  C
  H532     1.0000 0.80048  0.89624  0.32062  Biso   1.000  H
  H533     1.0000 0.10701  0.81450  0.15854  Biso   1.000  H
  C481     1.0000 0.08233  0.78422  0.34101  Biso   1.000  C
  C482     1.0000 0.12948  0.89199  0.26756  Biso   1.000  C
  C483     1.0000 0.08228  0.78422  0.34101  Biso   1.000  C
  C484     1.0000 0.12950  0.89204  0.26756  Biso   1.000  C
  H534     1.0000 0.10696  0.81450  0.15854  Biso   1.000  H
  C485     1.0000 0.98018  0.93501  0.47124  Biso   1.000  C
  H535     1.0000 0.98855  0.85279  0.48626  Biso   1.000  H
  H536     1.0000 0.98862  0.85284  0.48626  Biso   1.000  H
  H537     1.0000 0.98859  0.85279  0.48626  Biso   1.000  H
  H538     1.0000 0.98857  0.85284  0.48626  Biso   1.000  H
  H539     1.0000 0.72596  0.79747  0.39498  Biso   1.000  H
  H540     1.0000 0.67368  0.79080  0.29605  Biso   1.000  H
  C486     1.0000 0.69317  0.86190  0.42592  Biso   1.000  C
  H541     1.0000 0.72602  0.79752  0.39498  Biso   1.000  H
  C487     1.0000 0.69321  0.86190  0.42592  Biso   1.000  C
  H542     1.0000 0.72598  0.79752  0.39498  Biso   1.000  H
  N86      1.0000 0.79005  0.97530  0.19439  Biso   1.000  N
  H543     1.0000 0.70747  0.89299  0.15854  Biso   1.000  H
  C488     1.0000 0.70186  0.91769  0.34101  Biso   1.000  C
  N87      1.0000 0.79009  0.97530  0.19439  Biso   1.000  N
  H544     1.0000 0.70750  0.89304  0.15854  Biso   1.000  H
  C489     1.0000 0.70192  0.91774  0.34101  Biso   1.000  C
  C490     1.0000 0.70190  0.91769  0.34101  Biso   1.000  C
  C491     1.0000 0.70188  0.91774  0.34101  Biso   1.000  C
  H545     1.0000 0.08760  0.74759  0.31753  Biso   1.000  H
  H546     1.0000 0.04060  0.76791  0.38196  Biso   1.000  H
  C492     1.0000 0.13811  0.83129  0.42592  Biso   1.000  C
  C493     1.0000 0.13809  0.83133  0.42592  Biso   1.000  C
  C494     1.0000 0.13807  0.83129  0.42592  Biso   1.000  C
  H547     1.0000 0.08755  0.74759  0.31753  Biso   1.000  H
  H548     1.0000 0.04056  0.76791  0.38196  Biso   1.000  H
  C495     1.0000 0.13814  0.83133  0.42592  Biso   1.000  C
  N88      1.0000 0.15512  0.93782  0.16736  Biso   1.000  N
  H549     1.0000 0.10379  0.90429  0.32062  Biso   1.000  H
  C496     1.0000 0.17870  0.88918  0.34565  Biso   1.000  C
  N89      1.0000 0.15508  0.93782  0.16736  Biso   1.000  N
  H550     1.0000 0.10381  0.90434  0.32062  Biso   1.000  H
  C497     1.0000 0.17868  0.88923  0.34565  Biso   1.000  C
  C498     1.0000 0.17866  0.88918  0.34565  Biso   1.000  C
  C499     1.0000 0.93527  0.95561  0.47215  Biso   1.000  C
  C500     1.0000 0.93531  0.95561  0.47215  Biso   1.000  C
  C501     1.0000 0.04440  0.97969  0.47215  Biso   1.000  C
  C502     1.0000 0.04442  0.97974  0.47215  Biso   1.000  C
  C503     1.0000 0.04436  0.97969  0.47215  Biso   1.000  C
  H551     1.0000 0.72186  0.87850  0.49727  Biso   1.000  H
  H552     1.0000 0.64857  0.83672  0.45495  Biso   1.000  H
  H553     1.0000 0.72191  0.87850  0.49727  Biso   1.000  H
  H554     1.0000 0.64861  0.83672  0.45495  Biso   1.000  H
  C504     1.0000 0.79608  0.99142  0.08191  Biso   1.000  C
  C505     1.0000 0.79612  0.99142  0.08191  Biso   1.000  C
  H555     1.0000 0.65998  0.91240  0.31753  Biso   1.000  H
  H556     1.0000 0.72726  0.95942  0.38196  Biso   1.000  H
  H557     1.0000 0.65994  0.91240  0.31753  Biso   1.000  H
  H558     1.0000 0.72731  0.95942  0.38196  Biso   1.000  H
  H559     1.0000 0.12150  0.84340  0.49727  Biso   1.000  H
  H560     1.0000 0.16330  0.81188  0.45495  Biso   1.000  H
  H561     1.0000 0.16329  0.81192  0.45495  Biso   1.000  H
  H562     1.0000 0.16326  0.81188  0.45495  Biso   1.000  H
  H563     1.0000 0.12145  0.84340  0.49727  Biso   1.000  H
  C506     1.0000 0.14918  0.98698  0.17910  Biso   1.000  C
  C507     1.0000 0.14920  0.98703  0.17910  Biso   1.000  C
  C508     1.0000 0.14916  0.98703  0.17910  Biso   1.000  C
  H564     1.0000 0.20250  0.92852  0.39498  Biso   1.000  H
  H565     1.0000 0.20917  0.88288  0.29605  Biso   1.000  H
  H566     1.0000 0.20919  0.88293  0.29605  Biso   1.000  H
  H567     1.0000 0.20924  0.88293  0.29605  Biso   1.000  H
  H568     1.0000 0.89097  0.92499  0.47343  Biso   1.000  H
  H569     1.0000 0.89095  0.92504  0.47343  Biso   1.000  H
  H570     1.0000 0.89099  0.92504  0.47343  Biso   1.000  H
  C509     1.0000 0.95477  0.01979  0.47124  Biso   1.000  C
  C510     1.0000 0.95483  0.01984  0.47124  Biso   1.000  C
  C511     1.0000 0.95479  0.01984  0.47124  Biso   1.000  C
  H571     1.0000 0.07501  0.96600  0.47343  Biso   1.000  H
  H572     1.0000 0.07497  0.96600  0.47343  Biso   1.000  H
  C512     1.0000 0.06502  0.04521  0.47124  Biso   1.000  C
  C513     1.0000 0.06497  0.04521  0.47124  Biso   1.000  C
  H573     1.0000 0.76406  0.96552  0.02485  Biso   1.000  H
  H574     1.0000 0.76410  0.96552  0.02485  Biso   1.000  H
  C514     1.0000 0.85374  0.05098  0.04159  Biso   1.000  C
  C515     1.0000 0.85380  0.05103  0.04159  Biso   1.000  C
  C516     1.0000 0.85378  0.05098  0.04159  Biso   1.000  C
  H575     1.0000 0.12849  0.99070  0.24954  Biso   1.000  H
  C517     1.0000 0.17359  0.03911  0.08637  Biso   1.000  C
  C518     1.0000 0.90786  0.04211  0.47379  Biso   1.000  C
  C519     1.0000 0.90790  0.04211  0.47379  Biso   1.000  C
  C520     1.0000 0.02030  0.06471  0.47215  Biso   1.000  C
  C521     1.0000 0.13421  0.09209  0.47379  Biso   1.000  C
  C522     1.0000 0.13419  0.09213  0.47379  Biso   1.000  C
  C523     1.0000 0.13423  0.09213  0.47379  Biso   1.000  C
  C524     1.0000 0.85927  0.07559  0.92683  Biso   1.000  C
  C525     1.0000 0.85929  0.07563  0.92683  Biso   1.000  C
  C526     1.0000 0.90587  0.08059  0.12241  Biso   1.000  C
  C527     1.0000 0.90590  0.08064  0.12241  Biso   1.000  C
  C528     1.0000 0.19318  0.03319  0.97133  Biso   1.000  C
  C529     1.0000 0.19320  0.03324  0.97133  Biso   1.000  C
  C530     1.0000 0.19325  0.03324  0.97133  Biso   1.000  C
  C531     1.0000 0.17469  0.09409  0.12241  Biso   1.000  C
  C532     1.0000 0.17472  0.09414  0.12241  Biso   1.000  C
  N90      1.0000 0.92257  0.09862  0.46059  Biso   1.000  N
  H576     1.0000 0.86418  0.01140  0.48626  Biso   1.000  H
  N91      1.0000 0.92261  0.09862  0.46059  Biso   1.000  N
  H577     1.0000 0.03402  0.10902  0.47343  Biso   1.000  H
  H578     1.0000 0.03398  0.10902  0.47343  Biso   1.000  H
  N92      1.0000 0.17601  0.07740  0.46059  Biso   1.000  N
  H579     1.0000 0.14720  0.13582  0.48626  Biso   1.000  H
  N93      1.0000 0.17597  0.07740  0.46059  Biso   1.000  N
  H580     1.0000 0.14724  0.13582  0.48626  Biso   1.000  H
  C533     1.0000 0.91514  0.13009  0.89152  Biso   1.000  C
  H581     1.0000 0.82482  0.05542  0.87131  Biso   1.000  H
  C534     1.0000 0.91520  0.13014  0.89152  Biso   1.000  C
  C535     1.0000 0.91518  0.13009  0.89152  Biso   1.000  C
  H582     1.0000 0.82477  0.05542  0.87131  Biso   1.000  H
  H583     1.0000 0.90303  0.06343  0.20140  Biso   1.000  H
  C536     1.0000 0.96088  0.13453  0.08637  Biso   1.000  C
  H584     1.0000 0.90299  0.06343  0.20140  Biso   1.000  H
  C537     1.0000 0.96092  0.13453  0.08637  Biso   1.000  C
  H585     1.0000 0.19201  0.99500  0.94712  Biso   1.000  H
  H586     1.0000 0.19199  0.99504  0.94712  Biso   1.000  H
  H587     1.0000 0.19196  0.99500  0.94712  Biso   1.000  H
  H588     1.0000 0.19203  0.99504  0.94712  Biso   1.000  H
  C538     1.0000 0.21489  0.08479  0.89152  Biso   1.000  C
  C539     1.0000 0.21491  0.08484  0.89152  Biso   1.000  C
  C540     1.0000 0.19720  0.14621  0.04159  Biso   1.000  C
  H589     1.0000 0.16041  0.09700  0.20140  Biso   1.000  H
  H590     1.0000 0.16037  0.09700  0.20140  Biso   1.000  H
  C541     1.0000 0.87268  0.11522  0.47379  Biso   1.000  C
  C542     1.0000 0.24252  0.12733  0.47379  Biso   1.000  C
  C543     1.0000 0.24248  0.12733  0.47379  Biso   1.000  C
  C544     1.0000 0.92267  0.15780  0.76711  Biso   1.000  C
  C545     1.0000 0.96676  0.15999  0.97133  Biso   1.000  C
  C546     1.0000 0.96682  0.16004  0.97133  Biso   1.000  C
  C547     1.0000 0.96678  0.16004  0.97133  Biso   1.000  C
  C548     1.0000 0.01299  0.16219  0.17910  Biso   1.000  C
  C549     1.0000 0.01302  0.16224  0.17910  Biso   1.000  C
  C550     1.0000 0.23510  0.07730  0.76711  Biso   1.000  C
  C551     1.0000 0.23506  0.07730  0.76711  Biso   1.000  C
  C552     1.0000 0.21630  0.14073  0.92683  Biso   1.000  C
  C553     1.0000 0.19528  0.20391  0.08191  Biso   1.000  C
  C554     1.0000 0.19532  0.20391  0.08191  Biso   1.000  C
  H591     1.0000 0.83107  0.07602  0.49317  Biso   1.000  H
  C555     1.0000 0.88909  0.16481  0.57171  Biso   1.000  C
  C556     1.0000 0.86529  0.14793  0.36149  Biso   1.000  C
  H592     1.0000 0.83111  0.07602  0.49317  Biso   1.000  H
  H593     1.0000 0.24489  0.16891  0.49317  Biso   1.000  H
  C557     1.0000 0.27569  0.11092  0.57171  Biso   1.000  C
  C558     1.0000 0.28260  0.13472  0.36149  Biso   1.000  C
  N94      1.0000 0.87665  0.13529  0.69421  Biso   1.000  N
  N95      1.0000 0.87671  0.13534  0.69421  Biso   1.000  N
  N96      1.0000 0.87669  0.13529  0.69421  Biso   1.000  N
  N97      1.0000 0.87667  0.13534  0.69421  Biso   1.000  N
  H594     1.0000 0.96255  0.19280  0.74299  Biso   1.000  H
  H595     1.0000 0.96260  0.19280  0.74299  Biso   1.000  H
  H596     1.0000 0.00500  0.19700  0.94712  Biso   1.000  H
  H597     1.0000 0.00502  0.19705  0.94712  Biso   1.000  H
  H598     1.0000 0.00496  0.19700  0.94712  Biso   1.000  H
  N98      1.0000 0.06219  0.21731  0.16736  Biso   1.000  N
  H599     1.0000 0.00932  0.13782  0.24954  Biso   1.000  H
  H600     1.0000 0.00927  0.13782  0.24954  Biso   1.000  H
  N99      1.0000 0.25860  0.12332  0.69421  Biso   1.000  N
  H601     1.0000 0.23017  0.03739  0.74299  Biso   1.000  H
  H602     1.0000 0.23020  0.03744  0.74299  Biso   1.000  H
  H603     1.0000 0.23024  0.03744  0.74299  Biso   1.000  H
  H604     1.0000 0.23061  0.17521  0.87131  Biso   1.000  H
  H605     1.0000 0.23057  0.17521  0.87131  Biso   1.000  H
  N100     1.0000 0.18520  0.20992  0.19439  Biso   1.000  N
  H606     1.0000 0.20141  0.23591  0.02485  Biso   1.000  H
  H607     1.0000 0.20137  0.23591  0.02485  Biso   1.000  H
  H608     1.0000 0.93475  0.19881  0.56462  Biso   1.000  H
  C559     1.0000 0.84631  0.19223  0.54432  Biso   1.000  C
  H609     1.0000 0.93479  0.19881  0.56462  Biso   1.000  H
  C560     1.0000 0.84627  0.19223  0.54432  Biso   1.000  C
  C561     1.0000 0.83746  0.18842  0.41081  Biso   1.000  C
  H610     1.0000 0.83601  0.11622  0.30178  Biso   1.000  H
  H611     1.0000 0.90705  0.17521  0.32190  Biso   1.000  H
  C562     1.0000 0.83750  0.18842  0.41081  Biso   1.000  C
  H612     1.0000 0.90709  0.17521  0.32190  Biso   1.000  H
  H613     1.0000 0.83597  0.11622  0.30178  Biso   1.000  H
  H614     1.0000 0.26398  0.06519  0.56462  Biso   1.000  H
  C563     1.0000 0.34589  0.15370  0.54432  Biso   1.000  C
  H615     1.0000 0.26400  0.06524  0.56462  Biso   1.000  H
  C564     1.0000 0.34592  0.15375  0.54432  Biso   1.000  C
  C565     1.0000 0.34585  0.15370  0.54432  Biso   1.000  C
  C566     1.0000 0.35088  0.16252  0.41081  Biso   1.000  C
  H616     1.0000 0.28018  0.16400  0.30178  Biso   1.000  H
  H617     1.0000 0.26809  0.09290  0.32190  Biso   1.000  H
  H618     1.0000 0.28020  0.16405  0.30178  Biso   1.000  H
  H619     1.0000 0.26811  0.09295  0.32190  Biso   1.000  H
  C567     1.0000 0.35092  0.16252  0.41081  Biso   1.000  C
  H620     1.0000 0.28024  0.16405  0.30178  Biso   1.000  H
  C568     1.0000 0.10800  0.23749  0.26756  Biso   1.000  C
  C569     1.0000 0.10798  0.23753  0.26756  Biso   1.000  C
  C570     1.0000 0.10796  0.23749  0.26756  Biso   1.000  C
  C571     1.0000 0.10802  0.23753  0.26756  Biso   1.000  C
  C572     1.0000 0.17502  0.26243  0.22834  Biso   1.000  C
  C573     1.0000 0.17498  0.26243  0.22834  Biso   1.000  C
  H621     1.0000 0.80471  0.16710  0.58591  Biso   1.000  H
  H622     1.0000 0.86638  0.23701  0.57199  Biso   1.000  H
  H623     1.0000 0.80473  0.16715  0.58591  Biso   1.000  H
  H624     1.0000 0.80467  0.16710  0.58591  Biso   1.000  H
  H625     1.0000 0.80469  0.16715  0.58591  Biso   1.000  H
  H626     1.0000 0.85997  0.23162  0.37468  Biso   1.000  H
  H627     1.0000 0.79155  0.16829  0.39043  Biso   1.000  H
  H628     1.0000 0.86001  0.23162  0.37468  Biso   1.000  H
  H629     1.0000 0.79162  0.16834  0.39043  Biso   1.000  H
  H630     1.0000 0.79160  0.16829  0.39043  Biso   1.000  H
  H631     1.0000 0.79158  0.16834  0.39043  Biso   1.000  H
  H632     1.0000 0.36241  0.19533  0.58591  Biso   1.000  H
  H633     1.0000 0.37059  0.13362  0.57199  Biso   1.000  H
  H634     1.0000 0.36237  0.19533  0.58591  Biso   1.000  H
  H635     1.0000 0.37063  0.13362  0.57199  Biso   1.000  H
  H636     1.0000 0.37159  0.14001  0.37468  Biso   1.000  H
  H637     1.0000 0.37667  0.20840  0.39043  Biso   1.000  H
  H638     1.0000 0.37669  0.20844  0.39043  Biso   1.000  H
  H639     1.0000 0.37671  0.20840  0.39043  Biso   1.000  H
  H640     1.0000 0.37673  0.20844  0.39043  Biso   1.000  H
  H641     1.0000 0.09571  0.19953  0.32062  Biso   1.000  H
  C574     1.0000 0.11080  0.28951  0.34565  Biso   1.000  C
  H642     1.0000 0.09567  0.19953  0.32062  Biso   1.000  H
  C575     1.0000 0.11076  0.28951  0.34565  Biso   1.000  C
  H643     1.0000 0.18548  0.29252  0.15854  Biso   1.000  H
  C576     1.0000 0.21578  0.29810  0.34101  Biso   1.000  C
  C577     1.0000 0.21580  0.29814  0.34101  Biso   1.000  C
  H644     1.0000 0.18553  0.29252  0.15854  Biso   1.000  H
  C578     1.0000 0.21584  0.29814  0.34101  Biso   1.000  C
  C579     1.0000 0.16868  0.30682  0.42592  Biso   1.000  C
  H645     1.0000 0.07150  0.27401  0.39498  Biso   1.000  H
  H646     1.0000 0.11711  0.32633  0.29605  Biso   1.000  H
  H647     1.0000 0.07146  0.27401  0.39498  Biso   1.000  H
  H648     1.0000 0.11707  0.32633  0.29605  Biso   1.000  H
  C580     1.0000 0.16873  0.30682  0.42592  Biso   1.000  C
  H649     1.0000 0.25239  0.34001  0.31753  Biso   1.000  H
  H650     1.0000 0.23212  0.27273  0.38196  Biso   1.000  H
  H651     1.0000 0.23208  0.27273  0.38196  Biso   1.000  H
  H652     1.0000 0.25243  0.34001  0.31753  Biso   1.000  H
  H653     1.0000 0.15660  0.27812  0.49727  Biso   1.000  H
  H654     1.0000 0.18809  0.35141  0.45495  Biso   1.000  H
  H655     1.0000 0.15656  0.27812  0.49727  Biso   1.000  H
  H656     1.0000 0.18813  0.35141  0.45495  Biso   1.000  H
  C581     1.0000 0.77159  0.64311  0.08882  Biso   1.000  C
  C582     1.0000 0.74227  0.59709  0.98344  Biso   1.000  C
  C583     1.0000 0.72081  0.65932  0.12759  Biso   1.000  C
  H657     1.0000 0.81100  0.68202  0.06289  Biso   1.000  H
  H658     1.0000 0.78197  0.62289  0.15653  Biso   1.000  H
  C584     1.0000 0.67381  0.55723  0.02366  Biso   1.000  C
  N101     1.0000 0.77138  0.55851  0.96150  Biso   1.000  N
  H659     1.0000 0.74450  0.62122  0.90781  Biso   1.000  H
  C585     1.0000 0.65681  0.60673  0.06780  Biso   1.000  C
  H660     1.0000 0.73167  0.70220  0.09829  Biso   1.000  H
  H661     1.0000 0.71688  0.65832  0.21733  Biso   1.000  H
  N102     1.0000 0.63008  0.51693  0.92747  Biso   1.000  N
  H662     1.0000 0.67137  0.52971  0.09365  Biso   1.000  H
  C586     1.0000 0.79369  0.56109  0.85539  Biso   1.000  C
  H663     1.0000 0.64410  0.62442  0.99909  Biso   1.000  H
  H664     1.0000 0.62169  0.58803  0.12823  Biso   1.000  H
  C587     1.0000 0.60030  0.45861  0.94776  Biso   1.000  C
  C588     1.0000 0.82380  0.52361  0.81944  Biso   1.000  C
  H665     1.0000 0.79100  0.58851  0.79678  Biso   1.000  H
  C589     1.0000 0.55369  0.40949  0.86203  Biso   1.000  C
  H666     1.0000 0.60768  0.44421  0.02312  Biso   1.000  H
  C590     1.0000 0.84980  0.53233  0.70595  Biso   1.000  C
  C591     1.0000 0.82699  0.47902  0.89789  Biso   1.000  C
  C592     1.0000 0.54560  0.42652  0.74490  Biso   1.000  C
  C593     1.0000 0.52098  0.34802  0.89789  Biso   1.000  C
  C594     1.0000 0.87798  0.49733  0.66382  Biso   1.000  C
  H667     1.0000 0.84887  0.56309  0.65371  Biso   1.000  H
  H668     1.0000 0.80870  0.47201  0.97679  Biso   1.000  H
  C595     1.0000 0.85577  0.44631  0.86203  Biso   1.000  C
  C596     1.0000 0.50266  0.38069  0.66382  Biso   1.000  C
  H669     1.0000 0.56948  0.46982  0.72006  Biso   1.000  H
  C597     1.0000 0.47637  0.30019  0.81944  Biso   1.000  C
  H670     1.0000 0.52801  0.33672  0.97679  Biso   1.000  H
  C598     1.0000 0.90338  0.50611  0.54104  Biso   1.000  C
  C599     1.0000 0.88088  0.45441  0.74490  Biso   1.000  C
  C600     1.0000 0.85828  0.39972  0.94776  Biso   1.000  C
  C601     1.0000 0.49389  0.39733  0.54104  Biso   1.000  C
  C602     1.0000 0.46769  0.31750  0.70595  Biso   1.000  C
  C603     1.0000 0.43891  0.23262  0.85539  Biso   1.000  C
  N103     1.0000 0.89886  0.54430  0.46687  Biso   1.000  N
  H671     1.0000 0.92369  0.48312  0.51538  Biso   1.000  H
  H672     1.0000 0.90028  0.43052  0.72006  Biso   1.000  H
  N104     1.0000 0.88679  0.36991  0.92747  Biso   1.000  N
  H673     1.0000 0.83650  0.39232  0.02312  Biso   1.000  H
  N105     1.0000 0.45568  0.35460  0.46687  Biso   1.000  N
  H674     1.0000 0.51690  0.44063  0.51538  Biso   1.000  H
  H675     1.0000 0.43688  0.28579  0.65371  Biso   1.000  H
  N106     1.0000 0.44150  0.21292  0.96150  Biso   1.000  N
  H676     1.0000 0.41152  0.20253  0.79678  Biso   1.000  H
  C604     1.0000 0.92617  0.55160  0.34492  Biso   1.000  C
  C605     1.0000 0.88341  0.32623  0.02366  Biso   1.000  C
  C606     1.0000 0.44839  0.37463  0.34492  Biso   1.000  C
  C607     1.0000 0.40289  0.14521  0.98344  Biso   1.000  C
  C608     1.0000 0.87766  0.54139  0.24681  Biso   1.000  C
  H677     1.0000 0.94186  0.52079  0.33364  Biso   1.000  H
  C609     1.0000 0.97979  0.61903  0.32363  Biso   1.000  C
  C610     1.0000 0.85480  0.25770  0.98344  Biso   1.000  C
  H678     1.0000 0.85829  0.32861  0.09365  Biso   1.000  H
  C611     1.0000 0.94987  0.34321  0.06780  Biso   1.000  C
  C612     1.0000 0.38097  0.36080  0.32363  Biso   1.000  C
  C613     1.0000 0.45858  0.33629  0.24681  Biso   1.000  C
  H679     1.0000 0.47919  0.42113  0.33364  Biso   1.000  H
  H680     1.0000 0.37882  0.12332  0.90781  Biso   1.000  H
  C614     1.0000 0.35688  0.12852  0.08882  Biso   1.000  C
  C615     1.0000 0.44277  0.11660  0.02366  Biso   1.000  C
  N107     1.0000 0.83017  0.47573  0.22952  Biso   1.000  N
  H681     1.0000 0.85637  0.56662  0.26711  Biso   1.000  H
  C616     1.0000 0.92198  0.57172  0.13442  Biso   1.000  C
  C617     1.0000 0.97890  0.63262  0.18739  Biso   1.000  C
  H682     1.0000 0.97326  0.64950  0.37295  Biso   1.000  H
  H683     1.0000 0.02128  0.62313  0.34638  Biso   1.000  H
  N108     1.0000 0.78711  0.22861  0.96150  Biso   1.000  N
  H684     1.0000 0.87666  0.25551  0.90781  Biso   1.000  H
  C618     1.0000 0.87151  0.22842  0.08882  Biso   1.000  C
  C619     1.0000 0.93848  0.27921  0.12759  Biso   1.000  C
  H685     1.0000 0.98029  0.35589  0.99909  Biso   1.000  H
  H686     1.0000 0.96627  0.37830  0.12823  Biso   1.000  H
  C620     1.0000 0.36741  0.34631  0.18739  Biso   1.000  C
  H687     1.0000 0.37687  0.39819  0.34638  Biso   1.000  H
  H688     1.0000 0.35049  0.32380  0.37295  Biso   1.000  H
  C621     1.0000 0.42830  0.35031  0.13442  Biso   1.000  C
  N109     1.0000 0.52430  0.35451  0.22952  Biso   1.000  N
  H689     1.0000 0.43339  0.28980  0.26711  Biso   1.000  H
  H690     1.0000 0.31797  0.12899  0.06289  Biso   1.000  H
  H691     1.0000 0.37708  0.15908  0.15653  Biso   1.000  H
  C622     1.0000 0.34069  0.06152  0.12759  Biso   1.000  C
  N110     1.0000 0.48307  0.11321  0.92747  Biso   1.000  N
  C623     1.0000 0.39330  0.05012  0.06780  Biso   1.000  C
  H692     1.0000 0.47028  0.14173  0.09365  Biso   1.000  H
  C624     1.0000 0.77289  0.46142  0.23462  Biso   1.000  C
  H693     1.0000 0.93598  0.54273  0.10093  Biso   1.000  H
  H694     1.0000 0.90030  0.58212  0.06962  Biso   1.000  H
  H695     1.0000 0.97289  0.66982  0.17501  Biso   1.000  H
  H696     1.0000 0.01921  0.64130  0.14798  Biso   1.000  H
  C625     1.0000 0.76736  0.20630  0.85539  Biso   1.000  C
  H697     1.0000 0.87099  0.18898  0.06289  Biso   1.000  H
  H698     1.0000 0.84091  0.21803  0.15653  Biso   1.000  H
  H699     1.0000 0.97048  0.26829  0.09829  Biso   1.000  H
  H700     1.0000 0.94139  0.28312  0.21733  Biso   1.000  H
  H701     1.0000 0.33019  0.30310  0.17501  Biso   1.000  H
  H702     1.0000 0.35868  0.37792  0.14798  Biso   1.000  H
  H703     1.0000 0.45732  0.39332  0.10093  Biso   1.000  H
  H704     1.0000 0.41791  0.31822  0.06962  Biso   1.000  H
  C626     1.0000 0.53860  0.31149  0.23462  Biso   1.000  C
  H705     1.0000 0.29781  0.02952  0.09829  Biso   1.000  H
  H706     1.0000 0.34171  0.05861  0.21733  Biso   1.000  H
  C627     1.0000 0.54140  0.14173  0.94776  Biso   1.000  C
  H707     1.0000 0.37557  0.01969  0.99909  Biso   1.000  H
  H708     1.0000 0.41198  0.03371  0.12823  Biso   1.000  H
  C628     1.0000 0.71800  0.39542  0.22652  Biso   1.000  C
  H709     1.0000 0.76398  0.49523  0.24427  Biso   1.000  H
  C629     1.0000 0.69979  0.17620  0.81944  Biso   1.000  C
  H710     1.0000 0.79750  0.20901  0.79678  Biso   1.000  H
  C630     1.0000 0.60457  0.32260  0.22652  Biso   1.000  C
  H711     1.0000 0.50479  0.26881  0.24427  Biso   1.000  H
  C631     1.0000 0.59050  0.14421  0.86203  Biso   1.000  C
  H712     1.0000 0.55580  0.16352  0.02312  Biso   1.000  H
  C632     1.0000 0.65640  0.38422  0.22843  Biso   1.000  C
  C633     1.0000 0.72776  0.34359  0.22843  Biso   1.000  C
  C634     1.0000 0.65198  0.17301  0.89789  Biso   1.000  C
  C635     1.0000 0.68250  0.15022  0.70595  Biso   1.000  C
  C636     1.0000 0.61580  0.27220  0.22843  Biso   1.000  C
  C637     1.0000 0.57350  0.11912  0.74490  Biso   1.000  C
  H713     1.0000 0.64909  0.41931  0.23098  Biso   1.000  H
  C638     1.0000 0.67741  0.28202  0.22652  Biso   1.000  C
  H714     1.0000 0.77021  0.35093  0.23098  Biso   1.000  H
  H715     1.0000 0.66328  0.19132  0.97679  Biso   1.000  H
  C639     1.0000 0.61928  0.12198  0.66382  Biso   1.000  C
  H716     1.0000 0.71421  0.15112  0.65371  Biso   1.000  H
  H717     1.0000 0.58068  0.22981  0.23098  Biso   1.000  H
  H718     1.0000 0.53018  0.09971  0.72006  Biso   1.000  H
  C640     1.0000 0.68847  0.22709  0.23462  Biso   1.000  C
  C641     1.0000 0.60271  0.09661  0.54104  Biso   1.000  C
  N111     1.0000 0.64551  0.16981  0.22952  Biso   1.000  N
  H719     1.0000 0.73117  0.23600  0.24427  Biso   1.000  H
  N112     1.0000 0.64538  0.10110  0.46687  Biso   1.000  N
  H720     1.0000 0.55940  0.07630  0.51538  Biso   1.000  H
  C642     1.0000 0.66368  0.12232  0.24681  Biso   1.000  C
  C643     1.0000 0.62539  0.07382  0.34492  Biso   1.000  C
  H721     1.0000 0.71020  0.14359  0.26711  Biso   1.000  H
  C644     1.0000 0.64970  0.07802  0.13442  Biso   1.000  C
  H722     1.0000 0.57886  0.05808  0.33364  Biso   1.000  H
  C645     1.0000 0.63918  0.02022  0.32363  Biso   1.000  C
  C646     1.0000 0.65369  0.02108  0.18739  Biso   1.000  C
  H723     1.0000 0.60668  0.06400  0.10093  Biso   1.000  H
  H724     1.0000 0.68178  0.09971  0.06962  Biso   1.000  H
  H725     1.0000 0.67621  0.02670  0.37295  Biso   1.000  H
  H726     1.0000 0.60177  0.97868  0.34638  Biso   1.000  H
  H727     1.0000 0.69688  0.02709  0.17501  Biso   1.000  H
  H728     1.0000 0.62207  0.98078  0.14798  Biso   1.000  H
  C647     1.0000 0.61859  0.69953  0.59210  Biso   1.000  C
  C648     1.0000 0.55179  0.67611  0.53904  Biso   1.000  C
  C649     1.0000 0.61331  0.63982  0.65371  Biso   1.000  C
  H729     1.0000 0.62980  0.73400  0.65226  Biso   1.000  H
  H730     1.0000 0.65127  0.71541  0.52712  Biso   1.000  H
  C650     1.0000 0.53430  0.60973  0.49299  Biso   1.000  C
  N113     1.0000 0.55151  0.71602  0.43902  Biso   1.000  N
  H731     1.0000 0.52170  0.67292  0.60448  Biso   1.000  H
  C651     1.0000 0.55381  0.58384  0.60229  Biso   1.000  C
  H732     1.0000 0.65117  0.63601  0.63515  Biso   1.000  H
  H733     1.0000 0.60971  0.64211  0.74308  Biso   1.000  H
  N114     1.0000 0.46619  0.57230  0.46787  Biso   1.000  N
  H734     1.0000 0.55980  0.61250  0.41928  Biso   1.000  H
  C652     1.0000 0.51770  0.74230  0.45304  Biso   1.000  C
  H735     1.0000 0.51950  0.56610  0.66409  Biso   1.000  H
  H736     1.0000 0.56262  0.54983  0.57617  Biso   1.000  H
  C653     1.0000 0.44910  0.55603  0.35876  Biso   1.000  C
  C654     1.0000 0.51237  0.78460  0.36567  Biso   1.000  C
  H737     1.0000 0.49399  0.73362  0.52639  Biso   1.000  H
  C655     1.0000 0.38157  0.52389  0.32071  Biso   1.000  C
  H738     1.0000 0.48078  0.56481  0.29914  Biso   1.000  H
  C656     1.0000 0.48079  0.81650  0.39798  Biso   1.000  C
  C657     1.0000 0.53899  0.79380  0.24827  Biso   1.000  C
  C658     1.0000 0.36549  0.49743  0.20531  Biso   1.000  C
  C659     1.0000 0.33571  0.51922  0.39798  Biso   1.000  C
  C660     1.0000 0.47608  0.85770  0.32071  Biso   1.000  C
  H739     1.0000 0.46180  0.80940  0.47625  Biso   1.000  H
  C661     1.0000 0.53288  0.83419  0.16627  Biso   1.000  C
  H740     1.0000 0.56122  0.77244  0.22497  Biso   1.000  H
  C662     1.0000 0.30131  0.46710  0.16627  Biso   1.000  C
  H741     1.0000 0.39761  0.49972  0.15244  Biso   1.000  H
  C663     1.0000 0.27220  0.48760  0.36567  Biso   1.000  C
  H742     1.0000 0.34759  0.53820  0.47625  Biso   1.000  H
  C664     1.0000 0.50258  0.86810  0.20531  Biso   1.000  C
  C665     1.0000 0.44399  0.89314  0.35876  Biso   1.000  C
  C666     1.0000 0.56069  0.84564  0.04587  Biso   1.000  C
  C667     1.0000 0.28489  0.43930  0.04587  Biso   1.000  C
  C668     1.0000 0.25477  0.46099  0.24827  Biso   1.000  C
  C669     1.0000 0.22458  0.48231  0.45304  Biso   1.000  C
  H743     1.0000 0.50027  0.89790  0.15244  Biso   1.000  H
  N115     1.0000 0.42769  0.89390  0.46787  Biso   1.000  N
  H744     1.0000 0.43520  0.91603  0.29914  Biso   1.000  H
  N116     1.0000 0.56020  0.88522  0.97060  Biso   1.000  N
  H745     1.0000 0.58048  0.82203  0.02157  Biso   1.000  H
  H746     1.0000 0.24150  0.41951  0.02157  Biso   1.000  H
  N117     1.0000 0.32500  0.43982  0.97060  Biso   1.000  N
  H747     1.0000 0.21118  0.43882  0.22497  Biso   1.000  H
  N118     1.0000 0.16448  0.44850  0.43902  Biso   1.000  N
  H748     1.0000 0.23961  0.50601  0.52639  Biso   1.000  H
  C670     1.0000 0.39031  0.92461  0.49299  Biso   1.000  C
  C671     1.0000 0.58897  0.89180  0.85111  Biso   1.000  C
  C672     1.0000 0.30280  0.41102  0.85111  Biso   1.000  C
  C673     1.0000 0.12428  0.44821  0.53904  Biso   1.000  C
  C674     1.0000 0.32391  0.87573  0.53904  Biso   1.000  C
  H749     1.0000 0.38749  0.94731  0.41928  Biso   1.000  H
  C675     1.0000 0.41618  0.97001  0.60229  Biso   1.000  C
  C676     1.0000 0.54169  0.87983  0.74909  Biso   1.000  C
  H750     1.0000 0.60658  0.86243  0.84337  Biso   1.000  H
  C677     1.0000 0.64109  0.96052  0.82818  Biso   1.000  C
  C678     1.0000 0.33809  0.45832  0.74909  Biso   1.000  C
  H751     1.0000 0.25580  0.39342  0.84337  Biso   1.000  H
  C679     1.0000 0.31939  0.35889  0.82818  Biso   1.000  C
  C680     1.0000 0.07538  0.46571  0.49299  Biso   1.000  C
  C681     1.0000 0.08089  0.38140  0.59210  Biso   1.000  C
  H752     1.0000 0.15118  0.47830  0.60448  Biso   1.000  H
  N119     1.0000 0.28399  0.83553  0.43902  Biso   1.000  N
  H753     1.0000 0.32710  0.84883  0.60448  Biso   1.000  H
  C682     1.0000 0.30051  0.91913  0.59210  Biso   1.000  C
  H754     1.0000 0.43390  0.95341  0.66409  Biso   1.000  H
  C683     1.0000 0.36021  0.97354  0.65371  Biso   1.000  C
  H755     1.0000 0.45019  0.01283  0.57617  Biso   1.000  H
  N120     1.0000 0.49419  0.81240  0.73699  Biso   1.000  N
  H756     1.0000 0.51970  0.90472  0.76511  Biso   1.000  H
  C684     1.0000 0.58458  0.90730  0.63988  Biso   1.000  C
  C685     1.0000 0.64598  0.96362  0.68475  Biso   1.000  C
  H757     1.0000 0.68190  0.96953  0.86585  Biso   1.000  H
  H758     1.0000 0.62868  0.99104  0.86021  Biso   1.000  H
  N121     1.0000 0.31819  0.50582  0.73699  Biso   1.000  N
  H759     1.0000 0.38497  0.48031  0.76511  Biso   1.000  H
  C686     1.0000 0.32270  0.41540  0.63988  Biso   1.000  C
  H760     1.0000 0.28761  0.31812  0.86585  Biso   1.000  H
  H761     1.0000 0.36227  0.37129  0.86021  Biso   1.000  H
  C687     1.0000 0.31762  0.35403  0.68475  Biso   1.000  C
  N122     1.0000 0.10609  0.53381  0.46787  Biso   1.000  N
  H762     1.0000 0.05267  0.44020  0.41928  Biso   1.000  H
  C688     1.0000 0.02999  0.44621  0.60229  Biso   1.000  C
  C689     1.0000 0.02650  0.38670  0.65371  Biso   1.000  C
  H763     1.0000 0.10419  0.37020  0.65226  Biso   1.000  H
  H764     1.0000 0.06408  0.34869  0.52712  Biso   1.000  H
  C690     1.0000 0.25768  0.77540  0.45304  Biso   1.000  C
  H765     1.0000 0.26597  0.89581  0.65226  Biso   1.000  H
  H766     1.0000 0.28458  0.93591  0.52712  Biso   1.000  H
  H767     1.0000 0.35788  0.96762  0.74308  Biso   1.000  H
  H768     1.0000 0.36400  0.01522  0.63515  Biso   1.000  H
  C691     1.0000 0.43589  0.79624  0.74436  Biso   1.000  C
  H769     1.0000 0.59310  0.87501  0.60293  Biso   1.000  H
  H770     1.0000 0.56437  0.92122  0.57799  Biso   1.000  H
  H771     1.0000 0.68330  0.96052  0.65717  Biso   1.000  H
  H772     1.0000 0.65037  0.00410  0.65426  Biso   1.000  H
  C692     1.0000 0.36029  0.56409  0.74436  Biso   1.000  C
  H773     1.0000 0.28191  0.40692  0.60293  Biso   1.000  H
  H774     1.0000 0.35681  0.43562  0.57799  Biso   1.000  H
  H775     1.0000 0.35369  0.34960  0.65426  Biso   1.000  H
  H776     1.0000 0.27719  0.31669  0.65717  Biso   1.000  H
  C693     1.0000 0.10692  0.55093  0.35876  Biso   1.000  C
  H777     1.0000 0.04660  0.48050  0.66409  Biso   1.000  H
  H778     1.0000 0.98713  0.43739  0.57617  Biso   1.000  H
  H779     1.0000 0.03240  0.39032  0.74308  Biso   1.000  H
  H780     1.0000 0.98475  0.34878  0.63515  Biso   1.000  H
  C694     1.0000 0.21538  0.72780  0.36567  Biso   1.000  C
  H781     1.0000 0.26638  0.76042  0.52639  Biso   1.000  H
  C695     1.0000 0.38358  0.73052  0.73999  Biso   1.000  C
  H782     1.0000 0.42547  0.82900  0.75346  Biso   1.000  H
  C696     1.0000 0.34689  0.61641  0.73999  Biso   1.000  C
  H783     1.0000 0.40348  0.57449  0.75346  Biso   1.000  H
  C697     1.0000 0.14231  0.61841  0.32071  Biso   1.000  C
  H784     1.0000 0.08401  0.51922  0.29914  Biso   1.000  H
  C698     1.0000 0.18353  0.66433  0.39798  Biso   1.000  C
  C699     1.0000 0.20620  0.74521  0.24827  Biso   1.000  C
  C700     1.0000 0.39468  0.67830  0.74090  Biso   1.000  C
  C701     1.0000 0.32168  0.71641  0.74090  Biso   1.000  C
  C702     1.0000 0.28360  0.60530  0.74090  Biso   1.000  C
  C703     1.0000 0.13191  0.63453  0.20531  Biso   1.000  C
  H785     1.0000 0.19061  0.65241  0.47625  Biso   1.000  H
  C704     1.0000 0.16578  0.69871  0.16627  Biso   1.000  C
  H786     1.0000 0.22758  0.78880  0.22497  Biso   1.000  H
  H787     1.0000 0.43749  0.68703  0.74226  Biso   1.000  H
  C705     1.0000 0.26952  0.65313  0.73999  Biso   1.000  C
  H788     1.0000 0.31300  0.75050  0.74226  Biso   1.000  H
  H789     1.0000 0.24949  0.56252  0.74226  Biso   1.000  H
  H790     1.0000 0.10211  0.60243  0.15244  Biso   1.000  H
  C706     1.0000 0.15441  0.71512  0.04587  Biso   1.000  C
  C707     1.0000 0.20381  0.63973  0.74436  Biso   1.000  C
  N123     1.0000 0.11478  0.67501  0.97060  Biso   1.000  N
  H791     1.0000 0.17800  0.75851  0.02157  Biso   1.000  H
  N124     1.0000 0.18761  0.68183  0.73699  Biso   1.000  N
  H792     1.0000 0.17101  0.59652  0.75346  Biso   1.000  H
  C708     1.0000 0.10822  0.69724  0.85111  Biso   1.000  C
  C709     1.0000 0.12020  0.66190  0.74909  Biso   1.000  C
  H793     1.0000 0.13761  0.74421  0.84337  Biso   1.000  H
  C710     1.0000 0.03948  0.68059  0.82818  Biso   1.000  C
  H794     1.0000 0.09532  0.61502  0.76511  Biso   1.000  H
  C711     1.0000 0.09267  0.67730  0.63988  Biso   1.000  C
  C712     1.0000 0.03638  0.68241  0.68475  Biso   1.000  C
  H795     1.0000 0.03048  0.71240  0.86585  Biso   1.000  H
  H796     1.0000 0.00900  0.63772  0.86021  Biso   1.000  H
  H797     1.0000 0.12502  0.71812  0.60293  Biso   1.000  H
  H798     1.0000 0.07881  0.64321  0.57799  Biso   1.000  H
  H799     1.0000 0.99586  0.64631  0.65426  Biso   1.000  H
  H800     1.0000 0.03948  0.72280  0.65717  Biso   1.000  H
