data_image0
_cell_length_a       14.471
_cell_length_b       22.919
_cell_length_c       16.135
_cell_angle_alpha    90
_cell_angle_beta     105.02
_cell_angle_gamma    90

_symmetry_space_group_name_H-M    "P 1"
_symmetry_int_tables_number       1

loop_
  _symmetry_equiv_pos_as_xyz
  'x, y, z'

loop_
  _atom_site_label
  _atom_site_occupancy
  _atom_site_fract_x
  _atom_site_fract_y
  _atom_site_fract_z
  _atom_site_thermal_displace_type
  _atom_site_B_iso_or_equiv
  _atom_site_type_symbol
  C1       1.0000 0.42319  0.79510  0.20399  Biso   1.000  C
  N1       1.0000 0.36361  0.76709  0.13578  Biso   1.000  N
  N2       1.0000 0.36354  0.76709  0.13578  Biso   1.000  N
  N3       1.0000 0.51307  0.77111  0.21561  Biso   1.000  N
  N4       1.0000 0.51305  0.77111  0.21554  Biso   1.000  N
  O1       1.0000 0.40261  0.83376  0.24731  Biso   1.000  O
  O2       1.0000 0.40252  0.83376  0.24724  Biso   1.000  O
  C2       1.0000 0.41031  0.72041  0.10203  Biso   1.000  C
  C3       1.0000 0.41029  0.72041  0.10197  Biso   1.000  C
  C4       1.0000 0.26092  0.77281  0.11807  Biso   1.000  C
  C5       1.0000 0.26085  0.77281  0.11807  Biso   1.000  C
  C6       1.0000 0.51689  0.72490  0.15542  Biso   1.000  C
  C7       1.0000 0.51687  0.72490  0.15535  Biso   1.000  C
  C8       1.0000 0.59316  0.78568  0.28761  Biso   1.000  C
  C9       1.0000 0.59314  0.78568  0.28754  Biso   1.000  C
  H1       1.0000 0.38256  0.68232  0.10928  Biso   1.000  H
  N5       1.0000 0.41620  0.72918  0.01431  Biso   1.000  N
  N6       1.0000 0.41618  0.72918  0.01425  Biso   1.000  N
  H2       1.0000 0.24547  0.79340  0.16530  Biso   1.000  H
  H3       1.0000 0.23298  0.73411  0.11538  Biso   1.000  H
  N7       1.0000 0.21840  0.80261  0.04100  Biso   1.000  N
  H4       1.0000 0.24545  0.79340  0.16524  Biso   1.000  H
  N8       1.0000 0.21838  0.80261  0.04094  Biso   1.000  N
  H5       1.0000 0.54067  0.68812  0.18417  Biso   1.000  H
  N9       1.0000 0.56617  0.74100  0.09041  Biso   1.000  N
  N10      1.0000 0.56615  0.74100  0.09035  Biso   1.000  N
  H6       1.0000 0.56907  0.80619  0.33028  Biso   1.000  H
  H7       1.0000 0.62258  0.74981  0.31360  Biso   1.000  H
  N11      1.0000 0.66596  0.82150  0.26502  Biso   1.000  N
  N12      1.0000 0.66595  0.82150  0.26496  Biso   1.000  N
  C10      1.0000 0.50748  0.74240  0.00950  Biso   1.000  C
  C11      1.0000 0.33851  0.71910  0.94058  Biso   1.000  C
  C12      1.0000 0.16993  0.85501  0.03972  Biso   1.000  C
  C13      1.0000 0.16984  0.85501  0.03966  Biso   1.000  C
  C14      1.0000 0.19255  0.77490  0.95919  Biso   1.000  C
  C15      1.0000 0.19248  0.77490  0.95919  Biso   1.000  C
  C16      1.0000 0.66800  0.73559  0.10440  Biso   1.000  C
  C17      1.0000 0.66798  0.73559  0.10434  Biso   1.000  C
  C18      1.0000 0.68958  0.87491  0.30083  Biso   1.000  C
  C19      1.0000 0.74287  0.79572  0.23653  Biso   1.000  C
  C20      1.0000 0.68956  0.87491  0.30076  Biso   1.000  C
  C21      1.0000 0.74285  0.79572  0.23646  Biso   1.000  C
  O3       1.0000 0.53187  0.75204  0.94372  Biso   1.000  O
  O4       1.0000 0.53178  0.75204  0.94366  Biso   1.000  O
  H8       1.0000 0.36431  0.71142  0.89187  Biso   1.000  H
  H9       1.0000 0.30462  0.68441  0.95053  Biso   1.000  H
  N13      1.0000 0.27133  0.76644  0.91902  Biso   1.000  N
  H10      1.0000 0.30460  0.68441  0.95046  Biso   1.000  H
  N14      1.0000 0.27131  0.76644  0.91895  Biso   1.000  N
  O5       1.0000 0.16996  0.88429  0.10248  Biso   1.000  O
  N15      1.0000 0.12424  0.86762  0.95572  Biso   1.000  N
  N16      1.0000 0.12422  0.86762  0.95566  Biso   1.000  N
  H11      1.0000 0.15833  0.73821  0.96131  Biso   1.000  H
  C22      1.0000 0.12783  0.81980  0.89880  Biso   1.000  C
  H12      1.0000 0.15831  0.73821  0.96124  Biso   1.000  H
  C23      1.0000 0.12781  0.81980  0.89874  Biso   1.000  C
  H13      1.0000 0.68937  0.70151  0.13989  Biso   1.000  H
  H14      1.0000 0.68222  0.72900  0.04960  Biso   1.000  H
  N17      1.0000 0.72167  0.78590  0.14522  Biso   1.000  N
  H15      1.0000 0.68213  0.72900  0.04954  Biso   1.000  H
  N18      1.0000 0.72165  0.78590  0.14515  Biso   1.000  N
  N19      1.0000 0.77532  0.89079  0.28761  Biso   1.000  N
  O6       1.0000 0.64115  0.90589  0.33650  Biso   1.000  O
  N20      1.0000 0.77523  0.89079  0.28754  Biso   1.000  N
  O7       1.0000 0.64113  0.90589  0.33644  Biso   1.000  O
  C24      1.0000 0.81861  0.84410  0.25161  Biso   1.000  C
  H16      1.0000 0.76731  0.76042  0.26900  Biso   1.000  H
  C25      1.0000 0.81852  0.84410  0.25154  Biso   1.000  C
  H17      1.0000 0.76725  0.76042  0.26900  Biso   1.000  H
  C26      1.0000 0.25807  0.79681  0.84490  Biso   1.000  C
  C27      1.0000 0.25800  0.79681  0.84490  Biso   1.000  C
  C28      1.0000 0.05334  0.91269  0.93371  Biso   1.000  C
  C29      1.0000 0.05332  0.91269  0.93365  Biso   1.000  C
  N21      1.0000 0.17921  0.83280  0.83508  Biso   1.000  N
  H18      1.0000 0.06402  0.80392  0.87262  Biso   1.000  H
  H19      1.0000 0.06400  0.80392  0.87256  Biso   1.000  H
  C30      1.0000 0.77597  0.81901  0.10691  Biso   1.000  C
  C31      1.0000 0.77595  0.81901  0.10684  Biso   1.000  C
  C32      1.0000 0.83045  0.93909  0.33419  Biso   1.000  C
  N22      1.0000 0.82873  0.85632  0.16562  Biso   1.000  N
  N23      1.0000 0.82864  0.85632  0.16556  Biso   1.000  N
  H20      1.0000 0.87905  0.83149  0.29049  Biso   1.000  H
  O8       1.0000 0.30793  0.79301  0.79293  Biso   1.000  O
  O9       1.0000 0.30792  0.79301  0.79286  Biso   1.000  O
  H21      1.0000 0.99323  0.89550  0.90221  Biso   1.000  H
  H22      1.0000 0.99321  0.89550  0.90214  Biso   1.000  H
  H23      1.0000 0.04364  0.92940  0.98601  Biso   1.000  H
  N24      1.0000 0.07876  0.95868  0.88251  Biso   1.000  N
  H24      1.0000 0.04362  0.92940  0.98595  Biso   1.000  H
  N25      1.0000 0.07867  0.95868  0.88244  Biso   1.000  N
  C33      1.0000 0.13682  0.86151  0.75532  Biso   1.000  C
  C34      1.0000 0.13680  0.86151  0.75526  Biso   1.000  C
  O10      1.0000 0.77809  0.81548  0.03080  Biso   1.000  O
  H25      1.0000 0.79580  0.95602  0.37237  Biso   1.000  H
  H26      1.0000 0.89076  0.92430  0.36929  Biso   1.000  H
  N26      1.0000 0.84969  0.98429  0.27811  Biso   1.000  N
  H27      1.0000 0.79573  0.95602  0.37237  Biso   1.000  H
  N27      1.0000 0.84967  0.98429  0.27805  Biso   1.000  N
  C35      1.0000 0.91215  0.88739  0.15157  Biso   1.000  C
  C36      1.0000 0.06161  0.95488  0.79087  Biso   1.000  C
  C37      1.0000 0.09453  0.01418  0.91151  Biso   1.000  C
  C38      1.0000 0.09451  0.01418  0.91145  Biso   1.000  C
  H28      1.0000 0.17214  0.85100  0.71400  Biso   1.000  H
  H29      1.0000 0.07177  0.84759  0.73350  Biso   1.000  H
  N28      1.0000 0.13537  0.92408  0.76251  Biso   1.000  N
  H30      1.0000 0.07171  0.84759  0.73350  Biso   1.000  H
  N29      1.0000 0.13528  0.92408  0.76244  Biso   1.000  N
  C39      1.0000 0.92757  0.98150  0.23602  Biso   1.000  C
  C40      1.0000 0.92755  0.98150  0.23595  Biso   1.000  C
  C41      1.0000 0.81598  0.03979  0.27862  Biso   1.000  C
  C42      1.0000 0.81596  0.03979  0.27856  Biso   1.000  C
  H31      1.0000 0.96901  0.87460  0.19430  Biso   1.000  H
  H32      1.0000 0.92010  0.87700  0.09561  Biso   1.000  H
  N30      1.0000 0.90432  0.94987  0.15651  Biso   1.000  N
  H33      1.0000 0.96892  0.87460  0.19424  Biso   1.000  H
  H34      1.0000 0.92008  0.87700  0.09555  Biso   1.000  H
  N31      1.0000 0.90423  0.94987  0.15644  Biso   1.000  N
  H35      1.0000 0.99787  0.93940  0.76398  Biso   1.000  H
  H36      1.0000 0.99780  0.93940  0.76398  Biso   1.000  H
  C43      1.0000 0.07236  0.01850  0.76398  Biso   1.000  C
  C44      1.0000 0.07229  0.01850  0.76398  Biso   1.000  C
  N32      1.0000 0.09561  0.05013  0.84349  Biso   1.000  N
  O11      1.0000 0.10766  0.03054  0.98659  Biso   1.000  O
  O12      1.0000 0.10759  0.03054  0.98659  Biso   1.000  O
  C45      1.0000 0.18395  0.96021  0.72138  Biso   1.000  C
  H37      1.0000 0.98678  0.96701  0.27497  Biso   1.000  H
  C46      1.0000 0.93832  0.04512  0.20913  Biso   1.000  C
  C47      1.0000 0.93823  0.04512  0.20906  Biso   1.000  C
  N33      1.0000 0.86456  0.07592  0.23749  Biso   1.000  N
  O13      1.0000 0.75176  0.05471  0.31180  Biso   1.000  O
  O14      1.0000 0.75175  0.05471  0.31173  Biso   1.000  O
  C48      1.0000 0.90540  0.98582  0.08849  Biso   1.000  C
  N34      1.0000 0.15024  0.01571  0.72189  Biso   1.000  N
  H38      1.0000 0.01315  0.03299  0.72503  Biso   1.000  H
  H39      1.0000 0.01313  0.03299  0.72497  Biso   1.000  H
  C49      1.0000 0.08778  0.11261  0.84843  Biso   1.000  C
  C50      1.0000 0.08769  0.11261  0.84837  Biso   1.000  C
  O15      1.0000 0.24817  0.94529  0.68820  Biso   1.000  O
  O16      1.0000 0.24810  0.94529  0.68820  Biso   1.000  O
  N35      1.0000 0.92117  0.04132  0.11749  Biso   1.000  N
  H40      1.0000 0.00207  0.06060  0.23602  Biso   1.000  H
  H41      1.0000 0.00205  0.06060  0.23595  Biso   1.000  H
  C51      1.0000 0.86311  0.13849  0.24468  Biso   1.000  C
  C52      1.0000 0.86304  0.13849  0.24468  Biso   1.000  C
  O17      1.0000 0.89227  0.96946  0.01341  Biso   1.000  O
  O18      1.0000 0.89225  0.96946  0.01335  Biso   1.000  O
  C53      1.0000 0.16948  0.06091  0.66581  Biso   1.000  C
  C54      1.0000 0.16941  0.06091  0.66581  Biso   1.000  C
  N36      1.0000 0.17120  0.14368  0.83438  Biso   1.000  N
  H42      1.0000 0.03093  0.12540  0.80570  Biso   1.000  H
  H43      1.0000 0.07983  0.12300  0.90439  Biso   1.000  H
  C55      1.0000 0.94660  0.08731  0.06629  Biso   1.000  C
  H44      1.0000 0.82779  0.14900  0.28600  Biso   1.000  H
  H45      1.0000 0.92816  0.15241  0.26650  Biso   1.000  H
  N37      1.0000 0.82072  0.16720  0.16492  Biso   1.000  N
  H46      1.0000 0.82777  0.14900  0.28594  Biso   1.000  H
  N38      1.0000 0.82063  0.16720  0.16485  Biso   1.000  N
  N39      1.0000 0.22461  0.10921  0.71239  Biso   1.000  N
  H47      1.0000 0.20413  0.04398  0.62763  Biso   1.000  H
  H48      1.0000 0.10917  0.07570  0.63071  Biso   1.000  H
  H49      1.0000 0.20411  0.04398  0.62756  Biso   1.000  H
  H50      1.0000 0.10910  0.07570  0.63071  Biso   1.000  H
  C56      1.0000 0.18132  0.15590  0.74839  Biso   1.000  C
  C57      1.0000 0.22396  0.18099  0.89309  Biso   1.000  C
  C58      1.0000 0.22389  0.18099  0.89309  Biso   1.000  C
  H51      1.0000 0.95629  0.07060  0.01399  Biso   1.000  H
  N40      1.0000 0.87569  0.13238  0.04428  Biso   1.000  N
  H52      1.0000 0.00670  0.10450  0.09779  Biso   1.000  H
  C59      1.0000 0.87210  0.18020  0.10120  Biso   1.000  C
  C60      1.0000 0.74187  0.20319  0.15510  Biso   1.000  C
  C61      1.0000 0.31035  0.12509  0.69917  Biso   1.000  C
  H53      1.0000 0.12088  0.16851  0.70951  Biso   1.000  H
  C62      1.0000 0.25706  0.20428  0.76347  Biso   1.000  C
  H54      1.0000 0.12081  0.16851  0.70951  Biso   1.000  H
  C63      1.0000 0.25699  0.20428  0.76347  Biso   1.000  C
  N41      1.0000 0.27827  0.21410  0.85478  Biso   1.000  N
  O19      1.0000 0.22184  0.18452  0.96920  Biso   1.000  O
  N42      1.0000 0.27820  0.21410  0.85478  Biso   1.000  N
  C64      1.0000 0.83000  0.14499  0.96028  Biso   1.000  C
  C65      1.0000 0.80738  0.22510  0.04081  Biso   1.000  C
  H55      1.0000 0.93591  0.19608  0.12738  Biso   1.000  H
  C66      1.0000 0.80737  0.22510  0.04075  Biso   1.000  C
  H56      1.0000 0.93585  0.19608  0.12738  Biso   1.000  H
  N43      1.0000 0.72860  0.23356  0.08098  Biso   1.000  N
  O20      1.0000 0.69200  0.20699  0.20707  Biso   1.000  O
  O21      1.0000 0.69193  0.20699  0.20707  Biso   1.000  O
  N44      1.0000 0.33397  0.17850  0.73498  Biso   1.000  N
  O22      1.0000 0.35878  0.09411  0.66350  Biso   1.000  O
  N45      1.0000 0.33390  0.17850  0.73498  Biso   1.000  N
  O23      1.0000 0.35871  0.09411  0.66350  Biso   1.000  O
  H57      1.0000 0.23262  0.23958  0.73100  Biso   1.000  H
  C67      1.0000 0.33194  0.26441  0.89560  Biso   1.000  C
  N46      1.0000 0.78153  0.19739  0.95900  Biso   1.000  N
  O24      1.0000 0.82997  0.11571  0.89752  Biso   1.000  O
  O25      1.0000 0.82988  0.11571  0.89746  Biso   1.000  O
  H58      1.0000 0.84160  0.26179  0.03869  Biso   1.000  H
  C68      1.0000 0.66142  0.28090  0.05942  Biso   1.000  C
  C69      1.0000 0.66134  0.28090  0.05936  Biso   1.000  C
  C70      1.0000 0.40677  0.21432  0.71239  Biso   1.000  C
  C71      1.0000 0.40670  0.21432  0.71239  Biso   1.000  C
  H59      1.0000 0.31056  0.29849  0.86011  Biso   1.000  H
  H60      1.0000 0.31771  0.27100  0.95040  Biso   1.000  H
  N47      1.0000 0.43376  0.25900  0.90959  Biso   1.000  N
  H61      1.0000 0.31047  0.29849  0.86005  Biso   1.000  H
  N48      1.0000 0.43369  0.25900  0.90959  Biso   1.000  N
  C72      1.0000 0.73901  0.22719  0.88193  Biso   1.000  C
  C73      1.0000 0.73900  0.22719  0.88186  Biso   1.000  C
  N49      1.0000 0.58373  0.27082  0.98569  Biso   1.000  N
  H62      1.0000 0.63562  0.28858  0.10813  Biso   1.000  H
  H63      1.0000 0.69531  0.31559  0.04947  Biso   1.000  H
  H64      1.0000 0.63554  0.28858  0.10806  Biso   1.000  H
  H65      1.0000 0.69524  0.31559  0.04947  Biso   1.000  H
  H66      1.0000 0.43086  0.19381  0.66972  Biso   1.000  H
  H67      1.0000 0.37735  0.25019  0.68640  Biso   1.000  H
  N50      1.0000 0.48687  0.22889  0.78439  Biso   1.000  N
  H68      1.0000 0.43084  0.19381  0.66966  Biso   1.000  H
  N51      1.0000 0.48680  0.22889  0.78439  Biso   1.000  N
  C74      1.0000 0.48304  0.27510  0.84458  Biso   1.000  C
  C75      1.0000 0.49245  0.25760  0.99050  Biso   1.000  C
  C76      1.0000 0.49237  0.25760  0.99044  Biso   1.000  C
  H69      1.0000 0.75446  0.20660  0.83470  Biso   1.000  H
  H70      1.0000 0.76695  0.26589  0.88462  Biso   1.000  H
  N52      1.0000 0.63632  0.23291  0.86422  Biso   1.000  N
  H71      1.0000 0.75439  0.20660  0.83470  Biso   1.000  H
  H72      1.0000 0.76693  0.26589  0.88456  Biso   1.000  H
  N53      1.0000 0.63630  0.23291  0.86415  Biso   1.000  N
  C77      1.0000 0.58962  0.27959  0.89797  Biso   1.000  C
  C78      1.0000 0.57674  0.20490  0.79601  Biso   1.000  C
  C79      1.0000 0.57672  0.20490  0.79594  Biso   1.000  C
  H73      1.0000 0.45926  0.31188  0.81583  Biso   1.000  H
  H74      1.0000 0.45924  0.31188  0.81577  Biso   1.000  H
  O26      1.0000 0.46806  0.24796  0.05628  Biso   1.000  O
  H75      1.0000 0.61738  0.31768  0.89072  Biso   1.000  H
  H76      1.0000 0.61729  0.31768  0.89066  Biso   1.000  H
  O27      1.0000 0.59732  0.16624  0.75269  Biso   1.000  O
  C80      1.0000 0.42319  0.79510  0.20399  Biso   1.000  C
  N54      1.0000 0.36361  0.76709  0.13578  Biso   1.000  N
  N55      1.0000 0.36354  0.76709  0.13578  Biso   1.000  N
  N56      1.0000 0.51307  0.77111  0.21561  Biso   1.000  N
  N57      1.0000 0.51305  0.77111  0.21554  Biso   1.000  N
  O28      1.0000 0.40261  0.83376  0.24731  Biso   1.000  O
  O29      1.0000 0.40252  0.83376  0.24724  Biso   1.000  O
  C81      1.0000 0.41031  0.72041  0.10203  Biso   1.000  C
  C82      1.0000 0.41029  0.72041  0.10197  Biso   1.000  C
  C83      1.0000 0.26092  0.77281  0.11807  Biso   1.000  C
  C84      1.0000 0.26085  0.77281  0.11807  Biso   1.000  C
  C85      1.0000 0.51689  0.72490  0.15542  Biso   1.000  C
  C86      1.0000 0.51687  0.72490  0.15535  Biso   1.000  C
  C87      1.0000 0.59316  0.78568  0.28761  Biso   1.000  C
  C88      1.0000 0.59314  0.78568  0.28754  Biso   1.000  C
  H77      1.0000 0.38256  0.68232  0.10928  Biso   1.000  H
  N58      1.0000 0.41620  0.72918  0.01431  Biso   1.000  N
  N59      1.0000 0.41618  0.72918  0.01425  Biso   1.000  N
  H78      1.0000 0.23298  0.73411  0.11538  Biso   1.000  H
  H79      1.0000 0.24547  0.79340  0.16530  Biso   1.000  H
  N60      1.0000 0.21840  0.80261  0.04100  Biso   1.000  N
  H80      1.0000 0.24545  0.79340  0.16524  Biso   1.000  H
  N61      1.0000 0.21838  0.80261  0.04094  Biso   1.000  N
  H81      1.0000 0.54067  0.68812  0.18417  Biso   1.000  H
  N62      1.0000 0.56617  0.74100  0.09041  Biso   1.000  N
  N63      1.0000 0.56615  0.74100  0.09035  Biso   1.000  N
  H82      1.0000 0.56907  0.80619  0.33028  Biso   1.000  H
  H83      1.0000 0.62258  0.74981  0.31360  Biso   1.000  H
  N64      1.0000 0.66596  0.82150  0.26502  Biso   1.000  N
  N65      1.0000 0.66595  0.82150  0.26496  Biso   1.000  N
  C89      1.0000 0.50748  0.74240  0.00950  Biso   1.000  C
  C90      1.0000 0.33851  0.71910  0.94058  Biso   1.000  C
  C91      1.0000 0.16993  0.85501  0.03972  Biso   1.000  C
  C92      1.0000 0.16984  0.85501  0.03966  Biso   1.000  C
  C93      1.0000 0.19255  0.77490  0.95919  Biso   1.000  C
  C94      1.0000 0.19248  0.77490  0.95919  Biso   1.000  C
  C95      1.0000 0.66800  0.73559  0.10440  Biso   1.000  C
  C96      1.0000 0.66798  0.73559  0.10434  Biso   1.000  C
  C97      1.0000 0.68958  0.87491  0.30083  Biso   1.000  C
  C98      1.0000 0.74287  0.79572  0.23653  Biso   1.000  C
  C99      1.0000 0.68956  0.87491  0.30076  Biso   1.000  C
  C100     1.0000 0.74285  0.79572  0.23646  Biso   1.000  C
  O30      1.0000 0.53187  0.75204  0.94372  Biso   1.000  O
  O31      1.0000 0.53178  0.75204  0.94366  Biso   1.000  O
  H84      1.0000 0.36431  0.71142  0.89187  Biso   1.000  H
  H85      1.0000 0.30462  0.68441  0.95053  Biso   1.000  H
  N66      1.0000 0.27133  0.76644  0.91902  Biso   1.000  N
  H86      1.0000 0.30460  0.68441  0.95046  Biso   1.000  H
  N67      1.0000 0.27131  0.76644  0.91895  Biso   1.000  N
  O32      1.0000 0.16996  0.88429  0.10248  Biso   1.000  O
  N68      1.0000 0.12424  0.86762  0.95572  Biso   1.000  N
  N69      1.0000 0.12422  0.86762  0.95566  Biso   1.000  N
  H87      1.0000 0.15833  0.73821  0.96131  Biso   1.000  H
  C101     1.0000 0.12783  0.81980  0.89880  Biso   1.000  C
  H88      1.0000 0.15831  0.73821  0.96124  Biso   1.000  H
  C102     1.0000 0.12781  0.81980  0.89874  Biso   1.000  C
  H89      1.0000 0.68937  0.70151  0.13989  Biso   1.000  H
  H90      1.0000 0.68222  0.72900  0.04960  Biso   1.000  H
  N70      1.0000 0.72167  0.78590  0.14522  Biso   1.000  N
  H91      1.0000 0.68213  0.72900  0.04954  Biso   1.000  H
  N71      1.0000 0.72165  0.78590  0.14515  Biso   1.000  N
  N72      1.0000 0.77532  0.89079  0.28761  Biso   1.000  N
  O33      1.0000 0.64115  0.90589  0.33650  Biso   1.000  O
  N73      1.0000 0.77523  0.89079  0.28754  Biso   1.000  N
  O34      1.0000 0.64113  0.90589  0.33644  Biso   1.000  O
  C103     1.0000 0.81861  0.84410  0.25161  Biso   1.000  C
  H92      1.0000 0.76731  0.76042  0.26900  Biso   1.000  H
  C104     1.0000 0.81852  0.84410  0.25154  Biso   1.000  C
  H93      1.0000 0.76725  0.76042  0.26900  Biso   1.000  H
  C105     1.0000 0.25807  0.79681  0.84490  Biso   1.000  C
  C106     1.0000 0.25800  0.79681  0.84490  Biso   1.000  C
  C107     1.0000 0.05334  0.91269  0.93371  Biso   1.000  C
  C108     1.0000 0.05332  0.91269  0.93365  Biso   1.000  C
  N74      1.0000 0.17921  0.83280  0.83508  Biso   1.000  N
  H94      1.0000 0.06402  0.80392  0.87262  Biso   1.000  H
  H95      1.0000 0.06400  0.80392  0.87256  Biso   1.000  H
  C109     1.0000 0.77597  0.81901  0.10691  Biso   1.000  C
  C110     1.0000 0.77595  0.81901  0.10684  Biso   1.000  C
  C111     1.0000 0.83045  0.93909  0.33419  Biso   1.000  C
  N75      1.0000 0.82873  0.85632  0.16562  Biso   1.000  N
  N76      1.0000 0.82864  0.85632  0.16556  Biso   1.000  N
  H96      1.0000 0.87905  0.83149  0.29049  Biso   1.000  H
  O35      1.0000 0.30793  0.79301  0.79293  Biso   1.000  O
  O36      1.0000 0.30792  0.79301  0.79286  Biso   1.000  O
  H97      1.0000 0.99323  0.89550  0.90221  Biso   1.000  H
  H98      1.0000 0.99321  0.89550  0.90214  Biso   1.000  H
  H99      1.0000 0.04364  0.92940  0.98601  Biso   1.000  H
  N77      1.0000 0.07876  0.95868  0.88251  Biso   1.000  N
  H100     1.0000 0.04362  0.92940  0.98595  Biso   1.000  H
  N78      1.0000 0.07867  0.95868  0.88244  Biso   1.000  N
  C112     1.0000 0.13682  0.86151  0.75532  Biso   1.000  C
  C113     1.0000 0.13680  0.86151  0.75526  Biso   1.000  C
  O37      1.0000 0.77809  0.81548  0.03080  Biso   1.000  O
  H101     1.0000 0.89076  0.92430  0.36929  Biso   1.000  H
  H102     1.0000 0.79580  0.95602  0.37237  Biso   1.000  H
  N79      1.0000 0.84969  0.98429  0.27811  Biso   1.000  N
  H103     1.0000 0.79573  0.95602  0.37237  Biso   1.000  H
  N80      1.0000 0.84967  0.98429  0.27805  Biso   1.000  N
  C114     1.0000 0.91215  0.88739  0.15157  Biso   1.000  C
  C115     1.0000 0.06161  0.95488  0.79087  Biso   1.000  C
  C116     1.0000 0.09453  0.01418  0.91151  Biso   1.000  C
  C117     1.0000 0.09451  0.01418  0.91145  Biso   1.000  C
  H104     1.0000 0.17214  0.85100  0.71400  Biso   1.000  H
  H105     1.0000 0.07177  0.84759  0.73350  Biso   1.000  H
  N81      1.0000 0.13537  0.92408  0.76251  Biso   1.000  N
  H106     1.0000 0.07171  0.84759  0.73350  Biso   1.000  H
  N82      1.0000 0.13528  0.92408  0.76244  Biso   1.000  N
  C118     1.0000 0.92757  0.98150  0.23602  Biso   1.000  C
  C119     1.0000 0.92755  0.98150  0.23595  Biso   1.000  C
  C120     1.0000 0.81598  0.03979  0.27862  Biso   1.000  C
  C121     1.0000 0.81596  0.03979  0.27856  Biso   1.000  C
  H107     1.0000 0.96901  0.87460  0.19430  Biso   1.000  H
  H108     1.0000 0.92010  0.87700  0.09561  Biso   1.000  H
  N83      1.0000 0.90432  0.94987  0.15651  Biso   1.000  N
  H109     1.0000 0.96892  0.87460  0.19424  Biso   1.000  H
  H110     1.0000 0.92008  0.87700  0.09555  Biso   1.000  H
  N84      1.0000 0.90423  0.94987  0.15644  Biso   1.000  N
  H111     1.0000 0.99787  0.93940  0.76398  Biso   1.000  H
  H112     1.0000 0.99780  0.93940  0.76398  Biso   1.000  H
  C122     1.0000 0.07236  0.01850  0.76398  Biso   1.000  C
  C123     1.0000 0.07229  0.01850  0.76398  Biso   1.000  C
  N85      1.0000 0.09561  0.05013  0.84349  Biso   1.000  N
  O38      1.0000 0.10766  0.03054  0.98659  Biso   1.000  O
  O39      1.0000 0.10759  0.03054  0.98659  Biso   1.000  O
  C124     1.0000 0.18395  0.96021  0.72138  Biso   1.000  C
  H113     1.0000 0.98678  0.96701  0.27497  Biso   1.000  H
  C125     1.0000 0.93832  0.04512  0.20913  Biso   1.000  C
  C126     1.0000 0.93823  0.04512  0.20906  Biso   1.000  C
  N86      1.0000 0.86456  0.07592  0.23749  Biso   1.000  N
  O40      1.0000 0.75176  0.05471  0.31180  Biso   1.000  O
  O41      1.0000 0.75175  0.05471  0.31173  Biso   1.000  O
  C127     1.0000 0.90540  0.98582  0.08849  Biso   1.000  C
  N87      1.0000 0.15024  0.01571  0.72189  Biso   1.000  N
  H114     1.0000 0.01315  0.03299  0.72503  Biso   1.000  H
  H115     1.0000 0.01313  0.03299  0.72497  Biso   1.000  H
  C128     1.0000 0.08778  0.11261  0.84843  Biso   1.000  C
  C129     1.0000 0.08769  0.11261  0.84837  Biso   1.000  C
  O42      1.0000 0.24817  0.94529  0.68820  Biso   1.000  O
  O43      1.0000 0.24810  0.94529  0.68820  Biso   1.000  O
  N88      1.0000 0.92117  0.04132  0.11749  Biso   1.000  N
  H116     1.0000 0.00207  0.06060  0.23602  Biso   1.000  H
  H117     1.0000 0.00205  0.06060  0.23595  Biso   1.000  H
  C130     1.0000 0.86311  0.13849  0.24468  Biso   1.000  C
  C131     1.0000 0.86304  0.13849  0.24468  Biso   1.000  C
  O44      1.0000 0.89227  0.96946  0.01341  Biso   1.000  O
  O45      1.0000 0.89225  0.96946  0.01335  Biso   1.000  O
  C132     1.0000 0.16948  0.06091  0.66581  Biso   1.000  C
  C133     1.0000 0.16941  0.06091  0.66581  Biso   1.000  C
  N89      1.0000 0.17120  0.14368  0.83438  Biso   1.000  N
  H118     1.0000 0.03093  0.12540  0.80570  Biso   1.000  H
  H119     1.0000 0.07983  0.12300  0.90439  Biso   1.000  H
  C134     1.0000 0.94660  0.08731  0.06629  Biso   1.000  C
  H120     1.0000 0.82779  0.14900  0.28600  Biso   1.000  H
  H121     1.0000 0.92816  0.15241  0.26650  Biso   1.000  H
  N90      1.0000 0.82072  0.16720  0.16492  Biso   1.000  N
  H122     1.0000 0.82777  0.14900  0.28594  Biso   1.000  H
  N91      1.0000 0.82063  0.16720  0.16485  Biso   1.000  N
  N92      1.0000 0.22461  0.10921  0.71239  Biso   1.000  N
  H123     1.0000 0.20413  0.04398  0.62763  Biso   1.000  H
  H124     1.0000 0.10917  0.07570  0.63071  Biso   1.000  H
  H125     1.0000 0.20411  0.04398  0.62756  Biso   1.000  H
  H126     1.0000 0.10910  0.07570  0.63071  Biso   1.000  H
  C135     1.0000 0.18132  0.15590  0.74839  Biso   1.000  C
  C136     1.0000 0.22396  0.18099  0.89309  Biso   1.000  C
  C137     1.0000 0.22389  0.18099  0.89309  Biso   1.000  C
  H127     1.0000 0.95629  0.07060  0.01399  Biso   1.000  H
  N93      1.0000 0.87569  0.13238  0.04428  Biso   1.000  N
  H128     1.0000 0.00670  0.10450  0.09779  Biso   1.000  H
  C138     1.0000 0.87210  0.18020  0.10120  Biso   1.000  C
  C139     1.0000 0.74187  0.20319  0.15510  Biso   1.000  C
  C140     1.0000 0.31035  0.12509  0.69917  Biso   1.000  C
  H129     1.0000 0.12088  0.16851  0.70951  Biso   1.000  H
  C141     1.0000 0.25706  0.20428  0.76347  Biso   1.000  C
  H130     1.0000 0.12081  0.16851  0.70951  Biso   1.000  H
  C142     1.0000 0.25699  0.20428  0.76347  Biso   1.000  C
  N94      1.0000 0.27827  0.21410  0.85478  Biso   1.000  N
  O46      1.0000 0.22184  0.18452  0.96920  Biso   1.000  O
  N95      1.0000 0.27820  0.21410  0.85478  Biso   1.000  N
  C143     1.0000 0.83000  0.14499  0.96028  Biso   1.000  C
  C144     1.0000 0.80738  0.22510  0.04081  Biso   1.000  C
  H131     1.0000 0.93591  0.19608  0.12738  Biso   1.000  H
  C145     1.0000 0.80737  0.22510  0.04075  Biso   1.000  C
  H132     1.0000 0.93585  0.19608  0.12738  Biso   1.000  H
  N96      1.0000 0.72860  0.23356  0.08098  Biso   1.000  N
  O47      1.0000 0.69200  0.20699  0.20707  Biso   1.000  O
  O48      1.0000 0.69193  0.20699  0.20707  Biso   1.000  O
  N97      1.0000 0.33397  0.17850  0.73498  Biso   1.000  N
  O49      1.0000 0.35878  0.09411  0.66350  Biso   1.000  O
  N98      1.0000 0.33390  0.17850  0.73498  Biso   1.000  N
  O50      1.0000 0.35871  0.09411  0.66350  Biso   1.000  O
  H133     1.0000 0.23262  0.23958  0.73100  Biso   1.000  H
  C146     1.0000 0.33194  0.26441  0.89560  Biso   1.000  C
  N99      1.0000 0.78153  0.19739  0.95900  Biso   1.000  N
  O51      1.0000 0.82997  0.11571  0.89752  Biso   1.000  O
  O52      1.0000 0.82988  0.11571  0.89746  Biso   1.000  O
  H134     1.0000 0.84160  0.26179  0.03869  Biso   1.000  H
  C147     1.0000 0.66142  0.28090  0.05942  Biso   1.000  C
  C148     1.0000 0.66134  0.28090  0.05936  Biso   1.000  C
  C149     1.0000 0.40677  0.21432  0.71239  Biso   1.000  C
  C150     1.0000 0.40670  0.21432  0.71239  Biso   1.000  C
  H135     1.0000 0.31056  0.29849  0.86011  Biso   1.000  H
  H136     1.0000 0.31771  0.27100  0.95040  Biso   1.000  H
  N100     1.0000 0.43376  0.25900  0.90959  Biso   1.000  N
  H137     1.0000 0.31047  0.29849  0.86005  Biso   1.000  H
  N101     1.0000 0.43369  0.25900  0.90959  Biso   1.000  N
  C151     1.0000 0.73901  0.22719  0.88193  Biso   1.000  C
  C152     1.0000 0.73900  0.22719  0.88186  Biso   1.000  C
  N102     1.0000 0.58373  0.27082  0.98569  Biso   1.000  N
  H138     1.0000 0.63562  0.28858  0.10813  Biso   1.000  H
  H139     1.0000 0.69531  0.31559  0.04947  Biso   1.000  H
  H140     1.0000 0.63554  0.28858  0.10806  Biso   1.000  H
  H141     1.0000 0.69524  0.31559  0.04947  Biso   1.000  H
  H142     1.0000 0.43086  0.19381  0.66972  Biso   1.000  H
  H143     1.0000 0.37735  0.25019  0.68640  Biso   1.000  H
  N103     1.0000 0.48687  0.22889  0.78439  Biso   1.000  N
  H144     1.0000 0.43084  0.19381  0.66966  Biso   1.000  H
  N104     1.0000 0.48680  0.22889  0.78439  Biso   1.000  N
  C153     1.0000 0.48304  0.27510  0.84458  Biso   1.000  C
  C154     1.0000 0.49245  0.25760  0.99050  Biso   1.000  C
  C155     1.0000 0.49237  0.25760  0.99044  Biso   1.000  C
  H145     1.0000 0.75446  0.20660  0.83470  Biso   1.000  H
  H146     1.0000 0.76695  0.26589  0.88462  Biso   1.000  H
  N105     1.0000 0.63632  0.23291  0.86422  Biso   1.000  N
  H147     1.0000 0.75439  0.20660  0.83470  Biso   1.000  H
  H148     1.0000 0.76693  0.26589  0.88456  Biso   1.000  H
  N106     1.0000 0.63630  0.23291  0.86415  Biso   1.000  N
  C156     1.0000 0.58962  0.27959  0.89797  Biso   1.000  C
  C157     1.0000 0.57674  0.20490  0.79601  Biso   1.000  C
  C158     1.0000 0.57672  0.20490  0.79594  Biso   1.000  C
  H149     1.0000 0.45926  0.31188  0.81583  Biso   1.000  H
  H150     1.0000 0.45924  0.31188  0.81577  Biso   1.000  H
  O53      1.0000 0.46806  0.24796  0.05628  Biso   1.000  O
  H151     1.0000 0.61738  0.31768  0.89072  Biso   1.000  H
  H152     1.0000 0.61729  0.31768  0.89066  Biso   1.000  H
  O54      1.0000 0.59732  0.16624  0.75269  Biso   1.000  O
  C159     1.0000 0.42319  0.79510  0.20399  Biso   1.000  C
  N107     1.0000 0.51307  0.77111  0.21561  Biso   1.000  N
  N108     1.0000 0.51305  0.77111  0.21554  Biso   1.000  N
  N109     1.0000 0.36361  0.76709  0.13578  Biso   1.000  N
  N110     1.0000 0.36354  0.76709  0.13578  Biso   1.000  N
  O55      1.0000 0.40261  0.83376  0.24731  Biso   1.000  O
  O56      1.0000 0.40252  0.83376  0.24724  Biso   1.000  O
  C160     1.0000 0.51689  0.72490  0.15542  Biso   1.000  C
  C161     1.0000 0.51687  0.72490  0.15535  Biso   1.000  C
  C162     1.0000 0.59316  0.78568  0.28761  Biso   1.000  C
  C163     1.0000 0.59314  0.78568  0.28754  Biso   1.000  C
  C164     1.0000 0.41031  0.72041  0.10203  Biso   1.000  C
  C165     1.0000 0.41029  0.72041  0.10197  Biso   1.000  C
  C166     1.0000 0.26092  0.77281  0.11807  Biso   1.000  C
  C167     1.0000 0.26085  0.77281  0.11807  Biso   1.000  C
  N111     1.0000 0.56617  0.74100  0.09041  Biso   1.000  N
  N112     1.0000 0.56615  0.74100  0.09035  Biso   1.000  N
  H153     1.0000 0.54067  0.68812  0.18417  Biso   1.000  H
  N113     1.0000 0.66596  0.82150  0.26502  Biso   1.000  N
  N114     1.0000 0.66595  0.82150  0.26496  Biso   1.000  N
  H154     1.0000 0.56907  0.80619  0.33028  Biso   1.000  H
  H155     1.0000 0.62258  0.74981  0.31360  Biso   1.000  H
  N115     1.0000 0.41620  0.72918  0.01431  Biso   1.000  N
  N116     1.0000 0.41618  0.72918  0.01425  Biso   1.000  N
  H156     1.0000 0.38256  0.68232  0.10928  Biso   1.000  H
  N117     1.0000 0.21840  0.80261  0.04100  Biso   1.000  N
  N118     1.0000 0.21838  0.80261  0.04094  Biso   1.000  N
  H157     1.0000 0.23298  0.73411  0.11538  Biso   1.000  H
  H158     1.0000 0.24547  0.79340  0.16530  Biso   1.000  H
  H159     1.0000 0.24545  0.79340  0.16524  Biso   1.000  H
  C168     1.0000 0.50748  0.74240  0.00950  Biso   1.000  C
  C169     1.0000 0.66800  0.73559  0.10440  Biso   1.000  C
  C170     1.0000 0.66798  0.73559  0.10434  Biso   1.000  C
  C171     1.0000 0.74287  0.79572  0.23653  Biso   1.000  C
  C172     1.0000 0.74285  0.79572  0.23646  Biso   1.000  C
  C173     1.0000 0.68958  0.87491  0.30083  Biso   1.000  C
  C174     1.0000 0.68956  0.87491  0.30076  Biso   1.000  C
  C175     1.0000 0.33851  0.71910  0.94058  Biso   1.000  C
  C176     1.0000 0.19255  0.77490  0.95919  Biso   1.000  C
  C177     1.0000 0.19248  0.77490  0.95919  Biso   1.000  C
  C178     1.0000 0.16993  0.85501  0.03972  Biso   1.000  C
  C179     1.0000 0.16984  0.85501  0.03966  Biso   1.000  C
  O57      1.0000 0.53187  0.75204  0.94372  Biso   1.000  O
  O58      1.0000 0.53178  0.75204  0.94366  Biso   1.000  O
  H160     1.0000 0.68937  0.70151  0.13989  Biso   1.000  H
  H161     1.0000 0.68222  0.72900  0.04960  Biso   1.000  H
  N119     1.0000 0.72167  0.78590  0.14522  Biso   1.000  N
  H162     1.0000 0.68213  0.72900  0.04954  Biso   1.000  H
  N120     1.0000 0.72165  0.78590  0.14515  Biso   1.000  N
  C180     1.0000 0.81861  0.84410  0.25161  Biso   1.000  C
  H163     1.0000 0.76731  0.76042  0.26900  Biso   1.000  H
  C181     1.0000 0.81852  0.84410  0.25154  Biso   1.000  C
  H164     1.0000 0.76725  0.76042  0.26900  Biso   1.000  H
  N121     1.0000 0.77532  0.89079  0.28761  Biso   1.000  N
  N122     1.0000 0.77523  0.89079  0.28754  Biso   1.000  N
  O59      1.0000 0.64115  0.90589  0.33650  Biso   1.000  O
  O60      1.0000 0.64113  0.90589  0.33644  Biso   1.000  O
  H165     1.0000 0.36431  0.71142  0.89187  Biso   1.000  H
  H166     1.0000 0.30462  0.68441  0.95053  Biso   1.000  H
  N123     1.0000 0.27133  0.76644  0.91902  Biso   1.000  N
  H167     1.0000 0.30460  0.68441  0.95046  Biso   1.000  H
  N124     1.0000 0.27131  0.76644  0.91895  Biso   1.000  N
  H168     1.0000 0.15833  0.73821  0.96131  Biso   1.000  H
  C182     1.0000 0.12783  0.81980  0.89880  Biso   1.000  C
  H169     1.0000 0.15831  0.73821  0.96124  Biso   1.000  H
  C183     1.0000 0.12781  0.81980  0.89874  Biso   1.000  C
  N125     1.0000 0.12424  0.86762  0.95572  Biso   1.000  N
  N126     1.0000 0.12422  0.86762  0.95566  Biso   1.000  N
  O61      1.0000 0.16996  0.88429  0.10248  Biso   1.000  O
  C184     1.0000 0.77597  0.81901  0.10691  Biso   1.000  C
  C185     1.0000 0.77595  0.81901  0.10684  Biso   1.000  C
  N127     1.0000 0.82873  0.85632  0.16562  Biso   1.000  N
  N128     1.0000 0.82864  0.85632  0.16556  Biso   1.000  N
  H170     1.0000 0.87905  0.83149  0.29049  Biso   1.000  H
  C186     1.0000 0.83045  0.93909  0.33419  Biso   1.000  C
  C187     1.0000 0.25807  0.79681  0.84490  Biso   1.000  C
  C188     1.0000 0.25800  0.79681  0.84490  Biso   1.000  C
  N129     1.0000 0.17921  0.83280  0.83508  Biso   1.000  N
  H171     1.0000 0.06402  0.80392  0.87262  Biso   1.000  H
  H172     1.0000 0.06400  0.80392  0.87256  Biso   1.000  H
  C189     1.0000 0.05334  0.91269  0.93371  Biso   1.000  C
  C190     1.0000 0.05332  0.91269  0.93365  Biso   1.000  C
  O62      1.0000 0.77809  0.81548  0.03080  Biso   1.000  O
  C191     1.0000 0.91215  0.88739  0.15157  Biso   1.000  C
  H173     1.0000 0.89076  0.92430  0.36929  Biso   1.000  H
  H174     1.0000 0.79580  0.95602  0.37237  Biso   1.000  H
  N130     1.0000 0.84969  0.98429  0.27811  Biso   1.000  N
  H175     1.0000 0.79573  0.95602  0.37237  Biso   1.000  H
  N131     1.0000 0.84967  0.98429  0.27805  Biso   1.000  N
  O63      1.0000 0.30793  0.79301  0.79293  Biso   1.000  O
  O64      1.0000 0.30792  0.79301  0.79286  Biso   1.000  O
  C192     1.0000 0.13682  0.86151  0.75532  Biso   1.000  C
  C193     1.0000 0.13680  0.86151  0.75526  Biso   1.000  C
  H176     1.0000 0.99323  0.89550  0.90221  Biso   1.000  H
  H177     1.0000 0.99321  0.89550  0.90214  Biso   1.000  H
  H178     1.0000 0.04364  0.92940  0.98601  Biso   1.000  H
  N132     1.0000 0.07876  0.95868  0.88251  Biso   1.000  N
  H179     1.0000 0.04362  0.92940  0.98595  Biso   1.000  H
  N133     1.0000 0.07867  0.95868  0.88244  Biso   1.000  N
  H180     1.0000 0.96901  0.87460  0.19430  Biso   1.000  H
  H181     1.0000 0.92010  0.87700  0.09561  Biso   1.000  H
  N134     1.0000 0.90432  0.94987  0.15651  Biso   1.000  N
  H182     1.0000 0.96892  0.87460  0.19424  Biso   1.000  H
  H183     1.0000 0.92008  0.87700  0.09555  Biso   1.000  H
  N135     1.0000 0.90423  0.94987  0.15644  Biso   1.000  N
  C194     1.0000 0.92757  0.98150  0.23602  Biso   1.000  C
  C195     1.0000 0.92755  0.98150  0.23595  Biso   1.000  C
  C196     1.0000 0.81598  0.03979  0.27862  Biso   1.000  C
  C197     1.0000 0.81596  0.03979  0.27856  Biso   1.000  C
  H184     1.0000 0.17214  0.85100  0.71400  Biso   1.000  H
  H185     1.0000 0.07177  0.84759  0.73350  Biso   1.000  H
  N136     1.0000 0.13537  0.92408  0.76251  Biso   1.000  N
  H186     1.0000 0.07171  0.84759  0.73350  Biso   1.000  H
  N137     1.0000 0.13528  0.92408  0.76244  Biso   1.000  N
  C198     1.0000 0.06161  0.95488  0.79087  Biso   1.000  C
  C199     1.0000 0.09453  0.01418  0.91151  Biso   1.000  C
  C200     1.0000 0.09451  0.01418  0.91145  Biso   1.000  C
  C201     1.0000 0.90540  0.98582  0.08849  Biso   1.000  C
  H187     1.0000 0.98678  0.96701  0.27497  Biso   1.000  H
  C202     1.0000 0.93832  0.04512  0.20913  Biso   1.000  C
  C203     1.0000 0.93823  0.04512  0.20906  Biso   1.000  C
  N138     1.0000 0.86456  0.07592  0.23749  Biso   1.000  N
  O65      1.0000 0.75176  0.05471  0.31180  Biso   1.000  O
  O66      1.0000 0.75175  0.05471  0.31173  Biso   1.000  O
  C204     1.0000 0.18395  0.96021  0.72138  Biso   1.000  C
  H188     1.0000 0.99787  0.93940  0.76398  Biso   1.000  H
  H189     1.0000 0.99780  0.93940  0.76398  Biso   1.000  H
  C205     1.0000 0.07236  0.01850  0.76398  Biso   1.000  C
  C206     1.0000 0.07229  0.01850  0.76398  Biso   1.000  C
  N139     1.0000 0.09561  0.05013  0.84349  Biso   1.000  N
  O67      1.0000 0.10766  0.03054  0.98659  Biso   1.000  O
  O68      1.0000 0.10759  0.03054  0.98659  Biso   1.000  O
  O69      1.0000 0.89227  0.96946  0.01341  Biso   1.000  O
  O70      1.0000 0.89225  0.96946  0.01335  Biso   1.000  O
  N140     1.0000 0.92117  0.04132  0.11749  Biso   1.000  N
  H190     1.0000 0.00207  0.06060  0.23602  Biso   1.000  H
  H191     1.0000 0.00205  0.06060  0.23595  Biso   1.000  H
  C207     1.0000 0.86311  0.13849  0.24468  Biso   1.000  C
  C208     1.0000 0.86304  0.13849  0.24468  Biso   1.000  C
  O71      1.0000 0.24817  0.94529  0.68820  Biso   1.000  O
  O72      1.0000 0.24810  0.94529  0.68820  Biso   1.000  O
  N141     1.0000 0.15024  0.01571  0.72189  Biso   1.000  N
  H192     1.0000 0.01315  0.03299  0.72503  Biso   1.000  H
  H193     1.0000 0.01313  0.03299  0.72497  Biso   1.000  H
  C209     1.0000 0.08778  0.11261  0.84843  Biso   1.000  C
  C210     1.0000 0.08769  0.11261  0.84837  Biso   1.000  C
  C211     1.0000 0.94660  0.08731  0.06629  Biso   1.000  C
  H194     1.0000 0.82779  0.14900  0.28600  Biso   1.000  H
  H195     1.0000 0.92816  0.15241  0.26650  Biso   1.000  H
  N142     1.0000 0.82072  0.16720  0.16492  Biso   1.000  N
  H196     1.0000 0.82777  0.14900  0.28594  Biso   1.000  H
  N143     1.0000 0.82063  0.16720  0.16485  Biso   1.000  N
  C212     1.0000 0.16948  0.06091  0.66581  Biso   1.000  C
  C213     1.0000 0.16941  0.06091  0.66581  Biso   1.000  C
  N144     1.0000 0.17120  0.14368  0.83438  Biso   1.000  N
  H197     1.0000 0.03093  0.12540  0.80570  Biso   1.000  H
  H198     1.0000 0.07983  0.12300  0.90439  Biso   1.000  H
  H199     1.0000 0.95629  0.07060  0.01399  Biso   1.000  H
  N145     1.0000 0.87569  0.13238  0.04428  Biso   1.000  N
  H200     1.0000 0.00670  0.10450  0.09779  Biso   1.000  H
  C214     1.0000 0.87210  0.18020  0.10120  Biso   1.000  C
  C215     1.0000 0.74187  0.20319  0.15510  Biso   1.000  C
  N146     1.0000 0.22461  0.10921  0.71239  Biso   1.000  N
  H201     1.0000 0.20413  0.04398  0.62763  Biso   1.000  H
  H202     1.0000 0.10917  0.07570  0.63071  Biso   1.000  H
  H203     1.0000 0.20411  0.04398  0.62756  Biso   1.000  H
  H204     1.0000 0.10910  0.07570  0.63071  Biso   1.000  H
  C216     1.0000 0.18132  0.15590  0.74839  Biso   1.000  C
  C217     1.0000 0.22396  0.18099  0.89309  Biso   1.000  C
  C218     1.0000 0.22389  0.18099  0.89309  Biso   1.000  C
  C219     1.0000 0.83000  0.14499  0.96028  Biso   1.000  C
  C220     1.0000 0.80738  0.22510  0.04081  Biso   1.000  C
  H205     1.0000 0.93591  0.19608  0.12738  Biso   1.000  H
  C221     1.0000 0.80737  0.22510  0.04075  Biso   1.000  C
  H206     1.0000 0.93585  0.19608  0.12738  Biso   1.000  H
  N147     1.0000 0.72860  0.23356  0.08098  Biso   1.000  N
  O73      1.0000 0.69200  0.20699  0.20707  Biso   1.000  O
  O74      1.0000 0.69193  0.20699  0.20707  Biso   1.000  O
  C222     1.0000 0.31035  0.12509  0.69917  Biso   1.000  C
  H207     1.0000 0.12088  0.16851  0.70951  Biso   1.000  H
  C223     1.0000 0.25706  0.20428  0.76347  Biso   1.000  C
  H208     1.0000 0.12081  0.16851  0.70951  Biso   1.000  H
  C224     1.0000 0.25699  0.20428  0.76347  Biso   1.000  C
  N148     1.0000 0.27827  0.21410  0.85478  Biso   1.000  N
  O75      1.0000 0.22184  0.18452  0.96920  Biso   1.000  O
  N149     1.0000 0.27820  0.21410  0.85478  Biso   1.000  N
  N150     1.0000 0.78153  0.19739  0.95900  Biso   1.000  N
  O76      1.0000 0.82997  0.11571  0.89752  Biso   1.000  O
  O77      1.0000 0.82988  0.11571  0.89746  Biso   1.000  O
  H209     1.0000 0.84160  0.26179  0.03869  Biso   1.000  H
  C225     1.0000 0.66142  0.28090  0.05942  Biso   1.000  C
  C226     1.0000 0.66134  0.28090  0.05936  Biso   1.000  C
  N151     1.0000 0.33397  0.17850  0.73498  Biso   1.000  N
  O78      1.0000 0.35878  0.09411  0.66350  Biso   1.000  O
  N152     1.0000 0.33390  0.17850  0.73498  Biso   1.000  N
  O79      1.0000 0.35871  0.09411  0.66350  Biso   1.000  O
  H210     1.0000 0.23262  0.23958  0.73100  Biso   1.000  H
  C227     1.0000 0.33194  0.26441  0.89560  Biso   1.000  C
  C228     1.0000 0.73901  0.22719  0.88193  Biso   1.000  C
  C229     1.0000 0.73900  0.22719  0.88186  Biso   1.000  C
  N153     1.0000 0.58373  0.27082  0.98569  Biso   1.000  N
  H211     1.0000 0.63562  0.28858  0.10813  Biso   1.000  H
  H212     1.0000 0.69531  0.31559  0.04947  Biso   1.000  H
  H213     1.0000 0.63554  0.28858  0.10806  Biso   1.000  H
  H214     1.0000 0.69524  0.31559  0.04947  Biso   1.000  H
  C230     1.0000 0.40677  0.21432  0.71239  Biso   1.000  C
  C231     1.0000 0.40670  0.21432  0.71239  Biso   1.000  C
  H215     1.0000 0.31056  0.29849  0.86011  Biso   1.000  H
  H216     1.0000 0.31771  0.27100  0.95040  Biso   1.000  H
  N154     1.0000 0.43376  0.25900  0.90959  Biso   1.000  N
  H217     1.0000 0.31047  0.29849  0.86005  Biso   1.000  H
  N155     1.0000 0.43369  0.25900  0.90959  Biso   1.000  N
  H218     1.0000 0.75446  0.20660  0.83470  Biso   1.000  H
  H219     1.0000 0.76695  0.26589  0.88462  Biso   1.000  H
  N156     1.0000 0.63632  0.23291  0.86422  Biso   1.000  N
  H220     1.0000 0.75439  0.20660  0.83470  Biso   1.000  H
  H221     1.0000 0.76693  0.26589  0.88456  Biso   1.000  H
  N157     1.0000 0.63630  0.23291  0.86415  Biso   1.000  N
  C232     1.0000 0.58962  0.27959  0.89797  Biso   1.000  C
  C233     1.0000 0.49245  0.25760  0.99050  Biso   1.000  C
  C234     1.0000 0.49237  0.25760  0.99044  Biso   1.000  C
  H222     1.0000 0.43086  0.19381  0.66972  Biso   1.000  H
  H223     1.0000 0.37735  0.25019  0.68640  Biso   1.000  H
  N158     1.0000 0.48687  0.22889  0.78439  Biso   1.000  N
  H224     1.0000 0.43084  0.19381  0.66966  Biso   1.000  H
  N159     1.0000 0.48680  0.22889  0.78439  Biso   1.000  N
  C235     1.0000 0.48304  0.27510  0.84458  Biso   1.000  C
  C236     1.0000 0.57674  0.20490  0.79601  Biso   1.000  C
  C237     1.0000 0.57672  0.20490  0.79594  Biso   1.000  C
  H225     1.0000 0.61738  0.31768  0.89072  Biso   1.000  H
  H226     1.0000 0.61729  0.31768  0.89066  Biso   1.000  H
  O80      1.0000 0.46806  0.24796  0.05628  Biso   1.000  O
  H227     1.0000 0.45926  0.31188  0.81583  Biso   1.000  H
  H228     1.0000 0.45924  0.31188  0.81577  Biso   1.000  H
  O81      1.0000 0.59732  0.16624  0.75269  Biso   1.000  O
  C238     1.0000 0.42319  0.79510  0.20399  Biso   1.000  C
  N160     1.0000 0.51307  0.77111  0.21561  Biso   1.000  N
  N161     1.0000 0.51305  0.77111  0.21554  Biso   1.000  N
  N162     1.0000 0.36361  0.76709  0.13578  Biso   1.000  N
  N163     1.0000 0.36354  0.76709  0.13578  Biso   1.000  N
  O82      1.0000 0.40261  0.83376  0.24731  Biso   1.000  O
  O83      1.0000 0.40252  0.83376  0.24724  Biso   1.000  O
  C239     1.0000 0.51689  0.72490  0.15542  Biso   1.000  C
  C240     1.0000 0.51687  0.72490  0.15535  Biso   1.000  C
  C241     1.0000 0.59316  0.78568  0.28761  Biso   1.000  C
  C242     1.0000 0.59314  0.78568  0.28754  Biso   1.000  C
  C243     1.0000 0.41031  0.72041  0.10203  Biso   1.000  C
  C244     1.0000 0.41029  0.72041  0.10197  Biso   1.000  C
  C245     1.0000 0.26092  0.77281  0.11807  Biso   1.000  C
  C246     1.0000 0.26085  0.77281  0.11807  Biso   1.000  C
  N164     1.0000 0.56617  0.74100  0.09041  Biso   1.000  N
  N165     1.0000 0.56615  0.74100  0.09035  Biso   1.000  N
  H229     1.0000 0.54067  0.68812  0.18417  Biso   1.000  H
  N166     1.0000 0.66596  0.82150  0.26502  Biso   1.000  N
  N167     1.0000 0.66595  0.82150  0.26496  Biso   1.000  N
  H230     1.0000 0.56907  0.80619  0.33028  Biso   1.000  H
  H231     1.0000 0.62258  0.74981  0.31360  Biso   1.000  H
  N168     1.0000 0.41620  0.72918  0.01431  Biso   1.000  N
  N169     1.0000 0.41618  0.72918  0.01425  Biso   1.000  N
  H232     1.0000 0.38256  0.68232  0.10928  Biso   1.000  H
  N170     1.0000 0.21840  0.80261  0.04100  Biso   1.000  N
  N171     1.0000 0.21838  0.80261  0.04094  Biso   1.000  N
  H233     1.0000 0.23298  0.73411  0.11538  Biso   1.000  H
  H234     1.0000 0.24547  0.79340  0.16530  Biso   1.000  H
  H235     1.0000 0.24545  0.79340  0.16524  Biso   1.000  H
  C247     1.0000 0.50748  0.74240  0.00950  Biso   1.000  C
  C248     1.0000 0.66800  0.73559  0.10440  Biso   1.000  C
  C249     1.0000 0.66798  0.73559  0.10434  Biso   1.000  C
  C250     1.0000 0.74287  0.79572  0.23653  Biso   1.000  C
  C251     1.0000 0.74285  0.79572  0.23646  Biso   1.000  C
  C252     1.0000 0.68958  0.87491  0.30083  Biso   1.000  C
  C253     1.0000 0.68956  0.87491  0.30076  Biso   1.000  C
  C254     1.0000 0.33851  0.71910  0.94058  Biso   1.000  C
  C255     1.0000 0.19255  0.77490  0.95919  Biso   1.000  C
  C256     1.0000 0.19248  0.77490  0.95919  Biso   1.000  C
  C257     1.0000 0.16993  0.85501  0.03972  Biso   1.000  C
  C258     1.0000 0.16984  0.85501  0.03966  Biso   1.000  C
  O84      1.0000 0.53187  0.75204  0.94372  Biso   1.000  O
  O85      1.0000 0.53178  0.75204  0.94366  Biso   1.000  O
  H236     1.0000 0.68937  0.70151  0.13989  Biso   1.000  H
  H237     1.0000 0.68222  0.72900  0.04960  Biso   1.000  H
  N172     1.0000 0.72167  0.78590  0.14522  Biso   1.000  N
  H238     1.0000 0.68213  0.72900  0.04954  Biso   1.000  H
  N173     1.0000 0.72165  0.78590  0.14515  Biso   1.000  N
  C259     1.0000 0.81861  0.84410  0.25161  Biso   1.000  C
  H239     1.0000 0.76731  0.76042  0.26900  Biso   1.000  H
  C260     1.0000 0.81852  0.84410  0.25154  Biso   1.000  C
  H240     1.0000 0.76725  0.76042  0.26900  Biso   1.000  H
  N174     1.0000 0.77532  0.89079  0.28761  Biso   1.000  N
  N175     1.0000 0.77523  0.89079  0.28754  Biso   1.000  N
  O86      1.0000 0.64115  0.90589  0.33650  Biso   1.000  O
  O87      1.0000 0.64113  0.90589  0.33644  Biso   1.000  O
  H241     1.0000 0.36431  0.71142  0.89187  Biso   1.000  H
  H242     1.0000 0.30462  0.68441  0.95053  Biso   1.000  H
  N176     1.0000 0.27133  0.76644  0.91902  Biso   1.000  N
  H243     1.0000 0.30460  0.68441  0.95046  Biso   1.000  H
  N177     1.0000 0.27131  0.76644  0.91895  Biso   1.000  N
  H244     1.0000 0.15833  0.73821  0.96131  Biso   1.000  H
  C261     1.0000 0.12783  0.81980  0.89880  Biso   1.000  C
  H245     1.0000 0.15831  0.73821  0.96124  Biso   1.000  H
  C262     1.0000 0.12781  0.81980  0.89874  Biso   1.000  C
  N178     1.0000 0.12424  0.86762  0.95572  Biso   1.000  N
  N179     1.0000 0.12422  0.86762  0.95566  Biso   1.000  N
  O88      1.0000 0.16996  0.88429  0.10248  Biso   1.000  O
  C263     1.0000 0.77597  0.81901  0.10691  Biso   1.000  C
  C264     1.0000 0.77595  0.81901  0.10684  Biso   1.000  C
  N180     1.0000 0.82873  0.85632  0.16562  Biso   1.000  N
  N181     1.0000 0.82864  0.85632  0.16556  Biso   1.000  N
  H246     1.0000 0.87905  0.83149  0.29049  Biso   1.000  H
  C265     1.0000 0.83045  0.93909  0.33419  Biso   1.000  C
  C266     1.0000 0.25807  0.79681  0.84490  Biso   1.000  C
  C267     1.0000 0.25800  0.79681  0.84490  Biso   1.000  C
  N182     1.0000 0.17921  0.83280  0.83508  Biso   1.000  N
  H247     1.0000 0.06402  0.80392  0.87262  Biso   1.000  H
  H248     1.0000 0.06400  0.80392  0.87256  Biso   1.000  H
  C268     1.0000 0.05334  0.91269  0.93371  Biso   1.000  C
  C269     1.0000 0.05332  0.91269  0.93365  Biso   1.000  C
  O89      1.0000 0.77809  0.81548  0.03080  Biso   1.000  O
  C270     1.0000 0.91215  0.88739  0.15157  Biso   1.000  C
  H249     1.0000 0.89076  0.92430  0.36929  Biso   1.000  H
  H250     1.0000 0.79580  0.95602  0.37237  Biso   1.000  H
  N183     1.0000 0.84969  0.98429  0.27811  Biso   1.000  N
  H251     1.0000 0.79573  0.95602  0.37237  Biso   1.000  H
  N184     1.0000 0.84967  0.98429  0.27805  Biso   1.000  N
  O90      1.0000 0.30793  0.79301  0.79293  Biso   1.000  O
  O91      1.0000 0.30792  0.79301  0.79286  Biso   1.000  O
  C271     1.0000 0.13682  0.86151  0.75532  Biso   1.000  C
  C272     1.0000 0.13680  0.86151  0.75526  Biso   1.000  C
  H252     1.0000 0.99323  0.89550  0.90221  Biso   1.000  H
  H253     1.0000 0.99321  0.89550  0.90214  Biso   1.000  H
  H254     1.0000 0.04364  0.92940  0.98601  Biso   1.000  H
  N185     1.0000 0.07876  0.95868  0.88251  Biso   1.000  N
  H255     1.0000 0.04362  0.92940  0.98595  Biso   1.000  H
  N186     1.0000 0.07867  0.95868  0.88244  Biso   1.000  N
  H256     1.0000 0.96901  0.87460  0.19430  Biso   1.000  H
  H257     1.0000 0.92010  0.87700  0.09561  Biso   1.000  H
  N187     1.0000 0.90432  0.94987  0.15651  Biso   1.000  N
  H258     1.0000 0.96892  0.87460  0.19424  Biso   1.000  H
  H259     1.0000 0.92008  0.87700  0.09555  Biso   1.000  H
  N188     1.0000 0.90423  0.94987  0.15644  Biso   1.000  N
  C273     1.0000 0.92757  0.98150  0.23602  Biso   1.000  C
  C274     1.0000 0.92755  0.98150  0.23595  Biso   1.000  C
  C275     1.0000 0.81598  0.03979  0.27862  Biso   1.000  C
  C276     1.0000 0.81596  0.03979  0.27856  Biso   1.000  C
  H260     1.0000 0.17214  0.85100  0.71400  Biso   1.000  H
  H261     1.0000 0.07177  0.84759  0.73350  Biso   1.000  H
  N189     1.0000 0.13537  0.92408  0.76251  Biso   1.000  N
  H262     1.0000 0.07171  0.84759  0.73350  Biso   1.000  H
  N190     1.0000 0.13528  0.92408  0.76244  Biso   1.000  N
  C277     1.0000 0.06161  0.95488  0.79087  Biso   1.000  C
  C278     1.0000 0.09453  0.01418  0.91151  Biso   1.000  C
  C279     1.0000 0.09451  0.01418  0.91145  Biso   1.000  C
  C280     1.0000 0.90540  0.98582  0.08849  Biso   1.000  C
  H263     1.0000 0.98678  0.96701  0.27497  Biso   1.000  H
  C281     1.0000 0.93832  0.04512  0.20913  Biso   1.000  C
  C282     1.0000 0.93823  0.04512  0.20906  Biso   1.000  C
  N191     1.0000 0.86456  0.07592  0.23749  Biso   1.000  N
  O92      1.0000 0.75176  0.05471  0.31180  Biso   1.000  O
  O93      1.0000 0.75175  0.05471  0.31173  Biso   1.000  O
  C283     1.0000 0.18395  0.96021  0.72138  Biso   1.000  C
  H264     1.0000 0.99787  0.93940  0.76398  Biso   1.000  H
  H265     1.0000 0.99780  0.93940  0.76398  Biso   1.000  H
  C284     1.0000 0.07236  0.01850  0.76398  Biso   1.000  C
  C285     1.0000 0.07229  0.01850  0.76398  Biso   1.000  C
  N192     1.0000 0.09561  0.05013  0.84349  Biso   1.000  N
  O94      1.0000 0.10766  0.03054  0.98659  Biso   1.000  O
  O95      1.0000 0.10759  0.03054  0.98659  Biso   1.000  O
  O96      1.0000 0.89227  0.96946  0.01341  Biso   1.000  O
  O97      1.0000 0.89225  0.96946  0.01335  Biso   1.000  O
  N193     1.0000 0.92117  0.04132  0.11749  Biso   1.000  N
  H266     1.0000 0.00207  0.06060  0.23602  Biso   1.000  H
  H267     1.0000 0.00205  0.06060  0.23595  Biso   1.000  H
  C286     1.0000 0.86311  0.13849  0.24468  Biso   1.000  C
  C287     1.0000 0.86304  0.13849  0.24468  Biso   1.000  C
  O98      1.0000 0.24817  0.94529  0.68820  Biso   1.000  O
  O99      1.0000 0.24810  0.94529  0.68820  Biso   1.000  O
  N194     1.0000 0.15024  0.01571  0.72189  Biso   1.000  N
  H268     1.0000 0.01315  0.03299  0.72503  Biso   1.000  H
  H269     1.0000 0.01313  0.03299  0.72497  Biso   1.000  H
  C288     1.0000 0.08778  0.11261  0.84843  Biso   1.000  C
  C289     1.0000 0.08769  0.11261  0.84837  Biso   1.000  C
  C290     1.0000 0.94660  0.08731  0.06629  Biso   1.000  C
  H270     1.0000 0.82779  0.14900  0.28600  Biso   1.000  H
  H271     1.0000 0.92816  0.15241  0.26650  Biso   1.000  H
  N195     1.0000 0.82072  0.16720  0.16492  Biso   1.000  N
  H272     1.0000 0.82777  0.14900  0.28594  Biso   1.000  H
  N196     1.0000 0.82063  0.16720  0.16485  Biso   1.000  N
  C291     1.0000 0.16948  0.06091  0.66581  Biso   1.000  C
  C292     1.0000 0.16941  0.06091  0.66581  Biso   1.000  C
  N197     1.0000 0.17120  0.14368  0.83438  Biso   1.000  N
  H273     1.0000 0.03093  0.12540  0.80570  Biso   1.000  H
  H274     1.0000 0.07983  0.12300  0.90439  Biso   1.000  H
  H275     1.0000 0.95629  0.07060  0.01399  Biso   1.000  H
  N198     1.0000 0.87569  0.13238  0.04428  Biso   1.000  N
  H276     1.0000 0.00670  0.10450  0.09779  Biso   1.000  H
  C293     1.0000 0.87210  0.18020  0.10120  Biso   1.000  C
  C294     1.0000 0.74187  0.20319  0.15510  Biso   1.000  C
  N199     1.0000 0.22461  0.10921  0.71239  Biso   1.000  N
  H277     1.0000 0.20413  0.04398  0.62763  Biso   1.000  H
  H278     1.0000 0.10917  0.07570  0.63071  Biso   1.000  H
  H279     1.0000 0.20411  0.04398  0.62756  Biso   1.000  H
  H280     1.0000 0.10910  0.07570  0.63071  Biso   1.000  H
  C295     1.0000 0.18132  0.15590  0.74839  Biso   1.000  C
  C296     1.0000 0.22396  0.18099  0.89309  Biso   1.000  C
  C297     1.0000 0.22389  0.18099  0.89309  Biso   1.000  C
  C298     1.0000 0.83000  0.14499  0.96028  Biso   1.000  C
  C299     1.0000 0.80738  0.22510  0.04081  Biso   1.000  C
  H281     1.0000 0.93591  0.19608  0.12738  Biso   1.000  H
  C300     1.0000 0.80737  0.22510  0.04075  Biso   1.000  C
  H282     1.0000 0.93585  0.19608  0.12738  Biso   1.000  H
  N200     1.0000 0.72860  0.23356  0.08098  Biso   1.000  N
  O100     1.0000 0.69200  0.20699  0.20707  Biso   1.000  O
  O101     1.0000 0.69193  0.20699  0.20707  Biso   1.000  O
  C301     1.0000 0.31035  0.12509  0.69917  Biso   1.000  C
  H283     1.0000 0.12088  0.16851  0.70951  Biso   1.000  H
  C302     1.0000 0.25706  0.20428  0.76347  Biso   1.000  C
  H284     1.0000 0.12081  0.16851  0.70951  Biso   1.000  H
  C303     1.0000 0.25699  0.20428  0.76347  Biso   1.000  C
  N201     1.0000 0.27827  0.21410  0.85478  Biso   1.000  N
  O102     1.0000 0.22184  0.18452  0.96920  Biso   1.000  O
  N202     1.0000 0.27820  0.21410  0.85478  Biso   1.000  N
  N203     1.0000 0.78153  0.19739  0.95900  Biso   1.000  N
  O103     1.0000 0.82997  0.11571  0.89752  Biso   1.000  O
  O104     1.0000 0.82988  0.11571  0.89746  Biso   1.000  O
  H285     1.0000 0.84160  0.26179  0.03869  Biso   1.000  H
  C304     1.0000 0.66142  0.28090  0.05942  Biso   1.000  C
  C305     1.0000 0.66134  0.28090  0.05936  Biso   1.000  C
  N204     1.0000 0.33397  0.17850  0.73498  Biso   1.000  N
  O105     1.0000 0.35878  0.09411  0.66350  Biso   1.000  O
  N205     1.0000 0.33390  0.17850  0.73498  Biso   1.000  N
  O106     1.0000 0.35871  0.09411  0.66350  Biso   1.000  O
  H286     1.0000 0.23262  0.23958  0.73100  Biso   1.000  H
  C306     1.0000 0.33194  0.26441  0.89560  Biso   1.000  C
  C307     1.0000 0.73901  0.22719  0.88193  Biso   1.000  C
  C308     1.0000 0.73900  0.22719  0.88186  Biso   1.000  C
  N206     1.0000 0.58373  0.27082  0.98569  Biso   1.000  N
  H287     1.0000 0.63562  0.28858  0.10813  Biso   1.000  H
  H288     1.0000 0.69531  0.31559  0.04947  Biso   1.000  H
  H289     1.0000 0.63554  0.28858  0.10806  Biso   1.000  H
  H290     1.0000 0.69524  0.31559  0.04947  Biso   1.000  H
  C309     1.0000 0.40677  0.21432  0.71239  Biso   1.000  C
  C310     1.0000 0.40670  0.21432  0.71239  Biso   1.000  C
  H291     1.0000 0.31056  0.29849  0.86011  Biso   1.000  H
  H292     1.0000 0.31771  0.27100  0.95040  Biso   1.000  H
  N207     1.0000 0.43376  0.25900  0.90959  Biso   1.000  N
  H293     1.0000 0.31047  0.29849  0.86005  Biso   1.000  H
  N208     1.0000 0.43369  0.25900  0.90959  Biso   1.000  N
  H294     1.0000 0.75446  0.20660  0.83470  Biso   1.000  H
  H295     1.0000 0.76695  0.26589  0.88462  Biso   1.000  H
  N209     1.0000 0.63632  0.23291  0.86422  Biso   1.000  N
  H296     1.0000 0.75439  0.20660  0.83470  Biso   1.000  H
  H297     1.0000 0.76693  0.26589  0.88456  Biso   1.000  H
  N210     1.0000 0.63630  0.23291  0.86415  Biso   1.000  N
  C311     1.0000 0.58962  0.27959  0.89797  Biso   1.000  C
  C312     1.0000 0.49245  0.25760  0.99050  Biso   1.000  C
  C313     1.0000 0.49237  0.25760  0.99044  Biso   1.000  C
  H298     1.0000 0.43086  0.19381  0.66972  Biso   1.000  H
  H299     1.0000 0.37735  0.25019  0.68640  Biso   1.000  H
  N211     1.0000 0.48687  0.22889  0.78439  Biso   1.000  N
  H300     1.0000 0.43084  0.19381  0.66966  Biso   1.000  H
  N212     1.0000 0.48680  0.22889  0.78439  Biso   1.000  N
  C314     1.0000 0.48304  0.27510  0.84458  Biso   1.000  C
  C315     1.0000 0.57674  0.20490  0.79601  Biso   1.000  C
  C316     1.0000 0.57672  0.20490  0.79594  Biso   1.000  C
  H301     1.0000 0.61738  0.31768  0.89072  Biso   1.000  H
  H302     1.0000 0.61729  0.31768  0.89066  Biso   1.000  H
  O107     1.0000 0.46806  0.24796  0.05628  Biso   1.000  O
  H303     1.0000 0.45926  0.31188  0.81583  Biso   1.000  H
  H304     1.0000 0.45924  0.31188  0.81577  Biso   1.000  H
  O108     1.0000 0.59732  0.16624  0.75269  Biso   1.000  O
  O109     1.0000 0.30797  0.70701  0.29287  Biso   1.000  O
  C317     1.0000 0.25805  0.70322  0.34491  Biso   1.000  C
  N213     1.0000 0.17927  0.66722  0.33509  Biso   1.000  N
  N214     1.0000 0.27138  0.73354  0.41903  Biso   1.000  N
  C318     1.0000 0.13685  0.63851  0.25527  Biso   1.000  C
  C319     1.0000 0.12789  0.68022  0.39881  Biso   1.000  C
  C320     1.0000 0.19260  0.72512  0.45920  Biso   1.000  C
  C321     1.0000 0.33856  0.78088  0.44059  Biso   1.000  C
  N215     1.0000 0.13542  0.57594  0.26252  Biso   1.000  N
  H305     1.0000 0.17220  0.64898  0.21400  Biso   1.000  H
  H306     1.0000 0.07176  0.65238  0.23351  Biso   1.000  H
  N216     1.0000 0.12427  0.63236  0.45567  Biso   1.000  N
  H307     1.0000 0.06405  0.69610  0.37257  Biso   1.000  H
  N217     1.0000 0.21838  0.69741  0.54101  Biso   1.000  N
  H308     1.0000 0.15838  0.76181  0.46131  Biso   1.000  H
  H309     1.0000 0.36436  0.78860  0.39188  Biso   1.000  H
  H310     1.0000 0.30465  0.81561  0.45047  Biso   1.000  H
  N218     1.0000 0.41618  0.77080  0.51432  Biso   1.000  N
  C322     1.0000 0.18400  0.53981  0.22138  Biso   1.000  C
  C323     1.0000 0.06166  0.54509  0.29088  Biso   1.000  C
  C324     1.0000 0.05339  0.58729  0.43372  Biso   1.000  C
  C325     1.0000 0.16983  0.64501  0.53966  Biso   1.000  C
  C326     1.0000 0.26083  0.72721  0.61808  Biso   1.000  C
  C327     1.0000 0.41028  0.77962  0.60197  Biso   1.000  C
  C328     1.0000 0.50746  0.75758  0.50950  Biso   1.000  C
  N219     1.0000 0.15029  0.48431  0.22190  Biso   1.000  N
  O110     1.0000 0.24822  0.55469  0.18821  Biso   1.000  O
  C329     1.0000 0.07241  0.48148  0.26399  Biso   1.000  C
  N220     1.0000 0.07881  0.54130  0.38251  Biso   1.000  N
  H311     1.0000 0.99785  0.56058  0.26399  Biso   1.000  H
  H312     1.0000 0.04369  0.57062  0.48602  Biso   1.000  H
  H313     1.0000 0.99329  0.60452  0.40221  Biso   1.000  H
  O111     1.0000 0.16995  0.61569  0.60249  Biso   1.000  O
  H314     1.0000 0.24545  0.70662  0.66531  Biso   1.000  H
  H315     1.0000 0.23296  0.76591  0.61538  Biso   1.000  H
  N221     1.0000 0.36359  0.73289  0.63579  Biso   1.000  N
  C330     1.0000 0.51685  0.77512  0.65536  Biso   1.000  C
  H316     1.0000 0.38254  0.81771  0.60929  Biso   1.000  H
  N222     1.0000 0.56616  0.75902  0.59042  Biso   1.000  N
  O112     1.0000 0.53184  0.74794  0.44367  Biso   1.000  O
  C331     1.0000 0.16947  0.43911  0.16581  Biso   1.000  C
  N223     1.0000 0.09566  0.44989  0.34350  Biso   1.000  N
  H317     1.0000 0.01318  0.46699  0.22498  Biso   1.000  H
  C332     1.0000 0.09459  0.48580  0.41152  Biso   1.000  C
  C333     1.0000 0.42318  0.70492  0.70400  Biso   1.000  C
  N224     1.0000 0.51305  0.72891  0.71562  Biso   1.000  N
  H318     1.0000 0.54066  0.81190  0.68417  Biso   1.000  H
  C334     1.0000 0.66798  0.76439  0.60441  Biso   1.000  C
  N225     1.0000 0.22467  0.39081  0.21240  Biso   1.000  N
  H319     1.0000 0.20416  0.45600  0.12757  Biso   1.000  H
  H320     1.0000 0.10922  0.42432  0.13071  Biso   1.000  H
  C335     1.0000 0.08774  0.38741  0.34838  Biso   1.000  C
  O113     1.0000 0.10764  0.46948  0.48660  Biso   1.000  O
  O114     1.0000 0.40259  0.66626  0.74732  Biso   1.000  O
  C336     1.0000 0.59314  0.71430  0.78762  Biso   1.000  C
  H321     1.0000 0.68936  0.79851  0.63990  Biso   1.000  H
  H322     1.0000 0.68221  0.77102  0.54961  Biso   1.000  H
  N226     1.0000 0.72163  0.71408  0.64516  Biso   1.000  N
  C337     1.0000 0.18138  0.34408  0.24840  Biso   1.000  C
  C338     1.0000 0.31041  0.37489  0.19918  Biso   1.000  C
  N227     1.0000 0.17126  0.35630  0.33439  Biso   1.000  N
  H323     1.0000 0.03098  0.37458  0.30570  Biso   1.000  H
  H324     1.0000 0.07988  0.37698  0.40440  Biso   1.000  H
  H325     1.0000 0.56906  0.69379  0.83029  Biso   1.000  H
  H326     1.0000 0.62256  0.75021  0.81360  Biso   1.000  H
  N228     1.0000 0.66593  0.67852  0.76496  Biso   1.000  N
  C339     1.0000 0.77595  0.68101  0.60691  Biso   1.000  C
  C340     1.0000 0.74283  0.70431  0.73647  Biso   1.000  C
  C341     1.0000 0.25705  0.29569  0.26348  Biso   1.000  C
  H327     1.0000 0.12087  0.33152  0.20951  Biso   1.000  H
  N229     1.0000 0.33395  0.32148  0.23499  Biso   1.000  N
  O115     1.0000 0.35876  0.40586  0.16350  Biso   1.000  O
  C342     1.0000 0.22395  0.31899  0.39310  Biso   1.000  C
  C343     1.0000 0.68955  0.62511  0.80077  Biso   1.000  C
  N230     1.0000 0.82863  0.64370  0.66556  Biso   1.000  N
  O116     1.0000 0.77808  0.68454  0.53081  Biso   1.000  O
  C344     1.0000 0.81859  0.65592  0.75162  Biso   1.000  C
  H328     1.0000 0.76723  0.73960  0.76901  Biso   1.000  H
  H329     1.0000 0.23267  0.26040  0.23101  Biso   1.000  H
  N231     1.0000 0.27825  0.28592  0.35479  Biso   1.000  N
  C345     1.0000 0.40675  0.28570  0.21240  Biso   1.000  C
  O117     1.0000 0.22189  0.31546  0.46921  Biso   1.000  O
  N232     1.0000 0.77523  0.60919  0.78762  Biso   1.000  N
  O118     1.0000 0.64113  0.59414  0.83651  Biso   1.000  O
  C346     1.0000 0.91214  0.61259  0.65158  Biso   1.000  C
  H330     1.0000 0.87903  0.66848  0.79050  Biso   1.000  H
  C347     1.0000 0.33199  0.23561  0.39560  Biso   1.000  C
  H331     1.0000 0.43091  0.30621  0.16973  Biso   1.000  H
  H332     1.0000 0.37741  0.24979  0.18641  Biso   1.000  H
  N233     1.0000 0.48685  0.27109  0.28440  Biso   1.000  N
  C348     1.0000 0.83043  0.56089  0.83420  Biso   1.000  C
  N234     1.0000 0.90424  0.55011  0.65652  Biso   1.000  N
  H333     1.0000 0.96899  0.62542  0.69431  Biso   1.000  H
  H334     1.0000 0.92009  0.62302  0.59562  Biso   1.000  H
  H335     1.0000 0.31061  0.20149  0.36012  Biso   1.000  H
  H336     1.0000 0.31776  0.22898  0.45040  Biso   1.000  H
  N235     1.0000 0.43374  0.24098  0.40959  Biso   1.000  N
  C349     1.0000 0.57679  0.29508  0.29601  Biso   1.000  C
  C350     1.0000 0.48310  0.22488  0.34459  Biso   1.000  C
  N236     1.0000 0.84968  0.51569  0.77812  Biso   1.000  N
  H337     1.0000 0.79572  0.54400  0.87238  Biso   1.000  H
  H338     1.0000 0.89075  0.57568  0.86930  Biso   1.000  H
  C351     1.0000 0.90538  0.51420  0.58850  Biso   1.000  C
  C352     1.0000 0.92754  0.51852  0.73596  Biso   1.000  C
  C353     1.0000 0.49251  0.24242  0.49051  Biso   1.000  C
  N237     1.0000 0.63638  0.26711  0.36423  Biso   1.000  N
  O119     1.0000 0.59738  0.33374  0.25270  Biso   1.000  O
  H339     1.0000 0.45929  0.18810  0.31578  Biso   1.000  H
  C354     1.0000 0.58967  0.22038  0.39798  Biso   1.000  C
  C355     1.0000 0.81595  0.46019  0.77857  Biso   1.000  C
  N238     1.0000 0.92116  0.45870  0.61750  Biso   1.000  N
  O120     1.0000 0.89226  0.53052  0.51342  Biso   1.000  O
  C356     1.0000 0.93822  0.45491  0.70907  Biso   1.000  C
  H340     1.0000 0.98677  0.53301  0.77497  Biso   1.000  H
  N239     1.0000 0.58378  0.22920  0.48570  Biso   1.000  N
  O121     1.0000 0.46805  0.25206  0.55628  Biso   1.000  O
  C357     1.0000 0.73905  0.27279  0.38187  Biso   1.000  C
  H341     1.0000 0.61734  0.18229  0.39066  Biso   1.000  H
  N240     1.0000 0.86455  0.42406  0.73750  Biso   1.000  N
  O122     1.0000 0.75175  0.44531  0.81181  Biso   1.000  O
  C358     1.0000 0.94658  0.41271  0.56629  Biso   1.000  C
  H342     1.0000 0.00203  0.43942  0.73596  Biso   1.000  H
  C359     1.0000 0.66139  0.21912  0.55936  Biso   1.000  C
  H343     1.0000 0.75451  0.29338  0.33471  Biso   1.000  H
  H344     1.0000 0.76699  0.23409  0.38457  Biso   1.000  H
  N241     1.0000 0.78159  0.30259  0.45900  Biso   1.000  N
  C360     1.0000 0.86303  0.36149  0.74469  Biso   1.000  C
  N242     1.0000 0.87568  0.36764  0.54428  Biso   1.000  N
  H345     1.0000 0.95628  0.42938  0.51400  Biso   1.000  H
  H346     1.0000 0.00668  0.39548  0.59780  Biso   1.000  H
  H347     1.0000 0.63559  0.21140  0.60807  Biso   1.000  H
  H348     1.0000 0.69530  0.18439  0.54948  Biso   1.000  H
  N243     1.0000 0.72859  0.26646  0.58099  Biso   1.000  N
  C361     1.0000 0.83005  0.35499  0.46029  Biso   1.000  C
  C362     1.0000 0.80737  0.27488  0.54082  Biso   1.000  C
  N244     1.0000 0.82068  0.33278  0.66486  Biso   1.000  N
  H349     1.0000 0.82777  0.35102  0.78601  Biso   1.000  H
  H350     1.0000 0.92814  0.34762  0.76650  Biso   1.000  H
  C363     1.0000 0.87208  0.31978  0.60120  Biso   1.000  C
  C364     1.0000 0.74185  0.29678  0.65511  Biso   1.000  C
  O123     1.0000 0.82994  0.38431  0.39747  Biso   1.000  O
  H351     1.0000 0.84158  0.23819  0.53870  Biso   1.000  H
  H352     1.0000 0.93583  0.30390  0.62738  Biso   1.000  H
  O124     1.0000 0.69198  0.29299  0.70708  Biso   1.000  O
