data_image0
_cell_length_a       12.697
_cell_length_b       19.087
_cell_length_c       31.168
_cell_angle_alpha    90
_cell_angle_beta     90
_cell_angle_gamma    90

_symmetry_space_group_name_H-M    "P 1"
_symmetry_int_tables_number       1

loop_
  _symmetry_equiv_pos_as_xyz
  'x, y, z'

loop_
  _atom_site_label
  _atom_site_occupancy
  _atom_site_fract_x
  _atom_site_fract_y
  _atom_site_fract_z
  _atom_site_thermal_displace_type
  _atom_site_B_iso_or_equiv
  _atom_site_type_symbol
  C1       1.0000 0.89139  0.84901  0.39021  Biso   1.000  C
  C2       1.0000 0.86674  0.80940  0.42701  Biso   1.000  C
  C3       1.0000 0.86666  0.80940  0.42701  Biso   1.000  C
  C4       1.0000 0.83004  0.90852  0.38061  Biso   1.000  C
  C5       1.0000 0.83004  0.90847  0.38061  Biso   1.000  C
  C6       1.0000 0.82996  0.90852  0.38061  Biso   1.000  C
  C7       1.0000 0.82996  0.90847  0.38061  Biso   1.000  C
  C8       1.0000 0.98441  0.82863  0.36422  Biso   1.000  C
  C9       1.0000 0.98441  0.82857  0.36422  Biso   1.000  C
  C10      1.0000 0.77971  0.82863  0.45191  Biso   1.000  C
  C11      1.0000 0.77971  0.82857  0.45191  Biso   1.000  C
  H1       1.0000 0.90864  0.77021  0.43480  Biso   1.000  H
  H2       1.0000 0.90864  0.77016  0.43480  Biso   1.000  H
  H3       1.0000 0.90856  0.77021  0.43480  Biso   1.000  H
  H4       1.0000 0.90856  0.77016  0.43480  Biso   1.000  H
  C12      1.0000 0.74797  0.92838  0.40461  Biso   1.000  C
  H5       1.0000 0.84768  0.93572  0.35610  Biso   1.000  H
  H6       1.0000 0.84768  0.93566  0.35610  Biso   1.000  H
  C13      1.0000 0.99937  0.76078  0.35020  Biso   1.000  C
  C14      1.0000 0.06316  0.87850  0.35492  Biso   1.000  C
  C15      1.0000 0.75569  0.78629  0.49140  Biso   1.000  C
  C16      1.0000 0.72080  0.88862  0.44180  Biso   1.000  C
  C17      1.0000 0.72080  0.88856  0.44180  Biso   1.000  C
  C18      1.0000 0.68473  0.99209  0.39521  Biso   1.000  C
  C19      1.0000 0.68465  0.99209  0.39521  Biso   1.000  C
  H7       1.0000 0.94849  0.72589  0.35671  Biso   1.000  H
  C20      1.0000 0.08876  0.74312  0.32662  Biso   1.000  C
  C21      1.0000 0.08876  0.74307  0.32662  Biso   1.000  C
  H8       1.0000 0.05450  0.92560  0.36409  Biso   1.000  H
  C22      1.0000 0.15287  0.85949  0.33262  Biso   1.000  C
  C23      1.0000 0.65677  0.75868  0.49740  Biso   1.000  C
  C24      1.0000 0.83114  0.77582  0.52291  Biso   1.000  C
  C25      1.0000 0.83114  0.77576  0.52291  Biso   1.000  C
  C26      1.0000 0.83106  0.77582  0.52291  Biso   1.000  C
  C27      1.0000 0.83106  0.77576  0.52291  Biso   1.000  C
  H9       1.0000 0.66362  0.90260  0.45951  Biso   1.000  H
  C28      1.0000 0.65000  0.00550  0.35431  Biso   1.000  C
  C29      1.0000 0.66339  0.03997  0.42800  Biso   1.000  C
  C30      1.0000 0.16390  0.79242  0.31821  Biso   1.000  C
  H10      1.0000 0.09750  0.69660  0.31632  Biso   1.000  H
  C31      1.0000 0.16390  0.79237  0.31821  Biso   1.000  C
  H11      1.0000 0.20666  0.89302  0.32742  Biso   1.000  H
  H12      1.0000 0.20666  0.89296  0.32742  Biso   1.000  H
  C32      1.0000 0.63322  0.71871  0.53340  Biso   1.000  C
  H13      1.0000 0.60369  0.76712  0.47661  Biso   1.000  H
  H14      1.0000 0.60369  0.76707  0.47661  Biso   1.000  H
  C33      1.0000 0.80862  0.74040  0.55910  Biso   1.000  C
  H15      1.0000 0.89998  0.79389  0.51880  Biso   1.000  H
  H16      1.0000 0.66827  0.97480  0.33149  Biso   1.000  H
  C34      1.0000 0.58754  0.06460  0.34632  Biso   1.000  C
  C35      1.0000 0.58746  0.06460  0.34632  Biso   1.000  C
  H17      1.0000 0.68961  0.03212  0.45621  Biso   1.000  H
  C36      1.0000 0.60329  0.09949  0.41912  Biso   1.000  C
  H18      1.0000 0.68961  0.03206  0.45621  Biso   1.000  H
  C37      1.0000 0.26093  0.77493  0.29280  Biso   1.000  C
  C38      1.0000 0.26093  0.77487  0.29280  Biso   1.000  C
  C39      1.0000 0.26085  0.77493  0.29280  Biso   1.000  C
  C40      1.0000 0.26085  0.77487  0.29280  Biso   1.000  C
  C41      1.0000 0.70804  0.70802  0.56362  Biso   1.000  C
  H19      1.0000 0.56502  0.69901  0.53670  Biso   1.000  H
  C42      1.0000 0.70804  0.70797  0.56362  Biso   1.000  C
  C43      1.0000 0.70796  0.70802  0.56362  Biso   1.000  C
  C44      1.0000 0.70796  0.70797  0.56362  Biso   1.000  C
  H20      1.0000 0.85910  0.73720  0.58149  Biso   1.000  H
  H21      1.0000 0.55958  0.07162  0.31831  Biso   1.000  H
  C45      1.0000 0.56478  0.11448  0.37911  Biso   1.000  C
  H22      1.0000 0.55958  0.07157  0.31831  Biso   1.000  H
  H23      1.0000 0.58841  0.13098  0.44190  Biso   1.000  H
  N1       1.0000 0.27290  0.71708  0.27249  Biso   1.000  N
  H24      1.0000 0.31606  0.80840  0.29171  Biso   1.000  H
  C46      1.0000 0.68953  0.66511  0.60180  Biso   1.000  C
  C47      1.0000 0.68953  0.66506  0.60180  Biso   1.000  C
  C48      1.0000 0.68945  0.66511  0.60180  Biso   1.000  C
  C49      1.0000 0.68945  0.66506  0.60180  Biso   1.000  C
  C50      1.0000 0.50098  0.17541  0.37170  Biso   1.000  C
  C51      1.0000 0.50098  0.17535  0.37170  Biso   1.000  C
  C52      1.0000 0.37103  0.71200  0.24730  Biso   1.000  C
  C53      1.0000 0.37095  0.71200  0.24730  Biso   1.000  C
  N2       1.0000 0.60581  0.62760  0.60562  Biso   1.000  N
  H25      1.0000 0.74017  0.66501  0.62420  Biso   1.000  H
  N3       1.0000 0.45034  0.18589  0.33810  Biso   1.000  N
  H26      1.0000 0.49728  0.20967  0.39380  Biso   1.000  H
  N4       1.0000 0.45026  0.18589  0.33810  Biso   1.000  N
  C54      1.0000 0.43246  0.64939  0.26591  Biso   1.000  C
  H27      1.0000 0.41262  0.75570  0.25000  Biso   1.000  H
  H28      1.0000 0.35489  0.70420  0.21660  Biso   1.000  H
  H29      1.0000 0.41254  0.75570  0.25000  Biso   1.000  H
  C55      1.0000 0.59613  0.58432  0.64431  Biso   1.000  C
  C56      1.0000 0.59613  0.58427  0.64431  Biso   1.000  C
  C57      1.0000 0.38403  0.25090  0.33631  Biso   1.000  C
  C58      1.0000 0.38403  0.25085  0.33631  Biso   1.000  C
  N5       1.0000 0.48508  0.66689  0.30509  Biso   1.000  N
  H30      1.0000 0.38308  0.61021  0.27130  Biso   1.000  H
  H31      1.0000 0.48508  0.63342  0.24471  Biso   1.000  H
  H32      1.0000 0.48508  0.63336  0.24471  Biso   1.000  H
  C59      1.0000 0.49839  0.60429  0.66960  Biso   1.000  C
  H33      1.0000 0.65929  0.59072  0.66251  Biso   1.000  H
  H34      1.0000 0.59203  0.53429  0.63610  Biso   1.000  H
  H35      1.0000 0.65929  0.59066  0.66251  Biso   1.000  H
  H36      1.0000 0.39372  0.27830  0.36290  Biso   1.000  H
  H37      1.0000 0.30873  0.23781  0.33409  Biso   1.000  H
  C60      1.0000 0.41498  0.29517  0.29771  Biso   1.000  C
  H38      1.0000 0.39372  0.27825  0.36290  Biso   1.000  H
  H39      1.0000 0.30873  0.23775  0.33409  Biso   1.000  H
  C61      1.0000 0.58502  0.70483  0.29771  Biso   1.000  C
  C62      1.0000 0.50161  0.60429  0.33040  Biso   1.000  C
  C63      1.0000 0.58502  0.70477  0.29771  Biso   1.000  C
  C64      1.0000 0.58494  0.70483  0.29771  Biso   1.000  C
  C65      1.0000 0.58494  0.70477  0.29771  Biso   1.000  C
  N6       1.0000 0.51492  0.66689  0.69491  Biso   1.000  N
  H40      1.0000 0.43924  0.61209  0.64951  Biso   1.000  H
  H41      1.0000 0.47893  0.56520  0.68891  Biso   1.000  H
  H42      1.0000 0.43916  0.61209  0.64951  Biso   1.000  H
  H43      1.0000 0.47885  0.56520  0.68891  Biso   1.000  H
  N7       1.0000 0.51492  0.33311  0.30509  Biso   1.000  N
  H44      1.0000 0.42262  0.26458  0.27230  Biso   1.000  H
  H45      1.0000 0.35843  0.32939  0.29171  Biso   1.000  H
  N8       1.0000 0.51492  0.33305  0.30509  Biso   1.000  N
  C66      1.0000 0.61597  0.74910  0.33631  Biso   1.000  C
  H46      1.0000 0.57738  0.73542  0.27230  Biso   1.000  H
  H47      1.0000 0.64157  0.67061  0.29171  Biso   1.000  H
  H48      1.0000 0.57738  0.73537  0.27230  Biso   1.000  H
  H49      1.0000 0.64157  0.67056  0.29171  Biso   1.000  H
  H50      1.0000 0.56076  0.61209  0.35052  Biso   1.000  H
  H51      1.0000 0.52107  0.56520  0.31109  Biso   1.000  H
  C67      1.0000 0.40387  0.58432  0.35572  Biso   1.000  C
  C68      1.0000 0.40387  0.58427  0.35572  Biso   1.000  C
  C69      1.0000 0.41498  0.70483  0.70232  Biso   1.000  C
  C70      1.0000 0.56754  0.64939  0.73412  Biso   1.000  C
  C71      1.0000 0.41498  0.70477  0.70232  Biso   1.000  C
  C72      1.0000 0.56746  0.64939  0.73412  Biso   1.000  C
  C73      1.0000 0.56754  0.35061  0.26591  Biso   1.000  C
  C74      1.0000 0.49839  0.39571  0.33040  Biso   1.000  C
  C75      1.0000 0.56754  0.35055  0.26591  Biso   1.000  C
  C76      1.0000 0.49839  0.39566  0.33040  Biso   1.000  C
  C77      1.0000 0.56746  0.35061  0.26591  Biso   1.000  C
  C78      1.0000 0.56746  0.35055  0.26591  Biso   1.000  C
  N9       1.0000 0.54966  0.81411  0.33810  Biso   1.000  N
  H52      1.0000 0.60628  0.72170  0.36290  Biso   1.000  H
  H53      1.0000 0.69127  0.76219  0.33409  Biso   1.000  H
  N10      1.0000 0.54966  0.81406  0.33810  Biso   1.000  N
  N11      1.0000 0.39419  0.62760  0.39441  Biso   1.000  N
  H54      1.0000 0.34071  0.59072  0.33749  Biso   1.000  H
  H55      1.0000 0.40797  0.53429  0.36390  Biso   1.000  H
  H56      1.0000 0.34071  0.59066  0.33749  Biso   1.000  H
  C79      1.0000 0.38403  0.74910  0.66369  Biso   1.000  C
  H57      1.0000 0.42262  0.73542  0.72770  Biso   1.000  H
  H58      1.0000 0.35843  0.67061  0.70832  Biso   1.000  H
  H59      1.0000 0.42262  0.73537  0.72770  Biso   1.000  H
  H60      1.0000 0.35843  0.67056  0.70832  Biso   1.000  H
  H61      1.0000 0.61692  0.61021  0.72870  Biso   1.000  H
  H62      1.0000 0.51492  0.63342  0.75529  Biso   1.000  H
  C80      1.0000 0.62897  0.71200  0.75270  Biso   1.000  C
  H63      1.0000 0.51492  0.63336  0.75529  Biso   1.000  H
  H64      1.0000 0.61692  0.38979  0.27130  Biso   1.000  H
  H65      1.0000 0.51492  0.36658  0.24471  Biso   1.000  H
  C81      1.0000 0.62897  0.28800  0.24730  Biso   1.000  C
  H66      1.0000 0.43924  0.38791  0.35052  Biso   1.000  H
  H67      1.0000 0.47893  0.43480  0.31109  Biso   1.000  H
  C82      1.0000 0.59613  0.41568  0.35572  Biso   1.000  C
  H68      1.0000 0.43924  0.38786  0.35052  Biso   1.000  H
  H69      1.0000 0.47893  0.43475  0.31109  Biso   1.000  H
  H70      1.0000 0.43916  0.38791  0.35052  Biso   1.000  H
  H71      1.0000 0.47885  0.43480  0.31109  Biso   1.000  H
  H72      1.0000 0.43916  0.38786  0.35052  Biso   1.000  H
  H73      1.0000 0.47885  0.43475  0.31109  Biso   1.000  H
  C83      1.0000 0.49902  0.82459  0.37170  Biso   1.000  C
  C84      1.0000 0.31047  0.66511  0.39820  Biso   1.000  C
  C85      1.0000 0.31047  0.66506  0.39820  Biso   1.000  C
  N12      1.0000 0.45034  0.81411  0.66190  Biso   1.000  N
  H74      1.0000 0.39372  0.72170  0.63710  Biso   1.000  H
  H75      1.0000 0.30873  0.76219  0.66591  Biso   1.000  H
  N13      1.0000 0.45034  0.81406  0.66190  Biso   1.000  N
  N14      1.0000 0.45026  0.81411  0.66190  Biso   1.000  N
  N15      1.0000 0.45026  0.81406  0.66190  Biso   1.000  N
  N16      1.0000 0.72710  0.71708  0.72751  Biso   1.000  N
  H76      1.0000 0.58738  0.75570  0.75000  Biso   1.000  H
  H77      1.0000 0.64511  0.70420  0.78340  Biso   1.000  H
  N17      1.0000 0.72710  0.28292  0.27249  Biso   1.000  N
  H78      1.0000 0.58738  0.24430  0.25000  Biso   1.000  H
  H79      1.0000 0.64511  0.29580  0.21660  Biso   1.000  H
  N18      1.0000 0.72710  0.28286  0.27249  Biso   1.000  N
  H80      1.0000 0.58738  0.24425  0.25000  Biso   1.000  H
  H81      1.0000 0.64511  0.29575  0.21660  Biso   1.000  H
  N19      1.0000 0.60581  0.37240  0.39441  Biso   1.000  N
  H82      1.0000 0.65929  0.40928  0.33749  Biso   1.000  H
  H83      1.0000 0.59203  0.46571  0.36390  Biso   1.000  H
  N20      1.0000 0.60581  0.37235  0.39441  Biso   1.000  N
  H84      1.0000 0.59203  0.46566  0.36390  Biso   1.000  H
  C86      1.0000 0.43522  0.88552  0.37911  Biso   1.000  C
  H85      1.0000 0.50272  0.79033  0.39380  Biso   1.000  H
  C87      1.0000 0.43522  0.88547  0.37911  Biso   1.000  C
  H86      1.0000 0.50272  0.79028  0.39380  Biso   1.000  H
  C88      1.0000 0.43514  0.88552  0.37911  Biso   1.000  C
  H87      1.0000 0.50264  0.79033  0.39380  Biso   1.000  H
  C89      1.0000 0.43514  0.88547  0.37911  Biso   1.000  C
  H88      1.0000 0.50264  0.79028  0.39380  Biso   1.000  H
  H89      1.0000 0.25983  0.66501  0.37580  Biso   1.000  H
  C90      1.0000 0.29196  0.70802  0.43641  Biso   1.000  C
  C91      1.0000 0.29196  0.70797  0.43641  Biso   1.000  C
  H90      1.0000 0.25975  0.66501  0.37580  Biso   1.000  H
  C92      1.0000 0.50098  0.82459  0.62830  Biso   1.000  C
  C93      1.0000 0.73907  0.77493  0.70720  Biso   1.000  C
  C94      1.0000 0.73907  0.77487  0.70720  Biso   1.000  C
  C95      1.0000 0.73907  0.22507  0.29280  Biso   1.000  C
  C96      1.0000 0.68953  0.33489  0.39820  Biso   1.000  C
  C97      1.0000 0.68945  0.33489  0.39820  Biso   1.000  C
  C98      1.0000 0.41246  0.93540  0.34632  Biso   1.000  C
  C99      1.0000 0.39671  0.90051  0.41912  Biso   1.000  C
  C100     1.0000 0.39671  0.90046  0.41912  Biso   1.000  C
  C101     1.0000 0.36678  0.71871  0.46660  Biso   1.000  C
  C102     1.0000 0.19138  0.74040  0.44090  Biso   1.000  C
  C103     1.0000 0.56478  0.88552  0.62089  Biso   1.000  C
  H91      1.0000 0.49728  0.79033  0.60620  Biso   1.000  H
  C104     1.0000 0.56478  0.88547  0.62089  Biso   1.000  C
  H92      1.0000 0.49728  0.79028  0.60620  Biso   1.000  H
  C105     1.0000 0.83610  0.79242  0.68182  Biso   1.000  C
  H93      1.0000 0.68394  0.80840  0.70832  Biso   1.000  H
  C106     1.0000 0.83610  0.79237  0.68182  Biso   1.000  C
  H94      1.0000 0.68386  0.80840  0.70832  Biso   1.000  H
  C107     1.0000 0.83610  0.20758  0.31821  Biso   1.000  C
  H95      1.0000 0.68394  0.19160  0.29171  Biso   1.000  H
  H96      1.0000 0.68386  0.19160  0.29171  Biso   1.000  H
  H97      1.0000 0.74017  0.33499  0.37580  Biso   1.000  H
  C108     1.0000 0.70804  0.29198  0.43641  Biso   1.000  C
  C109     1.0000 0.70796  0.29198  0.43641  Biso   1.000  C
  H98      1.0000 0.44042  0.92838  0.31831  Biso   1.000  H
  C110     1.0000 0.35000  0.99450  0.35431  Biso   1.000  C
  H99      1.0000 0.44034  0.92838  0.31831  Biso   1.000  H
  C111     1.0000 0.33661  0.96003  0.42800  Biso   1.000  C
  H100     1.0000 0.41159  0.86902  0.44190  Biso   1.000  H
  C112     1.0000 0.33661  0.95997  0.42800  Biso   1.000  C
  H101     1.0000 0.41159  0.86897  0.44190  Biso   1.000  H
  C113     1.0000 0.34323  0.75868  0.50260  Biso   1.000  C
  C114     1.0000 0.34315  0.75868  0.50260  Biso   1.000  C
  H102     1.0000 0.43498  0.69901  0.46330  Biso   1.000  H
  C115     1.0000 0.16886  0.77582  0.47709  Biso   1.000  C
  C116     1.0000 0.16886  0.77576  0.47709  Biso   1.000  C
  H103     1.0000 0.14090  0.73720  0.41851  Biso   1.000  H
  C117     1.0000 0.58754  0.93540  0.65372  Biso   1.000  C
  C118     1.0000 0.60329  0.90051  0.58092  Biso   1.000  C
  C119     1.0000 0.60329  0.90046  0.58092  Biso   1.000  C
  C120     1.0000 0.58746  0.93540  0.65372  Biso   1.000  C
  C121     1.0000 0.84713  0.85949  0.66742  Biso   1.000  C
  C122     1.0000 0.91124  0.74312  0.67342  Biso   1.000  C
  C123     1.0000 0.91124  0.74307  0.67342  Biso   1.000  C
  C124     1.0000 0.84705  0.85949  0.66742  Biso   1.000  C
  C125     1.0000 0.91116  0.74312  0.67342  Biso   1.000  C
  C126     1.0000 0.91116  0.74307  0.67342  Biso   1.000  C
  C127     1.0000 0.84713  0.14051  0.33262  Biso   1.000  C
  C128     1.0000 0.91124  0.25688  0.32662  Biso   1.000  C
  C129     1.0000 0.84713  0.14046  0.33262  Biso   1.000  C
  C130     1.0000 0.84705  0.14051  0.33262  Biso   1.000  C
  C131     1.0000 0.91116  0.25688  0.32662  Biso   1.000  C
  C132     1.0000 0.84705  0.14046  0.33262  Biso   1.000  C
  C133     1.0000 0.63322  0.28129  0.46660  Biso   1.000  C
  C134     1.0000 0.80862  0.25960  0.44090  Biso   1.000  C
  C135     1.0000 0.80862  0.25955  0.44090  Biso   1.000  C
  H104     1.0000 0.33173  0.02520  0.33149  Biso   1.000  H
  C136     1.0000 0.31527  0.00791  0.39521  Biso   1.000  C
  C137     1.0000 0.31527  0.00786  0.39521  Biso   1.000  C
  H105     1.0000 0.33165  0.02520  0.33149  Biso   1.000  H
  H106     1.0000 0.31039  0.96788  0.45621  Biso   1.000  H
  C138     1.0000 0.24431  0.78629  0.50860  Biso   1.000  C
  H107     1.0000 0.39631  0.76712  0.52342  Biso   1.000  H
  H108     1.0000 0.39631  0.76707  0.52342  Biso   1.000  H
  H109     1.0000 0.10002  0.79389  0.48120  Biso   1.000  H
  H110     1.0000 0.09994  0.79389  0.48120  Biso   1.000  H
  H111     1.0000 0.55958  0.92838  0.68169  Biso   1.000  H
  C139     1.0000 0.65000  0.99450  0.64569  Biso   1.000  C
  C140     1.0000 0.66339  0.96003  0.57200  Biso   1.000  C
  H112     1.0000 0.58841  0.86902  0.55810  Biso   1.000  H
  C141     1.0000 0.66339  0.95997  0.57200  Biso   1.000  C
  H113     1.0000 0.58841  0.86897  0.55810  Biso   1.000  H
  C142     1.0000 0.93684  0.87850  0.64512  Biso   1.000  C
  H114     1.0000 0.79334  0.89302  0.67261  Biso   1.000  H
  H115     1.0000 0.79334  0.89296  0.67261  Biso   1.000  H
  C143     1.0000 0.93676  0.87850  0.64512  Biso   1.000  C
  H116     1.0000 0.79326  0.89302  0.67261  Biso   1.000  H
  H117     1.0000 0.79326  0.89296  0.67261  Biso   1.000  H
  H118     1.0000 0.90250  0.69660  0.68371  Biso   1.000  H
  C144     1.0000 0.00063  0.76078  0.64980  Biso   1.000  C
  C145     1.0000 0.00055  0.76078  0.64980  Biso   1.000  C
  C146     1.0000 0.93684  0.12150  0.35492  Biso   1.000  C
  H119     1.0000 0.79334  0.10698  0.32742  Biso   1.000  H
  C147     1.0000 0.93676  0.12150  0.35492  Biso   1.000  C
  H120     1.0000 0.79326  0.10698  0.32742  Biso   1.000  H
  H121     1.0000 0.90250  0.30340  0.31632  Biso   1.000  H
  H122     1.0000 0.90250  0.30335  0.31632  Biso   1.000  H
  C148     1.0000 0.00063  0.23922  0.35020  Biso   1.000  C
  C149     1.0000 0.00063  0.23917  0.35020  Biso   1.000  C
  C150     1.0000 0.00055  0.23922  0.35020  Biso   1.000  C
  C151     1.0000 0.00055  0.23917  0.35020  Biso   1.000  C
  C152     1.0000 0.65677  0.24132  0.50260  Biso   1.000  C
  C153     1.0000 0.65677  0.24126  0.50260  Biso   1.000  C
  H123     1.0000 0.56502  0.30099  0.46330  Biso   1.000  H
  C154     1.0000 0.83114  0.22418  0.47709  Biso   1.000  C
  C155     1.0000 0.83106  0.22418  0.47709  Biso   1.000  C
  H124     1.0000 0.85910  0.26280  0.41851  Biso   1.000  H
  C156     1.0000 0.25203  0.07162  0.40461  Biso   1.000  C
  C157     1.0000 0.25203  0.07157  0.40461  Biso   1.000  C
  C158     1.0000 0.25195  0.07162  0.40461  Biso   1.000  C
  C159     1.0000 0.25195  0.07157  0.40461  Biso   1.000  C
  C160     1.0000 0.22029  0.82863  0.54809  Biso   1.000  C
  C161     1.0000 0.22029  0.82857  0.54809  Biso   1.000  C
  H125     1.0000 0.66827  0.02520  0.66851  Biso   1.000  H
  C162     1.0000 0.68473  0.00791  0.60482  Biso   1.000  C
  C163     1.0000 0.68473  0.00786  0.60482  Biso   1.000  C
  C164     1.0000 0.68465  0.00791  0.60482  Biso   1.000  C
  C165     1.0000 0.68465  0.00786  0.60482  Biso   1.000  C
  H126     1.0000 0.68961  0.96788  0.54379  Biso   1.000  H
  H127     1.0000 0.94550  0.92560  0.63591  Biso   1.000  H
  C166     1.0000 0.01559  0.82863  0.63581  Biso   1.000  C
  C167     1.0000 0.01559  0.82857  0.63581  Biso   1.000  C
  H128     1.0000 0.05151  0.72589  0.64332  Biso   1.000  H
  H129     1.0000 0.94550  0.07440  0.36409  Biso   1.000  H
  C168     1.0000 0.01559  0.17137  0.36422  Biso   1.000  C
  H130     1.0000 0.05151  0.27411  0.35671  Biso   1.000  H
  H131     1.0000 0.05151  0.27406  0.35671  Biso   1.000  H
  C169     1.0000 0.75569  0.21371  0.50860  Biso   1.000  C
  C170     1.0000 0.75569  0.21365  0.50860  Biso   1.000  C
  H132     1.0000 0.60369  0.23288  0.52342  Biso   1.000  H
  H133     1.0000 0.89998  0.20611  0.48120  Biso   1.000  H
  H134     1.0000 0.89998  0.20606  0.48120  Biso   1.000  H
  C171     1.0000 0.16996  0.09148  0.38061  Biso   1.000  C
  C172     1.0000 0.27920  0.11138  0.44180  Biso   1.000  C
  C173     1.0000 0.13326  0.80940  0.57299  Biso   1.000  C
  C174     1.0000 0.27920  0.88862  0.55820  Biso   1.000  C
  C175     1.0000 0.27920  0.88856  0.55820  Biso   1.000  C
  C176     1.0000 0.74797  0.07162  0.59542  Biso   1.000  C
  C177     1.0000 0.74797  0.07157  0.59542  Biso   1.000  C
  C178     1.0000 0.10861  0.84901  0.60979  Biso   1.000  C
  C179     1.0000 0.10861  0.15099  0.39021  Biso   1.000  C
  C180     1.0000 0.77971  0.17137  0.54809  Biso   1.000  C
  H135     1.0000 0.15232  0.06428  0.35610  Biso   1.000  H
  C181     1.0000 0.22029  0.17137  0.45191  Biso   1.000  C
  H136     1.0000 0.33638  0.09740  0.45951  Biso   1.000  H
  H137     1.0000 0.09136  0.77021  0.56520  Biso   1.000  H
  H138     1.0000 0.09136  0.77016  0.56520  Biso   1.000  H
  C182     1.0000 0.25203  0.92838  0.59542  Biso   1.000  C
  C183     1.0000 0.25195  0.92838  0.59542  Biso   1.000  C
  H139     1.0000 0.33638  0.90260  0.54052  Biso   1.000  H
  C184     1.0000 0.72080  0.11138  0.55820  Biso   1.000  C
  C185     1.0000 0.83004  0.09148  0.61942  Biso   1.000  C
  C186     1.0000 0.82996  0.09148  0.61942  Biso   1.000  C
  C187     1.0000 0.16996  0.90852  0.61942  Biso   1.000  C
  C188     1.0000 0.16996  0.90847  0.61942  Biso   1.000  C
  C189     1.0000 0.13326  0.19060  0.42701  Biso   1.000  C
  C190     1.0000 0.86674  0.19060  0.57299  Biso   1.000  C
  C191     1.0000 0.86666  0.19060  0.57299  Biso   1.000  C
  C192     1.0000 0.24431  0.21371  0.49140  Biso   1.000  C
  C193     1.0000 0.24431  0.21365  0.49140  Biso   1.000  C
  C194     1.0000 0.31527  0.99209  0.60482  Biso   1.000  C
  H140     1.0000 0.66362  0.09740  0.54052  Biso   1.000  H
  H141     1.0000 0.84768  0.06428  0.64390  Biso   1.000  H
  C195     1.0000 0.89139  0.15099  0.60979  Biso   1.000  C
  H142     1.0000 0.15232  0.93572  0.64390  Biso   1.000  H
  H143     1.0000 0.15232  0.93566  0.64390  Biso   1.000  H
  H144     1.0000 0.09136  0.22979  0.43480  Biso   1.000  H
  H145     1.0000 0.90864  0.22979  0.56520  Biso   1.000  H
  H146     1.0000 0.90856  0.22979  0.56520  Biso   1.000  H
  C196     1.0000 0.34323  0.24132  0.49740  Biso   1.000  C
  C197     1.0000 0.16886  0.22418  0.52291  Biso   1.000  C
  C198     1.0000 0.34323  0.24126  0.49740  Biso   1.000  C
  C199     1.0000 0.34315  0.24132  0.49740  Biso   1.000  C
  C200     1.0000 0.34315  0.24126  0.49740  Biso   1.000  C
  C201     1.0000 0.35000  0.00550  0.64569  Biso   1.000  C
  C202     1.0000 0.33661  0.03997  0.57200  Biso   1.000  C
  C203     1.0000 0.98441  0.17137  0.63581  Biso   1.000  C
  C204     1.0000 0.36678  0.28129  0.53340  Biso   1.000  C
  H147     1.0000 0.39631  0.23288  0.47661  Biso   1.000  H
  H148     1.0000 0.10002  0.20611  0.51880  Biso   1.000  H
  C205     1.0000 0.19138  0.25960  0.55910  Biso   1.000  C
  H149     1.0000 0.10002  0.20606  0.51880  Biso   1.000  H
  C206     1.0000 0.19138  0.25955  0.55910  Biso   1.000  C
  H150     1.0000 0.09994  0.20611  0.51880  Biso   1.000  H
  H151     1.0000 0.09994  0.20606  0.51880  Biso   1.000  H
  H152     1.0000 0.33173  0.97480  0.66851  Biso   1.000  H
  H153     1.0000 0.33165  0.97480  0.66851  Biso   1.000  H
  C207     1.0000 0.41246  0.06460  0.65372  Biso   1.000  C
  H154     1.0000 0.31039  0.03212  0.54379  Biso   1.000  H
  C208     1.0000 0.39671  0.09949  0.58092  Biso   1.000  C
  H155     1.0000 0.31039  0.03206  0.54379  Biso   1.000  H
  C209     1.0000 0.99937  0.23922  0.64980  Biso   1.000  C
  C210     1.0000 0.99937  0.23917  0.64980  Biso   1.000  C
  C211     1.0000 0.06316  0.12150  0.64512  Biso   1.000  C
  C212     1.0000 0.29196  0.29198  0.56362  Biso   1.000  C
  H156     1.0000 0.43498  0.30099  0.53670  Biso   1.000  H
  H157     1.0000 0.14090  0.26280  0.58149  Biso   1.000  H
  H158     1.0000 0.44042  0.07162  0.68169  Biso   1.000  H
  C213     1.0000 0.43522  0.11448  0.62089  Biso   1.000  C
  H159     1.0000 0.44042  0.07157  0.68169  Biso   1.000  H
  H160     1.0000 0.44034  0.07162  0.68169  Biso   1.000  H
  C214     1.0000 0.43514  0.11448  0.62089  Biso   1.000  C
  H161     1.0000 0.44034  0.07157  0.68169  Biso   1.000  H
  H162     1.0000 0.41159  0.13098  0.55810  Biso   1.000  H
  H163     1.0000 0.94849  0.27411  0.64332  Biso   1.000  H
  H164     1.0000 0.94849  0.27406  0.64332  Biso   1.000  H
  C215     1.0000 0.08876  0.25688  0.67342  Biso   1.000  C
  H165     1.0000 0.05450  0.07440  0.63591  Biso   1.000  H
  C216     1.0000 0.15287  0.14051  0.66742  Biso   1.000  C
  C217     1.0000 0.15287  0.14046  0.66742  Biso   1.000  C
  C218     1.0000 0.31047  0.33489  0.60180  Biso   1.000  C
  C219     1.0000 0.49902  0.17541  0.62830  Biso   1.000  C
  C220     1.0000 0.49902  0.17535  0.62830  Biso   1.000  C
  C221     1.0000 0.16390  0.20758  0.68182  Biso   1.000  C
  H166     1.0000 0.09750  0.30340  0.68371  Biso   1.000  H
  H167     1.0000 0.09750  0.30335  0.68371  Biso   1.000  H
  H168     1.0000 0.20666  0.10698  0.67261  Biso   1.000  H
  N21      1.0000 0.39419  0.37240  0.60562  Biso   1.000  N
  N22      1.0000 0.39419  0.37235  0.60562  Biso   1.000  N
  H169     1.0000 0.25983  0.33499  0.62420  Biso   1.000  H
  H170     1.0000 0.25975  0.33499  0.62420  Biso   1.000  H
  N23      1.0000 0.54966  0.18589  0.66190  Biso   1.000  N
  H171     1.0000 0.50272  0.20967  0.60620  Biso   1.000  H
  H172     1.0000 0.50264  0.20967  0.60620  Biso   1.000  H
  C222     1.0000 0.26093  0.22507  0.70720  Biso   1.000  C
  C223     1.0000 0.26085  0.22507  0.70720  Biso   1.000  C
  C224     1.0000 0.40387  0.41568  0.64431  Biso   1.000  C
  C225     1.0000 0.61597  0.25090  0.66369  Biso   1.000  C
  C226     1.0000 0.61597  0.25085  0.66369  Biso   1.000  C
  N24      1.0000 0.27290  0.28292  0.72751  Biso   1.000  N
  H173     1.0000 0.31606  0.19160  0.70832  Biso   1.000  H
  N25      1.0000 0.27290  0.28286  0.72751  Biso   1.000  N
  C227     1.0000 0.50161  0.39571  0.66960  Biso   1.000  C
  C228     1.0000 0.50161  0.39566  0.66960  Biso   1.000  C
  H174     1.0000 0.34071  0.40928  0.66251  Biso   1.000  H
  H175     1.0000 0.40797  0.46571  0.63610  Biso   1.000  H
  H176     1.0000 0.40797  0.46566  0.63610  Biso   1.000  H
  H177     1.0000 0.60628  0.27830  0.63710  Biso   1.000  H
  H178     1.0000 0.69127  0.23781  0.66591  Biso   1.000  H
  C229     1.0000 0.58502  0.29517  0.70232  Biso   1.000  C
  H179     1.0000 0.60628  0.27825  0.63710  Biso   1.000  H
  H180     1.0000 0.69127  0.23775  0.66591  Biso   1.000  H
  C230     1.0000 0.58494  0.29517  0.70232  Biso   1.000  C
  C231     1.0000 0.37103  0.28800  0.75270  Biso   1.000  C
  C232     1.0000 0.37095  0.28800  0.75270  Biso   1.000  C
  N26      1.0000 0.48508  0.33311  0.69491  Biso   1.000  N
  N27      1.0000 0.48508  0.33305  0.69491  Biso   1.000  N
  H181     1.0000 0.56076  0.38791  0.64951  Biso   1.000  H
  H182     1.0000 0.52107  0.43480  0.68891  Biso   1.000  H
  H183     1.0000 0.56076  0.38786  0.64951  Biso   1.000  H
  H184     1.0000 0.52107  0.43475  0.68891  Biso   1.000  H
  H185     1.0000 0.57738  0.26458  0.72770  Biso   1.000  H
  H186     1.0000 0.64157  0.32939  0.70832  Biso   1.000  H
  C233     1.0000 0.43246  0.35061  0.73412  Biso   1.000  C
  H187     1.0000 0.41262  0.24430  0.75000  Biso   1.000  H
  H188     1.0000 0.35489  0.29580  0.78340  Biso   1.000  H
  C234     1.0000 0.43246  0.35055  0.73412  Biso   1.000  C
  H189     1.0000 0.41262  0.24425  0.75000  Biso   1.000  H
  H190     1.0000 0.35489  0.29575  0.78340  Biso   1.000  H
  H191     1.0000 0.41254  0.24430  0.75000  Biso   1.000  H
  H192     1.0000 0.41254  0.24425  0.75000  Biso   1.000  H
  H193     1.0000 0.38308  0.38979  0.72870  Biso   1.000  H
  H194     1.0000 0.48508  0.36658  0.75529  Biso   1.000  H
  C235     1.0000 0.89139  0.84901  0.39021  Biso   1.000  C
  C236     1.0000 0.86674  0.80940  0.42701  Biso   1.000  C
  C237     1.0000 0.86666  0.80940  0.42701  Biso   1.000  C
  C238     1.0000 0.98441  0.82863  0.36422  Biso   1.000  C
  C239     1.0000 0.98441  0.82857  0.36422  Biso   1.000  C
  C240     1.0000 0.83004  0.90852  0.38061  Biso   1.000  C
  C241     1.0000 0.83004  0.90847  0.38061  Biso   1.000  C
  C242     1.0000 0.82996  0.90852  0.38061  Biso   1.000  C
  C243     1.0000 0.82996  0.90847  0.38061  Biso   1.000  C
  C244     1.0000 0.77971  0.82863  0.45191  Biso   1.000  C
  C245     1.0000 0.77971  0.82857  0.45191  Biso   1.000  C
  H195     1.0000 0.90864  0.77021  0.43480  Biso   1.000  H
  H196     1.0000 0.90864  0.77016  0.43480  Biso   1.000  H
  H197     1.0000 0.90856  0.77021  0.43480  Biso   1.000  H
  H198     1.0000 0.90856  0.77016  0.43480  Biso   1.000  H
  C246     1.0000 0.99937  0.76078  0.35020  Biso   1.000  C
  C247     1.0000 0.06316  0.87850  0.35492  Biso   1.000  C
  C248     1.0000 0.74797  0.92838  0.40461  Biso   1.000  C
  H199     1.0000 0.84768  0.93572  0.35610  Biso   1.000  H
  H200     1.0000 0.84768  0.93566  0.35610  Biso   1.000  H
  C249     1.0000 0.75569  0.78629  0.49140  Biso   1.000  C
  C250     1.0000 0.72080  0.88862  0.44180  Biso   1.000  C
  C251     1.0000 0.72080  0.88856  0.44180  Biso   1.000  C
  H201     1.0000 0.94849  0.72589  0.35671  Biso   1.000  H
  C252     1.0000 0.08876  0.74312  0.32662  Biso   1.000  C
  C253     1.0000 0.08876  0.74307  0.32662  Biso   1.000  C
  H202     1.0000 0.05450  0.92560  0.36409  Biso   1.000  H
  C254     1.0000 0.15287  0.85949  0.33262  Biso   1.000  C
  C255     1.0000 0.68473  0.99209  0.39521  Biso   1.000  C
  C256     1.0000 0.68465  0.99209  0.39521  Biso   1.000  C
  C257     1.0000 0.65677  0.75868  0.49740  Biso   1.000  C
  C258     1.0000 0.83114  0.77582  0.52291  Biso   1.000  C
  C259     1.0000 0.83114  0.77576  0.52291  Biso   1.000  C
  C260     1.0000 0.83106  0.77582  0.52291  Biso   1.000  C
  C261     1.0000 0.83106  0.77576  0.52291  Biso   1.000  C
  H203     1.0000 0.66362  0.90260  0.45951  Biso   1.000  H
  C262     1.0000 0.16390  0.79242  0.31821  Biso   1.000  C
  H204     1.0000 0.09750  0.69660  0.31632  Biso   1.000  H
  C263     1.0000 0.16390  0.79237  0.31821  Biso   1.000  C
  H205     1.0000 0.20666  0.89302  0.32742  Biso   1.000  H
  H206     1.0000 0.20666  0.89296  0.32742  Biso   1.000  H
  C264     1.0000 0.65000  0.00550  0.35431  Biso   1.000  C
  C265     1.0000 0.66339  0.03997  0.42800  Biso   1.000  C
  C266     1.0000 0.63322  0.71871  0.53340  Biso   1.000  C
  H207     1.0000 0.60369  0.76712  0.47661  Biso   1.000  H
  H208     1.0000 0.60369  0.76707  0.47661  Biso   1.000  H
  C267     1.0000 0.80862  0.74040  0.55910  Biso   1.000  C
  H209     1.0000 0.89998  0.79389  0.51880  Biso   1.000  H
  C268     1.0000 0.26093  0.77493  0.29280  Biso   1.000  C
  C269     1.0000 0.26093  0.77487  0.29280  Biso   1.000  C
  C270     1.0000 0.26085  0.77493  0.29280  Biso   1.000  C
  C271     1.0000 0.26085  0.77487  0.29280  Biso   1.000  C
  H210     1.0000 0.66827  0.97480  0.33149  Biso   1.000  H
  C272     1.0000 0.58754  0.06460  0.34632  Biso   1.000  C
  C273     1.0000 0.58746  0.06460  0.34632  Biso   1.000  C
  H211     1.0000 0.68961  0.03212  0.45621  Biso   1.000  H
  C274     1.0000 0.60329  0.09949  0.41912  Biso   1.000  C
  H212     1.0000 0.68961  0.03206  0.45621  Biso   1.000  H
  H213     1.0000 0.56502  0.69901  0.53670  Biso   1.000  H
  C275     1.0000 0.70804  0.70802  0.56362  Biso   1.000  C
  C276     1.0000 0.70804  0.70797  0.56362  Biso   1.000  C
  C277     1.0000 0.70796  0.70802  0.56362  Biso   1.000  C
  C278     1.0000 0.70796  0.70797  0.56362  Biso   1.000  C
  H214     1.0000 0.85910  0.73720  0.58149  Biso   1.000  H
  N28      1.0000 0.27290  0.71708  0.27249  Biso   1.000  N
  H215     1.0000 0.31606  0.80840  0.29171  Biso   1.000  H
  H216     1.0000 0.55958  0.07162  0.31831  Biso   1.000  H
  C279     1.0000 0.56478  0.11448  0.37911  Biso   1.000  C
  H217     1.0000 0.55958  0.07157  0.31831  Biso   1.000  H
  H218     1.0000 0.58841  0.13098  0.44190  Biso   1.000  H
  C280     1.0000 0.68953  0.66511  0.60180  Biso   1.000  C
  C281     1.0000 0.68953  0.66506  0.60180  Biso   1.000  C
  C282     1.0000 0.68945  0.66511  0.60180  Biso   1.000  C
  C283     1.0000 0.68945  0.66506  0.60180  Biso   1.000  C
  C284     1.0000 0.37103  0.71200  0.24730  Biso   1.000  C
  C285     1.0000 0.37095  0.71200  0.24730  Biso   1.000  C
  C286     1.0000 0.50098  0.17541  0.37170  Biso   1.000  C
  C287     1.0000 0.50098  0.17535  0.37170  Biso   1.000  C
  N29      1.0000 0.60581  0.62760  0.60562  Biso   1.000  N
  H219     1.0000 0.74017  0.66501  0.62420  Biso   1.000  H
  C288     1.0000 0.43246  0.64939  0.26591  Biso   1.000  C
  H220     1.0000 0.41262  0.75570  0.25000  Biso   1.000  H
  H221     1.0000 0.35489  0.70420  0.21660  Biso   1.000  H
  H222     1.0000 0.41254  0.75570  0.25000  Biso   1.000  H
  N30      1.0000 0.45034  0.18589  0.33810  Biso   1.000  N
  H223     1.0000 0.49728  0.20967  0.39380  Biso   1.000  H
  N31      1.0000 0.45026  0.18589  0.33810  Biso   1.000  N
  C289     1.0000 0.59613  0.58432  0.64431  Biso   1.000  C
  C290     1.0000 0.59613  0.58427  0.64431  Biso   1.000  C
  N32      1.0000 0.48508  0.66689  0.30509  Biso   1.000  N
  H224     1.0000 0.38308  0.61021  0.27130  Biso   1.000  H
  H225     1.0000 0.48508  0.63342  0.24471  Biso   1.000  H
  H226     1.0000 0.48508  0.63336  0.24471  Biso   1.000  H
  C291     1.0000 0.38403  0.25090  0.33631  Biso   1.000  C
  C292     1.0000 0.38403  0.25085  0.33631  Biso   1.000  C
  C293     1.0000 0.49839  0.60429  0.66960  Biso   1.000  C
  H227     1.0000 0.59203  0.53429  0.63610  Biso   1.000  H
  H228     1.0000 0.65929  0.59072  0.66251  Biso   1.000  H
  H229     1.0000 0.65929  0.59066  0.66251  Biso   1.000  H
  C294     1.0000 0.58502  0.70483  0.29771  Biso   1.000  C
  C295     1.0000 0.50161  0.60429  0.33040  Biso   1.000  C
  C296     1.0000 0.58502  0.70477  0.29771  Biso   1.000  C
  C297     1.0000 0.58494  0.70483  0.29771  Biso   1.000  C
  C298     1.0000 0.58494  0.70477  0.29771  Biso   1.000  C
  H230     1.0000 0.39372  0.27830  0.36290  Biso   1.000  H
  H231     1.0000 0.30873  0.23781  0.33409  Biso   1.000  H
  C299     1.0000 0.41498  0.29517  0.29771  Biso   1.000  C
  H232     1.0000 0.39372  0.27825  0.36290  Biso   1.000  H
  H233     1.0000 0.30873  0.23775  0.33409  Biso   1.000  H
  N33      1.0000 0.51492  0.66689  0.69491  Biso   1.000  N
  H234     1.0000 0.43924  0.61209  0.64951  Biso   1.000  H
  H235     1.0000 0.47893  0.56520  0.68891  Biso   1.000  H
  H236     1.0000 0.43916  0.61209  0.64951  Biso   1.000  H
  H237     1.0000 0.47885  0.56520  0.68891  Biso   1.000  H
  C300     1.0000 0.61597  0.74910  0.33631  Biso   1.000  C
  H238     1.0000 0.57738  0.73542  0.27230  Biso   1.000  H
  H239     1.0000 0.64157  0.67061  0.29171  Biso   1.000  H
  H240     1.0000 0.57738  0.73537  0.27230  Biso   1.000  H
  H241     1.0000 0.64157  0.67056  0.29171  Biso   1.000  H
  H242     1.0000 0.56076  0.61209  0.35052  Biso   1.000  H
  H243     1.0000 0.52107  0.56520  0.31109  Biso   1.000  H
  C301     1.0000 0.40387  0.58432  0.35572  Biso   1.000  C
  C302     1.0000 0.40387  0.58427  0.35572  Biso   1.000  C
  N34      1.0000 0.51492  0.33311  0.30509  Biso   1.000  N
  H244     1.0000 0.42262  0.26458  0.27230  Biso   1.000  H
  H245     1.0000 0.35843  0.32939  0.29171  Biso   1.000  H
  N35      1.0000 0.51492  0.33305  0.30509  Biso   1.000  N
  C303     1.0000 0.56754  0.64939  0.73412  Biso   1.000  C
  C304     1.0000 0.41498  0.70483  0.70232  Biso   1.000  C
  C305     1.0000 0.41498  0.70477  0.70232  Biso   1.000  C
  C306     1.0000 0.56746  0.64939  0.73412  Biso   1.000  C
  N36      1.0000 0.54966  0.81411  0.33810  Biso   1.000  N
  H246     1.0000 0.60628  0.72170  0.36290  Biso   1.000  H
  H247     1.0000 0.69127  0.76219  0.33409  Biso   1.000  H
  N37      1.0000 0.54966  0.81406  0.33810  Biso   1.000  N
  N38      1.0000 0.39419  0.62760  0.39441  Biso   1.000  N
  H248     1.0000 0.34071  0.59072  0.33749  Biso   1.000  H
  H249     1.0000 0.40797  0.53429  0.36390  Biso   1.000  H
  H250     1.0000 0.34071  0.59066  0.33749  Biso   1.000  H
  C307     1.0000 0.56754  0.35061  0.26591  Biso   1.000  C
  C308     1.0000 0.49839  0.39571  0.33040  Biso   1.000  C
  C309     1.0000 0.56754  0.35055  0.26591  Biso   1.000  C
  C310     1.0000 0.49839  0.39566  0.33040  Biso   1.000  C
  C311     1.0000 0.56746  0.35061  0.26591  Biso   1.000  C
  C312     1.0000 0.56746  0.35055  0.26591  Biso   1.000  C
  H251     1.0000 0.61692  0.61021  0.72870  Biso   1.000  H
  C313     1.0000 0.62897  0.71200  0.75270  Biso   1.000  C
  H252     1.0000 0.51492  0.63342  0.75529  Biso   1.000  H
  H253     1.0000 0.51492  0.63336  0.75529  Biso   1.000  H
  C314     1.0000 0.38403  0.74910  0.66369  Biso   1.000  C
  H254     1.0000 0.42262  0.73542  0.72770  Biso   1.000  H
  H255     1.0000 0.35843  0.67061  0.70832  Biso   1.000  H
  H256     1.0000 0.42262  0.73537  0.72770  Biso   1.000  H
  H257     1.0000 0.35843  0.67056  0.70832  Biso   1.000  H
  C315     1.0000 0.49902  0.82459  0.37170  Biso   1.000  C
  C316     1.0000 0.31047  0.66511  0.39820  Biso   1.000  C
  C317     1.0000 0.31047  0.66506  0.39820  Biso   1.000  C
  H258     1.0000 0.61692  0.38979  0.27130  Biso   1.000  H
  H259     1.0000 0.51492  0.36658  0.24471  Biso   1.000  H
  C318     1.0000 0.62897  0.28800  0.24730  Biso   1.000  C
  H260     1.0000 0.43924  0.38791  0.35052  Biso   1.000  H
  H261     1.0000 0.47893  0.43480  0.31109  Biso   1.000  H
  C319     1.0000 0.59613  0.41568  0.35572  Biso   1.000  C
  H262     1.0000 0.43924  0.38786  0.35052  Biso   1.000  H
  H263     1.0000 0.47893  0.43475  0.31109  Biso   1.000  H
  H264     1.0000 0.43916  0.38791  0.35052  Biso   1.000  H
  H265     1.0000 0.47885  0.43480  0.31109  Biso   1.000  H
  H266     1.0000 0.43916  0.38786  0.35052  Biso   1.000  H
  H267     1.0000 0.47885  0.43475  0.31109  Biso   1.000  H
  N39      1.0000 0.72710  0.71708  0.72751  Biso   1.000  N
  H268     1.0000 0.58738  0.75570  0.75000  Biso   1.000  H
  H269     1.0000 0.64511  0.70420  0.78340  Biso   1.000  H
  H270     1.0000 0.39372  0.72170  0.63710  Biso   1.000  H
  H271     1.0000 0.30873  0.76219  0.66591  Biso   1.000  H
  N40      1.0000 0.45034  0.81411  0.66190  Biso   1.000  N
  N41      1.0000 0.45034  0.81406  0.66190  Biso   1.000  N
  N42      1.0000 0.45026  0.81411  0.66190  Biso   1.000  N
  N43      1.0000 0.45026  0.81406  0.66190  Biso   1.000  N
  C320     1.0000 0.43522  0.88552  0.37911  Biso   1.000  C
  H272     1.0000 0.50272  0.79033  0.39380  Biso   1.000  H
  C321     1.0000 0.43522  0.88547  0.37911  Biso   1.000  C
  H273     1.0000 0.50272  0.79028  0.39380  Biso   1.000  H
  C322     1.0000 0.43514  0.88552  0.37911  Biso   1.000  C
  H274     1.0000 0.50264  0.79033  0.39380  Biso   1.000  H
  C323     1.0000 0.43514  0.88547  0.37911  Biso   1.000  C
  H275     1.0000 0.50264  0.79028  0.39380  Biso   1.000  H
  H276     1.0000 0.25983  0.66501  0.37580  Biso   1.000  H
  C324     1.0000 0.29196  0.70802  0.43641  Biso   1.000  C
  C325     1.0000 0.29196  0.70797  0.43641  Biso   1.000  C
  H277     1.0000 0.25975  0.66501  0.37580  Biso   1.000  H
  N44      1.0000 0.72710  0.28292  0.27249  Biso   1.000  N
  H278     1.0000 0.58738  0.24430  0.25000  Biso   1.000  H
  H279     1.0000 0.64511  0.29580  0.21660  Biso   1.000  H
  N45      1.0000 0.72710  0.28286  0.27249  Biso   1.000  N
  H280     1.0000 0.58738  0.24425  0.25000  Biso   1.000  H
  H281     1.0000 0.64511  0.29575  0.21660  Biso   1.000  H
  N46      1.0000 0.60581  0.37240  0.39441  Biso   1.000  N
  H282     1.0000 0.65929  0.40928  0.33749  Biso   1.000  H
  H283     1.0000 0.59203  0.46571  0.36390  Biso   1.000  H
  N47      1.0000 0.60581  0.37235  0.39441  Biso   1.000  N
  H284     1.0000 0.59203  0.46566  0.36390  Biso   1.000  H
  C326     1.0000 0.73907  0.77493  0.70720  Biso   1.000  C
  C327     1.0000 0.73907  0.77487  0.70720  Biso   1.000  C
  C328     1.0000 0.50098  0.82459  0.62830  Biso   1.000  C
  C329     1.0000 0.41246  0.93540  0.34632  Biso   1.000  C
  C330     1.0000 0.39671  0.90051  0.41912  Biso   1.000  C
  C331     1.0000 0.39671  0.90046  0.41912  Biso   1.000  C
  C332     1.0000 0.36678  0.71871  0.46660  Biso   1.000  C
  C333     1.0000 0.19138  0.74040  0.44090  Biso   1.000  C
  C334     1.0000 0.73907  0.22507  0.29280  Biso   1.000  C
  C335     1.0000 0.68953  0.33489  0.39820  Biso   1.000  C
  C336     1.0000 0.68945  0.33489  0.39820  Biso   1.000  C
  H285     1.0000 0.68394  0.80840  0.70832  Biso   1.000  H
  C337     1.0000 0.83610  0.79242  0.68182  Biso   1.000  C
  C338     1.0000 0.83610  0.79237  0.68182  Biso   1.000  C
  H286     1.0000 0.68386  0.80840  0.70832  Biso   1.000  H
  C339     1.0000 0.56478  0.88552  0.62089  Biso   1.000  C
  H287     1.0000 0.49728  0.79033  0.60620  Biso   1.000  H
  C340     1.0000 0.56478  0.88547  0.62089  Biso   1.000  C
  H288     1.0000 0.49728  0.79028  0.60620  Biso   1.000  H
  H289     1.0000 0.44042  0.92838  0.31831  Biso   1.000  H
  C341     1.0000 0.35000  0.99450  0.35431  Biso   1.000  C
  H290     1.0000 0.44034  0.92838  0.31831  Biso   1.000  H
  C342     1.0000 0.33661  0.96003  0.42800  Biso   1.000  C
  H291     1.0000 0.41159  0.86902  0.44190  Biso   1.000  H
  C343     1.0000 0.33661  0.95997  0.42800  Biso   1.000  C
  H292     1.0000 0.41159  0.86897  0.44190  Biso   1.000  H
  C344     1.0000 0.34323  0.75868  0.50260  Biso   1.000  C
  C345     1.0000 0.34315  0.75868  0.50260  Biso   1.000  C
  H293     1.0000 0.43498  0.69901  0.46330  Biso   1.000  H
  C346     1.0000 0.16886  0.77582  0.47709  Biso   1.000  C
  C347     1.0000 0.16886  0.77576  0.47709  Biso   1.000  C
  H294     1.0000 0.14090  0.73720  0.41851  Biso   1.000  H
  C348     1.0000 0.83610  0.20758  0.31821  Biso   1.000  C
  H295     1.0000 0.68394  0.19160  0.29171  Biso   1.000  H
  H296     1.0000 0.68386  0.19160  0.29171  Biso   1.000  H
  H297     1.0000 0.74017  0.33499  0.37580  Biso   1.000  H
  C349     1.0000 0.70804  0.29198  0.43641  Biso   1.000  C
  C350     1.0000 0.70796  0.29198  0.43641  Biso   1.000  C
  C351     1.0000 0.84713  0.85949  0.66742  Biso   1.000  C
  C352     1.0000 0.84705  0.85949  0.66742  Biso   1.000  C
  C353     1.0000 0.91124  0.74312  0.67342  Biso   1.000  C
  C354     1.0000 0.91124  0.74307  0.67342  Biso   1.000  C
  C355     1.0000 0.91116  0.74312  0.67342  Biso   1.000  C
  C356     1.0000 0.91116  0.74307  0.67342  Biso   1.000  C
  C357     1.0000 0.58754  0.93540  0.65372  Biso   1.000  C
  C358     1.0000 0.60329  0.90051  0.58092  Biso   1.000  C
  C359     1.0000 0.58746  0.93540  0.65372  Biso   1.000  C
  C360     1.0000 0.60329  0.90046  0.58092  Biso   1.000  C
  H298     1.0000 0.33173  0.02520  0.33149  Biso   1.000  H
  C361     1.0000 0.31527  0.00791  0.39521  Biso   1.000  C
  C362     1.0000 0.31527  0.00786  0.39521  Biso   1.000  C
  H299     1.0000 0.33165  0.02520  0.33149  Biso   1.000  H
  H300     1.0000 0.31039  0.96788  0.45621  Biso   1.000  H
  C363     1.0000 0.24431  0.78629  0.50860  Biso   1.000  C
  H301     1.0000 0.39631  0.76712  0.52342  Biso   1.000  H
  H302     1.0000 0.39631  0.76707  0.52342  Biso   1.000  H
  H303     1.0000 0.10002  0.79389  0.48120  Biso   1.000  H
  H304     1.0000 0.09994  0.79389  0.48120  Biso   1.000  H
  C364     1.0000 0.84713  0.14051  0.33262  Biso   1.000  C
  C365     1.0000 0.91124  0.25688  0.32662  Biso   1.000  C
  C366     1.0000 0.84713  0.14046  0.33262  Biso   1.000  C
  C367     1.0000 0.84705  0.14051  0.33262  Biso   1.000  C
  C368     1.0000 0.91116  0.25688  0.32662  Biso   1.000  C
  C369     1.0000 0.84705  0.14046  0.33262  Biso   1.000  C
  C370     1.0000 0.63322  0.28129  0.46660  Biso   1.000  C
  C371     1.0000 0.80862  0.25960  0.44090  Biso   1.000  C
  C372     1.0000 0.80862  0.25955  0.44090  Biso   1.000  C
  C373     1.0000 0.93684  0.87850  0.64512  Biso   1.000  C
  C374     1.0000 0.93676  0.87850  0.64512  Biso   1.000  C
  H305     1.0000 0.79334  0.89302  0.67261  Biso   1.000  H
  H306     1.0000 0.79334  0.89296  0.67261  Biso   1.000  H
  H307     1.0000 0.79326  0.89302  0.67261  Biso   1.000  H
  H308     1.0000 0.79326  0.89296  0.67261  Biso   1.000  H
  H309     1.0000 0.90250  0.69660  0.68371  Biso   1.000  H
  C375     1.0000 0.00063  0.76078  0.64980  Biso   1.000  C
  C376     1.0000 0.00055  0.76078  0.64980  Biso   1.000  C
  H310     1.0000 0.55958  0.92838  0.68169  Biso   1.000  H
  C377     1.0000 0.65000  0.99450  0.64569  Biso   1.000  C
  C378     1.0000 0.66339  0.96003  0.57200  Biso   1.000  C
  H311     1.0000 0.58841  0.86902  0.55810  Biso   1.000  H
  C379     1.0000 0.66339  0.95997  0.57200  Biso   1.000  C
  H312     1.0000 0.58841  0.86897  0.55810  Biso   1.000  H
  C380     1.0000 0.25203  0.07162  0.40461  Biso   1.000  C
  C381     1.0000 0.25203  0.07157  0.40461  Biso   1.000  C
  C382     1.0000 0.25195  0.07162  0.40461  Biso   1.000  C
  C383     1.0000 0.25195  0.07157  0.40461  Biso   1.000  C
  C384     1.0000 0.22029  0.82863  0.54809  Biso   1.000  C
  C385     1.0000 0.22029  0.82857  0.54809  Biso   1.000  C
  C386     1.0000 0.93684  0.12150  0.35492  Biso   1.000  C
  H313     1.0000 0.79334  0.10698  0.32742  Biso   1.000  H
  C387     1.0000 0.93676  0.12150  0.35492  Biso   1.000  C
  H314     1.0000 0.79326  0.10698  0.32742  Biso   1.000  H
  H315     1.0000 0.90250  0.30340  0.31632  Biso   1.000  H
  H316     1.0000 0.90250  0.30335  0.31632  Biso   1.000  H
  C388     1.0000 0.00063  0.23922  0.35020  Biso   1.000  C
  C389     1.0000 0.00063  0.23917  0.35020  Biso   1.000  C
  C390     1.0000 0.00055  0.23922  0.35020  Biso   1.000  C
  C391     1.0000 0.00055  0.23917  0.35020  Biso   1.000  C
  C392     1.0000 0.65677  0.24132  0.50260  Biso   1.000  C
  C393     1.0000 0.65677  0.24126  0.50260  Biso   1.000  C
  H317     1.0000 0.56502  0.30099  0.46330  Biso   1.000  H
  C394     1.0000 0.83114  0.22418  0.47709  Biso   1.000  C
  C395     1.0000 0.83106  0.22418  0.47709  Biso   1.000  C
  H318     1.0000 0.85910  0.26280  0.41851  Biso   1.000  H
  H319     1.0000 0.94550  0.92560  0.63591  Biso   1.000  H
  C396     1.0000 0.01559  0.82863  0.63581  Biso   1.000  C
  C397     1.0000 0.01559  0.82857  0.63581  Biso   1.000  C
  H320     1.0000 0.05151  0.72589  0.64332  Biso   1.000  H
  H321     1.0000 0.66827  0.02520  0.66851  Biso   1.000  H
  C398     1.0000 0.68473  0.00791  0.60482  Biso   1.000  C
  C399     1.0000 0.68473  0.00786  0.60482  Biso   1.000  C
  C400     1.0000 0.68465  0.00791  0.60482  Biso   1.000  C
  C401     1.0000 0.68465  0.00786  0.60482  Biso   1.000  C
  H322     1.0000 0.68961  0.96788  0.54379  Biso   1.000  H
  C402     1.0000 0.27920  0.11138  0.44180  Biso   1.000  C
  C403     1.0000 0.16996  0.09148  0.38061  Biso   1.000  C
  C404     1.0000 0.13326  0.80940  0.57299  Biso   1.000  C
  C405     1.0000 0.27920  0.88862  0.55820  Biso   1.000  C
  C406     1.0000 0.27920  0.88856  0.55820  Biso   1.000  C
  H323     1.0000 0.94550  0.07440  0.36409  Biso   1.000  H
  C407     1.0000 0.01559  0.17137  0.36422  Biso   1.000  C
  H324     1.0000 0.05151  0.27411  0.35671  Biso   1.000  H
  H325     1.0000 0.05151  0.27406  0.35671  Biso   1.000  H
  C408     1.0000 0.75569  0.21371  0.50860  Biso   1.000  C
  C409     1.0000 0.75569  0.21365  0.50860  Biso   1.000  C
  H326     1.0000 0.60369  0.23288  0.52342  Biso   1.000  H
  H327     1.0000 0.89998  0.20611  0.48120  Biso   1.000  H
  H328     1.0000 0.89998  0.20606  0.48120  Biso   1.000  H
  C410     1.0000 0.10861  0.84901  0.60979  Biso   1.000  C
  C411     1.0000 0.74797  0.07162  0.59542  Biso   1.000  C
  C412     1.0000 0.74797  0.07157  0.59542  Biso   1.000  C
  C413     1.0000 0.22029  0.17137  0.45191  Biso   1.000  C
  H329     1.0000 0.33638  0.09740  0.45951  Biso   1.000  H
  C414     1.0000 0.10861  0.15099  0.39021  Biso   1.000  C
  H330     1.0000 0.15232  0.06428  0.35610  Biso   1.000  H
  H331     1.0000 0.09136  0.77021  0.56520  Biso   1.000  H
  H332     1.0000 0.09136  0.77016  0.56520  Biso   1.000  H
  C415     1.0000 0.25203  0.92838  0.59542  Biso   1.000  C
  C416     1.0000 0.25195  0.92838  0.59542  Biso   1.000  C
  H333     1.0000 0.33638  0.90260  0.54052  Biso   1.000  H
  C417     1.0000 0.77971  0.17137  0.54809  Biso   1.000  C
  C418     1.0000 0.16996  0.90852  0.61942  Biso   1.000  C
  C419     1.0000 0.16996  0.90847  0.61942  Biso   1.000  C
  C420     1.0000 0.72080  0.11138  0.55820  Biso   1.000  C
  C421     1.0000 0.83004  0.09148  0.61942  Biso   1.000  C
  C422     1.0000 0.82996  0.09148  0.61942  Biso   1.000  C
  C423     1.0000 0.13326  0.19060  0.42701  Biso   1.000  C
  C424     1.0000 0.24431  0.21371  0.49140  Biso   1.000  C
  C425     1.0000 0.24431  0.21365  0.49140  Biso   1.000  C
  C426     1.0000 0.31527  0.99209  0.60482  Biso   1.000  C
  C427     1.0000 0.86674  0.19060  0.57299  Biso   1.000  C
  C428     1.0000 0.86666  0.19060  0.57299  Biso   1.000  C
  H334     1.0000 0.15232  0.93572  0.64390  Biso   1.000  H
  H335     1.0000 0.15232  0.93566  0.64390  Biso   1.000  H
  H336     1.0000 0.66362  0.09740  0.54052  Biso   1.000  H
  H337     1.0000 0.84768  0.06428  0.64390  Biso   1.000  H
  C429     1.0000 0.89139  0.15099  0.60979  Biso   1.000  C
  H338     1.0000 0.09136  0.22979  0.43480  Biso   1.000  H
  C430     1.0000 0.34323  0.24132  0.49740  Biso   1.000  C
  C431     1.0000 0.16886  0.22418  0.52291  Biso   1.000  C
  C432     1.0000 0.34323  0.24126  0.49740  Biso   1.000  C
  C433     1.0000 0.34315  0.24132  0.49740  Biso   1.000  C
  C434     1.0000 0.34315  0.24126  0.49740  Biso   1.000  C
  C435     1.0000 0.35000  0.00550  0.64569  Biso   1.000  C
  C436     1.0000 0.33661  0.03997  0.57200  Biso   1.000  C
  H339     1.0000 0.90864  0.22979  0.56520  Biso   1.000  H
  H340     1.0000 0.90856  0.22979  0.56520  Biso   1.000  H
  C437     1.0000 0.98441  0.17137  0.63581  Biso   1.000  C
  C438     1.0000 0.36678  0.28129  0.53340  Biso   1.000  C
  H341     1.0000 0.39631  0.23288  0.47661  Biso   1.000  H
  H342     1.0000 0.10002  0.20611  0.51880  Biso   1.000  H
  C439     1.0000 0.19138  0.25960  0.55910  Biso   1.000  C
  H343     1.0000 0.10002  0.20606  0.51880  Biso   1.000  H
  C440     1.0000 0.19138  0.25955  0.55910  Biso   1.000  C
  H344     1.0000 0.09994  0.20611  0.51880  Biso   1.000  H
  H345     1.0000 0.09994  0.20606  0.51880  Biso   1.000  H
  H346     1.0000 0.33173  0.97480  0.66851  Biso   1.000  H
  H347     1.0000 0.33165  0.97480  0.66851  Biso   1.000  H
  C441     1.0000 0.41246  0.06460  0.65372  Biso   1.000  C
  H348     1.0000 0.31039  0.03212  0.54379  Biso   1.000  H
  C442     1.0000 0.39671  0.09949  0.58092  Biso   1.000  C
  H349     1.0000 0.31039  0.03206  0.54379  Biso   1.000  H
  C443     1.0000 0.99937  0.23922  0.64980  Biso   1.000  C
  C444     1.0000 0.99937  0.23917  0.64980  Biso   1.000  C
  C445     1.0000 0.06316  0.12150  0.64512  Biso   1.000  C
  C446     1.0000 0.29196  0.29198  0.56362  Biso   1.000  C
  H350     1.0000 0.43498  0.30099  0.53670  Biso   1.000  H
  H351     1.0000 0.14090  0.26280  0.58149  Biso   1.000  H
  H352     1.0000 0.44042  0.07162  0.68169  Biso   1.000  H
  C447     1.0000 0.43522  0.11448  0.62089  Biso   1.000  C
  H353     1.0000 0.44042  0.07157  0.68169  Biso   1.000  H
  H354     1.0000 0.44034  0.07162  0.68169  Biso   1.000  H
  C448     1.0000 0.43514  0.11448  0.62089  Biso   1.000  C
  H355     1.0000 0.44034  0.07157  0.68169  Biso   1.000  H
  H356     1.0000 0.41159  0.13098  0.55810  Biso   1.000  H
  H357     1.0000 0.94849  0.27411  0.64332  Biso   1.000  H
  H358     1.0000 0.94849  0.27406  0.64332  Biso   1.000  H
  C449     1.0000 0.08876  0.25688  0.67342  Biso   1.000  C
  H359     1.0000 0.05450  0.07440  0.63591  Biso   1.000  H
  C450     1.0000 0.15287  0.14051  0.66742  Biso   1.000  C
  C451     1.0000 0.15287  0.14046  0.66742  Biso   1.000  C
  C452     1.0000 0.31047  0.33489  0.60180  Biso   1.000  C
  C453     1.0000 0.49902  0.17541  0.62830  Biso   1.000  C
  C454     1.0000 0.49902  0.17535  0.62830  Biso   1.000  C
  C455     1.0000 0.16390  0.20758  0.68182  Biso   1.000  C
  H360     1.0000 0.09750  0.30340  0.68371  Biso   1.000  H
  H361     1.0000 0.09750  0.30335  0.68371  Biso   1.000  H
  H362     1.0000 0.20666  0.10698  0.67261  Biso   1.000  H
  N48      1.0000 0.39419  0.37240  0.60562  Biso   1.000  N
  N49      1.0000 0.39419  0.37235  0.60562  Biso   1.000  N
  H363     1.0000 0.25983  0.33499  0.62420  Biso   1.000  H
  H364     1.0000 0.25975  0.33499  0.62420  Biso   1.000  H
  N50      1.0000 0.54966  0.18589  0.66190  Biso   1.000  N
  H365     1.0000 0.50272  0.20967  0.60620  Biso   1.000  H
  H366     1.0000 0.50264  0.20967  0.60620  Biso   1.000  H
  C456     1.0000 0.26093  0.22507  0.70720  Biso   1.000  C
  C457     1.0000 0.26085  0.22507  0.70720  Biso   1.000  C
  C458     1.0000 0.40387  0.41568  0.64431  Biso   1.000  C
  C459     1.0000 0.61597  0.25090  0.66369  Biso   1.000  C
  C460     1.0000 0.61597  0.25085  0.66369  Biso   1.000  C
  N51      1.0000 0.27290  0.28292  0.72751  Biso   1.000  N
  H367     1.0000 0.31606  0.19160  0.70832  Biso   1.000  H
  N52      1.0000 0.27290  0.28286  0.72751  Biso   1.000  N
  C461     1.0000 0.50161  0.39571  0.66960  Biso   1.000  C
  C462     1.0000 0.50161  0.39566  0.66960  Biso   1.000  C
  H368     1.0000 0.34071  0.40928  0.66251  Biso   1.000  H
  H369     1.0000 0.40797  0.46571  0.63610  Biso   1.000  H
  H370     1.0000 0.40797  0.46566  0.63610  Biso   1.000  H
  H371     1.0000 0.60628  0.27830  0.63710  Biso   1.000  H
  H372     1.0000 0.69127  0.23781  0.66591  Biso   1.000  H
  C463     1.0000 0.58502  0.29517  0.70232  Biso   1.000  C
  H373     1.0000 0.60628  0.27825  0.63710  Biso   1.000  H
  H374     1.0000 0.69127  0.23775  0.66591  Biso   1.000  H
  C464     1.0000 0.58494  0.29517  0.70232  Biso   1.000  C
  C465     1.0000 0.37103  0.28800  0.75270  Biso   1.000  C
  C466     1.0000 0.37095  0.28800  0.75270  Biso   1.000  C
  N53      1.0000 0.48508  0.33311  0.69491  Biso   1.000  N
  N54      1.0000 0.48508  0.33305  0.69491  Biso   1.000  N
  H375     1.0000 0.56076  0.38791  0.64951  Biso   1.000  H
  H376     1.0000 0.52107  0.43480  0.68891  Biso   1.000  H
  H377     1.0000 0.56076  0.38786  0.64951  Biso   1.000  H
  H378     1.0000 0.52107  0.43475  0.68891  Biso   1.000  H
  H379     1.0000 0.57738  0.26458  0.72770  Biso   1.000  H
  H380     1.0000 0.64157  0.32939  0.70832  Biso   1.000  H
  C467     1.0000 0.43246  0.35061  0.73412  Biso   1.000  C
  H381     1.0000 0.41262  0.24430  0.75000  Biso   1.000  H
  H382     1.0000 0.35489  0.29580  0.78340  Biso   1.000  H
  C468     1.0000 0.43246  0.35055  0.73412  Biso   1.000  C
  H383     1.0000 0.41262  0.24425  0.75000  Biso   1.000  H
  H384     1.0000 0.35489  0.29575  0.78340  Biso   1.000  H
  H385     1.0000 0.41254  0.24430  0.75000  Biso   1.000  H
  H386     1.0000 0.41254  0.24425  0.75000  Biso   1.000  H
  H387     1.0000 0.38308  0.38979  0.72870  Biso   1.000  H
  H388     1.0000 0.48508  0.36658  0.75529  Biso   1.000  H
  C469     1.0000 0.89139  0.84901  0.39021  Biso   1.000  C
  C470     1.0000 0.86674  0.80940  0.42701  Biso   1.000  C
  C471     1.0000 0.86666  0.80940  0.42701  Biso   1.000  C
  C472     1.0000 0.83004  0.90852  0.38061  Biso   1.000  C
  C473     1.0000 0.83004  0.90847  0.38061  Biso   1.000  C
  C474     1.0000 0.82996  0.90852  0.38061  Biso   1.000  C
  C475     1.0000 0.82996  0.90847  0.38061  Biso   1.000  C
  C476     1.0000 0.98441  0.82863  0.36422  Biso   1.000  C
  C477     1.0000 0.98441  0.82857  0.36422  Biso   1.000  C
  C478     1.0000 0.77971  0.82863  0.45191  Biso   1.000  C
  C479     1.0000 0.77971  0.82857  0.45191  Biso   1.000  C
  H389     1.0000 0.90864  0.77021  0.43480  Biso   1.000  H
  H390     1.0000 0.90864  0.77016  0.43480  Biso   1.000  H
  H391     1.0000 0.90856  0.77021  0.43480  Biso   1.000  H
  H392     1.0000 0.90856  0.77016  0.43480  Biso   1.000  H
  C480     1.0000 0.74797  0.92838  0.40461  Biso   1.000  C
  H393     1.0000 0.84768  0.93572  0.35610  Biso   1.000  H
  H394     1.0000 0.84768  0.93566  0.35610  Biso   1.000  H
  C481     1.0000 0.99937  0.76078  0.35020  Biso   1.000  C
  C482     1.0000 0.06316  0.87850  0.35492  Biso   1.000  C
  C483     1.0000 0.75569  0.78629  0.49140  Biso   1.000  C
  C484     1.0000 0.72080  0.88862  0.44180  Biso   1.000  C
  C485     1.0000 0.72080  0.88856  0.44180  Biso   1.000  C
  C486     1.0000 0.68473  0.99209  0.39521  Biso   1.000  C
  C487     1.0000 0.68465  0.99209  0.39521  Biso   1.000  C
  H395     1.0000 0.94849  0.72589  0.35671  Biso   1.000  H
  C488     1.0000 0.08876  0.74312  0.32662  Biso   1.000  C
  C489     1.0000 0.08876  0.74307  0.32662  Biso   1.000  C
  H396     1.0000 0.05450  0.92560  0.36409  Biso   1.000  H
  C490     1.0000 0.15287  0.85949  0.33262  Biso   1.000  C
  C491     1.0000 0.65677  0.75868  0.49740  Biso   1.000  C
  C492     1.0000 0.83114  0.77582  0.52291  Biso   1.000  C
  C493     1.0000 0.83114  0.77576  0.52291  Biso   1.000  C
  C494     1.0000 0.83106  0.77582  0.52291  Biso   1.000  C
  C495     1.0000 0.83106  0.77576  0.52291  Biso   1.000  C
  H397     1.0000 0.66362  0.90260  0.45951  Biso   1.000  H
  C496     1.0000 0.65000  0.00550  0.35431  Biso   1.000  C
  C497     1.0000 0.66339  0.03997  0.42800  Biso   1.000  C
  C498     1.0000 0.16390  0.79242  0.31821  Biso   1.000  C
  H398     1.0000 0.09750  0.69660  0.31632  Biso   1.000  H
  C499     1.0000 0.16390  0.79237  0.31821  Biso   1.000  C
  H399     1.0000 0.20666  0.89302  0.32742  Biso   1.000  H
  H400     1.0000 0.20666  0.89296  0.32742  Biso   1.000  H
  C500     1.0000 0.63322  0.71871  0.53340  Biso   1.000  C
  H401     1.0000 0.60369  0.76712  0.47661  Biso   1.000  H
  H402     1.0000 0.60369  0.76707  0.47661  Biso   1.000  H
  C501     1.0000 0.80862  0.74040  0.55910  Biso   1.000  C
  H403     1.0000 0.89998  0.79389  0.51880  Biso   1.000  H
  H404     1.0000 0.66827  0.97480  0.33149  Biso   1.000  H
  C502     1.0000 0.58754  0.06460  0.34632  Biso   1.000  C
  C503     1.0000 0.58746  0.06460  0.34632  Biso   1.000  C
  H405     1.0000 0.68961  0.03212  0.45621  Biso   1.000  H
  C504     1.0000 0.60329  0.09949  0.41912  Biso   1.000  C
  H406     1.0000 0.68961  0.03206  0.45621  Biso   1.000  H
  C505     1.0000 0.26093  0.77493  0.29280  Biso   1.000  C
  C506     1.0000 0.26093  0.77487  0.29280  Biso   1.000  C
  C507     1.0000 0.26085  0.77493  0.29280  Biso   1.000  C
  C508     1.0000 0.26085  0.77487  0.29280  Biso   1.000  C
  H407     1.0000 0.56502  0.69901  0.53670  Biso   1.000  H
  C509     1.0000 0.70804  0.70802  0.56362  Biso   1.000  C
  C510     1.0000 0.70804  0.70797  0.56362  Biso   1.000  C
  C511     1.0000 0.70796  0.70802  0.56362  Biso   1.000  C
  C512     1.0000 0.70796  0.70797  0.56362  Biso   1.000  C
  H408     1.0000 0.85910  0.73720  0.58149  Biso   1.000  H
  H409     1.0000 0.55958  0.07162  0.31831  Biso   1.000  H
  C513     1.0000 0.56478  0.11448  0.37911  Biso   1.000  C
  H410     1.0000 0.55958  0.07157  0.31831  Biso   1.000  H
  H411     1.0000 0.58841  0.13098  0.44190  Biso   1.000  H
  N55      1.0000 0.27290  0.71708  0.27249  Biso   1.000  N
  H412     1.0000 0.31606  0.80840  0.29171  Biso   1.000  H
  C514     1.0000 0.68953  0.66511  0.60180  Biso   1.000  C
  C515     1.0000 0.68953  0.66506  0.60180  Biso   1.000  C
  C516     1.0000 0.68945  0.66511  0.60180  Biso   1.000  C
  C517     1.0000 0.68945  0.66506  0.60180  Biso   1.000  C
  C518     1.0000 0.50098  0.17541  0.37170  Biso   1.000  C
  C519     1.0000 0.50098  0.17535  0.37170  Biso   1.000  C
  C520     1.0000 0.37103  0.71200  0.24730  Biso   1.000  C
  C521     1.0000 0.37095  0.71200  0.24730  Biso   1.000  C
  N56      1.0000 0.60581  0.62760  0.60562  Biso   1.000  N
  H413     1.0000 0.74017  0.66501  0.62420  Biso   1.000  H
  N57      1.0000 0.45034  0.18589  0.33810  Biso   1.000  N
  H414     1.0000 0.49728  0.20967  0.39380  Biso   1.000  H
  N58      1.0000 0.45026  0.18589  0.33810  Biso   1.000  N
  C522     1.0000 0.43246  0.64939  0.26591  Biso   1.000  C
  H415     1.0000 0.41262  0.75570  0.25000  Biso   1.000  H
  H416     1.0000 0.35489  0.70420  0.21660  Biso   1.000  H
  H417     1.0000 0.41254  0.75570  0.25000  Biso   1.000  H
  C523     1.0000 0.59613  0.58432  0.64431  Biso   1.000  C
  C524     1.0000 0.59613  0.58427  0.64431  Biso   1.000  C
  C525     1.0000 0.38403  0.25090  0.33631  Biso   1.000  C
  C526     1.0000 0.38403  0.25085  0.33631  Biso   1.000  C
  N59      1.0000 0.48508  0.66689  0.30509  Biso   1.000  N
  H418     1.0000 0.38308  0.61021  0.27130  Biso   1.000  H
  H419     1.0000 0.48508  0.63342  0.24471  Biso   1.000  H
  H420     1.0000 0.48508  0.63336  0.24471  Biso   1.000  H
  C527     1.0000 0.49839  0.60429  0.66960  Biso   1.000  C
  H421     1.0000 0.59203  0.53429  0.63610  Biso   1.000  H
  H422     1.0000 0.65929  0.59072  0.66251  Biso   1.000  H
  H423     1.0000 0.65929  0.59066  0.66251  Biso   1.000  H
  H424     1.0000 0.39372  0.27830  0.36290  Biso   1.000  H
  H425     1.0000 0.30873  0.23781  0.33409  Biso   1.000  H
  C528     1.0000 0.41498  0.29517  0.29771  Biso   1.000  C
  H426     1.0000 0.39372  0.27825  0.36290  Biso   1.000  H
  H427     1.0000 0.30873  0.23775  0.33409  Biso   1.000  H
  C529     1.0000 0.58502  0.70483  0.29771  Biso   1.000  C
  C530     1.0000 0.50161  0.60429  0.33040  Biso   1.000  C
  C531     1.0000 0.58502  0.70477  0.29771  Biso   1.000  C
  C532     1.0000 0.58494  0.70483  0.29771  Biso   1.000  C
  C533     1.0000 0.58494  0.70477  0.29771  Biso   1.000  C
  N60      1.0000 0.51492  0.66689  0.69491  Biso   1.000  N
  H428     1.0000 0.43924  0.61209  0.64951  Biso   1.000  H
  H429     1.0000 0.47893  0.56520  0.68891  Biso   1.000  H
  H430     1.0000 0.43916  0.61209  0.64951  Biso   1.000  H
  H431     1.0000 0.47885  0.56520  0.68891  Biso   1.000  H
  N61      1.0000 0.51492  0.33311  0.30509  Biso   1.000  N
  H432     1.0000 0.42262  0.26458  0.27230  Biso   1.000  H
  H433     1.0000 0.35843  0.32939  0.29171  Biso   1.000  H
  N62      1.0000 0.51492  0.33305  0.30509  Biso   1.000  N
  C534     1.0000 0.61597  0.74910  0.33631  Biso   1.000  C
  H434     1.0000 0.57738  0.73542  0.27230  Biso   1.000  H
  H435     1.0000 0.64157  0.67061  0.29171  Biso   1.000  H
  H436     1.0000 0.57738  0.73537  0.27230  Biso   1.000  H
  H437     1.0000 0.64157  0.67056  0.29171  Biso   1.000  H
  H438     1.0000 0.56076  0.61209  0.35052  Biso   1.000  H
  H439     1.0000 0.52107  0.56520  0.31109  Biso   1.000  H
  C535     1.0000 0.40387  0.58432  0.35572  Biso   1.000  C
  C536     1.0000 0.40387  0.58427  0.35572  Biso   1.000  C
  C537     1.0000 0.41498  0.70483  0.70232  Biso   1.000  C
  C538     1.0000 0.56754  0.64939  0.73412  Biso   1.000  C
  C539     1.0000 0.41498  0.70477  0.70232  Biso   1.000  C
  C540     1.0000 0.56746  0.64939  0.73412  Biso   1.000  C
  C541     1.0000 0.56754  0.35061  0.26591  Biso   1.000  C
  C542     1.0000 0.49839  0.39571  0.33040  Biso   1.000  C
  C543     1.0000 0.56754  0.35055  0.26591  Biso   1.000  C
  C544     1.0000 0.49839  0.39566  0.33040  Biso   1.000  C
  C545     1.0000 0.56746  0.35061  0.26591  Biso   1.000  C
  C546     1.0000 0.56746  0.35055  0.26591  Biso   1.000  C
  N63      1.0000 0.54966  0.81411  0.33810  Biso   1.000  N
  H440     1.0000 0.60628  0.72170  0.36290  Biso   1.000  H
  H441     1.0000 0.69127  0.76219  0.33409  Biso   1.000  H
  N64      1.0000 0.54966  0.81406  0.33810  Biso   1.000  N
  N65      1.0000 0.39419  0.62760  0.39441  Biso   1.000  N
  H442     1.0000 0.34071  0.59072  0.33749  Biso   1.000  H
  H443     1.0000 0.40797  0.53429  0.36390  Biso   1.000  H
  H444     1.0000 0.34071  0.59066  0.33749  Biso   1.000  H
  C547     1.0000 0.38403  0.74910  0.66369  Biso   1.000  C
  H445     1.0000 0.42262  0.73542  0.72770  Biso   1.000  H
  H446     1.0000 0.35843  0.67061  0.70832  Biso   1.000  H
  H447     1.0000 0.42262  0.73537  0.72770  Biso   1.000  H
  H448     1.0000 0.35843  0.67056  0.70832  Biso   1.000  H
  H449     1.0000 0.61692  0.61021  0.72870  Biso   1.000  H
  C548     1.0000 0.62897  0.71200  0.75270  Biso   1.000  C
  H450     1.0000 0.51492  0.63342  0.75529  Biso   1.000  H
  H451     1.0000 0.51492  0.63336  0.75529  Biso   1.000  H
  H452     1.0000 0.61692  0.38979  0.27130  Biso   1.000  H
  H453     1.0000 0.51492  0.36658  0.24471  Biso   1.000  H
  C549     1.0000 0.62897  0.28800  0.24730  Biso   1.000  C
  H454     1.0000 0.43924  0.38791  0.35052  Biso   1.000  H
  H455     1.0000 0.47893  0.43480  0.31109  Biso   1.000  H
  C550     1.0000 0.59613  0.41568  0.35572  Biso   1.000  C
  H456     1.0000 0.43924  0.38786  0.35052  Biso   1.000  H
  H457     1.0000 0.47893  0.43475  0.31109  Biso   1.000  H
  H458     1.0000 0.43916  0.38791  0.35052  Biso   1.000  H
  H459     1.0000 0.47885  0.43480  0.31109  Biso   1.000  H
  H460     1.0000 0.43916  0.38786  0.35052  Biso   1.000  H
  H461     1.0000 0.47885  0.43475  0.31109  Biso   1.000  H
  C551     1.0000 0.49902  0.82459  0.37170  Biso   1.000  C
  C552     1.0000 0.31047  0.66511  0.39820  Biso   1.000  C
  C553     1.0000 0.31047  0.66506  0.39820  Biso   1.000  C
  H462     1.0000 0.39372  0.72170  0.63710  Biso   1.000  H
  H463     1.0000 0.30873  0.76219  0.66591  Biso   1.000  H
  N66      1.0000 0.45034  0.81411  0.66190  Biso   1.000  N
  N67      1.0000 0.45034  0.81406  0.66190  Biso   1.000  N
  N68      1.0000 0.45026  0.81411  0.66190  Biso   1.000  N
  N69      1.0000 0.45026  0.81406  0.66190  Biso   1.000  N
  N70      1.0000 0.72710  0.71708  0.72751  Biso   1.000  N
  H464     1.0000 0.58738  0.75570  0.75000  Biso   1.000  H
  H465     1.0000 0.64511  0.70420  0.78340  Biso   1.000  H
  N71      1.0000 0.72710  0.28292  0.27249  Biso   1.000  N
  H466     1.0000 0.58738  0.24430  0.25000  Biso   1.000  H
  H467     1.0000 0.64511  0.29580  0.21660  Biso   1.000  H
  N72      1.0000 0.72710  0.28286  0.27249  Biso   1.000  N
  H468     1.0000 0.58738  0.24425  0.25000  Biso   1.000  H
  H469     1.0000 0.64511  0.29575  0.21660  Biso   1.000  H
  N73      1.0000 0.60581  0.37240  0.39441  Biso   1.000  N
  H470     1.0000 0.65929  0.40928  0.33749  Biso   1.000  H
  H471     1.0000 0.59203  0.46571  0.36390  Biso   1.000  H
  N74      1.0000 0.60581  0.37235  0.39441  Biso   1.000  N
  H472     1.0000 0.59203  0.46566  0.36390  Biso   1.000  H
  C554     1.0000 0.43522  0.88552  0.37911  Biso   1.000  C
  H473     1.0000 0.50272  0.79033  0.39380  Biso   1.000  H
  C555     1.0000 0.43522  0.88547  0.37911  Biso   1.000  C
  H474     1.0000 0.50272  0.79028  0.39380  Biso   1.000  H
  C556     1.0000 0.43514  0.88552  0.37911  Biso   1.000  C
  H475     1.0000 0.50264  0.79033  0.39380  Biso   1.000  H
  C557     1.0000 0.43514  0.88547  0.37911  Biso   1.000  C
  H476     1.0000 0.50264  0.79028  0.39380  Biso   1.000  H
  H477     1.0000 0.25983  0.66501  0.37580  Biso   1.000  H
  C558     1.0000 0.29196  0.70802  0.43641  Biso   1.000  C
  C559     1.0000 0.29196  0.70797  0.43641  Biso   1.000  C
  H478     1.0000 0.25975  0.66501  0.37580  Biso   1.000  H
  C560     1.0000 0.50098  0.82459  0.62830  Biso   1.000  C
  C561     1.0000 0.73907  0.77493  0.70720  Biso   1.000  C
  C562     1.0000 0.73907  0.77487  0.70720  Biso   1.000  C
  C563     1.0000 0.73907  0.22507  0.29280  Biso   1.000  C
  C564     1.0000 0.68953  0.33489  0.39820  Biso   1.000  C
  C565     1.0000 0.68945  0.33489  0.39820  Biso   1.000  C
  C566     1.0000 0.41246  0.93540  0.34632  Biso   1.000  C
  C567     1.0000 0.39671  0.90051  0.41912  Biso   1.000  C
  C568     1.0000 0.39671  0.90046  0.41912  Biso   1.000  C
  C569     1.0000 0.36678  0.71871  0.46660  Biso   1.000  C
  C570     1.0000 0.19138  0.74040  0.44090  Biso   1.000  C
  C571     1.0000 0.56478  0.88552  0.62089  Biso   1.000  C
  H479     1.0000 0.49728  0.79033  0.60620  Biso   1.000  H
  C572     1.0000 0.56478  0.88547  0.62089  Biso   1.000  C
  H480     1.0000 0.49728  0.79028  0.60620  Biso   1.000  H
  C573     1.0000 0.83610  0.79242  0.68182  Biso   1.000  C
  H481     1.0000 0.68394  0.80840  0.70832  Biso   1.000  H
  C574     1.0000 0.83610  0.79237  0.68182  Biso   1.000  C
  H482     1.0000 0.68386  0.80840  0.70832  Biso   1.000  H
  C575     1.0000 0.83610  0.20758  0.31821  Biso   1.000  C
  H483     1.0000 0.68394  0.19160  0.29171  Biso   1.000  H
  H484     1.0000 0.68386  0.19160  0.29171  Biso   1.000  H
  H485     1.0000 0.74017  0.33499  0.37580  Biso   1.000  H
  C576     1.0000 0.70804  0.29198  0.43641  Biso   1.000  C
  C577     1.0000 0.70796  0.29198  0.43641  Biso   1.000  C
  H486     1.0000 0.44042  0.92838  0.31831  Biso   1.000  H
  C578     1.0000 0.35000  0.99450  0.35431  Biso   1.000  C
  H487     1.0000 0.44034  0.92838  0.31831  Biso   1.000  H
  C579     1.0000 0.33661  0.96003  0.42800  Biso   1.000  C
  H488     1.0000 0.41159  0.86902  0.44190  Biso   1.000  H
  C580     1.0000 0.33661  0.95997  0.42800  Biso   1.000  C
  H489     1.0000 0.41159  0.86897  0.44190  Biso   1.000  H
  C581     1.0000 0.34323  0.75868  0.50260  Biso   1.000  C
  C582     1.0000 0.34315  0.75868  0.50260  Biso   1.000  C
  H490     1.0000 0.43498  0.69901  0.46330  Biso   1.000  H
  C583     1.0000 0.16886  0.77582  0.47709  Biso   1.000  C
  C584     1.0000 0.16886  0.77576  0.47709  Biso   1.000  C
  H491     1.0000 0.14090  0.73720  0.41851  Biso   1.000  H
  C585     1.0000 0.58754  0.93540  0.65372  Biso   1.000  C
  C586     1.0000 0.60329  0.90051  0.58092  Biso   1.000  C
  C587     1.0000 0.60329  0.90046  0.58092  Biso   1.000  C
  C588     1.0000 0.58746  0.93540  0.65372  Biso   1.000  C
  C589     1.0000 0.84713  0.85949  0.66742  Biso   1.000  C
  C590     1.0000 0.91124  0.74312  0.67342  Biso   1.000  C
  C591     1.0000 0.91124  0.74307  0.67342  Biso   1.000  C
  C592     1.0000 0.84705  0.85949  0.66742  Biso   1.000  C
  C593     1.0000 0.91116  0.74312  0.67342  Biso   1.000  C
  C594     1.0000 0.91116  0.74307  0.67342  Biso   1.000  C
  C595     1.0000 0.84713  0.14051  0.33262  Biso   1.000  C
  C596     1.0000 0.91124  0.25688  0.32662  Biso   1.000  C
  C597     1.0000 0.84713  0.14046  0.33262  Biso   1.000  C
  C598     1.0000 0.84705  0.14051  0.33262  Biso   1.000  C
  C599     1.0000 0.91116  0.25688  0.32662  Biso   1.000  C
  C600     1.0000 0.84705  0.14046  0.33262  Biso   1.000  C
  C601     1.0000 0.63322  0.28129  0.46660  Biso   1.000  C
  C602     1.0000 0.80862  0.25960  0.44090  Biso   1.000  C
  C603     1.0000 0.80862  0.25955  0.44090  Biso   1.000  C
  H492     1.0000 0.33173  0.02520  0.33149  Biso   1.000  H
  C604     1.0000 0.31527  0.00791  0.39521  Biso   1.000  C
  C605     1.0000 0.31527  0.00786  0.39521  Biso   1.000  C
  H493     1.0000 0.33165  0.02520  0.33149  Biso   1.000  H
  H494     1.0000 0.31039  0.96788  0.45621  Biso   1.000  H
  C606     1.0000 0.24431  0.78629  0.50860  Biso   1.000  C
  H495     1.0000 0.39631  0.76712  0.52342  Biso   1.000  H
  H496     1.0000 0.39631  0.76707  0.52342  Biso   1.000  H
  H497     1.0000 0.10002  0.79389  0.48120  Biso   1.000  H
  H498     1.0000 0.09994  0.79389  0.48120  Biso   1.000  H
  H499     1.0000 0.55958  0.92838  0.68169  Biso   1.000  H
  C607     1.0000 0.65000  0.99450  0.64569  Biso   1.000  C
  C608     1.0000 0.66339  0.96003  0.57200  Biso   1.000  C
  H500     1.0000 0.58841  0.86902  0.55810  Biso   1.000  H
  C609     1.0000 0.66339  0.95997  0.57200  Biso   1.000  C
  H501     1.0000 0.58841  0.86897  0.55810  Biso   1.000  H
  C610     1.0000 0.93684  0.87850  0.64512  Biso   1.000  C
  H502     1.0000 0.79334  0.89302  0.67261  Biso   1.000  H
  H503     1.0000 0.79334  0.89296  0.67261  Biso   1.000  H
  C611     1.0000 0.93676  0.87850  0.64512  Biso   1.000  C
  H504     1.0000 0.79326  0.89302  0.67261  Biso   1.000  H
  H505     1.0000 0.79326  0.89296  0.67261  Biso   1.000  H
  H506     1.0000 0.90250  0.69660  0.68371  Biso   1.000  H
  C612     1.0000 0.00063  0.76078  0.64980  Biso   1.000  C
  C613     1.0000 0.00055  0.76078  0.64980  Biso   1.000  C
  C614     1.0000 0.93684  0.12150  0.35492  Biso   1.000  C
  H507     1.0000 0.79334  0.10698  0.32742  Biso   1.000  H
  C615     1.0000 0.93676  0.12150  0.35492  Biso   1.000  C
  H508     1.0000 0.79326  0.10698  0.32742  Biso   1.000  H
  H509     1.0000 0.90250  0.30340  0.31632  Biso   1.000  H
  H510     1.0000 0.90250  0.30335  0.31632  Biso   1.000  H
  C616     1.0000 0.00063  0.23922  0.35020  Biso   1.000  C
  C617     1.0000 0.00063  0.23917  0.35020  Biso   1.000  C
  C618     1.0000 0.00055  0.23922  0.35020  Biso   1.000  C
  C619     1.0000 0.00055  0.23917  0.35020  Biso   1.000  C
  C620     1.0000 0.65677  0.24132  0.50260  Biso   1.000  C
  C621     1.0000 0.65677  0.24126  0.50260  Biso   1.000  C
  H511     1.0000 0.56502  0.30099  0.46330  Biso   1.000  H
  C622     1.0000 0.83114  0.22418  0.47709  Biso   1.000  C
  C623     1.0000 0.83106  0.22418  0.47709  Biso   1.000  C
  H512     1.0000 0.85910  0.26280  0.41851  Biso   1.000  H
  C624     1.0000 0.25203  0.07162  0.40461  Biso   1.000  C
  C625     1.0000 0.25203  0.07157  0.40461  Biso   1.000  C
  C626     1.0000 0.25195  0.07162  0.40461  Biso   1.000  C
  C627     1.0000 0.25195  0.07157  0.40461  Biso   1.000  C
  C628     1.0000 0.22029  0.82863  0.54809  Biso   1.000  C
  C629     1.0000 0.22029  0.82857  0.54809  Biso   1.000  C
  H513     1.0000 0.66827  0.02520  0.66851  Biso   1.000  H
  C630     1.0000 0.68473  0.00791  0.60482  Biso   1.000  C
  C631     1.0000 0.68473  0.00786  0.60482  Biso   1.000  C
  C632     1.0000 0.68465  0.00791  0.60482  Biso   1.000  C
  C633     1.0000 0.68465  0.00786  0.60482  Biso   1.000  C
  H514     1.0000 0.68961  0.96788  0.54379  Biso   1.000  H
  H515     1.0000 0.94550  0.92560  0.63591  Biso   1.000  H
  C634     1.0000 0.01559  0.82863  0.63581  Biso   1.000  C
  C635     1.0000 0.01559  0.82857  0.63581  Biso   1.000  C
  H516     1.0000 0.05151  0.72589  0.64332  Biso   1.000  H
  H517     1.0000 0.94550  0.07440  0.36409  Biso   1.000  H
  C636     1.0000 0.01559  0.17137  0.36422  Biso   1.000  C
  H518     1.0000 0.05151  0.27411  0.35671  Biso   1.000  H
  H519     1.0000 0.05151  0.27406  0.35671  Biso   1.000  H
  C637     1.0000 0.75569  0.21371  0.50860  Biso   1.000  C
  C638     1.0000 0.75569  0.21365  0.50860  Biso   1.000  C
  H520     1.0000 0.60369  0.23288  0.52342  Biso   1.000  H
  H521     1.0000 0.89998  0.20611  0.48120  Biso   1.000  H
  H522     1.0000 0.89998  0.20606  0.48120  Biso   1.000  H
  C639     1.0000 0.16996  0.09148  0.38061  Biso   1.000  C
  C640     1.0000 0.27920  0.11138  0.44180  Biso   1.000  C
  C641     1.0000 0.13326  0.80940  0.57299  Biso   1.000  C
  C642     1.0000 0.27920  0.88862  0.55820  Biso   1.000  C
  C643     1.0000 0.27920  0.88856  0.55820  Biso   1.000  C
  C644     1.0000 0.74797  0.07162  0.59542  Biso   1.000  C
  C645     1.0000 0.74797  0.07157  0.59542  Biso   1.000  C
  C646     1.0000 0.10861  0.84901  0.60979  Biso   1.000  C
  C647     1.0000 0.10861  0.15099  0.39021  Biso   1.000  C
  C648     1.0000 0.77971  0.17137  0.54809  Biso   1.000  C
  H523     1.0000 0.15232  0.06428  0.35610  Biso   1.000  H
  C649     1.0000 0.22029  0.17137  0.45191  Biso   1.000  C
  H524     1.0000 0.33638  0.09740  0.45951  Biso   1.000  H
  H525     1.0000 0.09136  0.77021  0.56520  Biso   1.000  H
  H526     1.0000 0.09136  0.77016  0.56520  Biso   1.000  H
  C650     1.0000 0.25203  0.92838  0.59542  Biso   1.000  C
  C651     1.0000 0.25195  0.92838  0.59542  Biso   1.000  C
  H527     1.0000 0.33638  0.90260  0.54052  Biso   1.000  H
  C652     1.0000 0.72080  0.11138  0.55820  Biso   1.000  C
  C653     1.0000 0.83004  0.09148  0.61942  Biso   1.000  C
  C654     1.0000 0.82996  0.09148  0.61942  Biso   1.000  C
  C655     1.0000 0.16996  0.90852  0.61942  Biso   1.000  C
  C656     1.0000 0.16996  0.90847  0.61942  Biso   1.000  C
  C657     1.0000 0.13326  0.19060  0.42701  Biso   1.000  C
  C658     1.0000 0.86674  0.19060  0.57299  Biso   1.000  C
  C659     1.0000 0.86666  0.19060  0.57299  Biso   1.000  C
  C660     1.0000 0.24431  0.21371  0.49140  Biso   1.000  C
  C661     1.0000 0.24431  0.21365  0.49140  Biso   1.000  C
  C662     1.0000 0.31527  0.99209  0.60482  Biso   1.000  C
  H528     1.0000 0.66362  0.09740  0.54052  Biso   1.000  H
  H529     1.0000 0.84768  0.06428  0.64390  Biso   1.000  H
  C663     1.0000 0.89139  0.15099  0.60979  Biso   1.000  C
  H530     1.0000 0.15232  0.93572  0.64390  Biso   1.000  H
  H531     1.0000 0.15232  0.93566  0.64390  Biso   1.000  H
  H532     1.0000 0.09136  0.22979  0.43480  Biso   1.000  H
  H533     1.0000 0.90864  0.22979  0.56520  Biso   1.000  H
  H534     1.0000 0.90856  0.22979  0.56520  Biso   1.000  H
  C664     1.0000 0.34323  0.24132  0.49740  Biso   1.000  C
  C665     1.0000 0.16886  0.22418  0.52291  Biso   1.000  C
  C666     1.0000 0.34323  0.24126  0.49740  Biso   1.000  C
  C667     1.0000 0.34315  0.24132  0.49740  Biso   1.000  C
  C668     1.0000 0.34315  0.24126  0.49740  Biso   1.000  C
  C669     1.0000 0.35000  0.00550  0.64569  Biso   1.000  C
  C670     1.0000 0.33661  0.03997  0.57200  Biso   1.000  C
  C671     1.0000 0.98441  0.17137  0.63581  Biso   1.000  C
  C672     1.0000 0.36678  0.28129  0.53340  Biso   1.000  C
  H535     1.0000 0.39631  0.23288  0.47661  Biso   1.000  H
  H536     1.0000 0.10002  0.20611  0.51880  Biso   1.000  H
  C673     1.0000 0.19138  0.25960  0.55910  Biso   1.000  C
  H537     1.0000 0.10002  0.20606  0.51880  Biso   1.000  H
  C674     1.0000 0.19138  0.25955  0.55910  Biso   1.000  C
  H538     1.0000 0.09994  0.20611  0.51880  Biso   1.000  H
  H539     1.0000 0.09994  0.20606  0.51880  Biso   1.000  H
  H540     1.0000 0.33173  0.97480  0.66851  Biso   1.000  H
  H541     1.0000 0.33165  0.97480  0.66851  Biso   1.000  H
  C675     1.0000 0.41246  0.06460  0.65372  Biso   1.000  C
  H542     1.0000 0.31039  0.03212  0.54379  Biso   1.000  H
  C676     1.0000 0.39671  0.09949  0.58092  Biso   1.000  C
  H543     1.0000 0.31039  0.03206  0.54379  Biso   1.000  H
  C677     1.0000 0.99937  0.23922  0.64980  Biso   1.000  C
  C678     1.0000 0.99937  0.23917  0.64980  Biso   1.000  C
  C679     1.0000 0.06316  0.12150  0.64512  Biso   1.000  C
  C680     1.0000 0.29196  0.29198  0.56362  Biso   1.000  C
  H544     1.0000 0.43498  0.30099  0.53670  Biso   1.000  H
  H545     1.0000 0.14090  0.26280  0.58149  Biso   1.000  H
  H546     1.0000 0.44042  0.07162  0.68169  Biso   1.000  H
  C681     1.0000 0.43522  0.11448  0.62089  Biso   1.000  C
  H547     1.0000 0.44042  0.07157  0.68169  Biso   1.000  H
  H548     1.0000 0.44034  0.07162  0.68169  Biso   1.000  H
  C682     1.0000 0.43514  0.11448  0.62089  Biso   1.000  C
  H549     1.0000 0.44034  0.07157  0.68169  Biso   1.000  H
  H550     1.0000 0.41159  0.13098  0.55810  Biso   1.000  H
  H551     1.0000 0.94849  0.27411  0.64332  Biso   1.000  H
  H552     1.0000 0.94849  0.27406  0.64332  Biso   1.000  H
  C683     1.0000 0.08876  0.25688  0.67342  Biso   1.000  C
  H553     1.0000 0.05450  0.07440  0.63591  Biso   1.000  H
  C684     1.0000 0.15287  0.14051  0.66742  Biso   1.000  C
  C685     1.0000 0.15287  0.14046  0.66742  Biso   1.000  C
  C686     1.0000 0.31047  0.33489  0.60180  Biso   1.000  C
  C687     1.0000 0.49902  0.17541  0.62830  Biso   1.000  C
  C688     1.0000 0.49902  0.17535  0.62830  Biso   1.000  C
  C689     1.0000 0.16390  0.20758  0.68182  Biso   1.000  C
  H554     1.0000 0.09750  0.30340  0.68371  Biso   1.000  H
  H555     1.0000 0.09750  0.30335  0.68371  Biso   1.000  H
  H556     1.0000 0.20666  0.10698  0.67261  Biso   1.000  H
  N75      1.0000 0.39419  0.37240  0.60562  Biso   1.000  N
  N76      1.0000 0.39419  0.37235  0.60562  Biso   1.000  N
  H557     1.0000 0.25983  0.33499  0.62420  Biso   1.000  H
  H558     1.0000 0.25975  0.33499  0.62420  Biso   1.000  H
  N77      1.0000 0.54966  0.18589  0.66190  Biso   1.000  N
  H559     1.0000 0.50272  0.20967  0.60620  Biso   1.000  H
  H560     1.0000 0.50264  0.20967  0.60620  Biso   1.000  H
  C690     1.0000 0.26093  0.22507  0.70720  Biso   1.000  C
  C691     1.0000 0.26085  0.22507  0.70720  Biso   1.000  C
  C692     1.0000 0.40387  0.41568  0.64431  Biso   1.000  C
  C693     1.0000 0.61597  0.25090  0.66369  Biso   1.000  C
  C694     1.0000 0.61597  0.25085  0.66369  Biso   1.000  C
  N78      1.0000 0.27290  0.28292  0.72751  Biso   1.000  N
  H561     1.0000 0.31606  0.19160  0.70832  Biso   1.000  H
  N79      1.0000 0.27290  0.28286  0.72751  Biso   1.000  N
  C695     1.0000 0.50161  0.39571  0.66960  Biso   1.000  C
  C696     1.0000 0.50161  0.39566  0.66960  Biso   1.000  C
  H562     1.0000 0.34071  0.40928  0.66251  Biso   1.000  H
  H563     1.0000 0.40797  0.46571  0.63610  Biso   1.000  H
  H564     1.0000 0.40797  0.46566  0.63610  Biso   1.000  H
  H565     1.0000 0.60628  0.27830  0.63710  Biso   1.000  H
  H566     1.0000 0.69127  0.23781  0.66591  Biso   1.000  H
  C697     1.0000 0.58502  0.29517  0.70232  Biso   1.000  C
  H567     1.0000 0.60628  0.27825  0.63710  Biso   1.000  H
  H568     1.0000 0.69127  0.23775  0.66591  Biso   1.000  H
  C698     1.0000 0.58494  0.29517  0.70232  Biso   1.000  C
  C699     1.0000 0.37103  0.28800  0.75270  Biso   1.000  C
  C700     1.0000 0.37095  0.28800  0.75270  Biso   1.000  C
  N80      1.0000 0.48508  0.33311  0.69491  Biso   1.000  N
  N81      1.0000 0.48508  0.33305  0.69491  Biso   1.000  N
  H569     1.0000 0.56076  0.38791  0.64951  Biso   1.000  H
  H570     1.0000 0.52107  0.43480  0.68891  Biso   1.000  H
  H571     1.0000 0.56076  0.38786  0.64951  Biso   1.000  H
  H572     1.0000 0.52107  0.43475  0.68891  Biso   1.000  H
  H573     1.0000 0.57738  0.26458  0.72770  Biso   1.000  H
  H574     1.0000 0.64157  0.32939  0.70832  Biso   1.000  H
  C701     1.0000 0.43246  0.35061  0.73412  Biso   1.000  C
  H575     1.0000 0.41262  0.24430  0.75000  Biso   1.000  H
  H576     1.0000 0.35489  0.29580  0.78340  Biso   1.000  H
  C702     1.0000 0.43246  0.35055  0.73412  Biso   1.000  C
  H577     1.0000 0.41262  0.24425  0.75000  Biso   1.000  H
  H578     1.0000 0.35489  0.29575  0.78340  Biso   1.000  H
  H579     1.0000 0.41254  0.24430  0.75000  Biso   1.000  H
  H580     1.0000 0.41254  0.24425  0.75000  Biso   1.000  H
  H581     1.0000 0.38308  0.38979  0.72870  Biso   1.000  H
  H582     1.0000 0.48508  0.36658  0.75529  Biso   1.000  H
  C703     1.0000 0.89139  0.84901  0.39021  Biso   1.000  C
  C704     1.0000 0.86674  0.80940  0.42701  Biso   1.000  C
  C705     1.0000 0.86666  0.80940  0.42701  Biso   1.000  C
  C706     1.0000 0.83004  0.90852  0.38061  Biso   1.000  C
  C707     1.0000 0.83004  0.90847  0.38061  Biso   1.000  C
  C708     1.0000 0.82996  0.90852  0.38061  Biso   1.000  C
  C709     1.0000 0.82996  0.90847  0.38061  Biso   1.000  C
  C710     1.0000 0.98441  0.82863  0.36422  Biso   1.000  C
  C711     1.0000 0.98441  0.82857  0.36422  Biso   1.000  C
  C712     1.0000 0.77971  0.82863  0.45191  Biso   1.000  C
  C713     1.0000 0.77971  0.82857  0.45191  Biso   1.000  C
  H583     1.0000 0.90864  0.77021  0.43480  Biso   1.000  H
  H584     1.0000 0.90864  0.77016  0.43480  Biso   1.000  H
  H585     1.0000 0.90856  0.77021  0.43480  Biso   1.000  H
  H586     1.0000 0.90856  0.77016  0.43480  Biso   1.000  H
  C714     1.0000 0.74797  0.92838  0.40461  Biso   1.000  C
  H587     1.0000 0.84768  0.93572  0.35610  Biso   1.000  H
  H588     1.0000 0.84768  0.93566  0.35610  Biso   1.000  H
  C715     1.0000 0.99937  0.76078  0.35020  Biso   1.000  C
  C716     1.0000 0.06316  0.87850  0.35492  Biso   1.000  C
  C717     1.0000 0.75569  0.78629  0.49140  Biso   1.000  C
  C718     1.0000 0.72080  0.88862  0.44180  Biso   1.000  C
  C719     1.0000 0.72080  0.88856  0.44180  Biso   1.000  C
  C720     1.0000 0.68473  0.99209  0.39521  Biso   1.000  C
  C721     1.0000 0.68465  0.99209  0.39521  Biso   1.000  C
  H589     1.0000 0.94849  0.72589  0.35671  Biso   1.000  H
  C722     1.0000 0.08876  0.74312  0.32662  Biso   1.000  C
  C723     1.0000 0.08876  0.74307  0.32662  Biso   1.000  C
  H590     1.0000 0.05450  0.92560  0.36409  Biso   1.000  H
  C724     1.0000 0.15287  0.85949  0.33262  Biso   1.000  C
  C725     1.0000 0.65677  0.75868  0.49740  Biso   1.000  C
  C726     1.0000 0.83114  0.77582  0.52291  Biso   1.000  C
  C727     1.0000 0.83114  0.77576  0.52291  Biso   1.000  C
  C728     1.0000 0.83106  0.77582  0.52291  Biso   1.000  C
  C729     1.0000 0.83106  0.77576  0.52291  Biso   1.000  C
  H591     1.0000 0.66362  0.90260  0.45951  Biso   1.000  H
  C730     1.0000 0.65000  0.00550  0.35431  Biso   1.000  C
  C731     1.0000 0.66339  0.03997  0.42800  Biso   1.000  C
  C732     1.0000 0.16390  0.79242  0.31821  Biso   1.000  C
  H592     1.0000 0.09750  0.69660  0.31632  Biso   1.000  H
  C733     1.0000 0.16390  0.79237  0.31821  Biso   1.000  C
  H593     1.0000 0.20666  0.89302  0.32742  Biso   1.000  H
  H594     1.0000 0.20666  0.89296  0.32742  Biso   1.000  H
  C734     1.0000 0.63322  0.71871  0.53340  Biso   1.000  C
  H595     1.0000 0.60369  0.76712  0.47661  Biso   1.000  H
  H596     1.0000 0.60369  0.76707  0.47661  Biso   1.000  H
  C735     1.0000 0.80862  0.74040  0.55910  Biso   1.000  C
  H597     1.0000 0.89998  0.79389  0.51880  Biso   1.000  H
  H598     1.0000 0.66827  0.97480  0.33149  Biso   1.000  H
  C736     1.0000 0.58754  0.06460  0.34632  Biso   1.000  C
  C737     1.0000 0.58746  0.06460  0.34632  Biso   1.000  C
  H599     1.0000 0.68961  0.03212  0.45621  Biso   1.000  H
  C738     1.0000 0.60329  0.09949  0.41912  Biso   1.000  C
  H600     1.0000 0.68961  0.03206  0.45621  Biso   1.000  H
  C739     1.0000 0.26093  0.77493  0.29280  Biso   1.000  C
  C740     1.0000 0.26093  0.77487  0.29280  Biso   1.000  C
  C741     1.0000 0.26085  0.77493  0.29280  Biso   1.000  C
  C742     1.0000 0.26085  0.77487  0.29280  Biso   1.000  C
  H601     1.0000 0.56502  0.69901  0.53670  Biso   1.000  H
  C743     1.0000 0.70804  0.70802  0.56362  Biso   1.000  C
  C744     1.0000 0.70804  0.70797  0.56362  Biso   1.000  C
  C745     1.0000 0.70796  0.70802  0.56362  Biso   1.000  C
  C746     1.0000 0.70796  0.70797  0.56362  Biso   1.000  C
  H602     1.0000 0.85910  0.73720  0.58149  Biso   1.000  H
  H603     1.0000 0.55958  0.07162  0.31831  Biso   1.000  H
  C747     1.0000 0.56478  0.11448  0.37911  Biso   1.000  C
  H604     1.0000 0.55958  0.07157  0.31831  Biso   1.000  H
  H605     1.0000 0.58841  0.13098  0.44190  Biso   1.000  H
  N82      1.0000 0.27290  0.71708  0.27249  Biso   1.000  N
  H606     1.0000 0.31606  0.80840  0.29171  Biso   1.000  H
  C748     1.0000 0.68953  0.66511  0.60180  Biso   1.000  C
  C749     1.0000 0.68953  0.66506  0.60180  Biso   1.000  C
  C750     1.0000 0.68945  0.66511  0.60180  Biso   1.000  C
  C751     1.0000 0.68945  0.66506  0.60180  Biso   1.000  C
  C752     1.0000 0.50098  0.17541  0.37170  Biso   1.000  C
  C753     1.0000 0.50098  0.17535  0.37170  Biso   1.000  C
  C754     1.0000 0.37103  0.71200  0.24730  Biso   1.000  C
  C755     1.0000 0.37095  0.71200  0.24730  Biso   1.000  C
  N83      1.0000 0.60581  0.62760  0.60562  Biso   1.000  N
  H607     1.0000 0.74017  0.66501  0.62420  Biso   1.000  H
  N84      1.0000 0.45034  0.18589  0.33810  Biso   1.000  N
  H608     1.0000 0.49728  0.20967  0.39380  Biso   1.000  H
  N85      1.0000 0.45026  0.18589  0.33810  Biso   1.000  N
  C756     1.0000 0.43246  0.64939  0.26591  Biso   1.000  C
  H609     1.0000 0.41262  0.75570  0.25000  Biso   1.000  H
  H610     1.0000 0.35489  0.70420  0.21660  Biso   1.000  H
  H611     1.0000 0.41254  0.75570  0.25000  Biso   1.000  H
  C757     1.0000 0.59613  0.58432  0.64431  Biso   1.000  C
  C758     1.0000 0.59613  0.58427  0.64431  Biso   1.000  C
  C759     1.0000 0.38403  0.25090  0.33631  Biso   1.000  C
  C760     1.0000 0.38403  0.25085  0.33631  Biso   1.000  C
  N86      1.0000 0.48508  0.66689  0.30509  Biso   1.000  N
  H612     1.0000 0.38308  0.61021  0.27130  Biso   1.000  H
  H613     1.0000 0.48508  0.63342  0.24471  Biso   1.000  H
  H614     1.0000 0.48508  0.63336  0.24471  Biso   1.000  H
  C761     1.0000 0.49839  0.60429  0.66960  Biso   1.000  C
  H615     1.0000 0.59203  0.53429  0.63610  Biso   1.000  H
  H616     1.0000 0.65929  0.59072  0.66251  Biso   1.000  H
  H617     1.0000 0.65929  0.59066  0.66251  Biso   1.000  H
  H618     1.0000 0.39372  0.27830  0.36290  Biso   1.000  H
  H619     1.0000 0.30873  0.23781  0.33409  Biso   1.000  H
  C762     1.0000 0.41498  0.29517  0.29771  Biso   1.000  C
  H620     1.0000 0.39372  0.27825  0.36290  Biso   1.000  H
  H621     1.0000 0.30873  0.23775  0.33409  Biso   1.000  H
  C763     1.0000 0.58502  0.70483  0.29771  Biso   1.000  C
  C764     1.0000 0.50161  0.60429  0.33040  Biso   1.000  C
  C765     1.0000 0.58502  0.70477  0.29771  Biso   1.000  C
  C766     1.0000 0.58494  0.70483  0.29771  Biso   1.000  C
  C767     1.0000 0.58494  0.70477  0.29771  Biso   1.000  C
  N87      1.0000 0.51492  0.66689  0.69491  Biso   1.000  N
  H622     1.0000 0.43924  0.61209  0.64951  Biso   1.000  H
  H623     1.0000 0.47893  0.56520  0.68891  Biso   1.000  H
  H624     1.0000 0.43916  0.61209  0.64951  Biso   1.000  H
  H625     1.0000 0.47885  0.56520  0.68891  Biso   1.000  H
  N88      1.0000 0.51492  0.33311  0.30509  Biso   1.000  N
  H626     1.0000 0.42262  0.26458  0.27230  Biso   1.000  H
  H627     1.0000 0.35843  0.32939  0.29171  Biso   1.000  H
  N89      1.0000 0.51492  0.33305  0.30509  Biso   1.000  N
  C768     1.0000 0.61597  0.74910  0.33631  Biso   1.000  C
  H628     1.0000 0.57738  0.73542  0.27230  Biso   1.000  H
  H629     1.0000 0.64157  0.67061  0.29171  Biso   1.000  H
  H630     1.0000 0.57738  0.73537  0.27230  Biso   1.000  H
  H631     1.0000 0.64157  0.67056  0.29171  Biso   1.000  H
  H632     1.0000 0.56076  0.61209  0.35052  Biso   1.000  H
  H633     1.0000 0.52107  0.56520  0.31109  Biso   1.000  H
  C769     1.0000 0.40387  0.58432  0.35572  Biso   1.000  C
  C770     1.0000 0.40387  0.58427  0.35572  Biso   1.000  C
  C771     1.0000 0.41498  0.70483  0.70232  Biso   1.000  C
  C772     1.0000 0.56754  0.64939  0.73412  Biso   1.000  C
  C773     1.0000 0.41498  0.70477  0.70232  Biso   1.000  C
  C774     1.0000 0.56746  0.64939  0.73412  Biso   1.000  C
  C775     1.0000 0.56754  0.35061  0.26591  Biso   1.000  C
  C776     1.0000 0.49839  0.39571  0.33040  Biso   1.000  C
  C777     1.0000 0.56754  0.35055  0.26591  Biso   1.000  C
  C778     1.0000 0.49839  0.39566  0.33040  Biso   1.000  C
  C779     1.0000 0.56746  0.35061  0.26591  Biso   1.000  C
  C780     1.0000 0.56746  0.35055  0.26591  Biso   1.000  C
  N90      1.0000 0.54966  0.81411  0.33810  Biso   1.000  N
  H634     1.0000 0.60628  0.72170  0.36290  Biso   1.000  H
  H635     1.0000 0.69127  0.76219  0.33409  Biso   1.000  H
  N91      1.0000 0.54966  0.81406  0.33810  Biso   1.000  N
  N92      1.0000 0.39419  0.62760  0.39441  Biso   1.000  N
  H636     1.0000 0.34071  0.59072  0.33749  Biso   1.000  H
  H637     1.0000 0.40797  0.53429  0.36390  Biso   1.000  H
  H638     1.0000 0.34071  0.59066  0.33749  Biso   1.000  H
  C781     1.0000 0.38403  0.74910  0.66369  Biso   1.000  C
  H639     1.0000 0.42262  0.73542  0.72770  Biso   1.000  H
  H640     1.0000 0.35843  0.67061  0.70832  Biso   1.000  H
  H641     1.0000 0.42262  0.73537  0.72770  Biso   1.000  H
  H642     1.0000 0.35843  0.67056  0.70832  Biso   1.000  H
  H643     1.0000 0.61692  0.61021  0.72870  Biso   1.000  H
  C782     1.0000 0.62897  0.71200  0.75270  Biso   1.000  C
  H644     1.0000 0.51492  0.63342  0.75529  Biso   1.000  H
  H645     1.0000 0.51492  0.63336  0.75529  Biso   1.000  H
  H646     1.0000 0.61692  0.38979  0.27130  Biso   1.000  H
  H647     1.0000 0.51492  0.36658  0.24471  Biso   1.000  H
  C783     1.0000 0.62897  0.28800  0.24730  Biso   1.000  C
  H648     1.0000 0.43924  0.38791  0.35052  Biso   1.000  H
  H649     1.0000 0.47893  0.43480  0.31109  Biso   1.000  H
  C784     1.0000 0.59613  0.41568  0.35572  Biso   1.000  C
  H650     1.0000 0.43924  0.38786  0.35052  Biso   1.000  H
  H651     1.0000 0.47893  0.43475  0.31109  Biso   1.000  H
  H652     1.0000 0.43916  0.38791  0.35052  Biso   1.000  H
  H653     1.0000 0.47885  0.43480  0.31109  Biso   1.000  H
  H654     1.0000 0.43916  0.38786  0.35052  Biso   1.000  H
  H655     1.0000 0.47885  0.43475  0.31109  Biso   1.000  H
  C785     1.0000 0.49902  0.82459  0.37170  Biso   1.000  C
  C786     1.0000 0.31047  0.66511  0.39820  Biso   1.000  C
  C787     1.0000 0.31047  0.66506  0.39820  Biso   1.000  C
  H656     1.0000 0.39372  0.72170  0.63710  Biso   1.000  H
  H657     1.0000 0.30873  0.76219  0.66591  Biso   1.000  H
  N93      1.0000 0.45034  0.81411  0.66190  Biso   1.000  N
  N94      1.0000 0.45034  0.81406  0.66190  Biso   1.000  N
  N95      1.0000 0.45026  0.81411  0.66190  Biso   1.000  N
  N96      1.0000 0.45026  0.81406  0.66190  Biso   1.000  N
  N97      1.0000 0.72710  0.71708  0.72751  Biso   1.000  N
  H658     1.0000 0.58738  0.75570  0.75000  Biso   1.000  H
  H659     1.0000 0.64511  0.70420  0.78340  Biso   1.000  H
  N98      1.0000 0.72710  0.28292  0.27249  Biso   1.000  N
  H660     1.0000 0.58738  0.24430  0.25000  Biso   1.000  H
  H661     1.0000 0.64511  0.29580  0.21660  Biso   1.000  H
  N99      1.0000 0.72710  0.28286  0.27249  Biso   1.000  N
  H662     1.0000 0.58738  0.24425  0.25000  Biso   1.000  H
  H663     1.0000 0.64511  0.29575  0.21660  Biso   1.000  H
  N100     1.0000 0.60581  0.37240  0.39441  Biso   1.000  N
  H664     1.0000 0.65929  0.40928  0.33749  Biso   1.000  H
  H665     1.0000 0.59203  0.46571  0.36390  Biso   1.000  H
  N101     1.0000 0.60581  0.37235  0.39441  Biso   1.000  N
  H666     1.0000 0.59203  0.46566  0.36390  Biso   1.000  H
  C788     1.0000 0.43522  0.88552  0.37911  Biso   1.000  C
  H667     1.0000 0.50272  0.79033  0.39380  Biso   1.000  H
  C789     1.0000 0.43522  0.88547  0.37911  Biso   1.000  C
  H668     1.0000 0.50272  0.79028  0.39380  Biso   1.000  H
  C790     1.0000 0.43514  0.88552  0.37911  Biso   1.000  C
  H669     1.0000 0.50264  0.79033  0.39380  Biso   1.000  H
  C791     1.0000 0.43514  0.88547  0.37911  Biso   1.000  C
  H670     1.0000 0.50264  0.79028  0.39380  Biso   1.000  H
  H671     1.0000 0.25983  0.66501  0.37580  Biso   1.000  H
  C792     1.0000 0.29196  0.70802  0.43641  Biso   1.000  C
  C793     1.0000 0.29196  0.70797  0.43641  Biso   1.000  C
  H672     1.0000 0.25975  0.66501  0.37580  Biso   1.000  H
  C794     1.0000 0.50098  0.82459  0.62830  Biso   1.000  C
  C795     1.0000 0.73907  0.77493  0.70720  Biso   1.000  C
  C796     1.0000 0.73907  0.77487  0.70720  Biso   1.000  C
  C797     1.0000 0.73907  0.22507  0.29280  Biso   1.000  C
  C798     1.0000 0.68953  0.33489  0.39820  Biso   1.000  C
  C799     1.0000 0.68945  0.33489  0.39820  Biso   1.000  C
  C800     1.0000 0.41246  0.93540  0.34632  Biso   1.000  C
  C801     1.0000 0.39671  0.90051  0.41912  Biso   1.000  C
  C802     1.0000 0.39671  0.90046  0.41912  Biso   1.000  C
  C803     1.0000 0.36678  0.71871  0.46660  Biso   1.000  C
  C804     1.0000 0.19138  0.74040  0.44090  Biso   1.000  C
  C805     1.0000 0.56478  0.88552  0.62089  Biso   1.000  C
  H673     1.0000 0.49728  0.79033  0.60620  Biso   1.000  H
  C806     1.0000 0.56478  0.88547  0.62089  Biso   1.000  C
  H674     1.0000 0.49728  0.79028  0.60620  Biso   1.000  H
  C807     1.0000 0.83610  0.79242  0.68182  Biso   1.000  C
  H675     1.0000 0.68394  0.80840  0.70832  Biso   1.000  H
  C808     1.0000 0.83610  0.79237  0.68182  Biso   1.000  C
  H676     1.0000 0.68386  0.80840  0.70832  Biso   1.000  H
  C809     1.0000 0.83610  0.20758  0.31821  Biso   1.000  C
  H677     1.0000 0.68394  0.19160  0.29171  Biso   1.000  H
  H678     1.0000 0.68386  0.19160  0.29171  Biso   1.000  H
  H679     1.0000 0.74017  0.33499  0.37580  Biso   1.000  H
  C810     1.0000 0.70804  0.29198  0.43641  Biso   1.000  C
  C811     1.0000 0.70796  0.29198  0.43641  Biso   1.000  C
  H680     1.0000 0.44042  0.92838  0.31831  Biso   1.000  H
  C812     1.0000 0.35000  0.99450  0.35431  Biso   1.000  C
  H681     1.0000 0.44034  0.92838  0.31831  Biso   1.000  H
  C813     1.0000 0.33661  0.96003  0.42800  Biso   1.000  C
  H682     1.0000 0.41159  0.86902  0.44190  Biso   1.000  H
  C814     1.0000 0.33661  0.95997  0.42800  Biso   1.000  C
  H683     1.0000 0.41159  0.86897  0.44190  Biso   1.000  H
  C815     1.0000 0.34323  0.75868  0.50260  Biso   1.000  C
  C816     1.0000 0.34315  0.75868  0.50260  Biso   1.000  C
  H684     1.0000 0.43498  0.69901  0.46330  Biso   1.000  H
  C817     1.0000 0.16886  0.77582  0.47709  Biso   1.000  C
  C818     1.0000 0.16886  0.77576  0.47709  Biso   1.000  C
  H685     1.0000 0.14090  0.73720  0.41851  Biso   1.000  H
  C819     1.0000 0.58754  0.93540  0.65372  Biso   1.000  C
  C820     1.0000 0.60329  0.90051  0.58092  Biso   1.000  C
  C821     1.0000 0.60329  0.90046  0.58092  Biso   1.000  C
  C822     1.0000 0.58746  0.93540  0.65372  Biso   1.000  C
  C823     1.0000 0.84713  0.85949  0.66742  Biso   1.000  C
  C824     1.0000 0.91124  0.74312  0.67342  Biso   1.000  C
  C825     1.0000 0.91124  0.74307  0.67342  Biso   1.000  C
  C826     1.0000 0.84705  0.85949  0.66742  Biso   1.000  C
  C827     1.0000 0.91116  0.74312  0.67342  Biso   1.000  C
  C828     1.0000 0.91116  0.74307  0.67342  Biso   1.000  C
  C829     1.0000 0.84713  0.14051  0.33262  Biso   1.000  C
  C830     1.0000 0.91124  0.25688  0.32662  Biso   1.000  C
  C831     1.0000 0.84713  0.14046  0.33262  Biso   1.000  C
  C832     1.0000 0.84705  0.14051  0.33262  Biso   1.000  C
  C833     1.0000 0.91116  0.25688  0.32662  Biso   1.000  C
  C834     1.0000 0.84705  0.14046  0.33262  Biso   1.000  C
  C835     1.0000 0.63322  0.28129  0.46660  Biso   1.000  C
  C836     1.0000 0.80862  0.25960  0.44090  Biso   1.000  C
  C837     1.0000 0.80862  0.25955  0.44090  Biso   1.000  C
  H686     1.0000 0.33173  0.02520  0.33149  Biso   1.000  H
  C838     1.0000 0.31527  0.00791  0.39521  Biso   1.000  C
  C839     1.0000 0.31527  0.00786  0.39521  Biso   1.000  C
  H687     1.0000 0.33165  0.02520  0.33149  Biso   1.000  H
  H688     1.0000 0.31039  0.96788  0.45621  Biso   1.000  H
  C840     1.0000 0.24431  0.78629  0.50860  Biso   1.000  C
  H689     1.0000 0.39631  0.76712  0.52342  Biso   1.000  H
  H690     1.0000 0.39631  0.76707  0.52342  Biso   1.000  H
  H691     1.0000 0.10002  0.79389  0.48120  Biso   1.000  H
  H692     1.0000 0.09994  0.79389  0.48120  Biso   1.000  H
  H693     1.0000 0.55958  0.92838  0.68169  Biso   1.000  H
  C841     1.0000 0.65000  0.99450  0.64569  Biso   1.000  C
  C842     1.0000 0.66339  0.96003  0.57200  Biso   1.000  C
  H694     1.0000 0.58841  0.86902  0.55810  Biso   1.000  H
  C843     1.0000 0.66339  0.95997  0.57200  Biso   1.000  C
  H695     1.0000 0.58841  0.86897  0.55810  Biso   1.000  H
  C844     1.0000 0.93684  0.87850  0.64512  Biso   1.000  C
  H696     1.0000 0.79334  0.89302  0.67261  Biso   1.000  H
  H697     1.0000 0.79334  0.89296  0.67261  Biso   1.000  H
  C845     1.0000 0.93676  0.87850  0.64512  Biso   1.000  C
  H698     1.0000 0.79326  0.89302  0.67261  Biso   1.000  H
  H699     1.0000 0.79326  0.89296  0.67261  Biso   1.000  H
  H700     1.0000 0.90250  0.69660  0.68371  Biso   1.000  H
  C846     1.0000 0.00063  0.76078  0.64980  Biso   1.000  C
  C847     1.0000 0.00055  0.76078  0.64980  Biso   1.000  C
  C848     1.0000 0.93684  0.12150  0.35492  Biso   1.000  C
  H701     1.0000 0.79334  0.10698  0.32742  Biso   1.000  H
  C849     1.0000 0.93676  0.12150  0.35492  Biso   1.000  C
  H702     1.0000 0.79326  0.10698  0.32742  Biso   1.000  H
  H703     1.0000 0.90250  0.30340  0.31632  Biso   1.000  H
  H704     1.0000 0.90250  0.30335  0.31632  Biso   1.000  H
  C850     1.0000 0.00063  0.23922  0.35020  Biso   1.000  C
  C851     1.0000 0.00063  0.23917  0.35020  Biso   1.000  C
  C852     1.0000 0.00055  0.23922  0.35020  Biso   1.000  C
  C853     1.0000 0.00055  0.23917  0.35020  Biso   1.000  C
  C854     1.0000 0.65677  0.24132  0.50260  Biso   1.000  C
  C855     1.0000 0.65677  0.24126  0.50260  Biso   1.000  C
  H705     1.0000 0.56502  0.30099  0.46330  Biso   1.000  H
  C856     1.0000 0.83114  0.22418  0.47709  Biso   1.000  C
  C857     1.0000 0.83106  0.22418  0.47709  Biso   1.000  C
  H706     1.0000 0.85910  0.26280  0.41851  Biso   1.000  H
  C858     1.0000 0.25203  0.07162  0.40461  Biso   1.000  C
  C859     1.0000 0.25203  0.07157  0.40461  Biso   1.000  C
  C860     1.0000 0.25195  0.07162  0.40461  Biso   1.000  C
  C861     1.0000 0.25195  0.07157  0.40461  Biso   1.000  C
  C862     1.0000 0.22029  0.82863  0.54809  Biso   1.000  C
  C863     1.0000 0.22029  0.82857  0.54809  Biso   1.000  C
  H707     1.0000 0.66827  0.02520  0.66851  Biso   1.000  H
  C864     1.0000 0.68473  0.00791  0.60482  Biso   1.000  C
  C865     1.0000 0.68473  0.00786  0.60482  Biso   1.000  C
  C866     1.0000 0.68465  0.00791  0.60482  Biso   1.000  C
  C867     1.0000 0.68465  0.00786  0.60482  Biso   1.000  C
  H708     1.0000 0.68961  0.96788  0.54379  Biso   1.000  H
  H709     1.0000 0.94550  0.92560  0.63591  Biso   1.000  H
  C868     1.0000 0.01559  0.82863  0.63581  Biso   1.000  C
  C869     1.0000 0.01559  0.82857  0.63581  Biso   1.000  C
  H710     1.0000 0.05151  0.72589  0.64332  Biso   1.000  H
  H711     1.0000 0.94550  0.07440  0.36409  Biso   1.000  H
  C870     1.0000 0.01559  0.17137  0.36422  Biso   1.000  C
  H712     1.0000 0.05151  0.27411  0.35671  Biso   1.000  H
  H713     1.0000 0.05151  0.27406  0.35671  Biso   1.000  H
  C871     1.0000 0.75569  0.21371  0.50860  Biso   1.000  C
  C872     1.0000 0.75569  0.21365  0.50860  Biso   1.000  C
  H714     1.0000 0.60369  0.23288  0.52342  Biso   1.000  H
  H715     1.0000 0.89998  0.20611  0.48120  Biso   1.000  H
  H716     1.0000 0.89998  0.20606  0.48120  Biso   1.000  H
  C873     1.0000 0.16996  0.09148  0.38061  Biso   1.000  C
  C874     1.0000 0.27920  0.11138  0.44180  Biso   1.000  C
  C875     1.0000 0.13326  0.80940  0.57299  Biso   1.000  C
  C876     1.0000 0.27920  0.88862  0.55820  Biso   1.000  C
  C877     1.0000 0.27920  0.88856  0.55820  Biso   1.000  C
  C878     1.0000 0.74797  0.07162  0.59542  Biso   1.000  C
  C879     1.0000 0.74797  0.07157  0.59542  Biso   1.000  C
  C880     1.0000 0.10861  0.84901  0.60979  Biso   1.000  C
  C881     1.0000 0.10861  0.15099  0.39021  Biso   1.000  C
  C882     1.0000 0.77971  0.17137  0.54809  Biso   1.000  C
  H717     1.0000 0.15232  0.06428  0.35610  Biso   1.000  H
  C883     1.0000 0.22029  0.17137  0.45191  Biso   1.000  C
  H718     1.0000 0.33638  0.09740  0.45951  Biso   1.000  H
  H719     1.0000 0.09136  0.77021  0.56520  Biso   1.000  H
  H720     1.0000 0.09136  0.77016  0.56520  Biso   1.000  H
  C884     1.0000 0.25203  0.92838  0.59542  Biso   1.000  C
  C885     1.0000 0.25195  0.92838  0.59542  Biso   1.000  C
  H721     1.0000 0.33638  0.90260  0.54052  Biso   1.000  H
  C886     1.0000 0.72080  0.11138  0.55820  Biso   1.000  C
  C887     1.0000 0.83004  0.09148  0.61942  Biso   1.000  C
  C888     1.0000 0.82996  0.09148  0.61942  Biso   1.000  C
  C889     1.0000 0.16996  0.90852  0.61942  Biso   1.000  C
  C890     1.0000 0.16996  0.90847  0.61942  Biso   1.000  C
  C891     1.0000 0.13326  0.19060  0.42701  Biso   1.000  C
  C892     1.0000 0.86674  0.19060  0.57299  Biso   1.000  C
  C893     1.0000 0.86666  0.19060  0.57299  Biso   1.000  C
  C894     1.0000 0.24431  0.21371  0.49140  Biso   1.000  C
  C895     1.0000 0.24431  0.21365  0.49140  Biso   1.000  C
  C896     1.0000 0.31527  0.99209  0.60482  Biso   1.000  C
  H722     1.0000 0.66362  0.09740  0.54052  Biso   1.000  H
  H723     1.0000 0.84768  0.06428  0.64390  Biso   1.000  H
  C897     1.0000 0.89139  0.15099  0.60979  Biso   1.000  C
  H724     1.0000 0.15232  0.93572  0.64390  Biso   1.000  H
  H725     1.0000 0.15232  0.93566  0.64390  Biso   1.000  H
  H726     1.0000 0.09136  0.22979  0.43480  Biso   1.000  H
  H727     1.0000 0.90864  0.22979  0.56520  Biso   1.000  H
  H728     1.0000 0.90856  0.22979  0.56520  Biso   1.000  H
  C898     1.0000 0.34323  0.24132  0.49740  Biso   1.000  C
  C899     1.0000 0.16886  0.22418  0.52291  Biso   1.000  C
  C900     1.0000 0.34323  0.24126  0.49740  Biso   1.000  C
  C901     1.0000 0.34315  0.24132  0.49740  Biso   1.000  C
  C902     1.0000 0.34315  0.24126  0.49740  Biso   1.000  C
  C903     1.0000 0.35000  0.00550  0.64569  Biso   1.000  C
  C904     1.0000 0.33661  0.03997  0.57200  Biso   1.000  C
  C905     1.0000 0.98441  0.17137  0.63581  Biso   1.000  C
  C906     1.0000 0.36678  0.28129  0.53340  Biso   1.000  C
  H729     1.0000 0.39631  0.23288  0.47661  Biso   1.000  H
  H730     1.0000 0.10002  0.20611  0.51880  Biso   1.000  H
  C907     1.0000 0.19138  0.25960  0.55910  Biso   1.000  C
  H731     1.0000 0.10002  0.20606  0.51880  Biso   1.000  H
  C908     1.0000 0.19138  0.25955  0.55910  Biso   1.000  C
  H732     1.0000 0.09994  0.20611  0.51880  Biso   1.000  H
  H733     1.0000 0.09994  0.20606  0.51880  Biso   1.000  H
  H734     1.0000 0.33173  0.97480  0.66851  Biso   1.000  H
  H735     1.0000 0.33165  0.97480  0.66851  Biso   1.000  H
  C909     1.0000 0.41246  0.06460  0.65372  Biso   1.000  C
  H736     1.0000 0.31039  0.03212  0.54379  Biso   1.000  H
  C910     1.0000 0.39671  0.09949  0.58092  Biso   1.000  C
  H737     1.0000 0.31039  0.03206  0.54379  Biso   1.000  H
  C911     1.0000 0.99937  0.23922  0.64980  Biso   1.000  C
  C912     1.0000 0.99937  0.23917  0.64980  Biso   1.000  C
  C913     1.0000 0.06316  0.12150  0.64512  Biso   1.000  C
  C914     1.0000 0.29196  0.29198  0.56362  Biso   1.000  C
  H738     1.0000 0.43498  0.30099  0.53670  Biso   1.000  H
  H739     1.0000 0.14090  0.26280  0.58149  Biso   1.000  H
  H740     1.0000 0.44042  0.07162  0.68169  Biso   1.000  H
  C915     1.0000 0.43522  0.11448  0.62089  Biso   1.000  C
  H741     1.0000 0.44042  0.07157  0.68169  Biso   1.000  H
  H742     1.0000 0.44034  0.07162  0.68169  Biso   1.000  H
  C916     1.0000 0.43514  0.11448  0.62089  Biso   1.000  C
  H743     1.0000 0.44034  0.07157  0.68169  Biso   1.000  H
  H744     1.0000 0.41159  0.13098  0.55810  Biso   1.000  H
  H745     1.0000 0.94849  0.27411  0.64332  Biso   1.000  H
  H746     1.0000 0.94849  0.27406  0.64332  Biso   1.000  H
  C917     1.0000 0.08876  0.25688  0.67342  Biso   1.000  C
  H747     1.0000 0.05450  0.07440  0.63591  Biso   1.000  H
  C918     1.0000 0.15287  0.14051  0.66742  Biso   1.000  C
  C919     1.0000 0.15287  0.14046  0.66742  Biso   1.000  C
  C920     1.0000 0.31047  0.33489  0.60180  Biso   1.000  C
  C921     1.0000 0.49902  0.17541  0.62830  Biso   1.000  C
  C922     1.0000 0.49902  0.17535  0.62830  Biso   1.000  C
  C923     1.0000 0.16390  0.20758  0.68182  Biso   1.000  C
  H748     1.0000 0.09750  0.30340  0.68371  Biso   1.000  H
  H749     1.0000 0.09750  0.30335  0.68371  Biso   1.000  H
  H750     1.0000 0.20666  0.10698  0.67261  Biso   1.000  H
  N102     1.0000 0.39419  0.37240  0.60562  Biso   1.000  N
  N103     1.0000 0.39419  0.37235  0.60562  Biso   1.000  N
  H751     1.0000 0.25983  0.33499  0.62420  Biso   1.000  H
  H752     1.0000 0.25975  0.33499  0.62420  Biso   1.000  H
  N104     1.0000 0.54966  0.18589  0.66190  Biso   1.000  N
  H753     1.0000 0.50272  0.20967  0.60620  Biso   1.000  H
  H754     1.0000 0.50264  0.20967  0.60620  Biso   1.000  H
  C924     1.0000 0.26093  0.22507  0.70720  Biso   1.000  C
  C925     1.0000 0.26085  0.22507  0.70720  Biso   1.000  C
  C926     1.0000 0.40387  0.41568  0.64431  Biso   1.000  C
  C927     1.0000 0.61597  0.25090  0.66369  Biso   1.000  C
  C928     1.0000 0.61597  0.25085  0.66369  Biso   1.000  C
  N105     1.0000 0.27290  0.28292  0.72751  Biso   1.000  N
  H755     1.0000 0.31606  0.19160  0.70832  Biso   1.000  H
  N106     1.0000 0.27290  0.28286  0.72751  Biso   1.000  N
  C929     1.0000 0.50161  0.39571  0.66960  Biso   1.000  C
  C930     1.0000 0.50161  0.39566  0.66960  Biso   1.000  C
  H756     1.0000 0.34071  0.40928  0.66251  Biso   1.000  H
  H757     1.0000 0.40797  0.46571  0.63610  Biso   1.000  H
  H758     1.0000 0.40797  0.46566  0.63610  Biso   1.000  H
  H759     1.0000 0.60628  0.27830  0.63710  Biso   1.000  H
  H760     1.0000 0.69127  0.23781  0.66591  Biso   1.000  H
  C931     1.0000 0.58502  0.29517  0.70232  Biso   1.000  C
  H761     1.0000 0.60628  0.27825  0.63710  Biso   1.000  H
  H762     1.0000 0.69127  0.23775  0.66591  Biso   1.000  H
  C932     1.0000 0.58494  0.29517  0.70232  Biso   1.000  C
  C933     1.0000 0.37103  0.28800  0.75270  Biso   1.000  C
  C934     1.0000 0.37095  0.28800  0.75270  Biso   1.000  C
  N107     1.0000 0.48508  0.33311  0.69491  Biso   1.000  N
  N108     1.0000 0.48508  0.33305  0.69491  Biso   1.000  N
  H763     1.0000 0.56076  0.38791  0.64951  Biso   1.000  H
  H764     1.0000 0.52107  0.43480  0.68891  Biso   1.000  H
  H765     1.0000 0.56076  0.38786  0.64951  Biso   1.000  H
  H766     1.0000 0.52107  0.43475  0.68891  Biso   1.000  H
  H767     1.0000 0.57738  0.26458  0.72770  Biso   1.000  H
  H768     1.0000 0.64157  0.32939  0.70832  Biso   1.000  H
  C935     1.0000 0.43246  0.35061  0.73412  Biso   1.000  C
  H769     1.0000 0.41262  0.24430  0.75000  Biso   1.000  H
  H770     1.0000 0.35489  0.29580  0.78340  Biso   1.000  H
  C936     1.0000 0.43246  0.35055  0.73412  Biso   1.000  C
  H771     1.0000 0.41262  0.24425  0.75000  Biso   1.000  H
  H772     1.0000 0.35489  0.29575  0.78340  Biso   1.000  H
  H773     1.0000 0.41254  0.24430  0.75000  Biso   1.000  H
  H774     1.0000 0.41254  0.24425  0.75000  Biso   1.000  H
  H775     1.0000 0.38308  0.38979  0.72870  Biso   1.000  H
  H776     1.0000 0.48508  0.36658  0.75529  Biso   1.000  H
  C937     1.0000 0.87099  0.78797  0.25273  Biso   1.000  C
  C938     1.0000 0.93250  0.85058  0.23412  Biso   1.000  C
  N109     1.0000 0.77286  0.78289  0.22751  Biso   1.000  N
  H777     1.0000 0.91258  0.74428  0.25000  Biso   1.000  H
  H778     1.0000 0.85485  0.79578  0.28340  Biso   1.000  H
  H779     1.0000 0.91258  0.74428  0.25003  Biso   1.000  H
  H780     1.0000 0.85485  0.79578  0.28343  Biso   1.000  H
  N110     1.0000 0.98511  0.83308  0.19491  Biso   1.000  N
  H781     1.0000 0.88312  0.88977  0.22870  Biso   1.000  H
  H782     1.0000 0.98511  0.86656  0.25529  Biso   1.000  H
  C939     1.0000 0.87099  0.78797  0.25270  Biso   1.000  C
  H783     1.0000 0.88312  0.88977  0.22873  Biso   1.000  H
  H784     1.0000 0.98511  0.86656  0.25533  Biso   1.000  H
  C940     1.0000 0.76089  0.72510  0.20720  Biso   1.000  C
  C941     1.0000 0.08498  0.79520  0.20229  Biso   1.000  C
  C942     1.0000 0.08498  0.79520  0.20232  Biso   1.000  C
  C943     1.0000 0.00158  0.89569  0.16960  Biso   1.000  C
  C944     1.0000 0.00158  0.89569  0.16963  Biso   1.000  C
  C945     1.0000 0.66386  0.70760  0.18179  Biso   1.000  C
  C946     1.0000 0.66386  0.70760  0.18182  Biso   1.000  C
  H785     1.0000 0.81610  0.69157  0.20829  Biso   1.000  H
  H786     1.0000 0.81610  0.69157  0.20832  Biso   1.000  H
  C947     1.0000 0.11601  0.75088  0.16369  Biso   1.000  C
  C948     1.0000 0.11601  0.75088  0.16373  Biso   1.000  C
  H787     1.0000 0.07742  0.76460  0.22770  Biso   1.000  H
  H788     1.0000 0.14161  0.82936  0.20829  Biso   1.000  H
  H789     1.0000 0.14161  0.82936  0.20832  Biso   1.000  H
  C949     1.0000 0.90391  0.91570  0.14431  Biso   1.000  C
  H790     1.0000 0.06080  0.88788  0.14951  Biso   1.000  H
  H791     1.0000 0.02111  0.93477  0.18891  Biso   1.000  H
  C950     1.0000 0.65291  0.64049  0.16742  Biso   1.000  C
  C951     1.0000 0.58880  0.75690  0.17342  Biso   1.000  C
  N111     1.0000 0.04970  0.68586  0.16190  Biso   1.000  N
  N112     1.0000 0.04970  0.68586  0.16193  Biso   1.000  N
  H792     1.0000 0.10625  0.77828  0.13710  Biso   1.000  H
  H793     1.0000 0.19131  0.73778  0.16591  Biso   1.000  H
  H794     1.0000 0.10625  0.77828  0.13713  Biso   1.000  H
  N113     1.0000 0.89415  0.87237  0.10559  Biso   1.000  N
  H795     1.0000 0.84067  0.90926  0.16251  Biso   1.000  H
  H796     1.0000 0.90801  0.96568  0.13610  Biso   1.000  H
  N114     1.0000 0.89415  0.87237  0.10562  Biso   1.000  N
  C952     1.0000 0.56320  0.62147  0.14512  Biso   1.000  C
  H797     1.0000 0.70670  0.60701  0.17261  Biso   1.000  H
  C953     1.0000 0.49941  0.73919  0.14980  Biso   1.000  C
  H798     1.0000 0.59746  0.80337  0.18371  Biso   1.000  H
  C954     1.0000 0.99898  0.67538  0.12830  Biso   1.000  C
  C955     1.0000 0.81051  0.83486  0.10180  Biso   1.000  C
  C956     1.0000 0.48437  0.67140  0.13581  Biso   1.000  C
  H799     1.0000 0.55446  0.57437  0.13591  Biso   1.000  H
  H800     1.0000 0.44853  0.77409  0.14329  Biso   1.000  H
  H801     1.0000 0.44853  0.77409  0.14332  Biso   1.000  H
  C957     1.0000 0.93518  0.61450  0.12089  Biso   1.000  C
  C958     1.0000 0.93518  0.61450  0.12093  Biso   1.000  C
  H802     1.0000 0.00268  0.70970  0.10620  Biso   1.000  H
  H803     1.0000 0.75979  0.83497  0.12420  Biso   1.000  H
  C959     1.0000 0.79200  0.79201  0.06359  Biso   1.000  C
  H804     1.0000 0.75979  0.83497  0.12423  Biso   1.000  H
  C960     1.0000 0.79200  0.79201  0.06362  Biso   1.000  C
  C961     1.0000 0.39143  0.65097  0.10979  Biso   1.000  C
  C962     1.0000 0.39143  0.65097  0.10982  Biso   1.000  C
  C963     1.0000 0.91250  0.56457  0.15372  Biso   1.000  C
  C964     1.0000 0.89667  0.59947  0.08092  Biso   1.000  C
  C965     1.0000 0.86682  0.78126  0.03340  Biso   1.000  C
  C966     1.0000 0.69142  0.75957  0.05910  Biso   1.000  C
  C967     1.0000 0.33000  0.59150  0.11942  Biso   1.000  C
  C968     1.0000 0.36670  0.69057  0.07299  Biso   1.000  C
  C969     1.0000 0.36670  0.69057  0.07302  Biso   1.000  C
  C970     1.0000 0.84996  0.50547  0.14569  Biso   1.000  C
  C971     1.0000 0.84996  0.50547  0.14573  Biso   1.000  C
  H805     1.0000 0.94038  0.57159  0.18169  Biso   1.000  H
  H806     1.0000 0.94038  0.57159  0.18172  Biso   1.000  H
  C972     1.0000 0.83658  0.54000  0.07200  Biso   1.000  C
  C973     1.0000 0.83658  0.54000  0.07203  Biso   1.000  C
  H807     1.0000 0.91155  0.63101  0.05810  Biso   1.000  H
  H808     1.0000 0.93502  0.80096  0.03670  Biso   1.000  H
  C974     1.0000 0.84319  0.74129  0.99740  Biso   1.000  C
  C975     1.0000 0.66890  0.72421  0.02291  Biso   1.000  C
  H809     1.0000 0.64086  0.76277  0.08149  Biso   1.000  H
  H810     1.0000 0.64086  0.76277  0.08153  Biso   1.000  H
  C976     1.0000 0.24801  0.57159  0.09539  Biso   1.000  C
  C977     1.0000 0.24801  0.57159  0.09542  Biso   1.000  C
  H811     1.0000 0.34772  0.56431  0.14390  Biso   1.000  H
  H812     1.0000 0.34772  0.56431  0.14393  Biso   1.000  H
  C978     1.0000 0.27967  0.67140  0.04809  Biso   1.000  C
  C979     1.0000 0.27967  0.67140  0.04813  Biso   1.000  C
  H813     1.0000 0.40860  0.72976  0.06520  Biso   1.000  H
  H814     1.0000 0.40860  0.72976  0.06523  Biso   1.000  H
  C980     1.0000 0.81531  0.49212  0.10479  Biso   1.000  C
  C981     1.0000 0.81531  0.49212  0.10482  Biso   1.000  C
  H815     1.0000 0.83169  0.47477  0.16851  Biso   1.000  H
  H816     1.0000 0.81035  0.53209  0.04379  Biso   1.000  H
  H817     1.0000 0.81035  0.53209  0.04383  Biso   1.000  H
  H818     1.0000 0.89627  0.73291  0.97661  Biso   1.000  H
  C982     1.0000 0.74427  0.71368  0.99140  Biso   1.000  C
  H819     1.0000 0.59998  0.70608  0.01880  Biso   1.000  H
  C983     1.0000 0.18469  0.50788  0.10479  Biso   1.000  C
  C984     1.0000 0.18469  0.50788  0.10482  Biso   1.000  C
  C985     1.0000 0.22076  0.61141  0.05820  Biso   1.000  C
  C986     1.0000 0.25573  0.71368  0.00860  Biso   1.000  C
  C987     1.0000 0.75199  0.42841  0.09539  Biso   1.000  C
  C988     1.0000 0.75199  0.42841  0.09542  Biso   1.000  C
  C989     1.0000 0.72033  0.67140  0.95191  Biso   1.000  C
  C990     1.0000 0.15004  0.49447  0.14569  Biso   1.000  C
  C991     1.0000 0.15004  0.49447  0.14573  Biso   1.000  C
  C992     1.0000 0.16342  0.46000  0.07200  Biso   1.000  C
  C993     1.0000 0.16342  0.46000  0.07203  Biso   1.000  C
  H820     1.0000 0.16358  0.59737  0.04049  Biso   1.000  H
  H821     1.0000 0.16358  0.59737  0.04052  Biso   1.000  H
  C994     1.0000 0.15681  0.74129  0.00260  Biso   1.000  C
  C995     1.0000 0.33110  0.72421  0.97709  Biso   1.000  C
  C996     1.0000 0.33110  0.72421  0.97712  Biso   1.000  C
  C997     1.0000 0.67000  0.40850  0.11942  Biso   1.000  C
  C998     1.0000 0.77916  0.38859  0.05820  Biso   1.000  C
  C999     1.0000 0.77916  0.61141  0.94180  Biso   1.000  C
  C1000    1.0000 0.63330  0.69057  0.92701  Biso   1.000  C
  C1001    1.0000 0.08750  0.43537  0.15372  Biso   1.000  C
  H822     1.0000 0.16831  0.52517  0.16851  Biso   1.000  H
  C1002    1.0000 0.10333  0.40048  0.08092  Biso   1.000  C
  H823     1.0000 0.18957  0.46791  0.04379  Biso   1.000  H
  H824     1.0000 0.18957  0.46791  0.04383  Biso   1.000  H
  H825     1.0000 0.10373  0.73291  0.02339  Biso   1.000  H
  H826     1.0000 0.10373  0.73291  0.02342  Biso   1.000  H
  C1003    1.0000 0.13318  0.78126  0.96660  Biso   1.000  C
  H827     1.0000 0.40002  0.70608  0.98120  Biso   1.000  H
  C1004    1.0000 0.30858  0.75957  0.94090  Biso   1.000  C
  C1005    1.0000 0.60857  0.34898  0.10979  Biso   1.000  C
  C1006    1.0000 0.60857  0.34898  0.10982  Biso   1.000  C
  H828     1.0000 0.65228  0.43569  0.14390  Biso   1.000  H
  H829     1.0000 0.65228  0.43569  0.14393  Biso   1.000  H
  C1007    1.0000 0.72033  0.32860  0.04809  Biso   1.000  C
  C1008    1.0000 0.72033  0.32860  0.04813  Biso   1.000  C
  H830     1.0000 0.83642  0.40258  0.04049  Biso   1.000  H
  H831     1.0000 0.83642  0.40258  0.04052  Biso   1.000  H
  C1009    1.0000 0.75199  0.57159  0.90461  Biso   1.000  C
  H832     1.0000 0.83642  0.59737  0.95951  Biso   1.000  H
  C1010    1.0000 0.60857  0.65097  0.89021  Biso   1.000  C
  H833     1.0000 0.59140  0.72976  0.93480  Biso   1.000  H
  C1011    1.0000 0.06482  0.38550  0.12089  Biso   1.000  C
  C1012    1.0000 0.06482  0.38550  0.12093  Biso   1.000  C
  H834     1.0000 0.05962  0.42841  0.18169  Biso   1.000  H
  H835     1.0000 0.05962  0.42841  0.18172  Biso   1.000  H
  H836     1.0000 0.08837  0.36899  0.05810  Biso   1.000  H
  C1013    1.0000 0.20800  0.79201  0.93641  Biso   1.000  C
  H837     1.0000 0.06498  0.80096  0.96330  Biso   1.000  H
  H838     1.0000 0.06498  0.80096  0.96333  Biso   1.000  H
  H839     1.0000 0.35906  0.76277  0.91851  Biso   1.000  H
  C1014    1.0000 0.51555  0.32860  0.13581  Biso   1.000  C
  C1015    1.0000 0.63330  0.30937  0.07299  Biso   1.000  C
  C1016    1.0000 0.63330  0.30937  0.07302  Biso   1.000  C
  C1017    1.0000 0.74427  0.28627  0.00860  Biso   1.000  C
  C1018    1.0000 0.81531  0.50788  0.89521  Biso   1.000  C
  C1019    1.0000 0.67000  0.59150  0.88058  Biso   1.000  C
  C1020    1.0000 0.67000  0.59150  0.88061  Biso   1.000  C
  C1021    1.0000 0.51555  0.67140  0.86419  Biso   1.000  C
  C1022    1.0000 0.51555  0.67140  0.86422  Biso   1.000  C
  C1023    1.0000 0.00102  0.32462  0.12830  Biso   1.000  C
  C1024    1.0000 0.18949  0.83486  0.89820  Biso   1.000  C
  C1025    1.0000 0.43680  0.37848  0.14512  Biso   1.000  C
  C1026    1.0000 0.50059  0.26081  0.14980  Biso   1.000  C
  H840     1.0000 0.59140  0.27018  0.06520  Biso   1.000  H
  H841     1.0000 0.59140  0.27018  0.06523  Biso   1.000  H
  C1027    1.0000 0.84319  0.25871  0.00260  Biso   1.000  C
  C1028    1.0000 0.66890  0.27579  0.97709  Biso   1.000  C
  C1029    1.0000 0.66890  0.27579  0.97712  Biso   1.000  C
  C1030    1.0000 0.84996  0.49447  0.85431  Biso   1.000  C
  C1031    1.0000 0.83658  0.46000  0.92800  Biso   1.000  C
  H842     1.0000 0.65228  0.56431  0.85610  Biso   1.000  H
  C1032    1.0000 0.43680  0.62147  0.85488  Biso   1.000  C
  C1033    1.0000 0.43680  0.62147  0.85492  Biso   1.000  C
  C1034    1.0000 0.50059  0.73919  0.85020  Biso   1.000  C
  N115     1.0000 0.95030  0.31409  0.16190  Biso   1.000  N
  N116     1.0000 0.95030  0.31409  0.16193  Biso   1.000  N
  H843     1.0000 0.99732  0.29030  0.10620  Biso   1.000  H
  N117     1.0000 0.10577  0.87237  0.89441  Biso   1.000  N
  H844     1.0000 0.24021  0.83497  0.87580  Biso   1.000  H
  C1035    1.0000 0.34709  0.35951  0.16742  Biso   1.000  C
  H845     1.0000 0.44546  0.42558  0.13591  Biso   1.000  H
  C1036    1.0000 0.41120  0.24310  0.17342  Biso   1.000  C
  H846     1.0000 0.55147  0.22591  0.14329  Biso   1.000  H
  H847     1.0000 0.55147  0.22591  0.14332  Biso   1.000  H
  H848     1.0000 0.89627  0.26709  0.02339  Biso   1.000  H
  H849     1.0000 0.89627  0.26709  0.02342  Biso   1.000  H
  C1037    1.0000 0.86682  0.21868  0.96660  Biso   1.000  C
  H850     1.0000 0.59998  0.29392  0.98120  Biso   1.000  H
  C1038    1.0000 0.69142  0.24037  0.94090  Biso   1.000  C
  C1039    1.0000 0.91250  0.43537  0.84628  Biso   1.000  C
  C1040    1.0000 0.91250  0.43537  0.84632  Biso   1.000  C
  H851     1.0000 0.83169  0.52517  0.83149  Biso   1.000  H
  H852     1.0000 0.83169  0.52517  0.83153  Biso   1.000  H
  C1041    1.0000 0.89667  0.40048  0.91908  Biso   1.000  C
  C1042    1.0000 0.89667  0.40048  0.91912  Biso   1.000  C
  H853     1.0000 0.81035  0.46791  0.95621  Biso   1.000  H
  C1043    1.0000 0.34709  0.64049  0.83258  Biso   1.000  C
  C1044    1.0000 0.34709  0.64049  0.83262  Biso   1.000  C
  H854     1.0000 0.44546  0.57437  0.86409  Biso   1.000  H
  H855     1.0000 0.44546  0.57437  0.86412  Biso   1.000  H
  C1045    1.0000 0.41120  0.75690  0.82658  Biso   1.000  C
  C1046    1.0000 0.41120  0.75690  0.82662  Biso   1.000  C
  H856     1.0000 0.55147  0.77409  0.85671  Biso   1.000  H
  C1047    1.0000 0.88399  0.24907  0.16369  Biso   1.000  C
  C1048    1.0000 0.88399  0.24907  0.16373  Biso   1.000  C
  C1049    1.0000 0.09609  0.91570  0.85569  Biso   1.000  C
  C1050    1.0000 0.09609  0.91570  0.85572  Biso   1.000  C
  C1051    1.0000 0.33606  0.29240  0.18179  Biso   1.000  C
  C1052    1.0000 0.33606  0.29240  0.18182  Biso   1.000  C
  H857     1.0000 0.29330  0.39299  0.17261  Biso   1.000  H
  H858     1.0000 0.40246  0.19657  0.18371  Biso   1.000  H
  C1053    1.0000 0.79200  0.20799  0.93641  Biso   1.000  C
  H859     1.0000 0.93502  0.19898  0.96330  Biso   1.000  H
  H860     1.0000 0.93502  0.19898  0.96333  Biso   1.000  H
  H861     1.0000 0.64086  0.23718  0.91851  Biso   1.000  H
  C1054    1.0000 0.93518  0.38550  0.87911  Biso   1.000  C
  H862     1.0000 0.94038  0.42841  0.81831  Biso   1.000  H
  H863     1.0000 0.91155  0.36899  0.94190  Biso   1.000  H
  H864     1.0000 0.91155  0.36899  0.94193  Biso   1.000  H
  C1055    1.0000 0.33606  0.70760  0.81821  Biso   1.000  C
  H865     1.0000 0.29330  0.60701  0.82739  Biso   1.000  H
  H866     1.0000 0.29330  0.60701  0.82742  Biso   1.000  H
  H867     1.0000 0.40246  0.80337  0.81629  Biso   1.000  H
  H868     1.0000 0.40246  0.80337  0.81632  Biso   1.000  H
  C1056    1.0000 0.91502  0.20480  0.20229  Biso   1.000  C
  C1057    1.0000 0.91502  0.20480  0.20232  Biso   1.000  C
  H869     1.0000 0.89368  0.22167  0.13710  Biso   1.000  H
  H870     1.0000 0.80869  0.26222  0.16591  Biso   1.000  H
  H871     1.0000 0.89368  0.22167  0.13713  Biso   1.000  H
  C1058    1.0000 0.99842  0.89569  0.83040  Biso   1.000  C
  H872     1.0000 0.15933  0.90926  0.83749  Biso   1.000  H
  H873     1.0000 0.09199  0.96568  0.86390  Biso   1.000  H
  H874     1.0000 0.15933  0.90926  0.83753  Biso   1.000  H
  C1059    1.0000 0.23911  0.27490  0.20720  Biso   1.000  C
  C1060    1.0000 0.81051  0.16509  0.89820  Biso   1.000  C
  C1061    1.0000 0.99898  0.32462  0.87170  Biso   1.000  C
  C1062    1.0000 0.23911  0.72510  0.79280  Biso   1.000  C
  N118     1.0000 0.01489  0.16692  0.19491  Biso   1.000  N
  H875     1.0000 0.92258  0.23540  0.22770  Biso   1.000  H
  H876     1.0000 0.85839  0.17059  0.20829  Biso   1.000  H
  H877     1.0000 0.85839  0.17059  0.20832  Biso   1.000  H
  H878     1.0000 0.93920  0.88788  0.85049  Biso   1.000  H
  H879     1.0000 0.97889  0.93477  0.81109  Biso   1.000  H
  H880     1.0000 0.93920  0.88788  0.85052  Biso   1.000  H
  H881     1.0000 0.97889  0.93477  0.81112  Biso   1.000  H
  N119     1.0000 0.01489  0.83308  0.80509  Biso   1.000  N
  N120     1.0000 0.01489  0.83308  0.80512  Biso   1.000  N
  N121     1.0000 0.22706  0.21711  0.22751  Biso   1.000  N
  H882     1.0000 0.18390  0.30838  0.20829  Biso   1.000  H
  H883     1.0000 0.18390  0.30838  0.20832  Biso   1.000  H
  N122     1.0000 0.89415  0.12757  0.89441  Biso   1.000  N
  H884     1.0000 0.75979  0.16498  0.87580  Biso   1.000  H
  N123     1.0000 0.04970  0.31409  0.83810  Biso   1.000  N
  H885     1.0000 0.00268  0.29030  0.89380  Biso   1.000  H
  N124     1.0000 0.22706  0.78289  0.77249  Biso   1.000  N
  N125     1.0000 0.22706  0.78289  0.77252  Biso   1.000  N
  H886     1.0000 0.18390  0.69157  0.79171  Biso   1.000  H
  C1063    1.0000 0.06750  0.14942  0.23412  Biso   1.000  C
  C1064    1.0000 0.99842  0.10431  0.16960  Biso   1.000  C
  C1065    1.0000 0.99842  0.10431  0.16963  Biso   1.000  C
  C1066    1.0000 0.91502  0.79520  0.79771  Biso   1.000  C
  C1067    1.0000 0.06750  0.85058  0.76588  Biso   1.000  C
  C1068    1.0000 0.06750  0.85058  0.76591  Biso   1.000  C
  C1069    1.0000 0.12901  0.21198  0.25270  Biso   1.000  C
  C1070    1.0000 0.12901  0.21198  0.25273  Biso   1.000  C
  C1071    1.0000 0.90391  0.08430  0.85569  Biso   1.000  C
  C1072    1.0000 0.90391  0.08430  0.85572  Biso   1.000  C
  C1073    1.0000 0.11601  0.24907  0.83631  Biso   1.000  C
  C1074    1.0000 0.12901  0.78797  0.74730  Biso   1.000  C
  H887     1.0000 0.11688  0.11018  0.22870  Biso   1.000  H
  H888     1.0000 0.01489  0.13339  0.25529  Biso   1.000  H
  H889     1.0000 0.11688  0.11018  0.22873  Biso   1.000  H
  H890     1.0000 0.01489  0.13339  0.25533  Biso   1.000  H
  C1075    1.0000 0.09609  0.08430  0.14431  Biso   1.000  C
  H891     1.0000 0.93920  0.11212  0.14951  Biso   1.000  H
  H892     1.0000 0.97889  0.06518  0.18891  Biso   1.000  H
  C1076    1.0000 0.88399  0.75088  0.83631  Biso   1.000  C
  H893     1.0000 0.92258  0.76460  0.77230  Biso   1.000  H
  H894     1.0000 0.85839  0.82936  0.79171  Biso   1.000  H
  H895     1.0000 0.11688  0.88977  0.77130  Biso   1.000  H
  H896     1.0000 0.01489  0.86656  0.74471  Biso   1.000  H
  H897     1.0000 0.08742  0.25567  0.25000  Biso   1.000  H
  H898     1.0000 0.14507  0.20417  0.28340  Biso   1.000  H
  H899     1.0000 0.08742  0.25567  0.25003  Biso   1.000  H
  H900     1.0000 0.14507  0.20417  0.28343  Biso   1.000  H
  H901     1.0000 0.84067  0.09069  0.83749  Biso   1.000  H
  H902     1.0000 0.90801  0.03432  0.86390  Biso   1.000  H
  H903     1.0000 0.84067  0.09069  0.83753  Biso   1.000  H
  C1077    1.0000 0.00158  0.10431  0.83040  Biso   1.000  C
  C1078    1.0000 0.08498  0.20480  0.79771  Biso   1.000  C
  H904     1.0000 0.10625  0.22167  0.86290  Biso   1.000  H
  H905     1.0000 0.19131  0.26222  0.83409  Biso   1.000  H
  H906     1.0000 0.19131  0.26222  0.83412  Biso   1.000  H
  H907     1.0000 0.08742  0.74428  0.75000  Biso   1.000  H
  H908     1.0000 0.14507  0.79578  0.71660  Biso   1.000  H
  N126     1.0000 0.10577  0.12757  0.10559  Biso   1.000  N
  H909     1.0000 0.15933  0.09069  0.16251  Biso   1.000  H
  H910     1.0000 0.09199  0.03432  0.13610  Biso   1.000  H
  N127     1.0000 0.10577  0.12757  0.10562  Biso   1.000  N
  N128     1.0000 0.95030  0.68586  0.83810  Biso   1.000  N
  H911     1.0000 0.89368  0.77828  0.86290  Biso   1.000  H
  H912     1.0000 0.80869  0.73778  0.83409  Biso   1.000  H
  H913     1.0000 0.80869  0.73778  0.83412  Biso   1.000  H
  N129     1.0000 0.98511  0.16692  0.80509  Biso   1.000  N
  N130     1.0000 0.98511  0.16692  0.80512  Biso   1.000  N
  H914     1.0000 0.06080  0.11212  0.85049  Biso   1.000  H
  H915     1.0000 0.02111  0.06518  0.81109  Biso   1.000  H
  H916     1.0000 0.06080  0.11212  0.85052  Biso   1.000  H
  H917     1.0000 0.02111  0.06518  0.81112  Biso   1.000  H
  H918     1.0000 0.07742  0.23540  0.77230  Biso   1.000  H
  H919     1.0000 0.14161  0.17059  0.79171  Biso   1.000  H
  C1079    1.0000 0.18949  0.16509  0.10180  Biso   1.000  C
  C1080    1.0000 0.00102  0.67538  0.87170  Biso   1.000  C
  C1081    1.0000 0.93250  0.14942  0.76588  Biso   1.000  C
  C1082    1.0000 0.93250  0.14942  0.76591  Biso   1.000  C
  H920     1.0000 0.24021  0.16498  0.12420  Biso   1.000  H
  C1083    1.0000 0.20800  0.20799  0.06359  Biso   1.000  C
  H921     1.0000 0.24021  0.16498  0.12423  Biso   1.000  H
  C1084    1.0000 0.20800  0.20799  0.06362  Biso   1.000  C
  C1085    1.0000 0.06482  0.61450  0.87911  Biso   1.000  C
  H922     1.0000 0.99732  0.70970  0.89380  Biso   1.000  H
  H923     1.0000 0.88312  0.11018  0.77130  Biso   1.000  H
  H924     1.0000 0.98511  0.13339  0.74471  Biso   1.000  H
  C1086    1.0000 0.87099  0.21198  0.74730  Biso   1.000  C
  C1087    1.0000 0.13318  0.21868  0.03340  Biso   1.000  C
  C1088    1.0000 0.30858  0.24037  0.05910  Biso   1.000  C
  C1089    1.0000 0.08750  0.56457  0.84628  Biso   1.000  C
  C1090    1.0000 0.08750  0.56457  0.84632  Biso   1.000  C
  C1091    1.0000 0.10333  0.59947  0.91908  Biso   1.000  C
  C1092    1.0000 0.10333  0.59947  0.91912  Biso   1.000  C
  N131     1.0000 0.77286  0.21711  0.77249  Biso   1.000  N
  N132     1.0000 0.77286  0.21711  0.77252  Biso   1.000  N
  H925     1.0000 0.91258  0.25567  0.75000  Biso   1.000  H
  H926     1.0000 0.85485  0.20417  0.71660  Biso   1.000  H
  H927     1.0000 0.06498  0.19898  0.03670  Biso   1.000  H
  C1093    1.0000 0.15681  0.25871  0.99740  Biso   1.000  C
  C1094    1.0000 0.33110  0.27579  0.02291  Biso   1.000  C
  H928     1.0000 0.35906  0.23718  0.08149  Biso   1.000  H
  H929     1.0000 0.35906  0.23718  0.08153  Biso   1.000  H
  C1095    1.0000 0.15004  0.50547  0.85431  Biso   1.000  C
  H930     1.0000 0.05962  0.57159  0.81831  Biso   1.000  H
  C1096    1.0000 0.16342  0.54000  0.92800  Biso   1.000  C
  H931     1.0000 0.08837  0.63101  0.94190  Biso   1.000  H
  H932     1.0000 0.08837  0.63101  0.94193  Biso   1.000  H
  C1097    1.0000 0.76089  0.27490  0.79280  Biso   1.000  C
  H933     1.0000 0.10373  0.26709  0.97661  Biso   1.000  H
  C1098    1.0000 0.25573  0.28627  0.99140  Biso   1.000  C
  H934     1.0000 0.40002  0.29392  0.01880  Biso   1.000  H
  C1099    1.0000 0.18469  0.49212  0.89521  Biso   1.000  C
  H935     1.0000 0.16831  0.47477  0.83149  Biso   1.000  H
  H936     1.0000 0.16831  0.47477  0.83153  Biso   1.000  H
  H937     1.0000 0.18957  0.53209  0.95621  Biso   1.000  H
  C1100    1.0000 0.66386  0.29240  0.81821  Biso   1.000  C
  H938     1.0000 0.81610  0.30838  0.79171  Biso   1.000  H
  C1101    1.0000 0.27967  0.32860  0.95191  Biso   1.000  C
  C1102    1.0000 0.24801  0.42841  0.90461  Biso   1.000  C
  C1103    1.0000 0.65291  0.35951  0.83258  Biso   1.000  C
  C1104    1.0000 0.65291  0.35951  0.83262  Biso   1.000  C
  C1105    1.0000 0.58880  0.24310  0.82658  Biso   1.000  C
  C1106    1.0000 0.58880  0.24310  0.82662  Biso   1.000  C
  C1107    1.0000 0.22076  0.38859  0.94180  Biso   1.000  C
  C1108    1.0000 0.36670  0.30937  0.92701  Biso   1.000  C
  C1109    1.0000 0.33000  0.40850  0.88058  Biso   1.000  C
  C1110    1.0000 0.33000  0.40850  0.88061  Biso   1.000  C
  C1111    1.0000 0.56320  0.37848  0.85488  Biso   1.000  C
  C1112    1.0000 0.56320  0.37848  0.85492  Biso   1.000  C
  H939     1.0000 0.70670  0.39299  0.82739  Biso   1.000  H
  H940     1.0000 0.70670  0.39299  0.82742  Biso   1.000  H
  C1113    1.0000 0.49941  0.26081  0.85020  Biso   1.000  C
  H941     1.0000 0.59746  0.19657  0.81629  Biso   1.000  H
  H942     1.0000 0.59746  0.19657  0.81632  Biso   1.000  H
  H943     1.0000 0.16358  0.40258  0.95951  Biso   1.000  H
  C1114    1.0000 0.39143  0.34898  0.89021  Biso   1.000  C
  H944     1.0000 0.40860  0.27018  0.93480  Biso   1.000  H
  H945     1.0000 0.34772  0.43569  0.85610  Biso   1.000  H
  C1115    1.0000 0.48437  0.32860  0.86419  Biso   1.000  C
  C1116    1.0000 0.48437  0.32860  0.86422  Biso   1.000  C
  H946     1.0000 0.55446  0.42558  0.86409  Biso   1.000  H
  H947     1.0000 0.55446  0.42558  0.86412  Biso   1.000  H
  H948     1.0000 0.44853  0.22591  0.85671  Biso   1.000  H
  C1117    1.0000 0.87099  0.78797  0.25273  Biso   1.000  C
  C1118    1.0000 0.93250  0.85058  0.23412  Biso   1.000  C
  N133     1.0000 0.77286  0.78289  0.22751  Biso   1.000  N
  H949     1.0000 0.91258  0.74428  0.25000  Biso   1.000  H
  H950     1.0000 0.85485  0.79578  0.28340  Biso   1.000  H
  H951     1.0000 0.91258  0.74428  0.25003  Biso   1.000  H
  H952     1.0000 0.85485  0.79578  0.28343  Biso   1.000  H
  N134     1.0000 0.98511  0.83308  0.19491  Biso   1.000  N
  H953     1.0000 0.88312  0.88977  0.22870  Biso   1.000  H
  H954     1.0000 0.98511  0.86656  0.25529  Biso   1.000  H
  C1119    1.0000 0.87099  0.78797  0.25270  Biso   1.000  C
  H955     1.0000 0.88312  0.88977  0.22873  Biso   1.000  H
  H956     1.0000 0.98511  0.86656  0.25533  Biso   1.000  H
  C1120    1.0000 0.76089  0.72510  0.20720  Biso   1.000  C
  C1121    1.0000 0.08498  0.79520  0.20229  Biso   1.000  C
  C1122    1.0000 0.08498  0.79520  0.20232  Biso   1.000  C
  C1123    1.0000 0.00158  0.89569  0.16960  Biso   1.000  C
  C1124    1.0000 0.00158  0.89569  0.16963  Biso   1.000  C
  C1125    1.0000 0.66386  0.70760  0.18179  Biso   1.000  C
  C1126    1.0000 0.66386  0.70760  0.18182  Biso   1.000  C
  H957     1.0000 0.81610  0.69157  0.20829  Biso   1.000  H
  H958     1.0000 0.81610  0.69157  0.20832  Biso   1.000  H
  C1127    1.0000 0.11601  0.75088  0.16369  Biso   1.000  C
  C1128    1.0000 0.11601  0.75088  0.16373  Biso   1.000  C
  H959     1.0000 0.07742  0.76460  0.22770  Biso   1.000  H
  H960     1.0000 0.14161  0.82936  0.20829  Biso   1.000  H
  H961     1.0000 0.14161  0.82936  0.20832  Biso   1.000  H
  C1129    1.0000 0.90391  0.91570  0.14431  Biso   1.000  C
  H962     1.0000 0.06080  0.88788  0.14951  Biso   1.000  H
  H963     1.0000 0.02111  0.93477  0.18891  Biso   1.000  H
  C1130    1.0000 0.65291  0.64049  0.16742  Biso   1.000  C
  C1131    1.0000 0.58880  0.75690  0.17342  Biso   1.000  C
  N135     1.0000 0.04970  0.68586  0.16190  Biso   1.000  N
  N136     1.0000 0.04970  0.68586  0.16193  Biso   1.000  N
  H964     1.0000 0.10625  0.77828  0.13710  Biso   1.000  H
  H965     1.0000 0.19131  0.73778  0.16591  Biso   1.000  H
  H966     1.0000 0.10625  0.77828  0.13713  Biso   1.000  H
  H967     1.0000 0.84067  0.90926  0.16251  Biso   1.000  H
  H968     1.0000 0.90801  0.96568  0.13610  Biso   1.000  H
  N137     1.0000 0.89415  0.87237  0.10559  Biso   1.000  N
  N138     1.0000 0.89415  0.87237  0.10562  Biso   1.000  N
  C1132    1.0000 0.56320  0.62147  0.14512  Biso   1.000  C
  H969     1.0000 0.70670  0.60701  0.17261  Biso   1.000  H
  C1133    1.0000 0.49941  0.73919  0.14980  Biso   1.000  C
  H970     1.0000 0.59746  0.80337  0.18371  Biso   1.000  H
  C1134    1.0000 0.99898  0.67538  0.12830  Biso   1.000  C
  C1135    1.0000 0.81051  0.83486  0.10180  Biso   1.000  C
  C1136    1.0000 0.48437  0.67140  0.13581  Biso   1.000  C
  H971     1.0000 0.55446  0.57437  0.13591  Biso   1.000  H
  H972     1.0000 0.44853  0.77409  0.14329  Biso   1.000  H
  H973     1.0000 0.44853  0.77409  0.14332  Biso   1.000  H
  C1137    1.0000 0.93518  0.61450  0.12089  Biso   1.000  C
  C1138    1.0000 0.93518  0.61450  0.12093  Biso   1.000  C
  H974     1.0000 0.00268  0.70970  0.10620  Biso   1.000  H
  H975     1.0000 0.75979  0.83497  0.12420  Biso   1.000  H
  C1139    1.0000 0.79200  0.79201  0.06359  Biso   1.000  C
  H976     1.0000 0.75979  0.83497  0.12423  Biso   1.000  H
  C1140    1.0000 0.79200  0.79201  0.06362  Biso   1.000  C
  C1141    1.0000 0.39143  0.65097  0.10979  Biso   1.000  C
  C1142    1.0000 0.39143  0.65097  0.10982  Biso   1.000  C
  C1143    1.0000 0.91250  0.56457  0.15372  Biso   1.000  C
  C1144    1.0000 0.89667  0.59947  0.08092  Biso   1.000  C
  C1145    1.0000 0.86682  0.78126  0.03340  Biso   1.000  C
  C1146    1.0000 0.69142  0.75957  0.05910  Biso   1.000  C
  C1147    1.0000 0.33000  0.59150  0.11942  Biso   1.000  C
  C1148    1.0000 0.36670  0.69057  0.07299  Biso   1.000  C
  C1149    1.0000 0.36670  0.69057  0.07302  Biso   1.000  C
  C1150    1.0000 0.84996  0.50547  0.14569  Biso   1.000  C
  C1151    1.0000 0.84996  0.50547  0.14573  Biso   1.000  C
  H977     1.0000 0.94038  0.57159  0.18169  Biso   1.000  H
  H978     1.0000 0.94038  0.57159  0.18172  Biso   1.000  H
  C1152    1.0000 0.83658  0.54000  0.07200  Biso   1.000  C
  C1153    1.0000 0.83658  0.54000  0.07203  Biso   1.000  C
  H979     1.0000 0.91155  0.63101  0.05810  Biso   1.000  H
  H980     1.0000 0.93502  0.80096  0.03670  Biso   1.000  H
  C1154    1.0000 0.84319  0.74129  0.99740  Biso   1.000  C
  C1155    1.0000 0.66890  0.72421  0.02291  Biso   1.000  C
  H981     1.0000 0.64086  0.76277  0.08149  Biso   1.000  H
  H982     1.0000 0.64086  0.76277  0.08153  Biso   1.000  H
  C1156    1.0000 0.24801  0.57159  0.09539  Biso   1.000  C
  C1157    1.0000 0.24801  0.57159  0.09542  Biso   1.000  C
  H983     1.0000 0.34772  0.56431  0.14390  Biso   1.000  H
  H984     1.0000 0.34772  0.56431  0.14393  Biso   1.000  H
  C1158    1.0000 0.27967  0.67140  0.04809  Biso   1.000  C
  C1159    1.0000 0.27967  0.67140  0.04813  Biso   1.000  C
  H985     1.0000 0.40860  0.72976  0.06520  Biso   1.000  H
  H986     1.0000 0.40860  0.72976  0.06523  Biso   1.000  H
  C1160    1.0000 0.81531  0.49212  0.10479  Biso   1.000  C
  C1161    1.0000 0.81531  0.49212  0.10482  Biso   1.000  C
  H987     1.0000 0.83169  0.47477  0.16851  Biso   1.000  H
  H988     1.0000 0.81035  0.53209  0.04379  Biso   1.000  H
  H989     1.0000 0.81035  0.53209  0.04383  Biso   1.000  H
  H990     1.0000 0.89627  0.73291  0.97661  Biso   1.000  H
  C1162    1.0000 0.74427  0.71368  0.99140  Biso   1.000  C
  H991     1.0000 0.59998  0.70608  0.01880  Biso   1.000  H
  C1163    1.0000 0.18469  0.50788  0.10479  Biso   1.000  C
  C1164    1.0000 0.18469  0.50788  0.10482  Biso   1.000  C
  C1165    1.0000 0.22076  0.61141  0.05820  Biso   1.000  C
  C1166    1.0000 0.25573  0.71368  0.00860  Biso   1.000  C
  C1167    1.0000 0.75199  0.42841  0.09539  Biso   1.000  C
  C1168    1.0000 0.75199  0.42841  0.09542  Biso   1.000  C
  C1169    1.0000 0.72033  0.67140  0.95191  Biso   1.000  C
  C1170    1.0000 0.15004  0.49447  0.14569  Biso   1.000  C
  C1171    1.0000 0.15004  0.49447  0.14573  Biso   1.000  C
  C1172    1.0000 0.16342  0.46000  0.07200  Biso   1.000  C
  C1173    1.0000 0.16342  0.46000  0.07203  Biso   1.000  C
  H992     1.0000 0.16358  0.59737  0.04049  Biso   1.000  H
  H993     1.0000 0.16358  0.59737  0.04052  Biso   1.000  H
  C1174    1.0000 0.15681  0.74129  0.00260  Biso   1.000  C
  C1175    1.0000 0.33110  0.72421  0.97709  Biso   1.000  C
  C1176    1.0000 0.33110  0.72421  0.97712  Biso   1.000  C
  C1177    1.0000 0.67000  0.40850  0.11942  Biso   1.000  C
  C1178    1.0000 0.77916  0.38859  0.05820  Biso   1.000  C
  C1179    1.0000 0.77916  0.61141  0.94180  Biso   1.000  C
  C1180    1.0000 0.63330  0.69057  0.92701  Biso   1.000  C
  C1181    1.0000 0.08750  0.43537  0.15372  Biso   1.000  C
  H994     1.0000 0.16831  0.52517  0.16851  Biso   1.000  H
  C1182    1.0000 0.10333  0.40048  0.08092  Biso   1.000  C
  H995     1.0000 0.18957  0.46791  0.04379  Biso   1.000  H
  H996     1.0000 0.18957  0.46791  0.04383  Biso   1.000  H
  C1183    1.0000 0.13318  0.78126  0.96660  Biso   1.000  C
  H997     1.0000 0.10373  0.73291  0.02339  Biso   1.000  H
  H998     1.0000 0.10373  0.73291  0.02342  Biso   1.000  H
  H999     1.0000 0.40002  0.70608  0.98120  Biso   1.000  H
  C1184    1.0000 0.30858  0.75957  0.94090  Biso   1.000  C
  C1185    1.0000 0.60857  0.34898  0.10979  Biso   1.000  C
  C1186    1.0000 0.60857  0.34898  0.10982  Biso   1.000  C
  H1000    1.0000 0.65228  0.43569  0.14390  Biso   1.000  H
  H1001    1.0000 0.65228  0.43569  0.14393  Biso   1.000  H
  C1187    1.0000 0.72033  0.32860  0.04809  Biso   1.000  C
  C1188    1.0000 0.72033  0.32860  0.04813  Biso   1.000  C
  H1002    1.0000 0.83642  0.40258  0.04049  Biso   1.000  H
  H1003    1.0000 0.83642  0.40258  0.04052  Biso   1.000  H
  C1189    1.0000 0.75199  0.57159  0.90461  Biso   1.000  C
  H1004    1.0000 0.83642  0.59737  0.95951  Biso   1.000  H
  C1190    1.0000 0.60857  0.65097  0.89021  Biso   1.000  C
  H1005    1.0000 0.59140  0.72976  0.93480  Biso   1.000  H
  C1191    1.0000 0.06482  0.38550  0.12089  Biso   1.000  C
  C1192    1.0000 0.06482  0.38550  0.12093  Biso   1.000  C
  H1006    1.0000 0.05962  0.42841  0.18169  Biso   1.000  H
  H1007    1.0000 0.05962  0.42841  0.18172  Biso   1.000  H
  H1008    1.0000 0.08837  0.36899  0.05810  Biso   1.000  H
  C1193    1.0000 0.20800  0.79201  0.93641  Biso   1.000  C
  H1009    1.0000 0.06498  0.80096  0.96330  Biso   1.000  H
  H1010    1.0000 0.06498  0.80096  0.96333  Biso   1.000  H
  H1011    1.0000 0.35906  0.76277  0.91851  Biso   1.000  H
  C1194    1.0000 0.51555  0.32860  0.13581  Biso   1.000  C
  C1195    1.0000 0.63330  0.30937  0.07299  Biso   1.000  C
  C1196    1.0000 0.63330  0.30937  0.07302  Biso   1.000  C
  C1197    1.0000 0.74427  0.28627  0.00860  Biso   1.000  C
  C1198    1.0000 0.81531  0.50788  0.89521  Biso   1.000  C
  C1199    1.0000 0.67000  0.59150  0.88058  Biso   1.000  C
  C1200    1.0000 0.67000  0.59150  0.88061  Biso   1.000  C
  C1201    1.0000 0.51555  0.67140  0.86419  Biso   1.000  C
  C1202    1.0000 0.51555  0.67140  0.86422  Biso   1.000  C
  C1203    1.0000 0.00102  0.32462  0.12830  Biso   1.000  C
  C1204    1.0000 0.18949  0.83486  0.89820  Biso   1.000  C
  C1205    1.0000 0.43680  0.37848  0.14512  Biso   1.000  C
  C1206    1.0000 0.50059  0.26081  0.14980  Biso   1.000  C
  H1012    1.0000 0.59140  0.27018  0.06520  Biso   1.000  H
  H1013    1.0000 0.59140  0.27018  0.06523  Biso   1.000  H
  C1207    1.0000 0.84319  0.25871  0.00260  Biso   1.000  C
  C1208    1.0000 0.66890  0.27579  0.97709  Biso   1.000  C
  C1209    1.0000 0.66890  0.27579  0.97712  Biso   1.000  C
  C1210    1.0000 0.84996  0.49447  0.85431  Biso   1.000  C
  C1211    1.0000 0.83658  0.46000  0.92800  Biso   1.000  C
  H1014    1.0000 0.65228  0.56431  0.85610  Biso   1.000  H
  C1212    1.0000 0.43680  0.62147  0.85488  Biso   1.000  C
  C1213    1.0000 0.50059  0.73919  0.85020  Biso   1.000  C
  C1214    1.0000 0.43680  0.62147  0.85492  Biso   1.000  C
  N139     1.0000 0.95030  0.31409  0.16190  Biso   1.000  N
  N140     1.0000 0.95030  0.31409  0.16193  Biso   1.000  N
  H1015    1.0000 0.99732  0.29030  0.10620  Biso   1.000  H
  N141     1.0000 0.10577  0.87237  0.89441  Biso   1.000  N
  H1016    1.0000 0.24021  0.83497  0.87580  Biso   1.000  H
  C1215    1.0000 0.34709  0.35951  0.16742  Biso   1.000  C
  H1017    1.0000 0.44546  0.42558  0.13591  Biso   1.000  H
  C1216    1.0000 0.41120  0.24310  0.17342  Biso   1.000  C
  H1018    1.0000 0.55147  0.22591  0.14329  Biso   1.000  H
  H1019    1.0000 0.55147  0.22591  0.14332  Biso   1.000  H
  C1217    1.0000 0.86682  0.21868  0.96660  Biso   1.000  C
  H1020    1.0000 0.89627  0.26709  0.02339  Biso   1.000  H
  H1021    1.0000 0.89627  0.26709  0.02342  Biso   1.000  H
  H1022    1.0000 0.59998  0.29392  0.98120  Biso   1.000  H
  C1218    1.0000 0.69142  0.24037  0.94090  Biso   1.000  C
  C1219    1.0000 0.91250  0.43537  0.84628  Biso   1.000  C
  C1220    1.0000 0.91250  0.43537  0.84632  Biso   1.000  C
  H1023    1.0000 0.83169  0.52517  0.83149  Biso   1.000  H
  H1024    1.0000 0.83169  0.52517  0.83153  Biso   1.000  H
  C1221    1.0000 0.89667  0.40048  0.91908  Biso   1.000  C
  C1222    1.0000 0.89667  0.40048  0.91912  Biso   1.000  C
  H1025    1.0000 0.81035  0.46791  0.95621  Biso   1.000  H
  C1223    1.0000 0.34709  0.64049  0.83258  Biso   1.000  C
  C1224    1.0000 0.34709  0.64049  0.83262  Biso   1.000  C
  H1026    1.0000 0.44546  0.57437  0.86409  Biso   1.000  H
  H1027    1.0000 0.44546  0.57437  0.86412  Biso   1.000  H
  C1225    1.0000 0.41120  0.75690  0.82658  Biso   1.000  C
  C1226    1.0000 0.41120  0.75690  0.82662  Biso   1.000  C
  H1028    1.0000 0.55147  0.77409  0.85671  Biso   1.000  H
  C1227    1.0000 0.88399  0.24907  0.16369  Biso   1.000  C
  C1228    1.0000 0.88399  0.24907  0.16373  Biso   1.000  C
  C1229    1.0000 0.09609  0.91570  0.85569  Biso   1.000  C
  C1230    1.0000 0.09609  0.91570  0.85572  Biso   1.000  C
  C1231    1.0000 0.33606  0.29240  0.18179  Biso   1.000  C
  C1232    1.0000 0.33606  0.29240  0.18182  Biso   1.000  C
  H1029    1.0000 0.29330  0.39299  0.17261  Biso   1.000  H
  H1030    1.0000 0.40246  0.19657  0.18371  Biso   1.000  H
  C1233    1.0000 0.79200  0.20799  0.93641  Biso   1.000  C
  H1031    1.0000 0.93502  0.19898  0.96330  Biso   1.000  H
  H1032    1.0000 0.93502  0.19898  0.96333  Biso   1.000  H
  H1033    1.0000 0.64086  0.23718  0.91851  Biso   1.000  H
  C1234    1.0000 0.93518  0.38550  0.87911  Biso   1.000  C
  H1034    1.0000 0.94038  0.42841  0.81831  Biso   1.000  H
  H1035    1.0000 0.91155  0.36899  0.94190  Biso   1.000  H
  H1036    1.0000 0.91155  0.36899  0.94193  Biso   1.000  H
  C1235    1.0000 0.33606  0.70760  0.81821  Biso   1.000  C
  H1037    1.0000 0.29330  0.60701  0.82739  Biso   1.000  H
  H1038    1.0000 0.29330  0.60701  0.82742  Biso   1.000  H
  H1039    1.0000 0.40246  0.80337  0.81629  Biso   1.000  H
  H1040    1.0000 0.40246  0.80337  0.81632  Biso   1.000  H
  C1236    1.0000 0.91502  0.20480  0.20229  Biso   1.000  C
  C1237    1.0000 0.91502  0.20480  0.20232  Biso   1.000  C
  H1041    1.0000 0.89368  0.22167  0.13710  Biso   1.000  H
  H1042    1.0000 0.80869  0.26222  0.16591  Biso   1.000  H
  H1043    1.0000 0.89368  0.22167  0.13713  Biso   1.000  H
  C1238    1.0000 0.99842  0.89569  0.83040  Biso   1.000  C
  H1044    1.0000 0.15933  0.90926  0.83749  Biso   1.000  H
  H1045    1.0000 0.09199  0.96568  0.86390  Biso   1.000  H
  H1046    1.0000 0.15933  0.90926  0.83753  Biso   1.000  H
  C1239    1.0000 0.23911  0.27490  0.20720  Biso   1.000  C
  C1240    1.0000 0.81051  0.16509  0.89820  Biso   1.000  C
  C1241    1.0000 0.99898  0.32462  0.87170  Biso   1.000  C
  C1242    1.0000 0.23911  0.72510  0.79280  Biso   1.000  C
  N142     1.0000 0.01489  0.16692  0.19491  Biso   1.000  N
  H1047    1.0000 0.92258  0.23540  0.22770  Biso   1.000  H
  H1048    1.0000 0.85839  0.17059  0.20829  Biso   1.000  H
  H1049    1.0000 0.85839  0.17059  0.20832  Biso   1.000  H
  H1050    1.0000 0.93920  0.88788  0.85049  Biso   1.000  H
  H1051    1.0000 0.97889  0.93477  0.81109  Biso   1.000  H
  H1052    1.0000 0.93920  0.88788  0.85052  Biso   1.000  H
  H1053    1.0000 0.97889  0.93477  0.81112  Biso   1.000  H
  N143     1.0000 0.01489  0.83308  0.80509  Biso   1.000  N
  N144     1.0000 0.01489  0.83308  0.80512  Biso   1.000  N
  N145     1.0000 0.22706  0.21711  0.22751  Biso   1.000  N
  H1054    1.0000 0.18390  0.30838  0.20829  Biso   1.000  H
  H1055    1.0000 0.18390  0.30838  0.20832  Biso   1.000  H
  N146     1.0000 0.89415  0.12757  0.89441  Biso   1.000  N
  H1056    1.0000 0.75979  0.16498  0.87580  Biso   1.000  H
  N147     1.0000 0.04970  0.31409  0.83810  Biso   1.000  N
  H1057    1.0000 0.00268  0.29030  0.89380  Biso   1.000  H
  N148     1.0000 0.22706  0.78289  0.77249  Biso   1.000  N
  N149     1.0000 0.22706  0.78289  0.77252  Biso   1.000  N
  H1058    1.0000 0.18390  0.69157  0.79171  Biso   1.000  H
  C1243    1.0000 0.06750  0.14942  0.23412  Biso   1.000  C
  C1244    1.0000 0.99842  0.10431  0.16960  Biso   1.000  C
  C1245    1.0000 0.99842  0.10431  0.16963  Biso   1.000  C
  C1246    1.0000 0.91502  0.79520  0.79771  Biso   1.000  C
  C1247    1.0000 0.06750  0.85058  0.76588  Biso   1.000  C
  C1248    1.0000 0.06750  0.85058  0.76591  Biso   1.000  C
  C1249    1.0000 0.12901  0.21198  0.25270  Biso   1.000  C
  C1250    1.0000 0.12901  0.21198  0.25273  Biso   1.000  C
  C1251    1.0000 0.90391  0.08430  0.85569  Biso   1.000  C
  C1252    1.0000 0.90391  0.08430  0.85572  Biso   1.000  C
  C1253    1.0000 0.11601  0.24907  0.83631  Biso   1.000  C
  C1254    1.0000 0.12901  0.78797  0.74730  Biso   1.000  C
  H1059    1.0000 0.11688  0.11018  0.22870  Biso   1.000  H
  H1060    1.0000 0.01489  0.13339  0.25529  Biso   1.000  H
  H1061    1.0000 0.11688  0.11018  0.22873  Biso   1.000  H
  H1062    1.0000 0.01489  0.13339  0.25533  Biso   1.000  H
  C1255    1.0000 0.09609  0.08430  0.14431  Biso   1.000  C
  H1063    1.0000 0.93920  0.11212  0.14951  Biso   1.000  H
  H1064    1.0000 0.97889  0.06518  0.18891  Biso   1.000  H
  C1256    1.0000 0.88399  0.75088  0.83631  Biso   1.000  C
  H1065    1.0000 0.92258  0.76460  0.77230  Biso   1.000  H
  H1066    1.0000 0.85839  0.82936  0.79171  Biso   1.000  H
  H1067    1.0000 0.11688  0.88977  0.77130  Biso   1.000  H
  H1068    1.0000 0.01489  0.86656  0.74471  Biso   1.000  H
  H1069    1.0000 0.08742  0.25567  0.25000  Biso   1.000  H
  H1070    1.0000 0.14507  0.20417  0.28340  Biso   1.000  H
  H1071    1.0000 0.08742  0.25567  0.25003  Biso   1.000  H
  H1072    1.0000 0.14507  0.20417  0.28343  Biso   1.000  H
  H1073    1.0000 0.84067  0.09069  0.83749  Biso   1.000  H
  H1074    1.0000 0.90801  0.03432  0.86390  Biso   1.000  H
  H1075    1.0000 0.84067  0.09069  0.83753  Biso   1.000  H
  C1257    1.0000 0.00158  0.10431  0.83040  Biso   1.000  C
  C1258    1.0000 0.08498  0.20480  0.79771  Biso   1.000  C
  H1076    1.0000 0.10625  0.22167  0.86290  Biso   1.000  H
  H1077    1.0000 0.19131  0.26222  0.83409  Biso   1.000  H
  H1078    1.0000 0.19131  0.26222  0.83412  Biso   1.000  H
  H1079    1.0000 0.08742  0.74428  0.75000  Biso   1.000  H
  H1080    1.0000 0.14507  0.79578  0.71660  Biso   1.000  H
  H1081    1.0000 0.15933  0.09069  0.16251  Biso   1.000  H
  H1082    1.0000 0.09199  0.03432  0.13610  Biso   1.000  H
  N150     1.0000 0.10577  0.12757  0.10559  Biso   1.000  N
  N151     1.0000 0.10577  0.12757  0.10562  Biso   1.000  N
  N152     1.0000 0.95030  0.68586  0.83810  Biso   1.000  N
  H1083    1.0000 0.89368  0.77828  0.86290  Biso   1.000  H
  H1084    1.0000 0.80869  0.73778  0.83409  Biso   1.000  H
  H1085    1.0000 0.80869  0.73778  0.83412  Biso   1.000  H
  N153     1.0000 0.98511  0.16692  0.80509  Biso   1.000  N
  N154     1.0000 0.98511  0.16692  0.80512  Biso   1.000  N
  H1086    1.0000 0.06080  0.11212  0.85049  Biso   1.000  H
  H1087    1.0000 0.02111  0.06518  0.81109  Biso   1.000  H
  H1088    1.0000 0.06080  0.11212  0.85052  Biso   1.000  H
  H1089    1.0000 0.02111  0.06518  0.81112  Biso   1.000  H
  H1090    1.0000 0.07742  0.23540  0.77230  Biso   1.000  H
  H1091    1.0000 0.14161  0.17059  0.79171  Biso   1.000  H
  C1259    1.0000 0.18949  0.16509  0.10180  Biso   1.000  C
  C1260    1.0000 0.00102  0.67538  0.87170  Biso   1.000  C
  C1261    1.0000 0.93250  0.14942  0.76588  Biso   1.000  C
  C1262    1.0000 0.93250  0.14942  0.76591  Biso   1.000  C
  H1092    1.0000 0.24021  0.16498  0.12420  Biso   1.000  H
  C1263    1.0000 0.20800  0.20799  0.06359  Biso   1.000  C
  H1093    1.0000 0.24021  0.16498  0.12423  Biso   1.000  H
  C1264    1.0000 0.20800  0.20799  0.06362  Biso   1.000  C
  C1265    1.0000 0.06482  0.61450  0.87911  Biso   1.000  C
  H1094    1.0000 0.99732  0.70970  0.89380  Biso   1.000  H
  H1095    1.0000 0.88312  0.11018  0.77130  Biso   1.000  H
  H1096    1.0000 0.98511  0.13339  0.74471  Biso   1.000  H
  C1266    1.0000 0.87099  0.21198  0.74730  Biso   1.000  C
  C1267    1.0000 0.13318  0.21868  0.03340  Biso   1.000  C
  C1268    1.0000 0.30858  0.24037  0.05910  Biso   1.000  C
  C1269    1.0000 0.08750  0.56457  0.84628  Biso   1.000  C
  C1270    1.0000 0.08750  0.56457  0.84632  Biso   1.000  C
  C1271    1.0000 0.10333  0.59947  0.91908  Biso   1.000  C
  C1272    1.0000 0.10333  0.59947  0.91912  Biso   1.000  C
  N155     1.0000 0.77286  0.21711  0.77249  Biso   1.000  N
  H1097    1.0000 0.91258  0.25567  0.75000  Biso   1.000  H
  H1098    1.0000 0.85485  0.20417  0.71660  Biso   1.000  H
  N156     1.0000 0.77286  0.21711  0.77252  Biso   1.000  N
  H1099    1.0000 0.06498  0.19898  0.03670  Biso   1.000  H
  C1273    1.0000 0.15681  0.25871  0.99740  Biso   1.000  C
  C1274    1.0000 0.33110  0.27579  0.02291  Biso   1.000  C
  H1100    1.0000 0.35906  0.23718  0.08149  Biso   1.000  H
  H1101    1.0000 0.35906  0.23718  0.08153  Biso   1.000  H
  C1275    1.0000 0.15004  0.50547  0.85431  Biso   1.000  C
  H1102    1.0000 0.05962  0.57159  0.81831  Biso   1.000  H
  C1276    1.0000 0.16342  0.54000  0.92800  Biso   1.000  C
  H1103    1.0000 0.08837  0.63101  0.94190  Biso   1.000  H
  H1104    1.0000 0.08837  0.63101  0.94193  Biso   1.000  H
  C1277    1.0000 0.76089  0.27490  0.79280  Biso   1.000  C
  H1105    1.0000 0.10373  0.26709  0.97661  Biso   1.000  H
  C1278    1.0000 0.25573  0.28627  0.99140  Biso   1.000  C
  H1106    1.0000 0.40002  0.29392  0.01880  Biso   1.000  H
  C1279    1.0000 0.18469  0.49212  0.89521  Biso   1.000  C
  H1107    1.0000 0.16831  0.47477  0.83149  Biso   1.000  H
  H1108    1.0000 0.16831  0.47477  0.83153  Biso   1.000  H
  H1109    1.0000 0.18957  0.53209  0.95621  Biso   1.000  H
  C1280    1.0000 0.66386  0.29240  0.81821  Biso   1.000  C
  H1110    1.0000 0.81610  0.30838  0.79171  Biso   1.000  H
  C1281    1.0000 0.27967  0.32860  0.95191  Biso   1.000  C
  C1282    1.0000 0.24801  0.42841  0.90461  Biso   1.000  C
  C1283    1.0000 0.65291  0.35951  0.83258  Biso   1.000  C
  C1284    1.0000 0.65291  0.35951  0.83262  Biso   1.000  C
  C1285    1.0000 0.58880  0.24310  0.82658  Biso   1.000  C
  C1286    1.0000 0.58880  0.24310  0.82662  Biso   1.000  C
  C1287    1.0000 0.22076  0.38859  0.94180  Biso   1.000  C
  C1288    1.0000 0.36670  0.30937  0.92701  Biso   1.000  C
  C1289    1.0000 0.33000  0.40850  0.88058  Biso   1.000  C
  C1290    1.0000 0.33000  0.40850  0.88061  Biso   1.000  C
  C1291    1.0000 0.56320  0.37848  0.85488  Biso   1.000  C
  C1292    1.0000 0.56320  0.37848  0.85492  Biso   1.000  C
  H1111    1.0000 0.70670  0.39299  0.82739  Biso   1.000  H
  H1112    1.0000 0.70670  0.39299  0.82742  Biso   1.000  H
  C1293    1.0000 0.49941  0.26081  0.85020  Biso   1.000  C
  H1113    1.0000 0.59746  0.19657  0.81629  Biso   1.000  H
  H1114    1.0000 0.59746  0.19657  0.81632  Biso   1.000  H
  H1115    1.0000 0.16358  0.40258  0.95951  Biso   1.000  H
  C1294    1.0000 0.39143  0.34898  0.89021  Biso   1.000  C
  H1116    1.0000 0.40860  0.27018  0.93480  Biso   1.000  H
  H1117    1.0000 0.34772  0.43569  0.85610  Biso   1.000  H
  C1295    1.0000 0.48437  0.32860  0.86419  Biso   1.000  C
  C1296    1.0000 0.48437  0.32860  0.86422  Biso   1.000  C
  H1118    1.0000 0.55446  0.42558  0.86409  Biso   1.000  H
  H1119    1.0000 0.55446  0.42558  0.86412  Biso   1.000  H
  H1120    1.0000 0.44853  0.22591  0.85671  Biso   1.000  H
