data_image0
_cell_length_a       13.125
_cell_length_b       18.869
_cell_length_c       31.177
_cell_angle_alpha    90
_cell_angle_beta     90
_cell_angle_gamma    90

_symmetry_space_group_name_H-M    "P 1"
_symmetry_int_tables_number       1

loop_
  _symmetry_equiv_pos_as_xyz
  'x, y, z'

loop_
  _atom_site_label
  _atom_site_occupancy
  _atom_site_fract_x
  _atom_site_fract_y
  _atom_site_fract_z
  _atom_site_thermal_displace_type
  _atom_site_B_iso_or_equiv
  _atom_site_type_symbol
  C1       1.0000 0.36442  0.05713  0.83898  Biso   1.000  C
  C2       1.0000 0.33242  0.10271  0.87661  Biso   1.000  C
  H1       1.0000 0.33478  0.07626  0.81252  Biso   1.000  H
  H2       1.0000 0.34027  0.00853  0.84335  Biso   1.000  H
  H3       1.0000 0.43886  0.05718  0.83664  Biso   1.000  H
  C3       1.0000 0.38910  0.16201  0.88950  Biso   1.000  C
  C4       1.0000 0.36442  0.05708  0.83902  Biso   1.000  C
  C5       1.0000 0.25143  0.07812  0.90131  Biso   1.000  C
  C6       1.0000 0.36442  0.05708  0.83898  Biso   1.000  C
  C7       1.0000 0.36442  0.05713  0.83902  Biso   1.000  C
  C8       1.0000 0.48442  0.18088  0.86660  Biso   1.000  C
  C9       1.0000 0.48442  0.18093  0.86660  Biso   1.000  C
  C10      1.0000 0.35611  0.20282  0.92511  Biso   1.000  C
  C11      1.0000 0.21699  0.11893  0.93672  Biso   1.000  C
  C12      1.0000 0.21699  0.11893  0.93668  Biso   1.000  C
  C13      1.0000 0.19680  0.01208  0.89120  Biso   1.000  C
  C14      1.0000 0.49478  0.24368  0.84331  Biso   1.000  C
  C15      1.0000 0.49478  0.24368  0.84328  Biso   1.000  C
  C16      1.0000 0.56884  0.13578  0.86792  Biso   1.000  C
  C17      1.0000 0.56884  0.13578  0.86788  Biso   1.000  C
  C18      1.0000 0.56884  0.13583  0.86792  Biso   1.000  C
  C19      1.0000 0.56884  0.13583  0.86788  Biso   1.000  C
  C20      1.0000 0.27070  0.18061  0.94961  Biso   1.000  C
  C21      1.0000 0.41844  0.26642  0.93890  Biso   1.000  C
  C22      1.0000 0.12312  0.09857  0.96119  Biso   1.000  C
  C23      1.0000 0.12312  0.09863  0.96119  Biso   1.000  C
  C24      1.0000 0.14331  0.00228  0.85271  Biso   1.000  C
  C25      1.0000 0.19337  0.95622  0.92100  Biso   1.000  C
  C26      1.0000 0.58270  0.25969  0.82131  Biso   1.000  C
  H4       1.0000 0.43962  0.27622  0.84264  Biso   1.000  H
  C27      1.0000 0.65608  0.15062  0.84399  Biso   1.000  C
  H5       1.0000 0.56678  0.09455  0.88536  Biso   1.000  H
  C28      1.0000 0.24312  0.22031  0.98861  Biso   1.000  C
  C29      1.0000 0.24312  0.22031  0.98858  Biso   1.000  C
  H6       1.0000 0.38286  0.30998  0.93069  Biso   1.000  H
  H7       1.0000 0.48518  0.26488  0.92475  Biso   1.000  H
  H8       1.0000 0.42773  0.26541  0.97004  Biso   1.000  H
  H9       1.0000 0.14118  0.06444  0.98364  Biso   1.000  H
  H10      1.0000 0.07360  0.07700  0.94162  Biso   1.000  H
  H11      1.0000 0.09318  0.14092  0.97437  Biso   1.000  H
  H12      1.0000 0.14408  0.03842  0.83148  Biso   1.000  H
  C30      1.0000 0.08869  0.93948  0.84511  Biso   1.000  C
  C31      1.0000 0.08869  0.93953  0.84511  Biso   1.000  C
  C32      1.0000 0.13684  0.89782  0.91349  Biso   1.000  C
  H13      1.0000 0.23177  0.95951  0.94676  Biso   1.000  H
  H14      1.0000 0.23177  0.95956  0.94676  Biso   1.000  H
  C33      1.0000 0.66377  0.21331  0.82089  Biso   1.000  C
  H15      1.0000 0.58758  0.30335  0.80624  Biso   1.000  H
  H16      1.0000 0.58758  0.30335  0.80620  Biso   1.000  H
  H17      1.0000 0.71070  0.11755  0.84344  Biso   1.000  H
  C34      1.0000 0.15893  0.26620  0.99019  Biso   1.000  C
  C35      1.0000 0.30309  0.21490  0.02531  Biso   1.000  C
  C36      1.0000 0.08168  0.88860  0.87619  Biso   1.000  C
  H18      1.0000 0.05638  0.93238  0.81820  Biso   1.000  H
  H19      1.0000 0.13470  0.86168  0.93476  Biso   1.000  H
  H20      1.0000 0.13470  0.86168  0.93473  Biso   1.000  H
  C37      1.0000 0.75688  0.22518  0.79629  Biso   1.000  C
  H21      1.0000 0.11490  0.27060  0.96613  Biso   1.000  H
  H22      1.0000 0.11490  0.27060  0.96610  Biso   1.000  H
  C38      1.0000 0.14088  0.30378  0.02569  Biso   1.000  C
  C39      1.0000 0.14088  0.30383  0.02569  Biso   1.000  C
  C40      1.0000 0.28312  0.25359  0.06130  Biso   1.000  C
  H23      1.0000 0.35954  0.18348  0.02524  Biso   1.000  H
  C41      1.0000 0.01661  0.82500  0.87010  Biso   1.000  C
  N1       1.0000 0.76899  0.27898  0.77156  Biso   1.000  N
  N2       1.0000 0.76899  0.27903  0.77156  Biso   1.000  N
  H24      1.0000 0.81074  0.19174  0.79876  Biso   1.000  H
  C42      1.0000 0.19924  0.29843  0.06271  Biso   1.000  C
  H25      1.0000 0.08518  0.33595  0.02569  Biso   1.000  H
  H26      1.0000 0.32686  0.24983  0.08545  Biso   1.000  H
  N3       1.0000 0.95619  0.81690  0.83946  Biso   1.000  N
  H27      1.0000 0.02103  0.78817  0.89085  Biso   1.000  H
  H28      1.0000 0.02103  0.78817  0.89082  Biso   1.000  H
  C43      1.0000 0.86750  0.28512  0.74879  Biso   1.000  C
  C44      1.0000 0.18164  0.34141  0.10171  Biso   1.000  C
  C45      1.0000 0.89669  0.75129  0.83860  Biso   1.000  C
  C46      1.0000 0.93051  0.34649  0.76540  Biso   1.000  C
  H29      1.0000 0.85455  0.29191  0.71774  Biso   1.000  H
  H30      1.0000 0.90636  0.24055  0.75232  Biso   1.000  H
  N4       1.0000 0.10651  0.38232  0.10671  Biso   1.000  N
  H31      1.0000 0.22987  0.33801  0.12429  Biso   1.000  H
  N5       1.0000 0.10651  0.38232  0.10668  Biso   1.000  N
  H32      1.0000 0.22987  0.33801  0.12426  Biso   1.000  H
  C47      1.0000 0.92358  0.70772  0.79940  Biso   1.000  C
  H33      1.0000 0.82309  0.76284  0.83805  Biso   1.000  H
  H34      1.0000 0.91063  0.72341  0.86480  Biso   1.000  H
  N6       1.0000 0.97943  0.33118  0.80649  Biso   1.000  N
  H35      1.0000 0.98354  0.35831  0.74401  Biso   1.000  H
  H36      1.0000 0.88594  0.38847  0.76874  Biso   1.000  H
  N7       1.0000 0.97943  0.33123  0.80649  Biso   1.000  N
  C48      1.0000 0.09691  0.41958  0.14581  Biso   1.000  C
  C49      1.0000 0.09691  0.41958  0.14578  Biso   1.000  C
  C50      1.0000 0.09691  0.41963  0.14581  Biso   1.000  C
  C51      1.0000 0.09691  0.41963  0.14578  Biso   1.000  C
  H37      1.0000 0.86819  0.67354  0.79337  Biso   1.000  H
  H38      1.0000 0.93074  0.73931  0.77419  Biso   1.000  H
  H39      1.0000 0.86819  0.67354  0.79334  Biso   1.000  H
  N8       1.0000 0.02057  0.66882  0.80649  Biso   1.000  N
  C52      1.0000 0.99771  0.39732  0.83010  Biso   1.000  C
  C53      1.0000 0.07642  0.29228  0.79940  Biso   1.000  C
  C54      1.0000 0.07642  0.29233  0.79940  Biso   1.000  C
  C55      1.0000 0.00229  0.39732  0.16990  Biso   1.000  C
  H40      1.0000 0.09364  0.47114  0.13988  Biso   1.000  H
  H41      1.0000 0.15756  0.41062  0.16384  Biso   1.000  H
  C56      1.0000 0.00229  0.60268  0.83010  Biso   1.000  C
  C57      1.0000 0.06949  0.65351  0.76540  Biso   1.000  C
  C58      1.0000 0.90309  0.41958  0.85419  Biso   1.000  C
  C59      1.0000 0.90309  0.41963  0.85419  Biso   1.000  C
  H42      1.0000 0.01768  0.43516  0.80983  Biso   1.000  H
  H43      1.0000 0.05432  0.39032  0.85066  Biso   1.000  H
  H44      1.0000 0.13181  0.32646  0.79337  Biso   1.000  H
  H45      1.0000 0.06933  0.26069  0.77419  Biso   1.000  H
  C60      1.0000 0.10331  0.24871  0.83860  Biso   1.000  C
  H46      1.0000 0.13181  0.32646  0.79334  Biso   1.000  H
  H47      1.0000 0.98240  0.43516  0.19017  Biso   1.000  H
  H48      1.0000 0.94568  0.39032  0.14934  Biso   1.000  H
  N9       1.0000 0.02057  0.33118  0.19351  Biso   1.000  N
  N10      1.0000 0.02057  0.33123  0.19351  Biso   1.000  N
  H49      1.0000 0.98240  0.56484  0.80983  Biso   1.000  H
  H50      1.0000 0.94568  0.60968  0.85066  Biso   1.000  H
  C61      1.0000 0.09691  0.58042  0.85419  Biso   1.000  C
  C62      1.0000 0.13250  0.71488  0.74879  Biso   1.000  C
  C63      1.0000 0.13250  0.71493  0.74879  Biso   1.000  C
  H51      1.0000 0.01646  0.64169  0.74401  Biso   1.000  H
  H52      1.0000 0.11406  0.61153  0.76874  Biso   1.000  H
  N11      1.0000 0.89349  0.38232  0.89329  Biso   1.000  N
  H53      1.0000 0.90636  0.47114  0.86012  Biso   1.000  H
  H54      1.0000 0.84244  0.41062  0.83616  Biso   1.000  H
  N12      1.0000 0.04381  0.18310  0.83946  Biso   1.000  N
  H55      1.0000 0.17691  0.23716  0.83805  Biso   1.000  H
  H56      1.0000 0.08937  0.27659  0.86480  Biso   1.000  H
  C64      1.0000 0.92358  0.29228  0.20060  Biso   1.000  C
  C65      1.0000 0.92358  0.29233  0.20060  Biso   1.000  C
  C66      1.0000 0.06949  0.34649  0.23460  Biso   1.000  C
  N13      1.0000 0.10651  0.61768  0.89329  Biso   1.000  N
  H57      1.0000 0.09364  0.52886  0.86012  Biso   1.000  H
  H58      1.0000 0.15756  0.58938  0.83616  Biso   1.000  H
  N14      1.0000 0.23101  0.72102  0.77156  Biso   1.000  N
  H59      1.0000 0.14545  0.70809  0.71774  Biso   1.000  H
  H60      1.0000 0.09364  0.75945  0.75232  Biso   1.000  H
  C67      1.0000 0.81844  0.34141  0.89829  Biso   1.000  C
  C68      1.0000 0.98339  0.17500  0.87010  Biso   1.000  C
  H61      1.0000 0.86819  0.32646  0.20663  Biso   1.000  H
  H62      1.0000 0.93074  0.26069  0.22581  Biso   1.000  H
  C69      1.0000 0.89669  0.24871  0.16140  Biso   1.000  C
  C70      1.0000 0.13250  0.28512  0.25121  Biso   1.000  C
  H63      1.0000 0.01646  0.35831  0.25599  Biso   1.000  H
  H64      1.0000 0.11406  0.38847  0.23126  Biso   1.000  H
  C71      1.0000 0.18164  0.65859  0.89829  Biso   1.000  C
  C72      1.0000 0.24312  0.77482  0.79629  Biso   1.000  C
  C73      1.0000 0.80084  0.29843  0.93729  Biso   1.000  C
  H65      1.0000 0.77013  0.33801  0.87571  Biso   1.000  H
  C74      1.0000 0.91832  0.11140  0.87619  Biso   1.000  C
  H66      1.0000 0.97897  0.21183  0.89085  Biso   1.000  H
  H67      1.0000 0.97897  0.21183  0.89082  Biso   1.000  H
  N15      1.0000 0.95619  0.18310  0.16054  Biso   1.000  N
  H68      1.0000 0.82309  0.23716  0.16195  Biso   1.000  H
  H69      1.0000 0.91063  0.27659  0.13520  Biso   1.000  H
  N16      1.0000 0.23101  0.27898  0.22844  Biso   1.000  N
  N17      1.0000 0.23101  0.27903  0.22844  Biso   1.000  N
  H70      1.0000 0.14545  0.29191  0.28226  Biso   1.000  H
  H71      1.0000 0.09364  0.24055  0.24768  Biso   1.000  H
  C75      1.0000 0.19924  0.70157  0.93729  Biso   1.000  C
  H72      1.0000 0.22987  0.66199  0.87571  Biso   1.000  H
  C76      1.0000 0.19924  0.70163  0.93729  Biso   1.000  C
  H73      1.0000 0.22987  0.66204  0.87571  Biso   1.000  H
  C77      1.0000 0.33623  0.78669  0.82089  Biso   1.000  C
  H74      1.0000 0.18926  0.80826  0.79876  Biso   1.000  H
  C78      1.0000 0.71688  0.25359  0.93870  Biso   1.000  C
  C79      1.0000 0.85912  0.30378  0.97431  Biso   1.000  C
  C80      1.0000 0.85912  0.30383  0.97431  Biso   1.000  C
  C81      1.0000 0.91131  0.06052  0.84511  Biso   1.000  C
  C82      1.0000 0.86324  0.10218  0.91349  Biso   1.000  C
  C83      1.0000 0.86324  0.10223  0.91349  Biso   1.000  C
  C84      1.0000 0.01661  0.17500  0.12990  Biso   1.000  C
  C85      1.0000 0.24312  0.22518  0.20371  Biso   1.000  C
  C86      1.0000 0.28312  0.74641  0.93870  Biso   1.000  C
  C87      1.0000 0.14088  0.69622  0.97431  Biso   1.000  C
  C88      1.0000 0.41730  0.74031  0.82131  Biso   1.000  C
  C89      1.0000 0.34392  0.84938  0.84399  Biso   1.000  C
  H75      1.0000 0.67314  0.24983  0.91455  Biso   1.000  H
  C90      1.0000 0.69691  0.21490  0.97469  Biso   1.000  C
  H76      1.0000 0.91482  0.33595  0.97431  Biso   1.000  H
  C91      1.0000 0.84114  0.26620  0.00981  Biso   1.000  C
  C92      1.0000 0.84114  0.26620  0.00978  Biso   1.000  C
  H77      1.0000 0.94362  0.06762  0.81820  Biso   1.000  H
  C93      1.0000 0.85669  0.99772  0.85271  Biso   1.000  C
  H78      1.0000 0.86530  0.13832  0.93476  Biso   1.000  H
  C94      1.0000 0.80663  0.04378  0.92100  Biso   1.000  C
  H79      1.0000 0.86530  0.13832  0.93473  Biso   1.000  H
  C95      1.0000 0.80663  0.04383  0.92100  Biso   1.000  C
  C96      1.0000 0.08168  0.11140  0.12381  Biso   1.000  C
  H80      1.0000 0.02103  0.21183  0.10915  Biso   1.000  H
  C97      1.0000 0.33623  0.21331  0.17911  Biso   1.000  C
  H81      1.0000 0.18926  0.19174  0.20124  Biso   1.000  H
  H82      1.0000 0.32686  0.75017  0.91455  Biso   1.000  H
  C98      1.0000 0.30309  0.78510  0.97469  Biso   1.000  C
  H83      1.0000 0.08518  0.66405  0.97431  Biso   1.000  H
  H84      1.0000 0.08518  0.66411  0.97431  Biso   1.000  H
  C99      1.0000 0.15893  0.73380  0.00981  Biso   1.000  C
  C100     1.0000 0.15893  0.73380  0.00978  Biso   1.000  C
  C101     1.0000 0.50522  0.75632  0.84331  Biso   1.000  C
  C102     1.0000 0.50522  0.75632  0.84328  Biso   1.000  C
  H85      1.0000 0.41242  0.69665  0.80624  Biso   1.000  H
  H86      1.0000 0.41242  0.69665  0.80620  Biso   1.000  H
  C103     1.0000 0.43124  0.86422  0.86792  Biso   1.000  C
  C104     1.0000 0.43124  0.86422  0.86788  Biso   1.000  C
  H87      1.0000 0.28930  0.88245  0.84344  Biso   1.000  H
  H88      1.0000 0.64046  0.18348  0.97476  Biso   1.000  H
  C105     1.0000 0.75688  0.22031  0.01139  Biso   1.000  C
  H89      1.0000 0.88510  0.27060  0.03387  Biso   1.000  H
  C106     1.0000 0.80320  0.98792  0.89120  Biso   1.000  C
  H90      1.0000 0.85592  0.96158  0.83148  Biso   1.000  H
  H91      1.0000 0.76830  0.04049  0.94676  Biso   1.000  H
  C107     1.0000 0.08869  0.06052  0.15489  Biso   1.000  C
  C108     1.0000 0.13684  0.10218  0.08651  Biso   1.000  C
  C109     1.0000 0.13684  0.10223  0.08651  Biso   1.000  C
  C110     1.0000 0.41730  0.25969  0.17869  Biso   1.000  C
  C111     1.0000 0.34392  0.15062  0.15601  Biso   1.000  C
  C112     1.0000 0.34392  0.15062  0.15598  Biso   1.000  C
  H92      1.0000 0.35954  0.81652  0.97476  Biso   1.000  H
  H93      1.0000 0.35954  0.81658  0.97476  Biso   1.000  H
  C113     1.0000 0.24312  0.77969  0.01139  Biso   1.000  C
  H94      1.0000 0.11490  0.72940  0.03387  Biso   1.000  H
  C114     1.0000 0.51558  0.81912  0.86660  Biso   1.000  C
  H95      1.0000 0.56046  0.72378  0.84264  Biso   1.000  H
  H96      1.0000 0.43322  0.90545  0.88536  Biso   1.000  H
  C115     1.0000 0.72930  0.18061  0.05039  Biso   1.000  C
  C116     1.0000 0.74857  0.92188  0.90131  Biso   1.000  C
  C117     1.0000 0.14331  0.99772  0.14729  Biso   1.000  C
  H97      1.0000 0.05638  0.06762  0.18180  Biso   1.000  H
  H98      1.0000 0.13470  0.13832  0.06524  Biso   1.000  H
  C118     1.0000 0.19337  0.04378  0.07900  Biso   1.000  C
  C119     1.0000 0.19337  0.04383  0.07900  Biso   1.000  C
  C120     1.0000 0.50522  0.24368  0.15669  Biso   1.000  C
  H99      1.0000 0.41242  0.30335  0.19376  Biso   1.000  H
  C121     1.0000 0.43124  0.13578  0.13208  Biso   1.000  C
  C122     1.0000 0.43124  0.13583  0.13208  Biso   1.000  C
  H100     1.0000 0.28930  0.11755  0.15656  Biso   1.000  H
  H101     1.0000 0.28930  0.11755  0.15653  Biso   1.000  H
  C123     1.0000 0.27070  0.81939  0.05039  Biso   1.000  C
  C124     1.0000 0.61090  0.83799  0.88950  Biso   1.000  C
  C125     1.0000 0.78301  0.11893  0.06328  Biso   1.000  C
  C126     1.0000 0.64389  0.20282  0.07489  Biso   1.000  C
  C127     1.0000 0.78301  0.88107  0.93672  Biso   1.000  C
  C128     1.0000 0.66758  0.89729  0.87661  Biso   1.000  C
  C129     1.0000 0.78301  0.88107  0.93668  Biso   1.000  C
  C130     1.0000 0.78301  0.88113  0.93672  Biso   1.000  C
  C131     1.0000 0.78301  0.88113  0.93668  Biso   1.000  C
  C132     1.0000 0.19680  0.98792  0.10880  Biso   1.000  C
  H102     1.0000 0.14408  0.96158  0.16852  Biso   1.000  H
  H103     1.0000 0.23177  0.04049  0.05324  Biso   1.000  H
  C133     1.0000 0.51558  0.18088  0.13340  Biso   1.000  C
  C134     1.0000 0.51558  0.18093  0.13340  Biso   1.000  C
  H104     1.0000 0.56046  0.27622  0.15736  Biso   1.000  H
  H105     1.0000 0.43322  0.09455  0.11464  Biso   1.000  H
  C135     1.0000 0.21699  0.88107  0.06328  Biso   1.000  C
  C136     1.0000 0.21699  0.88113  0.06328  Biso   1.000  C
  C137     1.0000 0.35611  0.79718  0.07489  Biso   1.000  C
  C138     1.0000 0.64389  0.79718  0.92511  Biso   1.000  C
  C139     1.0000 0.87688  0.09857  0.03881  Biso   1.000  C
  C140     1.0000 0.74857  0.07812  0.09869  Biso   1.000  C
  C141     1.0000 0.87688  0.09863  0.03881  Biso   1.000  C
  C142     1.0000 0.61090  0.16201  0.11050  Biso   1.000  C
  C143     1.0000 0.58164  0.26642  0.06110  Biso   1.000  C
  C144     1.0000 0.72930  0.81939  0.94961  Biso   1.000  C
  C145     1.0000 0.87688  0.90143  0.96119  Biso   1.000  C
  C146     1.0000 0.63558  0.94292  0.83902  Biso   1.000  C
  C147     1.0000 0.63558  0.94292  0.83898  Biso   1.000  C
  C148     1.0000 0.25143  0.92188  0.09869  Biso   1.000  C
  C149     1.0000 0.12312  0.90143  0.03881  Biso   1.000  C
  C150     1.0000 0.38910  0.83799  0.11050  Biso   1.000  C
  C151     1.0000 0.41844  0.73358  0.06110  Biso   1.000  C
  C152     1.0000 0.58164  0.73358  0.93890  Biso   1.000  C
  H106     1.0000 0.85882  0.06444  0.01636  Biso   1.000  H
  H107     1.0000 0.92640  0.07700  0.05838  Biso   1.000  H
  H108     1.0000 0.90682  0.14092  0.02563  Biso   1.000  H
  H109     1.0000 0.85882  0.06444  0.01633  Biso   1.000  H
  C153     1.0000 0.80320  0.01208  0.10880  Biso   1.000  C
  C154     1.0000 0.66758  0.10271  0.12339  Biso   1.000  C
  H110     1.0000 0.61714  0.30998  0.06931  Biso   1.000  H
  H111     1.0000 0.51482  0.26488  0.07525  Biso   1.000  H
  H112     1.0000 0.57227  0.26541  0.02996  Biso   1.000  H
  H113     1.0000 0.51482  0.26488  0.07522  Biso   1.000  H
  C155     1.0000 0.75688  0.77969  0.98861  Biso   1.000  C
  C156     1.0000 0.75688  0.77969  0.98858  Biso   1.000  C
  H114     1.0000 0.85882  0.93556  0.98364  Biso   1.000  H
  H115     1.0000 0.92640  0.92300  0.94162  Biso   1.000  H
  H116     1.0000 0.90682  0.85908  0.97437  Biso   1.000  H
  H117     1.0000 0.90682  0.85913  0.97437  Biso   1.000  H
  H118     1.0000 0.66522  0.92374  0.81252  Biso   1.000  H
  H119     1.0000 0.65973  0.99147  0.84335  Biso   1.000  H
  H120     1.0000 0.56114  0.94282  0.83664  Biso   1.000  H
  C157     1.0000 0.33242  0.89729  0.12339  Biso   1.000  C
  H121     1.0000 0.14118  0.93556  0.01636  Biso   1.000  H
  H122     1.0000 0.07360  0.92300  0.05838  Biso   1.000  H
  H123     1.0000 0.09318  0.85908  0.02563  Biso   1.000  H
  H124     1.0000 0.14118  0.93556  0.01633  Biso   1.000  H
  H125     1.0000 0.09318  0.85913  0.02563  Biso   1.000  H
  C158     1.0000 0.48442  0.81912  0.13340  Biso   1.000  C
  H126     1.0000 0.38286  0.69002  0.06931  Biso   1.000  H
  H127     1.0000 0.48518  0.73512  0.07525  Biso   1.000  H
  H128     1.0000 0.42773  0.73459  0.02996  Biso   1.000  H
  H129     1.0000 0.48518  0.73512  0.07522  Biso   1.000  H
  H130     1.0000 0.61714  0.69002  0.93069  Biso   1.000  H
  H131     1.0000 0.51482  0.73512  0.92475  Biso   1.000  H
  H132     1.0000 0.57227  0.73459  0.97004  Biso   1.000  H
  C159     1.0000 0.80663  0.95622  0.07900  Biso   1.000  C
  C160     1.0000 0.85669  0.00228  0.14729  Biso   1.000  C
  C161     1.0000 0.63558  0.05708  0.16098  Biso   1.000  C
  C162     1.0000 0.63558  0.05713  0.16098  Biso   1.000  C
  C163     1.0000 0.84114  0.73380  0.99019  Biso   1.000  C
  C164     1.0000 0.69691  0.78510  0.02531  Biso   1.000  C
  C165     1.0000 0.36442  0.94292  0.16098  Biso   1.000  C
  C166     1.0000 0.49478  0.75632  0.15669  Biso   1.000  C
  C167     1.0000 0.56884  0.86422  0.13208  Biso   1.000  C
  C168     1.0000 0.86324  0.89782  0.08651  Biso   1.000  C
  H133     1.0000 0.76830  0.95951  0.05324  Biso   1.000  H
  H134     1.0000 0.76830  0.95956  0.05324  Biso   1.000  H
  C169     1.0000 0.91131  0.93948  0.15489  Biso   1.000  C
  C170     1.0000 0.91131  0.93953  0.15489  Biso   1.000  C
  H135     1.0000 0.85592  0.03842  0.16852  Biso   1.000  H
  H136     1.0000 0.66522  0.07626  0.18748  Biso   1.000  H
  H137     1.0000 0.65973  0.00853  0.15665  Biso   1.000  H
  H138     1.0000 0.56114  0.05718  0.16336  Biso   1.000  H
  H139     1.0000 0.88510  0.72940  0.96613  Biso   1.000  H
  H140     1.0000 0.88510  0.72940  0.96610  Biso   1.000  H
  C171     1.0000 0.85912  0.69622  0.02569  Biso   1.000  C
  C172     1.0000 0.71688  0.74641  0.06130  Biso   1.000  C
  H141     1.0000 0.64046  0.81652  0.02524  Biso   1.000  H
  H142     1.0000 0.64046  0.81658  0.02524  Biso   1.000  H
  H143     1.0000 0.33478  0.92374  0.18748  Biso   1.000  H
  H144     1.0000 0.34027  0.99147  0.15665  Biso   1.000  H
  H145     1.0000 0.43886  0.94282  0.16336  Biso   1.000  H
  C173     1.0000 0.58270  0.74031  0.17869  Biso   1.000  C
  H146     1.0000 0.43962  0.72378  0.15736  Biso   1.000  H
  C174     1.0000 0.65608  0.84938  0.15601  Biso   1.000  C
  C175     1.0000 0.65608  0.84938  0.15598  Biso   1.000  C
  H147     1.0000 0.56678  0.90545  0.11464  Biso   1.000  H
  C176     1.0000 0.91832  0.88860  0.12381  Biso   1.000  C
  H148     1.0000 0.86530  0.86168  0.06524  Biso   1.000  H
  H149     1.0000 0.94362  0.93238  0.18180  Biso   1.000  H
  C177     1.0000 0.80084  0.70157  0.06271  Biso   1.000  C
  H150     1.0000 0.91482  0.66405  0.02569  Biso   1.000  H
  C178     1.0000 0.80084  0.70163  0.06271  Biso   1.000  C
  H151     1.0000 0.91482  0.66411  0.02569  Biso   1.000  H
  H152     1.0000 0.67314  0.75017  0.08545  Biso   1.000  H
  C179     1.0000 0.66377  0.78669  0.17911  Biso   1.000  C
  H153     1.0000 0.58758  0.69665  0.19376  Biso   1.000  H
  H154     1.0000 0.71070  0.88245  0.15656  Biso   1.000  H
  H155     1.0000 0.71070  0.88245  0.15653  Biso   1.000  H
  C180     1.0000 0.98339  0.82500  0.12990  Biso   1.000  C
  C181     1.0000 0.81844  0.65859  0.10171  Biso   1.000  C
  C182     1.0000 0.75688  0.77482  0.20371  Biso   1.000  C
  H156     1.0000 0.97897  0.78817  0.10915  Biso   1.000  H
  N18      1.0000 0.04381  0.81690  0.16054  Biso   1.000  N
  N19      1.0000 0.89349  0.61768  0.10671  Biso   1.000  N
  H157     1.0000 0.77013  0.66199  0.12429  Biso   1.000  H
  N20      1.0000 0.89349  0.61768  0.10668  Biso   1.000  N
  H158     1.0000 0.77013  0.66199  0.12426  Biso   1.000  H
  H159     1.0000 0.77013  0.66204  0.12429  Biso   1.000  H
  H160     1.0000 0.77013  0.66204  0.12426  Biso   1.000  H
  N21      1.0000 0.76899  0.72102  0.22844  Biso   1.000  N
  H161     1.0000 0.81074  0.80826  0.20124  Biso   1.000  H
  C183     1.0000 0.10331  0.75129  0.16140  Biso   1.000  C
  C184     1.0000 0.90309  0.58042  0.14581  Biso   1.000  C
  C185     1.0000 0.90309  0.58042  0.14578  Biso   1.000  C
  C186     1.0000 0.86750  0.71488  0.25121  Biso   1.000  C
  C187     1.0000 0.86750  0.71493  0.25121  Biso   1.000  C
  C188     1.0000 0.07642  0.70772  0.20060  Biso   1.000  C
  H162     1.0000 0.17691  0.76284  0.16195  Biso   1.000  H
  H163     1.0000 0.08937  0.72341  0.13520  Biso   1.000  H
  C189     1.0000 0.99771  0.60268  0.16990  Biso   1.000  C
  H164     1.0000 0.90636  0.52886  0.13988  Biso   1.000  H
  H165     1.0000 0.84244  0.58938  0.16384  Biso   1.000  H
  C190     1.0000 0.93051  0.65351  0.23460  Biso   1.000  C
  H166     1.0000 0.85455  0.70809  0.28226  Biso   1.000  H
  H167     1.0000 0.90636  0.75945  0.24768  Biso   1.000  H
  N22      1.0000 0.97943  0.66882  0.19351  Biso   1.000  N
  H168     1.0000 0.13181  0.67354  0.20663  Biso   1.000  H
  H169     1.0000 0.06933  0.73931  0.22581  Biso   1.000  H
  H170     1.0000 0.01768  0.56484  0.19017  Biso   1.000  H
  H171     1.0000 0.05432  0.60968  0.14934  Biso   1.000  H
  H172     1.0000 0.98354  0.64169  0.25599  Biso   1.000  H
  H173     1.0000 0.88594  0.61153  0.23126  Biso   1.000  H
  C191     1.0000 0.36442  0.05713  0.83898  Biso   1.000  C
  C192     1.0000 0.33242  0.10271  0.87661  Biso   1.000  C
  H174     1.0000 0.33478  0.07626  0.81252  Biso   1.000  H
  H175     1.0000 0.34027  0.00853  0.84335  Biso   1.000  H
  H176     1.0000 0.43886  0.05718  0.83664  Biso   1.000  H
  C193     1.0000 0.38910  0.16201  0.88950  Biso   1.000  C
  C194     1.0000 0.25143  0.07812  0.90131  Biso   1.000  C
  C195     1.0000 0.36442  0.05708  0.83902  Biso   1.000  C
  C196     1.0000 0.36442  0.05708  0.83898  Biso   1.000  C
  C197     1.0000 0.36442  0.05713  0.83902  Biso   1.000  C
  C198     1.0000 0.48442  0.18088  0.86660  Biso   1.000  C
  C199     1.0000 0.48442  0.18093  0.86660  Biso   1.000  C
  C200     1.0000 0.35611  0.20282  0.92511  Biso   1.000  C
  C201     1.0000 0.21699  0.11893  0.93672  Biso   1.000  C
  C202     1.0000 0.21699  0.11893  0.93668  Biso   1.000  C
  C203     1.0000 0.19680  0.01208  0.89120  Biso   1.000  C
  C204     1.0000 0.49478  0.24368  0.84331  Biso   1.000  C
  C205     1.0000 0.49478  0.24368  0.84328  Biso   1.000  C
  C206     1.0000 0.56884  0.13578  0.86792  Biso   1.000  C
  C207     1.0000 0.56884  0.13578  0.86788  Biso   1.000  C
  C208     1.0000 0.56884  0.13583  0.86792  Biso   1.000  C
  C209     1.0000 0.56884  0.13583  0.86788  Biso   1.000  C
  C210     1.0000 0.27070  0.18061  0.94961  Biso   1.000  C
  C211     1.0000 0.41844  0.26642  0.93890  Biso   1.000  C
  C212     1.0000 0.12312  0.09857  0.96119  Biso   1.000  C
  C213     1.0000 0.12312  0.09863  0.96119  Biso   1.000  C
  C214     1.0000 0.14331  0.00228  0.85271  Biso   1.000  C
  C215     1.0000 0.19337  0.95622  0.92100  Biso   1.000  C
  C216     1.0000 0.58270  0.25969  0.82131  Biso   1.000  C
  H177     1.0000 0.43962  0.27622  0.84264  Biso   1.000  H
  C217     1.0000 0.65608  0.15062  0.84399  Biso   1.000  C
  H178     1.0000 0.56678  0.09455  0.88536  Biso   1.000  H
  C218     1.0000 0.24312  0.22031  0.98861  Biso   1.000  C
  C219     1.0000 0.24312  0.22031  0.98858  Biso   1.000  C
  H179     1.0000 0.38286  0.30998  0.93069  Biso   1.000  H
  H180     1.0000 0.48518  0.26488  0.92475  Biso   1.000  H
  H181     1.0000 0.42773  0.26541  0.97004  Biso   1.000  H
  H182     1.0000 0.14118  0.06444  0.98364  Biso   1.000  H
  H183     1.0000 0.07360  0.07700  0.94162  Biso   1.000  H
  H184     1.0000 0.09318  0.14092  0.97437  Biso   1.000  H
  H185     1.0000 0.14408  0.03842  0.83148  Biso   1.000  H
  C220     1.0000 0.08869  0.93948  0.84511  Biso   1.000  C
  C221     1.0000 0.08869  0.93953  0.84511  Biso   1.000  C
  C222     1.0000 0.13684  0.89782  0.91349  Biso   1.000  C
  H186     1.0000 0.23177  0.95951  0.94676  Biso   1.000  H
  H187     1.0000 0.23177  0.95956  0.94676  Biso   1.000  H
  C223     1.0000 0.66377  0.21331  0.82089  Biso   1.000  C
  H188     1.0000 0.58758  0.30335  0.80624  Biso   1.000  H
  H189     1.0000 0.58758  0.30335  0.80620  Biso   1.000  H
  H190     1.0000 0.71070  0.11755  0.84344  Biso   1.000  H
  C224     1.0000 0.15893  0.26620  0.99019  Biso   1.000  C
  C225     1.0000 0.30309  0.21490  0.02531  Biso   1.000  C
  C226     1.0000 0.08168  0.88860  0.87619  Biso   1.000  C
  H191     1.0000 0.05638  0.93238  0.81820  Biso   1.000  H
  H192     1.0000 0.13470  0.86168  0.93476  Biso   1.000  H
  H193     1.0000 0.13470  0.86168  0.93473  Biso   1.000  H
  C227     1.0000 0.75688  0.22518  0.79629  Biso   1.000  C
  H194     1.0000 0.11490  0.27060  0.96613  Biso   1.000  H
  H195     1.0000 0.11490  0.27060  0.96610  Biso   1.000  H
  C228     1.0000 0.14088  0.30378  0.02569  Biso   1.000  C
  C229     1.0000 0.14088  0.30383  0.02569  Biso   1.000  C
  C230     1.0000 0.28312  0.25359  0.06130  Biso   1.000  C
  H196     1.0000 0.35954  0.18348  0.02524  Biso   1.000  H
  C231     1.0000 0.01661  0.82500  0.87010  Biso   1.000  C
  N23      1.0000 0.76899  0.27898  0.77156  Biso   1.000  N
  N24      1.0000 0.76899  0.27903  0.77156  Biso   1.000  N
  H197     1.0000 0.81074  0.19174  0.79876  Biso   1.000  H
  C232     1.0000 0.19924  0.29843  0.06271  Biso   1.000  C
  H198     1.0000 0.08518  0.33595  0.02569  Biso   1.000  H
  H199     1.0000 0.32686  0.24983  0.08545  Biso   1.000  H
  N25      1.0000 0.95619  0.81690  0.83946  Biso   1.000  N
  H200     1.0000 0.02103  0.78817  0.89085  Biso   1.000  H
  H201     1.0000 0.02103  0.78817  0.89082  Biso   1.000  H
  C233     1.0000 0.86750  0.28512  0.74879  Biso   1.000  C
  C234     1.0000 0.18164  0.34141  0.10171  Biso   1.000  C
  C235     1.0000 0.89669  0.75129  0.83860  Biso   1.000  C
  C236     1.0000 0.93051  0.34649  0.76540  Biso   1.000  C
  H202     1.0000 0.85455  0.29191  0.71774  Biso   1.000  H
  H203     1.0000 0.90636  0.24055  0.75232  Biso   1.000  H
  N26      1.0000 0.10651  0.38232  0.10671  Biso   1.000  N
  H204     1.0000 0.22987  0.33801  0.12429  Biso   1.000  H
  N27      1.0000 0.10651  0.38232  0.10668  Biso   1.000  N
  H205     1.0000 0.22987  0.33801  0.12426  Biso   1.000  H
  C237     1.0000 0.92358  0.70772  0.79940  Biso   1.000  C
  H206     1.0000 0.82309  0.76284  0.83805  Biso   1.000  H
  H207     1.0000 0.91063  0.72341  0.86480  Biso   1.000  H
  N28      1.0000 0.97943  0.33118  0.80649  Biso   1.000  N
  H208     1.0000 0.98354  0.35831  0.74401  Biso   1.000  H
  H209     1.0000 0.88594  0.38847  0.76874  Biso   1.000  H
  N29      1.0000 0.97943  0.33123  0.80649  Biso   1.000  N
  C238     1.0000 0.09691  0.41958  0.14581  Biso   1.000  C
  C239     1.0000 0.09691  0.41958  0.14578  Biso   1.000  C
  C240     1.0000 0.09691  0.41963  0.14581  Biso   1.000  C
  C241     1.0000 0.09691  0.41963  0.14578  Biso   1.000  C
  H210     1.0000 0.86819  0.67354  0.79337  Biso   1.000  H
  H211     1.0000 0.93074  0.73931  0.77419  Biso   1.000  H
  H212     1.0000 0.86819  0.67354  0.79334  Biso   1.000  H
  N30      1.0000 0.02057  0.66882  0.80649  Biso   1.000  N
  C242     1.0000 0.99771  0.39732  0.83010  Biso   1.000  C
  C243     1.0000 0.07642  0.29228  0.79940  Biso   1.000  C
  C244     1.0000 0.07642  0.29233  0.79940  Biso   1.000  C
  C245     1.0000 0.00229  0.39732  0.16990  Biso   1.000  C
  H213     1.0000 0.09364  0.47114  0.13988  Biso   1.000  H
  H214     1.0000 0.15756  0.41062  0.16384  Biso   1.000  H
  C246     1.0000 0.00229  0.60268  0.83010  Biso   1.000  C
  C247     1.0000 0.06949  0.65351  0.76540  Biso   1.000  C
  C248     1.0000 0.90309  0.41958  0.85419  Biso   1.000  C
  C249     1.0000 0.90309  0.41963  0.85419  Biso   1.000  C
  H215     1.0000 0.01768  0.43516  0.80983  Biso   1.000  H
  H216     1.0000 0.05432  0.39032  0.85066  Biso   1.000  H
  H217     1.0000 0.13181  0.32646  0.79337  Biso   1.000  H
  H218     1.0000 0.06933  0.26069  0.77419  Biso   1.000  H
  C250     1.0000 0.10331  0.24871  0.83860  Biso   1.000  C
  H219     1.0000 0.13181  0.32646  0.79334  Biso   1.000  H
  H220     1.0000 0.98240  0.43516  0.19017  Biso   1.000  H
  H221     1.0000 0.94568  0.39032  0.14934  Biso   1.000  H
  N31      1.0000 0.02057  0.33118  0.19351  Biso   1.000  N
  N32      1.0000 0.02057  0.33123  0.19351  Biso   1.000  N
  H222     1.0000 0.98240  0.56484  0.80983  Biso   1.000  H
  H223     1.0000 0.94568  0.60968  0.85066  Biso   1.000  H
  C251     1.0000 0.09691  0.58042  0.85419  Biso   1.000  C
  C252     1.0000 0.13250  0.71488  0.74879  Biso   1.000  C
  C253     1.0000 0.13250  0.71493  0.74879  Biso   1.000  C
  H224     1.0000 0.01646  0.64169  0.74401  Biso   1.000  H
  H225     1.0000 0.11406  0.61153  0.76874  Biso   1.000  H
  N33      1.0000 0.89349  0.38232  0.89329  Biso   1.000  N
  H226     1.0000 0.90636  0.47114  0.86012  Biso   1.000  H
  H227     1.0000 0.84244  0.41062  0.83616  Biso   1.000  H
  N34      1.0000 0.04381  0.18310  0.83946  Biso   1.000  N
  H228     1.0000 0.17691  0.23716  0.83805  Biso   1.000  H
  H229     1.0000 0.08937  0.27659  0.86480  Biso   1.000  H
  C254     1.0000 0.92358  0.29228  0.20060  Biso   1.000  C
  C255     1.0000 0.92358  0.29233  0.20060  Biso   1.000  C
  C256     1.0000 0.06949  0.34649  0.23460  Biso   1.000  C
  N35      1.0000 0.10651  0.61768  0.89329  Biso   1.000  N
  H230     1.0000 0.09364  0.52886  0.86012  Biso   1.000  H
  H231     1.0000 0.15756  0.58938  0.83616  Biso   1.000  H
  N36      1.0000 0.23101  0.72102  0.77156  Biso   1.000  N
  H232     1.0000 0.14545  0.70809  0.71774  Biso   1.000  H
  H233     1.0000 0.09364  0.75945  0.75232  Biso   1.000  H
  C257     1.0000 0.81844  0.34141  0.89829  Biso   1.000  C
  C258     1.0000 0.98339  0.17500  0.87010  Biso   1.000  C
  H234     1.0000 0.86819  0.32646  0.20663  Biso   1.000  H
  H235     1.0000 0.93074  0.26069  0.22581  Biso   1.000  H
  C259     1.0000 0.89669  0.24871  0.16140  Biso   1.000  C
  C260     1.0000 0.13250  0.28512  0.25121  Biso   1.000  C
  H236     1.0000 0.01646  0.35831  0.25599  Biso   1.000  H
  H237     1.0000 0.11406  0.38847  0.23126  Biso   1.000  H
  C261     1.0000 0.18164  0.65859  0.89829  Biso   1.000  C
  C262     1.0000 0.24312  0.77482  0.79629  Biso   1.000  C
  C263     1.0000 0.80084  0.29843  0.93729  Biso   1.000  C
  H238     1.0000 0.77013  0.33801  0.87571  Biso   1.000  H
  C264     1.0000 0.91832  0.11140  0.87619  Biso   1.000  C
  H239     1.0000 0.97897  0.21183  0.89085  Biso   1.000  H
  H240     1.0000 0.97897  0.21183  0.89082  Biso   1.000  H
  N37      1.0000 0.95619  0.18310  0.16054  Biso   1.000  N
  H241     1.0000 0.82309  0.23716  0.16195  Biso   1.000  H
  H242     1.0000 0.91063  0.27659  0.13520  Biso   1.000  H
  N38      1.0000 0.23101  0.27898  0.22844  Biso   1.000  N
  N39      1.0000 0.23101  0.27903  0.22844  Biso   1.000  N
  H243     1.0000 0.14545  0.29191  0.28226  Biso   1.000  H
  H244     1.0000 0.09364  0.24055  0.24768  Biso   1.000  H
  C265     1.0000 0.19924  0.70157  0.93729  Biso   1.000  C
  H245     1.0000 0.22987  0.66199  0.87571  Biso   1.000  H
  C266     1.0000 0.19924  0.70163  0.93729  Biso   1.000  C
  H246     1.0000 0.22987  0.66204  0.87571  Biso   1.000  H
  C267     1.0000 0.33623  0.78669  0.82089  Biso   1.000  C
  H247     1.0000 0.18926  0.80826  0.79876  Biso   1.000  H
  C268     1.0000 0.71688  0.25359  0.93870  Biso   1.000  C
  C269     1.0000 0.85912  0.30378  0.97431  Biso   1.000  C
  C270     1.0000 0.85912  0.30383  0.97431  Biso   1.000  C
  C271     1.0000 0.91131  0.06052  0.84511  Biso   1.000  C
  C272     1.0000 0.86324  0.10218  0.91349  Biso   1.000  C
  C273     1.0000 0.86324  0.10223  0.91349  Biso   1.000  C
  C274     1.0000 0.01661  0.17500  0.12990  Biso   1.000  C
  C275     1.0000 0.24312  0.22518  0.20371  Biso   1.000  C
  C276     1.0000 0.28312  0.74641  0.93870  Biso   1.000  C
  C277     1.0000 0.14088  0.69622  0.97431  Biso   1.000  C
  C278     1.0000 0.41730  0.74031  0.82131  Biso   1.000  C
  C279     1.0000 0.34392  0.84938  0.84399  Biso   1.000  C
  H248     1.0000 0.67314  0.24983  0.91455  Biso   1.000  H
  C280     1.0000 0.69691  0.21490  0.97469  Biso   1.000  C
  H249     1.0000 0.91482  0.33595  0.97431  Biso   1.000  H
  C281     1.0000 0.84114  0.26620  0.00981  Biso   1.000  C
  C282     1.0000 0.84114  0.26620  0.00978  Biso   1.000  C
  H250     1.0000 0.94362  0.06762  0.81820  Biso   1.000  H
  C283     1.0000 0.85669  0.99772  0.85271  Biso   1.000  C
  C284     1.0000 0.80663  0.04378  0.92100  Biso   1.000  C
  H251     1.0000 0.86530  0.13832  0.93476  Biso   1.000  H
  H252     1.0000 0.86530  0.13832  0.93473  Biso   1.000  H
  C285     1.0000 0.80663  0.04383  0.92100  Biso   1.000  C
  C286     1.0000 0.08168  0.11140  0.12381  Biso   1.000  C
  H253     1.0000 0.02103  0.21183  0.10915  Biso   1.000  H
  C287     1.0000 0.33623  0.21331  0.17911  Biso   1.000  C
  H254     1.0000 0.18926  0.19174  0.20124  Biso   1.000  H
  H255     1.0000 0.32686  0.75017  0.91455  Biso   1.000  H
  C288     1.0000 0.30309  0.78510  0.97469  Biso   1.000  C
  H256     1.0000 0.08518  0.66405  0.97431  Biso   1.000  H
  H257     1.0000 0.08518  0.66411  0.97431  Biso   1.000  H
  C289     1.0000 0.15893  0.73380  0.00981  Biso   1.000  C
  C290     1.0000 0.15893  0.73380  0.00978  Biso   1.000  C
  C291     1.0000 0.50522  0.75632  0.84331  Biso   1.000  C
  C292     1.0000 0.50522  0.75632  0.84328  Biso   1.000  C
  H258     1.0000 0.41242  0.69665  0.80624  Biso   1.000  H
  H259     1.0000 0.41242  0.69665  0.80620  Biso   1.000  H
  C293     1.0000 0.43124  0.86422  0.86792  Biso   1.000  C
  C294     1.0000 0.43124  0.86422  0.86788  Biso   1.000  C
  H260     1.0000 0.28930  0.88245  0.84344  Biso   1.000  H
  H261     1.0000 0.64046  0.18348  0.97476  Biso   1.000  H
  C295     1.0000 0.75688  0.22031  0.01139  Biso   1.000  C
  H262     1.0000 0.88510  0.27060  0.03387  Biso   1.000  H
  C296     1.0000 0.80320  0.98792  0.89120  Biso   1.000  C
  H263     1.0000 0.85592  0.96158  0.83148  Biso   1.000  H
  H264     1.0000 0.76830  0.04049  0.94676  Biso   1.000  H
  C297     1.0000 0.08869  0.06052  0.15489  Biso   1.000  C
  C298     1.0000 0.13684  0.10218  0.08651  Biso   1.000  C
  C299     1.0000 0.13684  0.10223  0.08651  Biso   1.000  C
  C300     1.0000 0.41730  0.25969  0.17869  Biso   1.000  C
  C301     1.0000 0.34392  0.15062  0.15601  Biso   1.000  C
  C302     1.0000 0.34392  0.15062  0.15598  Biso   1.000  C
  H265     1.0000 0.35954  0.81652  0.97476  Biso   1.000  H
  H266     1.0000 0.35954  0.81658  0.97476  Biso   1.000  H
  C303     1.0000 0.24312  0.77969  0.01139  Biso   1.000  C
  H267     1.0000 0.11490  0.72940  0.03387  Biso   1.000  H
  C304     1.0000 0.51558  0.81912  0.86660  Biso   1.000  C
  H268     1.0000 0.56046  0.72378  0.84264  Biso   1.000  H
  H269     1.0000 0.43322  0.90545  0.88536  Biso   1.000  H
  C305     1.0000 0.72930  0.18061  0.05039  Biso   1.000  C
  C306     1.0000 0.74857  0.92188  0.90131  Biso   1.000  C
  C307     1.0000 0.14331  0.99772  0.14729  Biso   1.000  C
  H270     1.0000 0.05638  0.06762  0.18180  Biso   1.000  H
  H271     1.0000 0.13470  0.13832  0.06524  Biso   1.000  H
  C308     1.0000 0.19337  0.04378  0.07900  Biso   1.000  C
  C309     1.0000 0.19337  0.04383  0.07900  Biso   1.000  C
  C310     1.0000 0.50522  0.24368  0.15669  Biso   1.000  C
  H272     1.0000 0.41242  0.30335  0.19376  Biso   1.000  H
  C311     1.0000 0.43124  0.13578  0.13208  Biso   1.000  C
  C312     1.0000 0.43124  0.13583  0.13208  Biso   1.000  C
  H273     1.0000 0.28930  0.11755  0.15656  Biso   1.000  H
  H274     1.0000 0.28930  0.11755  0.15653  Biso   1.000  H
  C313     1.0000 0.27070  0.81939  0.05039  Biso   1.000  C
  C314     1.0000 0.61090  0.83799  0.88950  Biso   1.000  C
  C315     1.0000 0.78301  0.11893  0.06328  Biso   1.000  C
  C316     1.0000 0.64389  0.20282  0.07489  Biso   1.000  C
  C317     1.0000 0.78301  0.88107  0.93672  Biso   1.000  C
  C318     1.0000 0.66758  0.89729  0.87661  Biso   1.000  C
  C319     1.0000 0.78301  0.88107  0.93668  Biso   1.000  C
  C320     1.0000 0.78301  0.88113  0.93672  Biso   1.000  C
  C321     1.0000 0.78301  0.88113  0.93668  Biso   1.000  C
  C322     1.0000 0.19680  0.98792  0.10880  Biso   1.000  C
  H275     1.0000 0.14408  0.96158  0.16852  Biso   1.000  H
  H276     1.0000 0.23177  0.04049  0.05324  Biso   1.000  H
  C323     1.0000 0.51558  0.18088  0.13340  Biso   1.000  C
  C324     1.0000 0.51558  0.18093  0.13340  Biso   1.000  C
  H277     1.0000 0.56046  0.27622  0.15736  Biso   1.000  H
  H278     1.0000 0.43322  0.09455  0.11464  Biso   1.000  H
  C325     1.0000 0.21699  0.88107  0.06328  Biso   1.000  C
  C326     1.0000 0.21699  0.88113  0.06328  Biso   1.000  C
  C327     1.0000 0.35611  0.79718  0.07489  Biso   1.000  C
  C328     1.0000 0.64389  0.79718  0.92511  Biso   1.000  C
  C329     1.0000 0.87688  0.09857  0.03881  Biso   1.000  C
  C330     1.0000 0.74857  0.07812  0.09869  Biso   1.000  C
  C331     1.0000 0.87688  0.09863  0.03881  Biso   1.000  C
  C332     1.0000 0.61090  0.16201  0.11050  Biso   1.000  C
  C333     1.0000 0.58164  0.26642  0.06110  Biso   1.000  C
  C334     1.0000 0.72930  0.81939  0.94961  Biso   1.000  C
  C335     1.0000 0.87688  0.90143  0.96119  Biso   1.000  C
  C336     1.0000 0.63558  0.94292  0.83902  Biso   1.000  C
  C337     1.0000 0.63558  0.94292  0.83898  Biso   1.000  C
  C338     1.0000 0.25143  0.92188  0.09869  Biso   1.000  C
  C339     1.0000 0.12312  0.90143  0.03881  Biso   1.000  C
  C340     1.0000 0.38910  0.83799  0.11050  Biso   1.000  C
  C341     1.0000 0.41844  0.73358  0.06110  Biso   1.000  C
  C342     1.0000 0.58164  0.73358  0.93890  Biso   1.000  C
  H279     1.0000 0.85882  0.06444  0.01636  Biso   1.000  H
  H280     1.0000 0.92640  0.07700  0.05838  Biso   1.000  H
  H281     1.0000 0.90682  0.14092  0.02563  Biso   1.000  H
  H282     1.0000 0.85882  0.06444  0.01633  Biso   1.000  H
  C343     1.0000 0.80320  0.01208  0.10880  Biso   1.000  C
  C344     1.0000 0.66758  0.10271  0.12339  Biso   1.000  C
  H283     1.0000 0.61714  0.30998  0.06931  Biso   1.000  H
  H284     1.0000 0.51482  0.26488  0.07525  Biso   1.000  H
  H285     1.0000 0.57227  0.26541  0.02996  Biso   1.000  H
  H286     1.0000 0.51482  0.26488  0.07522  Biso   1.000  H
  C345     1.0000 0.75688  0.77969  0.98861  Biso   1.000  C
  C346     1.0000 0.75688  0.77969  0.98858  Biso   1.000  C
  H287     1.0000 0.85882  0.93556  0.98364  Biso   1.000  H
  H288     1.0000 0.92640  0.92300  0.94162  Biso   1.000  H
  H289     1.0000 0.90682  0.85908  0.97437  Biso   1.000  H
  H290     1.0000 0.90682  0.85913  0.97437  Biso   1.000  H
  H291     1.0000 0.66522  0.92374  0.81252  Biso   1.000  H
  H292     1.0000 0.65973  0.99147  0.84335  Biso   1.000  H
  H293     1.0000 0.56114  0.94282  0.83664  Biso   1.000  H
  C347     1.0000 0.33242  0.89729  0.12339  Biso   1.000  C
  H294     1.0000 0.14118  0.93556  0.01636  Biso   1.000  H
  H295     1.0000 0.07360  0.92300  0.05838  Biso   1.000  H
  H296     1.0000 0.09318  0.85908  0.02563  Biso   1.000  H
  H297     1.0000 0.14118  0.93556  0.01633  Biso   1.000  H
  H298     1.0000 0.09318  0.85913  0.02563  Biso   1.000  H
  C348     1.0000 0.48442  0.81912  0.13340  Biso   1.000  C
  H299     1.0000 0.38286  0.69002  0.06931  Biso   1.000  H
  H300     1.0000 0.48518  0.73512  0.07525  Biso   1.000  H
  H301     1.0000 0.42773  0.73459  0.02996  Biso   1.000  H
  H302     1.0000 0.48518  0.73512  0.07522  Biso   1.000  H
  H303     1.0000 0.61714  0.69002  0.93069  Biso   1.000  H
  H304     1.0000 0.51482  0.73512  0.92475  Biso   1.000  H
  H305     1.0000 0.57227  0.73459  0.97004  Biso   1.000  H
  C349     1.0000 0.80663  0.95622  0.07900  Biso   1.000  C
  C350     1.0000 0.85669  0.00228  0.14729  Biso   1.000  C
  C351     1.0000 0.63558  0.05708  0.16098  Biso   1.000  C
  C352     1.0000 0.63558  0.05713  0.16098  Biso   1.000  C
  C353     1.0000 0.84114  0.73380  0.99019  Biso   1.000  C
  C354     1.0000 0.69691  0.78510  0.02531  Biso   1.000  C
  C355     1.0000 0.36442  0.94292  0.16098  Biso   1.000  C
  C356     1.0000 0.49478  0.75632  0.15669  Biso   1.000  C
  C357     1.0000 0.56884  0.86422  0.13208  Biso   1.000  C
  C358     1.0000 0.86324  0.89782  0.08651  Biso   1.000  C
  H306     1.0000 0.76830  0.95951  0.05324  Biso   1.000  H
  H307     1.0000 0.76830  0.95956  0.05324  Biso   1.000  H
  C359     1.0000 0.91131  0.93948  0.15489  Biso   1.000  C
  C360     1.0000 0.91131  0.93953  0.15489  Biso   1.000  C
  H308     1.0000 0.85592  0.03842  0.16852  Biso   1.000  H
  H309     1.0000 0.66522  0.07626  0.18748  Biso   1.000  H
  H310     1.0000 0.65973  0.00853  0.15665  Biso   1.000  H
  H311     1.0000 0.56114  0.05718  0.16336  Biso   1.000  H
  H312     1.0000 0.88510  0.72940  0.96613  Biso   1.000  H
  H313     1.0000 0.88510  0.72940  0.96610  Biso   1.000  H
  C361     1.0000 0.85912  0.69622  0.02569  Biso   1.000  C
  C362     1.0000 0.71688  0.74641  0.06130  Biso   1.000  C
  H314     1.0000 0.64046  0.81652  0.02524  Biso   1.000  H
  H315     1.0000 0.64046  0.81658  0.02524  Biso   1.000  H
  H316     1.0000 0.33478  0.92374  0.18748  Biso   1.000  H
  H317     1.0000 0.34027  0.99147  0.15665  Biso   1.000  H
  H318     1.0000 0.43886  0.94282  0.16336  Biso   1.000  H
  C363     1.0000 0.58270  0.74031  0.17869  Biso   1.000  C
  H319     1.0000 0.43962  0.72378  0.15736  Biso   1.000  H
  C364     1.0000 0.65608  0.84938  0.15601  Biso   1.000  C
  C365     1.0000 0.65608  0.84938  0.15598  Biso   1.000  C
  H320     1.0000 0.56678  0.90545  0.11464  Biso   1.000  H
  C366     1.0000 0.91832  0.88860  0.12381  Biso   1.000  C
  H321     1.0000 0.86530  0.86168  0.06524  Biso   1.000  H
  H322     1.0000 0.94362  0.93238  0.18180  Biso   1.000  H
  C367     1.0000 0.80084  0.70157  0.06271  Biso   1.000  C
  H323     1.0000 0.91482  0.66405  0.02569  Biso   1.000  H
  C368     1.0000 0.80084  0.70163  0.06271  Biso   1.000  C
  H324     1.0000 0.91482  0.66411  0.02569  Biso   1.000  H
  H325     1.0000 0.67314  0.75017  0.08545  Biso   1.000  H
  C369     1.0000 0.66377  0.78669  0.17911  Biso   1.000  C
  H326     1.0000 0.58758  0.69665  0.19376  Biso   1.000  H
  H327     1.0000 0.71070  0.88245  0.15656  Biso   1.000  H
  H328     1.0000 0.71070  0.88245  0.15653  Biso   1.000  H
  C370     1.0000 0.98339  0.82500  0.12990  Biso   1.000  C
  C371     1.0000 0.81844  0.65859  0.10171  Biso   1.000  C
  C372     1.0000 0.75688  0.77482  0.20371  Biso   1.000  C
  H329     1.0000 0.97897  0.78817  0.10915  Biso   1.000  H
  N40      1.0000 0.04381  0.81690  0.16054  Biso   1.000  N
  N41      1.0000 0.89349  0.61768  0.10671  Biso   1.000  N
  H330     1.0000 0.77013  0.66199  0.12429  Biso   1.000  H
  N42      1.0000 0.89349  0.61768  0.10668  Biso   1.000  N
  H331     1.0000 0.77013  0.66199  0.12426  Biso   1.000  H
  H332     1.0000 0.77013  0.66204  0.12429  Biso   1.000  H
  H333     1.0000 0.77013  0.66204  0.12426  Biso   1.000  H
  N43      1.0000 0.76899  0.72102  0.22844  Biso   1.000  N
  H334     1.0000 0.81074  0.80826  0.20124  Biso   1.000  H
  C373     1.0000 0.10331  0.75129  0.16140  Biso   1.000  C
  C374     1.0000 0.90309  0.58042  0.14581  Biso   1.000  C
  C375     1.0000 0.90309  0.58042  0.14578  Biso   1.000  C
  C376     1.0000 0.86750  0.71488  0.25121  Biso   1.000  C
  C377     1.0000 0.86750  0.71493  0.25121  Biso   1.000  C
  C378     1.0000 0.07642  0.70772  0.20060  Biso   1.000  C
  H335     1.0000 0.17691  0.76284  0.16195  Biso   1.000  H
  H336     1.0000 0.08937  0.72341  0.13520  Biso   1.000  H
  C379     1.0000 0.99771  0.60268  0.16990  Biso   1.000  C
  H337     1.0000 0.90636  0.52886  0.13988  Biso   1.000  H
  H338     1.0000 0.84244  0.58938  0.16384  Biso   1.000  H
  C380     1.0000 0.93051  0.65351  0.23460  Biso   1.000  C
  H339     1.0000 0.85455  0.70809  0.28226  Biso   1.000  H
  H340     1.0000 0.90636  0.75945  0.24768  Biso   1.000  H
  N44      1.0000 0.97943  0.66882  0.19351  Biso   1.000  N
  H341     1.0000 0.13181  0.67354  0.20663  Biso   1.000  H
  H342     1.0000 0.06933  0.73931  0.22581  Biso   1.000  H
  H343     1.0000 0.01768  0.56484  0.19017  Biso   1.000  H
  H344     1.0000 0.05432  0.60968  0.14934  Biso   1.000  H
  H345     1.0000 0.98354  0.64169  0.25599  Biso   1.000  H
  H346     1.0000 0.88594  0.61153  0.23126  Biso   1.000  H
  C381     1.0000 0.36442  0.05713  0.83898  Biso   1.000  C
  C382     1.0000 0.33242  0.10271  0.87661  Biso   1.000  C
  H347     1.0000 0.33478  0.07626  0.81252  Biso   1.000  H
  H348     1.0000 0.34027  0.00853  0.84335  Biso   1.000  H
  H349     1.0000 0.43886  0.05718  0.83664  Biso   1.000  H
  C383     1.0000 0.38910  0.16201  0.88950  Biso   1.000  C
  C384     1.0000 0.25143  0.07812  0.90131  Biso   1.000  C
  C385     1.0000 0.36442  0.05708  0.83902  Biso   1.000  C
  C386     1.0000 0.36442  0.05708  0.83898  Biso   1.000  C
  C387     1.0000 0.36442  0.05713  0.83902  Biso   1.000  C
  C388     1.0000 0.48442  0.18088  0.86660  Biso   1.000  C
  C389     1.0000 0.48442  0.18093  0.86660  Biso   1.000  C
  C390     1.0000 0.35611  0.20282  0.92511  Biso   1.000  C
  C391     1.0000 0.21699  0.11893  0.93672  Biso   1.000  C
  C392     1.0000 0.21699  0.11893  0.93668  Biso   1.000  C
  C393     1.0000 0.19680  0.01208  0.89120  Biso   1.000  C
  C394     1.0000 0.49478  0.24368  0.84331  Biso   1.000  C
  C395     1.0000 0.49478  0.24368  0.84328  Biso   1.000  C
  C396     1.0000 0.56884  0.13578  0.86792  Biso   1.000  C
  C397     1.0000 0.56884  0.13578  0.86788  Biso   1.000  C
  C398     1.0000 0.56884  0.13583  0.86792  Biso   1.000  C
  C399     1.0000 0.56884  0.13583  0.86788  Biso   1.000  C
  C400     1.0000 0.27070  0.18061  0.94961  Biso   1.000  C
  C401     1.0000 0.41844  0.26642  0.93890  Biso   1.000  C
  C402     1.0000 0.12312  0.09857  0.96119  Biso   1.000  C
  C403     1.0000 0.12312  0.09863  0.96119  Biso   1.000  C
  C404     1.0000 0.14331  0.00228  0.85271  Biso   1.000  C
  C405     1.0000 0.19337  0.95622  0.92100  Biso   1.000  C
  C406     1.0000 0.58270  0.25969  0.82131  Biso   1.000  C
  H350     1.0000 0.43962  0.27622  0.84264  Biso   1.000  H
  C407     1.0000 0.65608  0.15062  0.84399  Biso   1.000  C
  H351     1.0000 0.56678  0.09455  0.88536  Biso   1.000  H
  C408     1.0000 0.24312  0.22031  0.98861  Biso   1.000  C
  C409     1.0000 0.24312  0.22031  0.98858  Biso   1.000  C
  H352     1.0000 0.38286  0.30998  0.93069  Biso   1.000  H
  H353     1.0000 0.48518  0.26488  0.92475  Biso   1.000  H
  H354     1.0000 0.42773  0.26541  0.97004  Biso   1.000  H
  H355     1.0000 0.14118  0.06444  0.98364  Biso   1.000  H
  H356     1.0000 0.07360  0.07700  0.94162  Biso   1.000  H
  H357     1.0000 0.09318  0.14092  0.97437  Biso   1.000  H
  H358     1.0000 0.14408  0.03842  0.83148  Biso   1.000  H
  C410     1.0000 0.08869  0.93948  0.84511  Biso   1.000  C
  C411     1.0000 0.08869  0.93953  0.84511  Biso   1.000  C
  C412     1.0000 0.13684  0.89782  0.91349  Biso   1.000  C
  H359     1.0000 0.23177  0.95951  0.94676  Biso   1.000  H
  H360     1.0000 0.23177  0.95956  0.94676  Biso   1.000  H
  C413     1.0000 0.66377  0.21331  0.82089  Biso   1.000  C
  H361     1.0000 0.58758  0.30335  0.80624  Biso   1.000  H
  H362     1.0000 0.58758  0.30335  0.80620  Biso   1.000  H
  H363     1.0000 0.71070  0.11755  0.84344  Biso   1.000  H
  C414     1.0000 0.15893  0.26620  0.99019  Biso   1.000  C
  C415     1.0000 0.30309  0.21490  0.02531  Biso   1.000  C
  C416     1.0000 0.08168  0.88860  0.87619  Biso   1.000  C
  H364     1.0000 0.05638  0.93238  0.81820  Biso   1.000  H
  H365     1.0000 0.13470  0.86168  0.93476  Biso   1.000  H
  H366     1.0000 0.13470  0.86168  0.93473  Biso   1.000  H
  C417     1.0000 0.75688  0.22518  0.79629  Biso   1.000  C
  H367     1.0000 0.11490  0.27060  0.96613  Biso   1.000  H
  H368     1.0000 0.11490  0.27060  0.96610  Biso   1.000  H
  C418     1.0000 0.14088  0.30378  0.02569  Biso   1.000  C
  C419     1.0000 0.14088  0.30383  0.02569  Biso   1.000  C
  C420     1.0000 0.28312  0.25359  0.06130  Biso   1.000  C
  H369     1.0000 0.35954  0.18348  0.02524  Biso   1.000  H
  C421     1.0000 0.01661  0.82500  0.87010  Biso   1.000  C
  N45      1.0000 0.76899  0.27898  0.77156  Biso   1.000  N
  N46      1.0000 0.76899  0.27903  0.77156  Biso   1.000  N
  H370     1.0000 0.81074  0.19174  0.79876  Biso   1.000  H
  C422     1.0000 0.19924  0.29843  0.06271  Biso   1.000  C
  H371     1.0000 0.08518  0.33595  0.02569  Biso   1.000  H
  H372     1.0000 0.32686  0.24983  0.08545  Biso   1.000  H
  N47      1.0000 0.95619  0.81690  0.83946  Biso   1.000  N
  H373     1.0000 0.02103  0.78817  0.89085  Biso   1.000  H
  H374     1.0000 0.02103  0.78817  0.89082  Biso   1.000  H
  C423     1.0000 0.86750  0.28512  0.74879  Biso   1.000  C
  C424     1.0000 0.18164  0.34141  0.10171  Biso   1.000  C
  C425     1.0000 0.89669  0.75129  0.83860  Biso   1.000  C
  C426     1.0000 0.93051  0.34649  0.76540  Biso   1.000  C
  H375     1.0000 0.85455  0.29191  0.71774  Biso   1.000  H
  H376     1.0000 0.90636  0.24055  0.75232  Biso   1.000  H
  N48      1.0000 0.10651  0.38232  0.10671  Biso   1.000  N
  H377     1.0000 0.22987  0.33801  0.12429  Biso   1.000  H
  N49      1.0000 0.10651  0.38232  0.10668  Biso   1.000  N
  H378     1.0000 0.22987  0.33801  0.12426  Biso   1.000  H
  C427     1.0000 0.92358  0.70772  0.79940  Biso   1.000  C
  H379     1.0000 0.82309  0.76284  0.83805  Biso   1.000  H
  H380     1.0000 0.91063  0.72341  0.86480  Biso   1.000  H
  H381     1.0000 0.98354  0.35831  0.74401  Biso   1.000  H
  H382     1.0000 0.88594  0.38847  0.76874  Biso   1.000  H
  N50      1.0000 0.97943  0.33118  0.80649  Biso   1.000  N
  N51      1.0000 0.97943  0.33123  0.80649  Biso   1.000  N
  C428     1.0000 0.09691  0.41958  0.14581  Biso   1.000  C
  C429     1.0000 0.09691  0.41958  0.14578  Biso   1.000  C
  C430     1.0000 0.09691  0.41963  0.14581  Biso   1.000  C
  C431     1.0000 0.09691  0.41963  0.14578  Biso   1.000  C
  H383     1.0000 0.86819  0.67354  0.79337  Biso   1.000  H
  H384     1.0000 0.93074  0.73931  0.77419  Biso   1.000  H
  H385     1.0000 0.86819  0.67354  0.79334  Biso   1.000  H
  N52      1.0000 0.02057  0.66882  0.80649  Biso   1.000  N
  C432     1.0000 0.99771  0.39732  0.83010  Biso   1.000  C
  C433     1.0000 0.07642  0.29228  0.79940  Biso   1.000  C
  C434     1.0000 0.07642  0.29233  0.79940  Biso   1.000  C
  C435     1.0000 0.00229  0.39732  0.16990  Biso   1.000  C
  H386     1.0000 0.09364  0.47114  0.13988  Biso   1.000  H
  H387     1.0000 0.15756  0.41062  0.16384  Biso   1.000  H
  C436     1.0000 0.00229  0.60268  0.83010  Biso   1.000  C
  C437     1.0000 0.06949  0.65351  0.76540  Biso   1.000  C
  C438     1.0000 0.90309  0.41958  0.85419  Biso   1.000  C
  C439     1.0000 0.90309  0.41963  0.85419  Biso   1.000  C
  H388     1.0000 0.01768  0.43516  0.80983  Biso   1.000  H
  H389     1.0000 0.05432  0.39032  0.85066  Biso   1.000  H
  H390     1.0000 0.13181  0.32646  0.79337  Biso   1.000  H
  H391     1.0000 0.06933  0.26069  0.77419  Biso   1.000  H
  C440     1.0000 0.10331  0.24871  0.83860  Biso   1.000  C
  H392     1.0000 0.13181  0.32646  0.79334  Biso   1.000  H
  H393     1.0000 0.98240  0.43516  0.19017  Biso   1.000  H
  H394     1.0000 0.94568  0.39032  0.14934  Biso   1.000  H
  N53      1.0000 0.02057  0.33118  0.19351  Biso   1.000  N
  N54      1.0000 0.02057  0.33123  0.19351  Biso   1.000  N
  H395     1.0000 0.98240  0.56484  0.80983  Biso   1.000  H
  H396     1.0000 0.94568  0.60968  0.85066  Biso   1.000  H
  C441     1.0000 0.09691  0.58042  0.85419  Biso   1.000  C
  C442     1.0000 0.13250  0.71488  0.74879  Biso   1.000  C
  C443     1.0000 0.13250  0.71493  0.74879  Biso   1.000  C
  H397     1.0000 0.01646  0.64169  0.74401  Biso   1.000  H
  H398     1.0000 0.11406  0.61153  0.76874  Biso   1.000  H
  N55      1.0000 0.89349  0.38232  0.89329  Biso   1.000  N
  H399     1.0000 0.90636  0.47114  0.86012  Biso   1.000  H
  H400     1.0000 0.84244  0.41062  0.83616  Biso   1.000  H
  N56      1.0000 0.04381  0.18310  0.83946  Biso   1.000  N
  H401     1.0000 0.17691  0.23716  0.83805  Biso   1.000  H
  H402     1.0000 0.08937  0.27659  0.86480  Biso   1.000  H
  C444     1.0000 0.92358  0.29228  0.20060  Biso   1.000  C
  C445     1.0000 0.92358  0.29233  0.20060  Biso   1.000  C
  C446     1.0000 0.06949  0.34649  0.23460  Biso   1.000  C
  N57      1.0000 0.10651  0.61768  0.89329  Biso   1.000  N
  H403     1.0000 0.09364  0.52886  0.86012  Biso   1.000  H
  H404     1.0000 0.15756  0.58938  0.83616  Biso   1.000  H
  N58      1.0000 0.23101  0.72102  0.77156  Biso   1.000  N
  H405     1.0000 0.14545  0.70809  0.71774  Biso   1.000  H
  H406     1.0000 0.09364  0.75945  0.75232  Biso   1.000  H
  C447     1.0000 0.81844  0.34141  0.89829  Biso   1.000  C
  C448     1.0000 0.98339  0.17500  0.87010  Biso   1.000  C
  H407     1.0000 0.86819  0.32646  0.20663  Biso   1.000  H
  H408     1.0000 0.93074  0.26069  0.22581  Biso   1.000  H
  C449     1.0000 0.89669  0.24871  0.16140  Biso   1.000  C
  C450     1.0000 0.13250  0.28512  0.25121  Biso   1.000  C
  H409     1.0000 0.01646  0.35831  0.25599  Biso   1.000  H
  H410     1.0000 0.11406  0.38847  0.23126  Biso   1.000  H
  C451     1.0000 0.18164  0.65859  0.89829  Biso   1.000  C
  C452     1.0000 0.24312  0.77482  0.79629  Biso   1.000  C
  C453     1.0000 0.80084  0.29843  0.93729  Biso   1.000  C
  H411     1.0000 0.77013  0.33801  0.87571  Biso   1.000  H
  C454     1.0000 0.91832  0.11140  0.87619  Biso   1.000  C
  H412     1.0000 0.97897  0.21183  0.89085  Biso   1.000  H
  H413     1.0000 0.97897  0.21183  0.89082  Biso   1.000  H
  N59      1.0000 0.95619  0.18310  0.16054  Biso   1.000  N
  H414     1.0000 0.82309  0.23716  0.16195  Biso   1.000  H
  H415     1.0000 0.91063  0.27659  0.13520  Biso   1.000  H
  N60      1.0000 0.23101  0.27898  0.22844  Biso   1.000  N
  N61      1.0000 0.23101  0.27903  0.22844  Biso   1.000  N
  H416     1.0000 0.14545  0.29191  0.28226  Biso   1.000  H
  H417     1.0000 0.09364  0.24055  0.24768  Biso   1.000  H
  C455     1.0000 0.19924  0.70157  0.93729  Biso   1.000  C
  H418     1.0000 0.22987  0.66199  0.87571  Biso   1.000  H
  C456     1.0000 0.19924  0.70163  0.93729  Biso   1.000  C
  H419     1.0000 0.22987  0.66204  0.87571  Biso   1.000  H
  C457     1.0000 0.33623  0.78669  0.82089  Biso   1.000  C
  H420     1.0000 0.18926  0.80826  0.79876  Biso   1.000  H
  C458     1.0000 0.71688  0.25359  0.93870  Biso   1.000  C
  C459     1.0000 0.85912  0.30378  0.97431  Biso   1.000  C
  C460     1.0000 0.85912  0.30383  0.97431  Biso   1.000  C
  C461     1.0000 0.91131  0.06052  0.84511  Biso   1.000  C
  C462     1.0000 0.86324  0.10218  0.91349  Biso   1.000  C
  C463     1.0000 0.86324  0.10223  0.91349  Biso   1.000  C
  C464     1.0000 0.01661  0.17500  0.12990  Biso   1.000  C
  C465     1.0000 0.24312  0.22518  0.20371  Biso   1.000  C
  C466     1.0000 0.28312  0.74641  0.93870  Biso   1.000  C
  C467     1.0000 0.14088  0.69622  0.97431  Biso   1.000  C
  C468     1.0000 0.41730  0.74031  0.82131  Biso   1.000  C
  C469     1.0000 0.34392  0.84938  0.84399  Biso   1.000  C
  H421     1.0000 0.67314  0.24983  0.91455  Biso   1.000  H
  C470     1.0000 0.69691  0.21490  0.97469  Biso   1.000  C
  H422     1.0000 0.91482  0.33595  0.97431  Biso   1.000  H
  C471     1.0000 0.84114  0.26620  0.00981  Biso   1.000  C
  C472     1.0000 0.84114  0.26620  0.00978  Biso   1.000  C
  H423     1.0000 0.94362  0.06762  0.81820  Biso   1.000  H
  C473     1.0000 0.85669  0.99772  0.85271  Biso   1.000  C
  H424     1.0000 0.86530  0.13832  0.93476  Biso   1.000  H
  C474     1.0000 0.80663  0.04378  0.92100  Biso   1.000  C
  H425     1.0000 0.86530  0.13832  0.93473  Biso   1.000  H
  C475     1.0000 0.80663  0.04383  0.92100  Biso   1.000  C
  C476     1.0000 0.08168  0.11140  0.12381  Biso   1.000  C
  H426     1.0000 0.02103  0.21183  0.10915  Biso   1.000  H
  C477     1.0000 0.33623  0.21331  0.17911  Biso   1.000  C
  H427     1.0000 0.18926  0.19174  0.20124  Biso   1.000  H
  H428     1.0000 0.32686  0.75017  0.91455  Biso   1.000  H
  C478     1.0000 0.30309  0.78510  0.97469  Biso   1.000  C
  H429     1.0000 0.08518  0.66405  0.97431  Biso   1.000  H
  H430     1.0000 0.08518  0.66411  0.97431  Biso   1.000  H
  C479     1.0000 0.15893  0.73380  0.00981  Biso   1.000  C
  C480     1.0000 0.15893  0.73380  0.00978  Biso   1.000  C
  C481     1.0000 0.50522  0.75632  0.84331  Biso   1.000  C
  C482     1.0000 0.50522  0.75632  0.84328  Biso   1.000  C
  H431     1.0000 0.41242  0.69665  0.80624  Biso   1.000  H
  H432     1.0000 0.41242  0.69665  0.80620  Biso   1.000  H
  C483     1.0000 0.43124  0.86422  0.86792  Biso   1.000  C
  C484     1.0000 0.43124  0.86422  0.86788  Biso   1.000  C
  H433     1.0000 0.28930  0.88245  0.84344  Biso   1.000  H
  H434     1.0000 0.64046  0.18348  0.97476  Biso   1.000  H
  C485     1.0000 0.75688  0.22031  0.01139  Biso   1.000  C
  H435     1.0000 0.88510  0.27060  0.03387  Biso   1.000  H
  C486     1.0000 0.80320  0.98792  0.89120  Biso   1.000  C
  H436     1.0000 0.85592  0.96158  0.83148  Biso   1.000  H
  H437     1.0000 0.76830  0.04049  0.94676  Biso   1.000  H
  C487     1.0000 0.08869  0.06052  0.15489  Biso   1.000  C
  C488     1.0000 0.13684  0.10218  0.08651  Biso   1.000  C
  C489     1.0000 0.13684  0.10223  0.08651  Biso   1.000  C
  C490     1.0000 0.41730  0.25969  0.17869  Biso   1.000  C
  C491     1.0000 0.34392  0.15062  0.15601  Biso   1.000  C
  C492     1.0000 0.34392  0.15062  0.15598  Biso   1.000  C
  H438     1.0000 0.35954  0.81652  0.97476  Biso   1.000  H
  H439     1.0000 0.35954  0.81658  0.97476  Biso   1.000  H
  C493     1.0000 0.24312  0.77969  0.01139  Biso   1.000  C
  H440     1.0000 0.11490  0.72940  0.03387  Biso   1.000  H
  C494     1.0000 0.51558  0.81912  0.86660  Biso   1.000  C
  H441     1.0000 0.56046  0.72378  0.84264  Biso   1.000  H
  H442     1.0000 0.43322  0.90545  0.88536  Biso   1.000  H
  C495     1.0000 0.72930  0.18061  0.05039  Biso   1.000  C
  C496     1.0000 0.74857  0.92188  0.90131  Biso   1.000  C
  C497     1.0000 0.14331  0.99772  0.14729  Biso   1.000  C
  H443     1.0000 0.05638  0.06762  0.18180  Biso   1.000  H
  H444     1.0000 0.13470  0.13832  0.06524  Biso   1.000  H
  C498     1.0000 0.19337  0.04378  0.07900  Biso   1.000  C
  C499     1.0000 0.19337  0.04383  0.07900  Biso   1.000  C
  C500     1.0000 0.50522  0.24368  0.15669  Biso   1.000  C
  H445     1.0000 0.41242  0.30335  0.19376  Biso   1.000  H
  C501     1.0000 0.43124  0.13578  0.13208  Biso   1.000  C
  C502     1.0000 0.43124  0.13583  0.13208  Biso   1.000  C
  H446     1.0000 0.28930  0.11755  0.15656  Biso   1.000  H
  H447     1.0000 0.28930  0.11755  0.15653  Biso   1.000  H
  C503     1.0000 0.27070  0.81939  0.05039  Biso   1.000  C
  C504     1.0000 0.61090  0.83799  0.88950  Biso   1.000  C
  C505     1.0000 0.78301  0.11893  0.06328  Biso   1.000  C
  C506     1.0000 0.64389  0.20282  0.07489  Biso   1.000  C
  C507     1.0000 0.78301  0.88107  0.93672  Biso   1.000  C
  C508     1.0000 0.66758  0.89729  0.87661  Biso   1.000  C
  C509     1.0000 0.78301  0.88107  0.93668  Biso   1.000  C
  C510     1.0000 0.78301  0.88113  0.93672  Biso   1.000  C
  C511     1.0000 0.78301  0.88113  0.93668  Biso   1.000  C
  C512     1.0000 0.19680  0.98792  0.10880  Biso   1.000  C
  H448     1.0000 0.14408  0.96158  0.16852  Biso   1.000  H
  H449     1.0000 0.23177  0.04049  0.05324  Biso   1.000  H
  C513     1.0000 0.51558  0.18088  0.13340  Biso   1.000  C
  C514     1.0000 0.51558  0.18093  0.13340  Biso   1.000  C
  H450     1.0000 0.56046  0.27622  0.15736  Biso   1.000  H
  H451     1.0000 0.43322  0.09455  0.11464  Biso   1.000  H
  C515     1.0000 0.21699  0.88107  0.06328  Biso   1.000  C
  C516     1.0000 0.21699  0.88113  0.06328  Biso   1.000  C
  C517     1.0000 0.35611  0.79718  0.07489  Biso   1.000  C
  C518     1.0000 0.64389  0.79718  0.92511  Biso   1.000  C
  C519     1.0000 0.87688  0.09857  0.03881  Biso   1.000  C
  C520     1.0000 0.74857  0.07812  0.09869  Biso   1.000  C
  C521     1.0000 0.87688  0.09863  0.03881  Biso   1.000  C
  C522     1.0000 0.61090  0.16201  0.11050  Biso   1.000  C
  C523     1.0000 0.58164  0.26642  0.06110  Biso   1.000  C
  C524     1.0000 0.72930  0.81939  0.94961  Biso   1.000  C
  C525     1.0000 0.87688  0.90143  0.96119  Biso   1.000  C
  C526     1.0000 0.63558  0.94292  0.83902  Biso   1.000  C
  C527     1.0000 0.63558  0.94292  0.83898  Biso   1.000  C
  C528     1.0000 0.25143  0.92188  0.09869  Biso   1.000  C
  C529     1.0000 0.12312  0.90143  0.03881  Biso   1.000  C
  C530     1.0000 0.38910  0.83799  0.11050  Biso   1.000  C
  C531     1.0000 0.41844  0.73358  0.06110  Biso   1.000  C
  C532     1.0000 0.58164  0.73358  0.93890  Biso   1.000  C
  H452     1.0000 0.85882  0.06444  0.01636  Biso   1.000  H
  H453     1.0000 0.92640  0.07700  0.05838  Biso   1.000  H
  H454     1.0000 0.90682  0.14092  0.02563  Biso   1.000  H
  H455     1.0000 0.85882  0.06444  0.01633  Biso   1.000  H
  C533     1.0000 0.80320  0.01208  0.10880  Biso   1.000  C
  C534     1.0000 0.66758  0.10271  0.12339  Biso   1.000  C
  H456     1.0000 0.61714  0.30998  0.06931  Biso   1.000  H
  H457     1.0000 0.51482  0.26488  0.07525  Biso   1.000  H
  H458     1.0000 0.57227  0.26541  0.02996  Biso   1.000  H
  H459     1.0000 0.51482  0.26488  0.07522  Biso   1.000  H
  C535     1.0000 0.75688  0.77969  0.98861  Biso   1.000  C
  C536     1.0000 0.75688  0.77969  0.98858  Biso   1.000  C
  H460     1.0000 0.85882  0.93556  0.98364  Biso   1.000  H
  H461     1.0000 0.92640  0.92300  0.94162  Biso   1.000  H
  H462     1.0000 0.90682  0.85908  0.97437  Biso   1.000  H
  H463     1.0000 0.90682  0.85913  0.97437  Biso   1.000  H
  H464     1.0000 0.66522  0.92374  0.81252  Biso   1.000  H
  H465     1.0000 0.65973  0.99147  0.84335  Biso   1.000  H
  H466     1.0000 0.56114  0.94282  0.83664  Biso   1.000  H
  C537     1.0000 0.33242  0.89729  0.12339  Biso   1.000  C
  H467     1.0000 0.14118  0.93556  0.01636  Biso   1.000  H
  H468     1.0000 0.07360  0.92300  0.05838  Biso   1.000  H
  H469     1.0000 0.09318  0.85908  0.02563  Biso   1.000  H
  H470     1.0000 0.14118  0.93556  0.01633  Biso   1.000  H
  H471     1.0000 0.09318  0.85913  0.02563  Biso   1.000  H
  C538     1.0000 0.48442  0.81912  0.13340  Biso   1.000  C
  H472     1.0000 0.38286  0.69002  0.06931  Biso   1.000  H
  H473     1.0000 0.48518  0.73512  0.07525  Biso   1.000  H
  H474     1.0000 0.42773  0.73459  0.02996  Biso   1.000  H
  H475     1.0000 0.48518  0.73512  0.07522  Biso   1.000  H
  H476     1.0000 0.61714  0.69002  0.93069  Biso   1.000  H
  H477     1.0000 0.51482  0.73512  0.92475  Biso   1.000  H
  H478     1.0000 0.57227  0.73459  0.97004  Biso   1.000  H
  C539     1.0000 0.80663  0.95622  0.07900  Biso   1.000  C
  C540     1.0000 0.85669  0.00228  0.14729  Biso   1.000  C
  C541     1.0000 0.63558  0.05708  0.16098  Biso   1.000  C
  C542     1.0000 0.63558  0.05713  0.16098  Biso   1.000  C
  C543     1.0000 0.84114  0.73380  0.99019  Biso   1.000  C
  C544     1.0000 0.69691  0.78510  0.02531  Biso   1.000  C
  C545     1.0000 0.36442  0.94292  0.16098  Biso   1.000  C
  C546     1.0000 0.49478  0.75632  0.15669  Biso   1.000  C
  C547     1.0000 0.56884  0.86422  0.13208  Biso   1.000  C
  C548     1.0000 0.86324  0.89782  0.08651  Biso   1.000  C
  H479     1.0000 0.76830  0.95951  0.05324  Biso   1.000  H
  H480     1.0000 0.76830  0.95956  0.05324  Biso   1.000  H
  C549     1.0000 0.91131  0.93948  0.15489  Biso   1.000  C
  C550     1.0000 0.91131  0.93953  0.15489  Biso   1.000  C
  H481     1.0000 0.85592  0.03842  0.16852  Biso   1.000  H
  H482     1.0000 0.66522  0.07626  0.18748  Biso   1.000  H
  H483     1.0000 0.65973  0.00853  0.15665  Biso   1.000  H
  H484     1.0000 0.56114  0.05718  0.16336  Biso   1.000  H
  H485     1.0000 0.88510  0.72940  0.96613  Biso   1.000  H
  H486     1.0000 0.88510  0.72940  0.96610  Biso   1.000  H
  C551     1.0000 0.85912  0.69622  0.02569  Biso   1.000  C
  C552     1.0000 0.71688  0.74641  0.06130  Biso   1.000  C
  H487     1.0000 0.64046  0.81652  0.02524  Biso   1.000  H
  H488     1.0000 0.64046  0.81658  0.02524  Biso   1.000  H
  H489     1.0000 0.33478  0.92374  0.18748  Biso   1.000  H
  H490     1.0000 0.34027  0.99147  0.15665  Biso   1.000  H
  H491     1.0000 0.43886  0.94282  0.16336  Biso   1.000  H
  C553     1.0000 0.58270  0.74031  0.17869  Biso   1.000  C
  H492     1.0000 0.43962  0.72378  0.15736  Biso   1.000  H
  C554     1.0000 0.65608  0.84938  0.15601  Biso   1.000  C
  C555     1.0000 0.65608  0.84938  0.15598  Biso   1.000  C
  H493     1.0000 0.56678  0.90545  0.11464  Biso   1.000  H
  C556     1.0000 0.91832  0.88860  0.12381  Biso   1.000  C
  H494     1.0000 0.86530  0.86168  0.06524  Biso   1.000  H
  H495     1.0000 0.94362  0.93238  0.18180  Biso   1.000  H
  C557     1.0000 0.80084  0.70157  0.06271  Biso   1.000  C
  H496     1.0000 0.91482  0.66405  0.02569  Biso   1.000  H
  C558     1.0000 0.80084  0.70163  0.06271  Biso   1.000  C
  H497     1.0000 0.91482  0.66411  0.02569  Biso   1.000  H
  H498     1.0000 0.67314  0.75017  0.08545  Biso   1.000  H
  C559     1.0000 0.66377  0.78669  0.17911  Biso   1.000  C
  H499     1.0000 0.58758  0.69665  0.19376  Biso   1.000  H
  H500     1.0000 0.71070  0.88245  0.15656  Biso   1.000  H
  H501     1.0000 0.71070  0.88245  0.15653  Biso   1.000  H
  C560     1.0000 0.98339  0.82500  0.12990  Biso   1.000  C
  C561     1.0000 0.81844  0.65859  0.10171  Biso   1.000  C
  C562     1.0000 0.75688  0.77482  0.20371  Biso   1.000  C
  H502     1.0000 0.97897  0.78817  0.10915  Biso   1.000  H
  N62      1.0000 0.04381  0.81690  0.16054  Biso   1.000  N
  N63      1.0000 0.89349  0.61768  0.10671  Biso   1.000  N
  H503     1.0000 0.77013  0.66199  0.12429  Biso   1.000  H
  N64      1.0000 0.89349  0.61768  0.10668  Biso   1.000  N
  H504     1.0000 0.77013  0.66199  0.12426  Biso   1.000  H
  H505     1.0000 0.77013  0.66204  0.12429  Biso   1.000  H
  H506     1.0000 0.77013  0.66204  0.12426  Biso   1.000  H
  N65      1.0000 0.76899  0.72102  0.22844  Biso   1.000  N
  H507     1.0000 0.81074  0.80826  0.20124  Biso   1.000  H
  C563     1.0000 0.10331  0.75129  0.16140  Biso   1.000  C
  C564     1.0000 0.90309  0.58042  0.14581  Biso   1.000  C
  C565     1.0000 0.90309  0.58042  0.14578  Biso   1.000  C
  C566     1.0000 0.86750  0.71488  0.25121  Biso   1.000  C
  C567     1.0000 0.86750  0.71493  0.25121  Biso   1.000  C
  C568     1.0000 0.07642  0.70772  0.20060  Biso   1.000  C
  H508     1.0000 0.17691  0.76284  0.16195  Biso   1.000  H
  H509     1.0000 0.08937  0.72341  0.13520  Biso   1.000  H
  C569     1.0000 0.99771  0.60268  0.16990  Biso   1.000  C
  H510     1.0000 0.90636  0.52886  0.13988  Biso   1.000  H
  H511     1.0000 0.84244  0.58938  0.16384  Biso   1.000  H
  C570     1.0000 0.93051  0.65351  0.23460  Biso   1.000  C
  H512     1.0000 0.85455  0.70809  0.28226  Biso   1.000  H
  H513     1.0000 0.90636  0.75945  0.24768  Biso   1.000  H
  N66      1.0000 0.97943  0.66882  0.19351  Biso   1.000  N
  H514     1.0000 0.13181  0.67354  0.20663  Biso   1.000  H
  H515     1.0000 0.06933  0.73931  0.22581  Biso   1.000  H
  H516     1.0000 0.01768  0.56484  0.19017  Biso   1.000  H
  H517     1.0000 0.05432  0.60968  0.14934  Biso   1.000  H
  H518     1.0000 0.98354  0.64169  0.25599  Biso   1.000  H
  H519     1.0000 0.88594  0.61153  0.23126  Biso   1.000  H
  C571     1.0000 0.36442  0.05713  0.83898  Biso   1.000  C
  C572     1.0000 0.33242  0.10271  0.87661  Biso   1.000  C
  H520     1.0000 0.33478  0.07626  0.81252  Biso   1.000  H
  H521     1.0000 0.34027  0.00853  0.84335  Biso   1.000  H
  H522     1.0000 0.43886  0.05718  0.83664  Biso   1.000  H
  C573     1.0000 0.38910  0.16201  0.88950  Biso   1.000  C
  C574     1.0000 0.25143  0.07812  0.90131  Biso   1.000  C
  C575     1.0000 0.36442  0.05708  0.83902  Biso   1.000  C
  C576     1.0000 0.36442  0.05708  0.83898  Biso   1.000  C
  C577     1.0000 0.36442  0.05713  0.83902  Biso   1.000  C
  C578     1.0000 0.48442  0.18088  0.86660  Biso   1.000  C
  C579     1.0000 0.48442  0.18093  0.86660  Biso   1.000  C
  C580     1.0000 0.35611  0.20282  0.92511  Biso   1.000  C
  C581     1.0000 0.21699  0.11893  0.93672  Biso   1.000  C
  C582     1.0000 0.21699  0.11893  0.93668  Biso   1.000  C
  C583     1.0000 0.19680  0.01208  0.89120  Biso   1.000  C
  C584     1.0000 0.49478  0.24368  0.84331  Biso   1.000  C
  C585     1.0000 0.49478  0.24368  0.84328  Biso   1.000  C
  C586     1.0000 0.56884  0.13578  0.86792  Biso   1.000  C
  C587     1.0000 0.56884  0.13578  0.86788  Biso   1.000  C
  C588     1.0000 0.56884  0.13583  0.86792  Biso   1.000  C
  C589     1.0000 0.56884  0.13583  0.86788  Biso   1.000  C
  C590     1.0000 0.27070  0.18061  0.94961  Biso   1.000  C
  C591     1.0000 0.41844  0.26642  0.93890  Biso   1.000  C
  C592     1.0000 0.12312  0.09857  0.96119  Biso   1.000  C
  C593     1.0000 0.12312  0.09863  0.96119  Biso   1.000  C
  C594     1.0000 0.14331  0.00228  0.85271  Biso   1.000  C
  C595     1.0000 0.19337  0.95622  0.92100  Biso   1.000  C
  C596     1.0000 0.58270  0.25969  0.82131  Biso   1.000  C
  H523     1.0000 0.43962  0.27622  0.84264  Biso   1.000  H
  C597     1.0000 0.65608  0.15062  0.84399  Biso   1.000  C
  H524     1.0000 0.56678  0.09455  0.88536  Biso   1.000  H
  C598     1.0000 0.24312  0.22031  0.98861  Biso   1.000  C
  C599     1.0000 0.24312  0.22031  0.98858  Biso   1.000  C
  H525     1.0000 0.38286  0.30998  0.93069  Biso   1.000  H
  H526     1.0000 0.48518  0.26488  0.92475  Biso   1.000  H
  H527     1.0000 0.42773  0.26541  0.97004  Biso   1.000  H
  H528     1.0000 0.14118  0.06444  0.98364  Biso   1.000  H
  H529     1.0000 0.07360  0.07700  0.94162  Biso   1.000  H
  H530     1.0000 0.09318  0.14092  0.97437  Biso   1.000  H
  H531     1.0000 0.14408  0.03842  0.83148  Biso   1.000  H
  C600     1.0000 0.08869  0.93948  0.84511  Biso   1.000  C
  C601     1.0000 0.08869  0.93953  0.84511  Biso   1.000  C
  C602     1.0000 0.13684  0.89782  0.91349  Biso   1.000  C
  H532     1.0000 0.23177  0.95951  0.94676  Biso   1.000  H
  H533     1.0000 0.23177  0.95956  0.94676  Biso   1.000  H
  C603     1.0000 0.66377  0.21331  0.82089  Biso   1.000  C
  H534     1.0000 0.58758  0.30335  0.80624  Biso   1.000  H
  H535     1.0000 0.58758  0.30335  0.80620  Biso   1.000  H
  H536     1.0000 0.71070  0.11755  0.84344  Biso   1.000  H
  C604     1.0000 0.15893  0.26620  0.99019  Biso   1.000  C
  C605     1.0000 0.30309  0.21490  0.02531  Biso   1.000  C
  C606     1.0000 0.08168  0.88860  0.87619  Biso   1.000  C
  H537     1.0000 0.05638  0.93238  0.81820  Biso   1.000  H
  H538     1.0000 0.13470  0.86168  0.93476  Biso   1.000  H
  H539     1.0000 0.13470  0.86168  0.93473  Biso   1.000  H
  C607     1.0000 0.75688  0.22518  0.79629  Biso   1.000  C
  H540     1.0000 0.11490  0.27060  0.96613  Biso   1.000  H
  H541     1.0000 0.11490  0.27060  0.96610  Biso   1.000  H
  C608     1.0000 0.14088  0.30378  0.02569  Biso   1.000  C
  C609     1.0000 0.14088  0.30383  0.02569  Biso   1.000  C
  C610     1.0000 0.28312  0.25359  0.06130  Biso   1.000  C
  H542     1.0000 0.35954  0.18348  0.02524  Biso   1.000  H
  C611     1.0000 0.01661  0.82500  0.87010  Biso   1.000  C
  N67      1.0000 0.76899  0.27898  0.77156  Biso   1.000  N
  N68      1.0000 0.76899  0.27903  0.77156  Biso   1.000  N
  H543     1.0000 0.81074  0.19174  0.79876  Biso   1.000  H
  C612     1.0000 0.19924  0.29843  0.06271  Biso   1.000  C
  H544     1.0000 0.08518  0.33595  0.02569  Biso   1.000  H
  H545     1.0000 0.32686  0.24983  0.08545  Biso   1.000  H
  N69      1.0000 0.95619  0.81690  0.83946  Biso   1.000  N
  H546     1.0000 0.02103  0.78817  0.89085  Biso   1.000  H
  H547     1.0000 0.02103  0.78817  0.89082  Biso   1.000  H
  C613     1.0000 0.86750  0.28512  0.74879  Biso   1.000  C
  C614     1.0000 0.18164  0.34141  0.10171  Biso   1.000  C
  C615     1.0000 0.89669  0.75129  0.83860  Biso   1.000  C
  C616     1.0000 0.93051  0.34649  0.76540  Biso   1.000  C
  H548     1.0000 0.85455  0.29191  0.71774  Biso   1.000  H
  H549     1.0000 0.90636  0.24055  0.75232  Biso   1.000  H
  N70      1.0000 0.10651  0.38232  0.10671  Biso   1.000  N
  H550     1.0000 0.22987  0.33801  0.12429  Biso   1.000  H
  N71      1.0000 0.10651  0.38232  0.10668  Biso   1.000  N
  H551     1.0000 0.22987  0.33801  0.12426  Biso   1.000  H
  C617     1.0000 0.92358  0.70772  0.79940  Biso   1.000  C
  H552     1.0000 0.82309  0.76284  0.83805  Biso   1.000  H
  H553     1.0000 0.91063  0.72341  0.86480  Biso   1.000  H
  H554     1.0000 0.98354  0.35831  0.74401  Biso   1.000  H
  H555     1.0000 0.88594  0.38847  0.76874  Biso   1.000  H
  N72      1.0000 0.97943  0.33118  0.80649  Biso   1.000  N
  N73      1.0000 0.97943  0.33123  0.80649  Biso   1.000  N
  C618     1.0000 0.09691  0.41958  0.14581  Biso   1.000  C
  C619     1.0000 0.09691  0.41958  0.14578  Biso   1.000  C
  C620     1.0000 0.09691  0.41963  0.14581  Biso   1.000  C
  C621     1.0000 0.09691  0.41963  0.14578  Biso   1.000  C
  H556     1.0000 0.86819  0.67354  0.79337  Biso   1.000  H
  H557     1.0000 0.93074  0.73931  0.77419  Biso   1.000  H
  H558     1.0000 0.86819  0.67354  0.79334  Biso   1.000  H
  N74      1.0000 0.02057  0.66882  0.80649  Biso   1.000  N
  C622     1.0000 0.99771  0.39732  0.83010  Biso   1.000  C
  C623     1.0000 0.07642  0.29228  0.79940  Biso   1.000  C
  C624     1.0000 0.07642  0.29233  0.79940  Biso   1.000  C
  C625     1.0000 0.00229  0.39732  0.16990  Biso   1.000  C
  H559     1.0000 0.09364  0.47114  0.13988  Biso   1.000  H
  H560     1.0000 0.15756  0.41062  0.16384  Biso   1.000  H
  C626     1.0000 0.00229  0.60268  0.83010  Biso   1.000  C
  C627     1.0000 0.06949  0.65351  0.76540  Biso   1.000  C
  C628     1.0000 0.90309  0.41958  0.85419  Biso   1.000  C
  C629     1.0000 0.90309  0.41963  0.85419  Biso   1.000  C
  H561     1.0000 0.01768  0.43516  0.80983  Biso   1.000  H
  H562     1.0000 0.05432  0.39032  0.85066  Biso   1.000  H
  H563     1.0000 0.13181  0.32646  0.79337  Biso   1.000  H
  H564     1.0000 0.06933  0.26069  0.77419  Biso   1.000  H
  C630     1.0000 0.10331  0.24871  0.83860  Biso   1.000  C
  H565     1.0000 0.13181  0.32646  0.79334  Biso   1.000  H
  H566     1.0000 0.98240  0.43516  0.19017  Biso   1.000  H
  H567     1.0000 0.94568  0.39032  0.14934  Biso   1.000  H
  N75      1.0000 0.02057  0.33118  0.19351  Biso   1.000  N
  N76      1.0000 0.02057  0.33123  0.19351  Biso   1.000  N
  H568     1.0000 0.98240  0.56484  0.80983  Biso   1.000  H
  H569     1.0000 0.94568  0.60968  0.85066  Biso   1.000  H
  C631     1.0000 0.09691  0.58042  0.85419  Biso   1.000  C
  C632     1.0000 0.13250  0.71488  0.74879  Biso   1.000  C
  C633     1.0000 0.13250  0.71493  0.74879  Biso   1.000  C
  H570     1.0000 0.01646  0.64169  0.74401  Biso   1.000  H
  H571     1.0000 0.11406  0.61153  0.76874  Biso   1.000  H
  N77      1.0000 0.89349  0.38232  0.89329  Biso   1.000  N
  H572     1.0000 0.90636  0.47114  0.86012  Biso   1.000  H
  H573     1.0000 0.84244  0.41062  0.83616  Biso   1.000  H
  N78      1.0000 0.04381  0.18310  0.83946  Biso   1.000  N
  H574     1.0000 0.17691  0.23716  0.83805  Biso   1.000  H
  H575     1.0000 0.08937  0.27659  0.86480  Biso   1.000  H
  C634     1.0000 0.92358  0.29228  0.20060  Biso   1.000  C
  C635     1.0000 0.92358  0.29233  0.20060  Biso   1.000  C
  C636     1.0000 0.06949  0.34649  0.23460  Biso   1.000  C
  N79      1.0000 0.10651  0.61768  0.89329  Biso   1.000  N
  H576     1.0000 0.09364  0.52886  0.86012  Biso   1.000  H
  H577     1.0000 0.15756  0.58938  0.83616  Biso   1.000  H
  N80      1.0000 0.23101  0.72102  0.77156  Biso   1.000  N
  H578     1.0000 0.14545  0.70809  0.71774  Biso   1.000  H
  H579     1.0000 0.09364  0.75945  0.75232  Biso   1.000  H
  C637     1.0000 0.81844  0.34141  0.89829  Biso   1.000  C
  C638     1.0000 0.98339  0.17500  0.87010  Biso   1.000  C
  H580     1.0000 0.86819  0.32646  0.20663  Biso   1.000  H
  H581     1.0000 0.93074  0.26069  0.22581  Biso   1.000  H
  C639     1.0000 0.89669  0.24871  0.16140  Biso   1.000  C
  C640     1.0000 0.13250  0.28512  0.25121  Biso   1.000  C
  H582     1.0000 0.01646  0.35831  0.25599  Biso   1.000  H
  H583     1.0000 0.11406  0.38847  0.23126  Biso   1.000  H
  C641     1.0000 0.18164  0.65859  0.89829  Biso   1.000  C
  C642     1.0000 0.24312  0.77482  0.79629  Biso   1.000  C
  C643     1.0000 0.80084  0.29843  0.93729  Biso   1.000  C
  H584     1.0000 0.77013  0.33801  0.87571  Biso   1.000  H
  C644     1.0000 0.91832  0.11140  0.87619  Biso   1.000  C
  H585     1.0000 0.97897  0.21183  0.89085  Biso   1.000  H
  H586     1.0000 0.97897  0.21183  0.89082  Biso   1.000  H
  N81      1.0000 0.95619  0.18310  0.16054  Biso   1.000  N
  H587     1.0000 0.82309  0.23716  0.16195  Biso   1.000  H
  H588     1.0000 0.91063  0.27659  0.13520  Biso   1.000  H
  N82      1.0000 0.23101  0.27898  0.22844  Biso   1.000  N
  N83      1.0000 0.23101  0.27903  0.22844  Biso   1.000  N
  H589     1.0000 0.14545  0.29191  0.28226  Biso   1.000  H
  H590     1.0000 0.09364  0.24055  0.24768  Biso   1.000  H
  C645     1.0000 0.19924  0.70157  0.93729  Biso   1.000  C
  H591     1.0000 0.22987  0.66199  0.87571  Biso   1.000  H
  C646     1.0000 0.19924  0.70163  0.93729  Biso   1.000  C
  H592     1.0000 0.22987  0.66204  0.87571  Biso   1.000  H
  C647     1.0000 0.33623  0.78669  0.82089  Biso   1.000  C
  H593     1.0000 0.18926  0.80826  0.79876  Biso   1.000  H
  C648     1.0000 0.71688  0.25359  0.93870  Biso   1.000  C
  C649     1.0000 0.85912  0.30378  0.97431  Biso   1.000  C
  C650     1.0000 0.85912  0.30383  0.97431  Biso   1.000  C
  C651     1.0000 0.91131  0.06052  0.84511  Biso   1.000  C
  C652     1.0000 0.86324  0.10218  0.91349  Biso   1.000  C
  C653     1.0000 0.86324  0.10223  0.91349  Biso   1.000  C
  C654     1.0000 0.01661  0.17500  0.12990  Biso   1.000  C
  C655     1.0000 0.24312  0.22518  0.20371  Biso   1.000  C
  C656     1.0000 0.28312  0.74641  0.93870  Biso   1.000  C
  C657     1.0000 0.14088  0.69622  0.97431  Biso   1.000  C
  C658     1.0000 0.41730  0.74031  0.82131  Biso   1.000  C
  C659     1.0000 0.34392  0.84938  0.84399  Biso   1.000  C
  H594     1.0000 0.67314  0.24983  0.91455  Biso   1.000  H
  C660     1.0000 0.69691  0.21490  0.97469  Biso   1.000  C
  H595     1.0000 0.91482  0.33595  0.97431  Biso   1.000  H
  C661     1.0000 0.84114  0.26620  0.00981  Biso   1.000  C
  C662     1.0000 0.84114  0.26620  0.00978  Biso   1.000  C
  H596     1.0000 0.94362  0.06762  0.81820  Biso   1.000  H
  C663     1.0000 0.85669  0.99772  0.85271  Biso   1.000  C
  H597     1.0000 0.86530  0.13832  0.93476  Biso   1.000  H
  C664     1.0000 0.80663  0.04378  0.92100  Biso   1.000  C
  H598     1.0000 0.86530  0.13832  0.93473  Biso   1.000  H
  C665     1.0000 0.80663  0.04383  0.92100  Biso   1.000  C
  C666     1.0000 0.08168  0.11140  0.12381  Biso   1.000  C
  H599     1.0000 0.02103  0.21183  0.10915  Biso   1.000  H
  C667     1.0000 0.33623  0.21331  0.17911  Biso   1.000  C
  H600     1.0000 0.18926  0.19174  0.20124  Biso   1.000  H
  H601     1.0000 0.32686  0.75017  0.91455  Biso   1.000  H
  C668     1.0000 0.30309  0.78510  0.97469  Biso   1.000  C
  H602     1.0000 0.08518  0.66405  0.97431  Biso   1.000  H
  H603     1.0000 0.08518  0.66411  0.97431  Biso   1.000  H
  C669     1.0000 0.15893  0.73380  0.00981  Biso   1.000  C
  C670     1.0000 0.15893  0.73380  0.00978  Biso   1.000  C
  C671     1.0000 0.50522  0.75632  0.84331  Biso   1.000  C
  C672     1.0000 0.50522  0.75632  0.84328  Biso   1.000  C
  H604     1.0000 0.41242  0.69665  0.80624  Biso   1.000  H
  H605     1.0000 0.41242  0.69665  0.80620  Biso   1.000  H
  C673     1.0000 0.43124  0.86422  0.86792  Biso   1.000  C
  C674     1.0000 0.43124  0.86422  0.86788  Biso   1.000  C
  H606     1.0000 0.28930  0.88245  0.84344  Biso   1.000  H
  H607     1.0000 0.64046  0.18348  0.97476  Biso   1.000  H
  C675     1.0000 0.75688  0.22031  0.01139  Biso   1.000  C
  H608     1.0000 0.88510  0.27060  0.03387  Biso   1.000  H
  C676     1.0000 0.80320  0.98792  0.89120  Biso   1.000  C
  H609     1.0000 0.85592  0.96158  0.83148  Biso   1.000  H
  H610     1.0000 0.76830  0.04049  0.94676  Biso   1.000  H
  C677     1.0000 0.08869  0.06052  0.15489  Biso   1.000  C
  C678     1.0000 0.13684  0.10218  0.08651  Biso   1.000  C
  C679     1.0000 0.13684  0.10223  0.08651  Biso   1.000  C
  C680     1.0000 0.41730  0.25969  0.17869  Biso   1.000  C
  C681     1.0000 0.34392  0.15062  0.15601  Biso   1.000  C
  C682     1.0000 0.34392  0.15062  0.15598  Biso   1.000  C
  H611     1.0000 0.35954  0.81652  0.97476  Biso   1.000  H
  H612     1.0000 0.35954  0.81658  0.97476  Biso   1.000  H
  C683     1.0000 0.24312  0.77969  0.01139  Biso   1.000  C
  H613     1.0000 0.11490  0.72940  0.03387  Biso   1.000  H
  C684     1.0000 0.51558  0.81912  0.86660  Biso   1.000  C
  H614     1.0000 0.56046  0.72378  0.84264  Biso   1.000  H
  H615     1.0000 0.43322  0.90545  0.88536  Biso   1.000  H
  C685     1.0000 0.72930  0.18061  0.05039  Biso   1.000  C
  C686     1.0000 0.74857  0.92188  0.90131  Biso   1.000  C
  C687     1.0000 0.14331  0.99772  0.14729  Biso   1.000  C
  H616     1.0000 0.05638  0.06762  0.18180  Biso   1.000  H
  H617     1.0000 0.13470  0.13832  0.06524  Biso   1.000  H
  C688     1.0000 0.19337  0.04378  0.07900  Biso   1.000  C
  C689     1.0000 0.19337  0.04383  0.07900  Biso   1.000  C
  C690     1.0000 0.50522  0.24368  0.15669  Biso   1.000  C
  H618     1.0000 0.41242  0.30335  0.19376  Biso   1.000  H
  C691     1.0000 0.43124  0.13578  0.13208  Biso   1.000  C
  C692     1.0000 0.43124  0.13583  0.13208  Biso   1.000  C
  H619     1.0000 0.28930  0.11755  0.15656  Biso   1.000  H
  H620     1.0000 0.28930  0.11755  0.15653  Biso   1.000  H
  C693     1.0000 0.27070  0.81939  0.05039  Biso   1.000  C
  C694     1.0000 0.61090  0.83799  0.88950  Biso   1.000  C
  C695     1.0000 0.78301  0.11893  0.06328  Biso   1.000  C
  C696     1.0000 0.64389  0.20282  0.07489  Biso   1.000  C
  C697     1.0000 0.78301  0.88107  0.93672  Biso   1.000  C
  C698     1.0000 0.66758  0.89729  0.87661  Biso   1.000  C
  C699     1.0000 0.78301  0.88107  0.93668  Biso   1.000  C
  C700     1.0000 0.78301  0.88113  0.93672  Biso   1.000  C
  C701     1.0000 0.78301  0.88113  0.93668  Biso   1.000  C
  C702     1.0000 0.19680  0.98792  0.10880  Biso   1.000  C
  H621     1.0000 0.14408  0.96158  0.16852  Biso   1.000  H
  H622     1.0000 0.23177  0.04049  0.05324  Biso   1.000  H
  C703     1.0000 0.51558  0.18088  0.13340  Biso   1.000  C
  C704     1.0000 0.51558  0.18093  0.13340  Biso   1.000  C
  H623     1.0000 0.56046  0.27622  0.15736  Biso   1.000  H
  H624     1.0000 0.43322  0.09455  0.11464  Biso   1.000  H
  C705     1.0000 0.21699  0.88107  0.06328  Biso   1.000  C
  C706     1.0000 0.21699  0.88113  0.06328  Biso   1.000  C
  C707     1.0000 0.35611  0.79718  0.07489  Biso   1.000  C
  C708     1.0000 0.64389  0.79718  0.92511  Biso   1.000  C
  C709     1.0000 0.87688  0.09857  0.03881  Biso   1.000  C
  C710     1.0000 0.74857  0.07812  0.09869  Biso   1.000  C
  C711     1.0000 0.87688  0.09863  0.03881  Biso   1.000  C
  C712     1.0000 0.61090  0.16201  0.11050  Biso   1.000  C
  C713     1.0000 0.58164  0.26642  0.06110  Biso   1.000  C
  C714     1.0000 0.72930  0.81939  0.94961  Biso   1.000  C
  C715     1.0000 0.87688  0.90143  0.96119  Biso   1.000  C
  C716     1.0000 0.63558  0.94292  0.83902  Biso   1.000  C
  C717     1.0000 0.63558  0.94292  0.83898  Biso   1.000  C
  C718     1.0000 0.25143  0.92188  0.09869  Biso   1.000  C
  C719     1.0000 0.12312  0.90143  0.03881  Biso   1.000  C
  C720     1.0000 0.38910  0.83799  0.11050  Biso   1.000  C
  C721     1.0000 0.41844  0.73358  0.06110  Biso   1.000  C
  C722     1.0000 0.58164  0.73358  0.93890  Biso   1.000  C
  H625     1.0000 0.85882  0.06444  0.01636  Biso   1.000  H
  H626     1.0000 0.92640  0.07700  0.05838  Biso   1.000  H
  H627     1.0000 0.90682  0.14092  0.02563  Biso   1.000  H
  H628     1.0000 0.85882  0.06444  0.01633  Biso   1.000  H
  C723     1.0000 0.80320  0.01208  0.10880  Biso   1.000  C
  C724     1.0000 0.66758  0.10271  0.12339  Biso   1.000  C
  H629     1.0000 0.61714  0.30998  0.06931  Biso   1.000  H
  H630     1.0000 0.51482  0.26488  0.07525  Biso   1.000  H
  H631     1.0000 0.57227  0.26541  0.02996  Biso   1.000  H
  H632     1.0000 0.51482  0.26488  0.07522  Biso   1.000  H
  C725     1.0000 0.75688  0.77969  0.98861  Biso   1.000  C
  C726     1.0000 0.75688  0.77969  0.98858  Biso   1.000  C
  H633     1.0000 0.85882  0.93556  0.98364  Biso   1.000  H
  H634     1.0000 0.92640  0.92300  0.94162  Biso   1.000  H
  H635     1.0000 0.90682  0.85908  0.97437  Biso   1.000  H
  H636     1.0000 0.90682  0.85913  0.97437  Biso   1.000  H
  H637     1.0000 0.66522  0.92374  0.81252  Biso   1.000  H
  H638     1.0000 0.65973  0.99147  0.84335  Biso   1.000  H
  H639     1.0000 0.56114  0.94282  0.83664  Biso   1.000  H
  C727     1.0000 0.33242  0.89729  0.12339  Biso   1.000  C
  H640     1.0000 0.14118  0.93556  0.01636  Biso   1.000  H
  H641     1.0000 0.07360  0.92300  0.05838  Biso   1.000  H
  H642     1.0000 0.09318  0.85908  0.02563  Biso   1.000  H
  H643     1.0000 0.14118  0.93556  0.01633  Biso   1.000  H
  H644     1.0000 0.09318  0.85913  0.02563  Biso   1.000  H
  C728     1.0000 0.48442  0.81912  0.13340  Biso   1.000  C
  H645     1.0000 0.38286  0.69002  0.06931  Biso   1.000  H
  H646     1.0000 0.48518  0.73512  0.07525  Biso   1.000  H
  H647     1.0000 0.42773  0.73459  0.02996  Biso   1.000  H
  H648     1.0000 0.48518  0.73512  0.07522  Biso   1.000  H
  H649     1.0000 0.61714  0.69002  0.93069  Biso   1.000  H
  H650     1.0000 0.51482  0.73512  0.92475  Biso   1.000  H
  H651     1.0000 0.57227  0.73459  0.97004  Biso   1.000  H
  C729     1.0000 0.80663  0.95622  0.07900  Biso   1.000  C
  C730     1.0000 0.85669  0.00228  0.14729  Biso   1.000  C
  C731     1.0000 0.63558  0.05708  0.16098  Biso   1.000  C
  C732     1.0000 0.63558  0.05713  0.16098  Biso   1.000  C
  C733     1.0000 0.84114  0.73380  0.99019  Biso   1.000  C
  C734     1.0000 0.69691  0.78510  0.02531  Biso   1.000  C
  C735     1.0000 0.36442  0.94292  0.16098  Biso   1.000  C
  C736     1.0000 0.49478  0.75632  0.15669  Biso   1.000  C
  C737     1.0000 0.56884  0.86422  0.13208  Biso   1.000  C
  C738     1.0000 0.86324  0.89782  0.08651  Biso   1.000  C
  H652     1.0000 0.76830  0.95951  0.05324  Biso   1.000  H
  H653     1.0000 0.76830  0.95956  0.05324  Biso   1.000  H
  C739     1.0000 0.91131  0.93948  0.15489  Biso   1.000  C
  C740     1.0000 0.91131  0.93953  0.15489  Biso   1.000  C
  H654     1.0000 0.85592  0.03842  0.16852  Biso   1.000  H
  H655     1.0000 0.66522  0.07626  0.18748  Biso   1.000  H
  H656     1.0000 0.65973  0.00853  0.15665  Biso   1.000  H
  H657     1.0000 0.56114  0.05718  0.16336  Biso   1.000  H
  H658     1.0000 0.88510  0.72940  0.96613  Biso   1.000  H
  H659     1.0000 0.88510  0.72940  0.96610  Biso   1.000  H
  C741     1.0000 0.85912  0.69622  0.02569  Biso   1.000  C
  C742     1.0000 0.71688  0.74641  0.06130  Biso   1.000  C
  H660     1.0000 0.64046  0.81652  0.02524  Biso   1.000  H
  H661     1.0000 0.64046  0.81658  0.02524  Biso   1.000  H
  H662     1.0000 0.33478  0.92374  0.18748  Biso   1.000  H
  H663     1.0000 0.34027  0.99147  0.15665  Biso   1.000  H
  H664     1.0000 0.43886  0.94282  0.16336  Biso   1.000  H
  C743     1.0000 0.58270  0.74031  0.17869  Biso   1.000  C
  H665     1.0000 0.43962  0.72378  0.15736  Biso   1.000  H
  C744     1.0000 0.65608  0.84938  0.15601  Biso   1.000  C
  C745     1.0000 0.65608  0.84938  0.15598  Biso   1.000  C
  H666     1.0000 0.56678  0.90545  0.11464  Biso   1.000  H
  C746     1.0000 0.91832  0.88860  0.12381  Biso   1.000  C
  H667     1.0000 0.86530  0.86168  0.06524  Biso   1.000  H
  H668     1.0000 0.94362  0.93238  0.18180  Biso   1.000  H
  C747     1.0000 0.80084  0.70157  0.06271  Biso   1.000  C
  H669     1.0000 0.91482  0.66405  0.02569  Biso   1.000  H
  C748     1.0000 0.80084  0.70163  0.06271  Biso   1.000  C
  H670     1.0000 0.91482  0.66411  0.02569  Biso   1.000  H
  H671     1.0000 0.67314  0.75017  0.08545  Biso   1.000  H
  C749     1.0000 0.66377  0.78669  0.17911  Biso   1.000  C
  H672     1.0000 0.58758  0.69665  0.19376  Biso   1.000  H
  H673     1.0000 0.71070  0.88245  0.15656  Biso   1.000  H
  H674     1.0000 0.71070  0.88245  0.15653  Biso   1.000  H
  C750     1.0000 0.98339  0.82500  0.12990  Biso   1.000  C
  C751     1.0000 0.81844  0.65859  0.10171  Biso   1.000  C
  C752     1.0000 0.75688  0.77482  0.20371  Biso   1.000  C
  H675     1.0000 0.97897  0.78817  0.10915  Biso   1.000  H
  N84      1.0000 0.04381  0.81690  0.16054  Biso   1.000  N
  N85      1.0000 0.89349  0.61768  0.10671  Biso   1.000  N
  H676     1.0000 0.77013  0.66199  0.12429  Biso   1.000  H
  N86      1.0000 0.89349  0.61768  0.10668  Biso   1.000  N
  H677     1.0000 0.77013  0.66199  0.12426  Biso   1.000  H
  H678     1.0000 0.77013  0.66204  0.12429  Biso   1.000  H
  H679     1.0000 0.77013  0.66204  0.12426  Biso   1.000  H
  N87      1.0000 0.76899  0.72102  0.22844  Biso   1.000  N
  H680     1.0000 0.81074  0.80826  0.20124  Biso   1.000  H
  C753     1.0000 0.10331  0.75129  0.16140  Biso   1.000  C
  C754     1.0000 0.90309  0.58042  0.14581  Biso   1.000  C
  C755     1.0000 0.90309  0.58042  0.14578  Biso   1.000  C
  C756     1.0000 0.86750  0.71488  0.25121  Biso   1.000  C
  C757     1.0000 0.86750  0.71493  0.25121  Biso   1.000  C
  C758     1.0000 0.07642  0.70772  0.20060  Biso   1.000  C
  H681     1.0000 0.17691  0.76284  0.16195  Biso   1.000  H
  H682     1.0000 0.08937  0.72341  0.13520  Biso   1.000  H
  C759     1.0000 0.99771  0.60268  0.16990  Biso   1.000  C
  H683     1.0000 0.90636  0.52886  0.13988  Biso   1.000  H
  H684     1.0000 0.84244  0.58938  0.16384  Biso   1.000  H
  C760     1.0000 0.93051  0.65351  0.23460  Biso   1.000  C
  H685     1.0000 0.85455  0.70809  0.28226  Biso   1.000  H
  H686     1.0000 0.90636  0.75945  0.24768  Biso   1.000  H
  N88      1.0000 0.97943  0.66882  0.19351  Biso   1.000  N
  H687     1.0000 0.13181  0.67354  0.20663  Biso   1.000  H
  H688     1.0000 0.06933  0.73931  0.22581  Biso   1.000  H
  H689     1.0000 0.01768  0.56484  0.19017  Biso   1.000  H
  H690     1.0000 0.05432  0.60968  0.14934  Biso   1.000  H
  H691     1.0000 0.98354  0.64169  0.25599  Biso   1.000  H
  H692     1.0000 0.88594  0.61153  0.23126  Biso   1.000  H
  C761     1.0000 0.36747  0.21490  0.75119  Biso   1.000  C
  C762     1.0000 0.43048  0.15348  0.73461  Biso   1.000  C
  N89      1.0000 0.26903  0.22100  0.72845  Biso   1.000  N
  H693     1.0000 0.35451  0.20807  0.78224  Biso   1.000  H
  H694     1.0000 0.40632  0.25942  0.74767  Biso   1.000  H
  H695     1.0000 0.35459  0.20807  0.78224  Biso   1.000  H
  N90      1.0000 0.47939  0.16880  0.69352  Biso   1.000  N
  H696     1.0000 0.48358  0.14171  0.75597  Biso   1.000  H
  H697     1.0000 0.38598  0.11151  0.73128  Biso   1.000  H
  C763     1.0000 0.36754  0.21490  0.75119  Biso   1.000  C
  C764     1.0000 0.25691  0.27479  0.70369  Biso   1.000  C
  C765     1.0000 0.49768  0.10271  0.66988  Biso   1.000  C
  C766     1.0000 0.57638  0.20770  0.70061  Biso   1.000  C
  H698     1.0000 0.31070  0.30828  0.70125  Biso   1.000  H
  C767     1.0000 0.16381  0.28671  0.67909  Biso   1.000  C
  C768     1.0000 0.40312  0.08040  0.64580  Biso   1.000  C
  H699     1.0000 0.51764  0.06487  0.69019  Biso   1.000  H
  H700     1.0000 0.55436  0.10970  0.64932  Biso   1.000  H
  H701     1.0000 0.63177  0.17351  0.70664  Biso   1.000  H
  H702     1.0000 0.56930  0.23928  0.72582  Biso   1.000  H
  C769     1.0000 0.60328  0.25131  0.66138  Biso   1.000  C
  C770     1.0000 0.08267  0.24029  0.67871  Biso   1.000  C
  C771     1.0000 0.15611  0.34941  0.65600  Biso   1.000  C
  C772     1.0000 0.08274  0.24029  0.67871  Biso   1.000  C
  N91      1.0000 0.39352  0.11771  0.60670  Biso   1.000  N
  H703     1.0000 0.40632  0.02888  0.63989  Biso   1.000  H
  H704     1.0000 0.34240  0.08941  0.66382  Biso   1.000  H
  N92      1.0000 0.54377  0.31692  0.66052  Biso   1.000  N
  H705     1.0000 0.67688  0.26287  0.66193  Biso   1.000  H
  H706     1.0000 0.58933  0.22338  0.63521  Biso   1.000  H
  N93      1.0000 0.54385  0.31692  0.66052  Biso   1.000  N
  H707     1.0000 0.08762  0.19662  0.69378  Biso   1.000  H
  C773     1.0000 0.99482  0.25629  0.65670  Biso   1.000  C
  H708     1.0000 0.21074  0.38248  0.65654  Biso   1.000  H
  C774     1.0000 0.06880  0.36420  0.63210  Biso   1.000  C
  C775     1.0000 0.31840  0.15862  0.60169  Biso   1.000  C
  C776     1.0000 0.48343  0.32498  0.62989  Biso   1.000  C
  C777     1.0000 0.98438  0.31909  0.63338  Biso   1.000  C
  H709     1.0000 0.93958  0.22375  0.65738  Biso   1.000  H
  H710     1.0000 0.06674  0.40543  0.61462  Biso   1.000  H
  C778     1.0000 0.30080  0.20160  0.56269  Biso   1.000  C
  H711     1.0000 0.27017  0.16201  0.62427  Biso   1.000  H
  C779     1.0000 0.41829  0.38863  0.62379  Biso   1.000  C
  H712     1.0000 0.47893  0.28820  0.60917  Biso   1.000  H
  C780     1.0000 0.88907  0.33801  0.61048  Biso   1.000  C
  C781     1.0000 0.88914  0.33801  0.61048  Biso   1.000  C
  C782     1.0000 0.21691  0.24638  0.56131  Biso   1.000  C
  C783     1.0000 0.35909  0.19619  0.52571  Biso   1.000  C
  C784     1.0000 0.41128  0.43950  0.65491  Biso   1.000  C
  C785     1.0000 0.36320  0.39780  0.58649  Biso   1.000  C
  C786     1.0000 0.85608  0.29721  0.57491  Biso   1.000  C
  C787     1.0000 0.83238  0.39732  0.62341  Biso   1.000  C
  C788     1.0000 0.19688  0.28512  0.52529  Biso   1.000  C
  H713     1.0000 0.17318  0.25020  0.58546  Biso   1.000  H
  C789     1.0000 0.34110  0.23382  0.49020  Biso   1.000  C
  H714     1.0000 0.41486  0.16408  0.52568  Biso   1.000  H
  C790     1.0000 0.35672  0.50231  0.64730  Biso   1.000  C
  H715     1.0000 0.44366  0.43235  0.68182  Biso   1.000  H
  H716     1.0000 0.36526  0.36170  0.56526  Biso   1.000  H
  C791     1.0000 0.30659  0.45620  0.57902  Biso   1.000  C
  C792     1.0000 0.77067  0.31941  0.55041  Biso   1.000  C
  C793     1.0000 0.77074  0.31941  0.55041  Biso   1.000  C
  C794     1.0000 0.91840  0.23361  0.56109  Biso   1.000  C
  C795     1.0000 0.75139  0.42191  0.59871  Biso   1.000  C
  C796     1.0000 0.86438  0.44290  0.66100  Biso   1.000  C
  C797     1.0000 0.25691  0.27972  0.48860  Biso   1.000  C
  H717     1.0000 0.14042  0.31655  0.52526  Biso   1.000  H
  H718     1.0000 0.38507  0.22942  0.46611  Biso   1.000  H
  C798     1.0000 0.30324  0.51211  0.60878  Biso   1.000  C
  H719     1.0000 0.35589  0.53845  0.66851  Biso   1.000  H
  H720     1.0000 0.35596  0.53845  0.66851  Biso   1.000  H
  H721     1.0000 0.26827  0.45954  0.55323  Biso   1.000  H
  C799     1.0000 0.74309  0.27972  0.51140  Biso   1.000  C
  C800     1.0000 0.71703  0.38110  0.56330  Biso   1.000  C
  H722     1.0000 0.88282  0.19005  0.56933  Biso   1.000  H
  H723     1.0000 0.98514  0.23509  0.57523  Biso   1.000  H
  H724     1.0000 0.92770  0.23456  0.52994  Biso   1.000  H
  H725     1.0000 0.92777  0.23456  0.52994  Biso   1.000  H
  C801     1.0000 0.69676  0.48789  0.60878  Biso   1.000  C
  C802     1.0000 0.69684  0.48789  0.60878  Biso   1.000  C
  H726     1.0000 0.83474  0.42376  0.68746  Biso   1.000  H
  H727     1.0000 0.84030  0.49149  0.65667  Biso   1.000  H
  H728     1.0000 0.93890  0.44279  0.66337  Biso   1.000  H
  H729     1.0000 0.83482  0.42376  0.68746  Biso   1.000  H
  C803     1.0000 0.22933  0.31941  0.44959  Biso   1.000  C
  C804     1.0000 0.24861  0.57809  0.59871  Biso   1.000  C
  C805     1.0000 0.80312  0.28512  0.47471  Biso   1.000  C
  C806     1.0000 0.65890  0.23382  0.50980  Biso   1.000  C
  C807     1.0000 0.62309  0.40140  0.53879  Biso   1.000  C
  C808     1.0000 0.64328  0.49769  0.64730  Biso   1.000  C
  C809     1.0000 0.69341  0.54380  0.57902  Biso   1.000  C
  C810     1.0000 0.14392  0.29721  0.42509  Biso   1.000  C
  C811     1.0000 0.28297  0.38110  0.43670  Biso   1.000  C
  C812     1.0000 0.28305  0.38110  0.43670  Biso   1.000  C
  C813     1.0000 0.28297  0.61890  0.56330  Biso   1.000  C
  C814     1.0000 0.16762  0.60268  0.62341  Biso   1.000  C
  C815     1.0000 0.28305  0.61890  0.56330  Biso   1.000  C
  C816     1.0000 0.78309  0.24638  0.43869  Biso   1.000  C
  H730     1.0000 0.85958  0.31655  0.47474  Biso   1.000  H
  C817     1.0000 0.64091  0.19619  0.47429  Biso   1.000  C
  H731     1.0000 0.61493  0.22942  0.53389  Biso   1.000  H
  H732     1.0000 0.64114  0.43553  0.51634  Biso   1.000  H
  H733     1.0000 0.57356  0.42297  0.55839  Biso   1.000  H
  H734     1.0000 0.59322  0.35911  0.52564  Biso   1.000  H
  H735     1.0000 0.64411  0.46155  0.66851  Biso   1.000  H
  C818     1.0000 0.58872  0.56050  0.65491  Biso   1.000  C
  C819     1.0000 0.63680  0.60220  0.58649  Biso   1.000  C
  H736     1.0000 0.73173  0.54046  0.55323  Biso   1.000  H
  C820     1.0000 0.11093  0.33801  0.38949  Biso   1.000  C
  C821     1.0000 0.08160  0.23361  0.43891  Biso   1.000  C
  C822     1.0000 0.24861  0.42191  0.40129  Biso   1.000  C
  C823     1.0000 0.37691  0.40140  0.46121  Biso   1.000  C
  C824     1.0000 0.22933  0.68059  0.55041  Biso   1.000  C
  C825     1.0000 0.37691  0.59860  0.53879  Biso   1.000  C
  C826     1.0000 0.13562  0.55710  0.66100  Biso   1.000  C
  C827     1.0000 0.11093  0.66199  0.61048  Biso   1.000  C
  C828     1.0000 0.69920  0.20160  0.43731  Biso   1.000  C
  H737     1.0000 0.82682  0.25020  0.41454  Biso   1.000  H
  H738     1.0000 0.58514  0.16408  0.47432  Biso   1.000  H
  H739     1.0000 0.58522  0.16408  0.47432  Biso   1.000  H
  C829     1.0000 0.58171  0.61143  0.62379  Biso   1.000  C
  H740     1.0000 0.55634  0.56765  0.68182  Biso   1.000  H
  H741     1.0000 0.63474  0.63830  0.56526  Biso   1.000  H
  C830     1.0000 0.01562  0.31909  0.36658  Biso   1.000  C
  C831     1.0000 0.16762  0.39732  0.37659  Biso   1.000  C
  H742     1.0000 0.11718  0.19005  0.43067  Biso   1.000  H
  H743     1.0000 0.01486  0.23509  0.42477  Biso   1.000  H
  H744     1.0000 0.07230  0.23456  0.47006  Biso   1.000  H
  C832     1.0000 0.30324  0.48789  0.39119  Biso   1.000  C
  H745     1.0000 0.35886  0.43553  0.48366  Biso   1.000  H
  H746     1.0000 0.42644  0.42297  0.44161  Biso   1.000  H
  H747     1.0000 0.40678  0.35911  0.47436  Biso   1.000  H
  H748     1.0000 0.40686  0.35911  0.47436  Biso   1.000  H
  C833     1.0000 0.25691  0.72028  0.51140  Biso   1.000  C
  C834     1.0000 0.14392  0.70279  0.57491  Biso   1.000  C
  H749     1.0000 0.35886  0.56447  0.51634  Biso   1.000  H
  H750     1.0000 0.42644  0.57703  0.55839  Biso   1.000  H
  H751     1.0000 0.40678  0.64089  0.52564  Biso   1.000  H
  H752     1.0000 0.40686  0.64089  0.52564  Biso   1.000  H
  H753     1.0000 0.16526  0.57629  0.68746  Biso   1.000  H
  H754     1.0000 0.15970  0.50856  0.65667  Biso   1.000  H
  H755     1.0000 0.06110  0.55721  0.66337  Biso   1.000  H
  C835     1.0000 0.01562  0.68091  0.63338  Biso   1.000  C
  C836     1.0000 0.68160  0.15862  0.39831  Biso   1.000  C
  C837     1.0000 0.51657  0.67502  0.62989  Biso   1.000  C
  C838     1.0000 0.00518  0.25629  0.34330  Biso   1.000  C
  C839     1.0000 0.93120  0.36420  0.36790  Biso   1.000  C
  C840     1.0000 0.13562  0.44290  0.33900  Biso   1.000  C
  C841     1.0000 0.35672  0.49769  0.35270  Biso   1.000  C
  C842     1.0000 0.30659  0.54380  0.42098  Biso   1.000  C
  C843     1.0000 0.19688  0.71493  0.47471  Biso   1.000  C
  C844     1.0000 0.34110  0.76623  0.50980  Biso   1.000  C
  C845     1.0000 0.08160  0.76639  0.56109  Biso   1.000  C
  C846     1.0000 0.00518  0.74371  0.65670  Biso   1.000  C
  C847     1.0000 0.93120  0.63580  0.63210  Biso   1.000  C
  N94      1.0000 0.60648  0.11771  0.39330  Biso   1.000  N
  H756     1.0000 0.72983  0.16201  0.37573  Biso   1.000  H
  N95      1.0000 0.45623  0.68308  0.66052  Biso   1.000  N
  H757     1.0000 0.52107  0.71180  0.60917  Biso   1.000  H
  H758     1.0000 0.06042  0.22375  0.34262  Biso   1.000  H
  C848     1.0000 0.91733  0.24029  0.32129  Biso   1.000  C
  C849     1.0000 0.84389  0.34941  0.34400  Biso   1.000  C
  H759     1.0000 0.93326  0.40543  0.38538  Biso   1.000  H
  H760     1.0000 0.16526  0.42376  0.31254  Biso   1.000  H
  H761     1.0000 0.15970  0.49149  0.34333  Biso   1.000  H
  H762     1.0000 0.06110  0.44279  0.33663  Biso   1.000  H
  H763     1.0000 0.35589  0.46155  0.33146  Biso   1.000  H
  C850     1.0000 0.41128  0.56050  0.34509  Biso   1.000  C
  H764     1.0000 0.35596  0.46155  0.33146  Biso   1.000  H
  C851     1.0000 0.36320  0.60220  0.41351  Biso   1.000  C
  H765     1.0000 0.26827  0.54046  0.44677  Biso   1.000  H
  C852     1.0000 0.21691  0.75362  0.43869  Biso   1.000  C
  H766     1.0000 0.14042  0.68345  0.47474  Biso   1.000  H
  C853     1.0000 0.35909  0.80381  0.47429  Biso   1.000  C
  H767     1.0000 0.38507  0.77058  0.53389  Biso   1.000  H
  H768     1.0000 0.11718  0.81001  0.56933  Biso   1.000  H
  H769     1.0000 0.01486  0.76491  0.57523  Biso   1.000  H
  H770     1.0000 0.07230  0.76544  0.52994  Biso   1.000  H
  H771     1.0000 0.06042  0.77625  0.65738  Biso   1.000  H
  C854     1.0000 0.91733  0.75971  0.67871  Biso   1.000  C
  C855     1.0000 0.84389  0.65059  0.65600  Biso   1.000  C
  H772     1.0000 0.93326  0.59457  0.61462  Biso   1.000  H
  C856     1.0000 0.59688  0.08040  0.35420  Biso   1.000  C
  C857     1.0000 0.39672  0.74869  0.66138  Biso   1.000  C
  H773     1.0000 0.91238  0.19662  0.30622  Biso   1.000  H
  C858     1.0000 0.83619  0.28671  0.32091  Biso   1.000  C
  H774     1.0000 0.91246  0.19662  0.30622  Biso   1.000  H
  H775     1.0000 0.78926  0.38248  0.34346  Biso   1.000  H
  H776     1.0000 0.78933  0.38248  0.34346  Biso   1.000  H
  C859     1.0000 0.41829  0.61143  0.37621  Biso   1.000  C
  H777     1.0000 0.44366  0.56765  0.31818  Biso   1.000  H
  H778     1.0000 0.36526  0.63830  0.43474  Biso   1.000  H
  C860     1.0000 0.30080  0.79840  0.43731  Biso   1.000  C
  H779     1.0000 0.17318  0.74985  0.41454  Biso   1.000  H
  H780     1.0000 0.41486  0.83592  0.47432  Biso   1.000  H
  H781     1.0000 0.91238  0.80338  0.69378  Biso   1.000  H
  C861     1.0000 0.83619  0.71329  0.67909  Biso   1.000  C
  H782     1.0000 0.91246  0.80338  0.69378  Biso   1.000  H
  H783     1.0000 0.78926  0.61752  0.65654  Biso   1.000  H
  H784     1.0000 0.78933  0.61752  0.65654  Biso   1.000  H
  C862     1.0000 0.50232  0.10271  0.33008  Biso   1.000  C
  H785     1.0000 0.59368  0.02888  0.36011  Biso   1.000  H
  H786     1.0000 0.65760  0.08941  0.33615  Biso   1.000  H
  C863     1.0000 0.42362  0.79230  0.70061  Biso   1.000  C
  H787     1.0000 0.32312  0.73713  0.66193  Biso   1.000  H
  H788     1.0000 0.41067  0.77662  0.63521  Biso   1.000  H
  C864     1.0000 0.74309  0.27479  0.29631  Biso   1.000  C
  C865     1.0000 0.48343  0.67502  0.37011  Biso   1.000  C
  C866     1.0000 0.31840  0.84138  0.39831  Biso   1.000  C
  C867     1.0000 0.74309  0.72521  0.70369  Biso   1.000  C
  N96      1.0000 0.52061  0.16880  0.30648  Biso   1.000  N
  H789     1.0000 0.48236  0.06487  0.30981  Biso   1.000  H
  H790     1.0000 0.44564  0.10970  0.35064  Biso   1.000  H
  N97      1.0000 0.52061  0.83120  0.69352  Biso   1.000  N
  H791     1.0000 0.36823  0.82649  0.70664  Biso   1.000  H
  H792     1.0000 0.43070  0.76072  0.72582  Biso   1.000  H
  N98      1.0000 0.73097  0.22100  0.27155  Biso   1.000  N
  H793     1.0000 0.68930  0.30828  0.29875  Biso   1.000  H
  N99      1.0000 0.54377  0.68308  0.33948  Biso   1.000  N
  H794     1.0000 0.47893  0.71180  0.39083  Biso   1.000  H
  N100     1.0000 0.54385  0.68308  0.33948  Biso   1.000  N
  N101     1.0000 0.39352  0.88229  0.39330  Biso   1.000  N
  H795     1.0000 0.27017  0.83799  0.37573  Biso   1.000  H
  N102     1.0000 0.73097  0.77900  0.72845  Biso   1.000  N
  H796     1.0000 0.68930  0.69172  0.70125  Biso   1.000  H
  C868     1.0000 0.56952  0.15348  0.26539  Biso   1.000  C
  C869     1.0000 0.42362  0.20770  0.29939  Biso   1.000  C
  C870     1.0000 0.50232  0.89729  0.66988  Biso   1.000  C
  C871     1.0000 0.56952  0.84652  0.73461  Biso   1.000  C
  C872     1.0000 0.63253  0.21490  0.24881  Biso   1.000  C
  C873     1.0000 0.60328  0.74869  0.33858  Biso   1.000  C
  C874     1.0000 0.40312  0.91960  0.35420  Biso   1.000  C
  C875     1.0000 0.63253  0.78510  0.75119  Biso   1.000  C
  H797     1.0000 0.51642  0.14171  0.24403  Biso   1.000  H
  H798     1.0000 0.61402  0.11151  0.26872  Biso   1.000  H
  H799     1.0000 0.61410  0.11151  0.26872  Biso   1.000  H
  H800     1.0000 0.36823  0.17351  0.29336  Biso   1.000  H
  H801     1.0000 0.43070  0.23928  0.27418  Biso   1.000  H
  C876     1.0000 0.39672  0.25131  0.33858  Biso   1.000  C
  C877     1.0000 0.59688  0.91960  0.64580  Biso   1.000  C
  H802     1.0000 0.48236  0.93513  0.69019  Biso   1.000  H
  H803     1.0000 0.44564  0.89030  0.64932  Biso   1.000  H
  H804     1.0000 0.51642  0.85829  0.75597  Biso   1.000  H
  H805     1.0000 0.61402  0.88849  0.73128  Biso   1.000  H
  H806     1.0000 0.61410  0.88849  0.73128  Biso   1.000  H
  H807     1.0000 0.64549  0.20807  0.21772  Biso   1.000  H
  H808     1.0000 0.59368  0.25942  0.25230  Biso   1.000  H
  C878     1.0000 0.57638  0.79230  0.29939  Biso   1.000  C
  H809     1.0000 0.67688  0.73713  0.33807  Biso   1.000  H
  H810     1.0000 0.58933  0.77662  0.36479  Biso   1.000  H
  C879     1.0000 0.49768  0.89729  0.33008  Biso   1.000  C
  H811     1.0000 0.40632  0.97112  0.36011  Biso   1.000  H
  H812     1.0000 0.34240  0.91059  0.33615  Biso   1.000  H
  H813     1.0000 0.64549  0.79193  0.78224  Biso   1.000  H
  H814     1.0000 0.59368  0.74058  0.74767  Biso   1.000  H
  N103     1.0000 0.45623  0.31692  0.33948  Biso   1.000  N
  H815     1.0000 0.32312  0.26287  0.33807  Biso   1.000  H
  H816     1.0000 0.41067  0.22338  0.36479  Biso   1.000  H
  N104     1.0000 0.60648  0.88229  0.60670  Biso   1.000  N
  H817     1.0000 0.59368  0.97112  0.63989  Biso   1.000  H
  H818     1.0000 0.65760  0.91059  0.66382  Biso   1.000  H
  N105     1.0000 0.47939  0.83120  0.30648  Biso   1.000  N
  H819     1.0000 0.63177  0.82649  0.29336  Biso   1.000  H
  H820     1.0000 0.56930  0.76072  0.27418  Biso   1.000  H
  H821     1.0000 0.51764  0.93513  0.30981  Biso   1.000  H
  H822     1.0000 0.55436  0.89030  0.35064  Biso   1.000  H
  C880     1.0000 0.51657  0.32498  0.37011  Biso   1.000  C
  C881     1.0000 0.68160  0.84138  0.60169  Biso   1.000  C
  C882     1.0000 0.43048  0.84652  0.26539  Biso   1.000  C
  C883     1.0000 0.58171  0.38863  0.37621  Biso   1.000  C
  H823     1.0000 0.52107  0.28820  0.39083  Biso   1.000  H
  C884     1.0000 0.69920  0.79840  0.56269  Biso   1.000  C
  H824     1.0000 0.72983  0.83799  0.62427  Biso   1.000  H
  H825     1.0000 0.48358  0.85829  0.24403  Biso   1.000  H
  H826     1.0000 0.38598  0.88849  0.26872  Biso   1.000  H
  C885     1.0000 0.36747  0.78510  0.24881  Biso   1.000  C
  C886     1.0000 0.36754  0.78510  0.24881  Biso   1.000  C
  C887     1.0000 0.58872  0.43950  0.34509  Biso   1.000  C
  C888     1.0000 0.63680  0.39780  0.41351  Biso   1.000  C
  C889     1.0000 0.78309  0.75362  0.56131  Biso   1.000  C
  C890     1.0000 0.64091  0.80381  0.52571  Biso   1.000  C
  N106     1.0000 0.26903  0.77900  0.27155  Biso   1.000  N
  H827     1.0000 0.35451  0.79193  0.21772  Biso   1.000  H
  H828     1.0000 0.40632  0.74058  0.25230  Biso   1.000  H
  H829     1.0000 0.35459  0.79193  0.21772  Biso   1.000  H
  C891     1.0000 0.64328  0.50231  0.35270  Biso   1.000  C
  H830     1.0000 0.55634  0.43235  0.31818  Biso   1.000  H
  H831     1.0000 0.63474  0.36170  0.43474  Biso   1.000  H
  C892     1.0000 0.69341  0.45620  0.42098  Biso   1.000  C
  C893     1.0000 0.80312  0.71493  0.52529  Biso   1.000  C
  H832     1.0000 0.82682  0.74985  0.58546  Biso   1.000  H
  C894     1.0000 0.65890  0.76623  0.49020  Biso   1.000  C
  H833     1.0000 0.58514  0.83592  0.52568  Biso   1.000  H
  H834     1.0000 0.58522  0.83592  0.52568  Biso   1.000  H
  C895     1.0000 0.25691  0.72521  0.29631  Biso   1.000  C
  C896     1.0000 0.69676  0.51211  0.39119  Biso   1.000  C
  H835     1.0000 0.64411  0.53845  0.33146  Biso   1.000  H
  C897     1.0000 0.69684  0.51211  0.39119  Biso   1.000  C
  H836     1.0000 0.73173  0.45954  0.44677  Biso   1.000  H
  C898     1.0000 0.74309  0.72028  0.48860  Biso   1.000  C
  H837     1.0000 0.85958  0.68345  0.52526  Biso   1.000  H
  H838     1.0000 0.61493  0.77058  0.46611  Biso   1.000  H
  H839     1.0000 0.31070  0.69172  0.29875  Biso   1.000  H
  C899     1.0000 0.16381  0.71329  0.32091  Biso   1.000  C
  C900     1.0000 0.75139  0.57809  0.40129  Biso   1.000  C
  C901     1.0000 0.77067  0.68059  0.44959  Biso   1.000  C
  C902     1.0000 0.77074  0.68059  0.44959  Biso   1.000  C
  C903     1.0000 0.08267  0.75971  0.32129  Biso   1.000  C
  C904     1.0000 0.15611  0.65059  0.34400  Biso   1.000  C
  C905     1.0000 0.08274  0.75971  0.32129  Biso   1.000  C
  C906     1.0000 0.71703  0.61890  0.43670  Biso   1.000  C
  C907     1.0000 0.83238  0.60268  0.37659  Biso   1.000  C
  C908     1.0000 0.85608  0.70279  0.42509  Biso   1.000  C
  H840     1.0000 0.08762  0.80338  0.30622  Biso   1.000  H
  C909     1.0000 0.99482  0.74371  0.34330  Biso   1.000  C
  H841     1.0000 0.21074  0.61752  0.34346  Biso   1.000  H
  C910     1.0000 0.06880  0.63580  0.36790  Biso   1.000  C
  C911     1.0000 0.62309  0.59860  0.46121  Biso   1.000  C
  C912     1.0000 0.86438  0.55710  0.33900  Biso   1.000  C
  C913     1.0000 0.88907  0.66199  0.38949  Biso   1.000  C
  C914     1.0000 0.88914  0.66199  0.38949  Biso   1.000  C
  C915     1.0000 0.91840  0.76639  0.43891  Biso   1.000  C
  C916     1.0000 0.98438  0.68091  0.36658  Biso   1.000  C
  H842     1.0000 0.93958  0.77625  0.34262  Biso   1.000  H
  H843     1.0000 0.06674  0.59457  0.38538  Biso   1.000  H
  H844     1.0000 0.64114  0.56447  0.48366  Biso   1.000  H
  H845     1.0000 0.57356  0.57703  0.44161  Biso   1.000  H
  H846     1.0000 0.59322  0.64089  0.47436  Biso   1.000  H
  H847     1.0000 0.83474  0.57629  0.31254  Biso   1.000  H
  H848     1.0000 0.84030  0.50856  0.34333  Biso   1.000  H
  H849     1.0000 0.93890  0.55721  0.33663  Biso   1.000  H
  H850     1.0000 0.83482  0.57629  0.31254  Biso   1.000  H
  H851     1.0000 0.88282  0.81001  0.43067  Biso   1.000  H
  H852     1.0000 0.98514  0.76491  0.42477  Biso   1.000  H
  H853     1.0000 0.92770  0.76544  0.47006  Biso   1.000  H
  H854     1.0000 0.92777  0.76544  0.47006  Biso   1.000  H
  C917     1.0000 0.36747  0.21490  0.75119  Biso   1.000  C
  C918     1.0000 0.43048  0.15348  0.73461  Biso   1.000  C
  N107     1.0000 0.26903  0.22100  0.72845  Biso   1.000  N
  H855     1.0000 0.40632  0.25942  0.74767  Biso   1.000  H
  H856     1.0000 0.35451  0.20807  0.78224  Biso   1.000  H
  H857     1.0000 0.35459  0.20807  0.78224  Biso   1.000  H
  N108     1.0000 0.47939  0.16880  0.69352  Biso   1.000  N
  H858     1.0000 0.48358  0.14171  0.75597  Biso   1.000  H
  H859     1.0000 0.38598  0.11151  0.73128  Biso   1.000  H
  C919     1.0000 0.36754  0.21490  0.75119  Biso   1.000  C
  C920     1.0000 0.25691  0.27479  0.70369  Biso   1.000  C
  C921     1.0000 0.49768  0.10271  0.66988  Biso   1.000  C
  C922     1.0000 0.57638  0.20770  0.70061  Biso   1.000  C
  H860     1.0000 0.31070  0.30828  0.70125  Biso   1.000  H
  C923     1.0000 0.16381  0.28671  0.67909  Biso   1.000  C
  C924     1.0000 0.40312  0.08040  0.64580  Biso   1.000  C
  H861     1.0000 0.51764  0.06487  0.69019  Biso   1.000  H
  H862     1.0000 0.55436  0.10970  0.64932  Biso   1.000  H
  H863     1.0000 0.63177  0.17351  0.70664  Biso   1.000  H
  H864     1.0000 0.56930  0.23928  0.72582  Biso   1.000  H
  C925     1.0000 0.60328  0.25131  0.66138  Biso   1.000  C
  C926     1.0000 0.15611  0.34941  0.65600  Biso   1.000  C
  C927     1.0000 0.08267  0.24029  0.67871  Biso   1.000  C
  C928     1.0000 0.08274  0.24029  0.67871  Biso   1.000  C
  N109     1.0000 0.39352  0.11771  0.60670  Biso   1.000  N
  H865     1.0000 0.40632  0.02888  0.63989  Biso   1.000  H
  H866     1.0000 0.34240  0.08941  0.66382  Biso   1.000  H
  H867     1.0000 0.67688  0.26287  0.66193  Biso   1.000  H
  H868     1.0000 0.58933  0.22338  0.63521  Biso   1.000  H
  N110     1.0000 0.54377  0.31692  0.66052  Biso   1.000  N
  N111     1.0000 0.54385  0.31692  0.66052  Biso   1.000  N
  H869     1.0000 0.21074  0.38248  0.65654  Biso   1.000  H
  C929     1.0000 0.06880  0.36420  0.63210  Biso   1.000  C
  H870     1.0000 0.08762  0.19662  0.69378  Biso   1.000  H
  C930     1.0000 0.99482  0.25629  0.65670  Biso   1.000  C
  C931     1.0000 0.31840  0.15862  0.60169  Biso   1.000  C
  C932     1.0000 0.48343  0.32498  0.62989  Biso   1.000  C
  C933     1.0000 0.98438  0.31909  0.63338  Biso   1.000  C
  H871     1.0000 0.06674  0.40543  0.61462  Biso   1.000  H
  H872     1.0000 0.93958  0.22375  0.65738  Biso   1.000  H
  C934     1.0000 0.30080  0.20160  0.56269  Biso   1.000  C
  H873     1.0000 0.27017  0.16201  0.62427  Biso   1.000  H
  C935     1.0000 0.41829  0.38863  0.62379  Biso   1.000  C
  H874     1.0000 0.47893  0.28820  0.60917  Biso   1.000  H
  C936     1.0000 0.88907  0.33801  0.61048  Biso   1.000  C
  C937     1.0000 0.88914  0.33801  0.61048  Biso   1.000  C
  C938     1.0000 0.21691  0.24638  0.56131  Biso   1.000  C
  C939     1.0000 0.35909  0.19619  0.52571  Biso   1.000  C
  C940     1.0000 0.41128  0.43950  0.65491  Biso   1.000  C
  C941     1.0000 0.36320  0.39780  0.58649  Biso   1.000  C
  C942     1.0000 0.85608  0.29721  0.57491  Biso   1.000  C
  C943     1.0000 0.83238  0.39732  0.62341  Biso   1.000  C
  C944     1.0000 0.19688  0.28512  0.52529  Biso   1.000  C
  H875     1.0000 0.17318  0.25020  0.58546  Biso   1.000  H
  C945     1.0000 0.34110  0.23382  0.49020  Biso   1.000  C
  H876     1.0000 0.41486  0.16408  0.52568  Biso   1.000  H
  C946     1.0000 0.35672  0.50231  0.64730  Biso   1.000  C
  H877     1.0000 0.44366  0.43235  0.68182  Biso   1.000  H
  H878     1.0000 0.36526  0.36170  0.56526  Biso   1.000  H
  C947     1.0000 0.30659  0.45620  0.57902  Biso   1.000  C
  C948     1.0000 0.77067  0.31941  0.55041  Biso   1.000  C
  C949     1.0000 0.77074  0.31941  0.55041  Biso   1.000  C
  C950     1.0000 0.91840  0.23361  0.56109  Biso   1.000  C
  C951     1.0000 0.75139  0.42191  0.59871  Biso   1.000  C
  C952     1.0000 0.86438  0.44290  0.66100  Biso   1.000  C
  C953     1.0000 0.25691  0.27972  0.48860  Biso   1.000  C
  H879     1.0000 0.14042  0.31655  0.52526  Biso   1.000  H
  H880     1.0000 0.38507  0.22942  0.46611  Biso   1.000  H
  C954     1.0000 0.30324  0.51211  0.60878  Biso   1.000  C
  H881     1.0000 0.35589  0.53845  0.66851  Biso   1.000  H
  H882     1.0000 0.35596  0.53845  0.66851  Biso   1.000  H
  H883     1.0000 0.26827  0.45954  0.55323  Biso   1.000  H
  C955     1.0000 0.74309  0.27972  0.51140  Biso   1.000  C
  C956     1.0000 0.71703  0.38110  0.56330  Biso   1.000  C
  H884     1.0000 0.88282  0.19005  0.56933  Biso   1.000  H
  H885     1.0000 0.98514  0.23509  0.57523  Biso   1.000  H
  H886     1.0000 0.92770  0.23456  0.52994  Biso   1.000  H
  H887     1.0000 0.92777  0.23456  0.52994  Biso   1.000  H
  C957     1.0000 0.69676  0.48789  0.60878  Biso   1.000  C
  C958     1.0000 0.69684  0.48789  0.60878  Biso   1.000  C
  H888     1.0000 0.83474  0.42376  0.68746  Biso   1.000  H
  H889     1.0000 0.84030  0.49149  0.65667  Biso   1.000  H
  H890     1.0000 0.93890  0.44279  0.66337  Biso   1.000  H
  H891     1.0000 0.83482  0.42376  0.68746  Biso   1.000  H
  C959     1.0000 0.22933  0.31941  0.44959  Biso   1.000  C
  C960     1.0000 0.24861  0.57809  0.59871  Biso   1.000  C
  C961     1.0000 0.80312  0.28512  0.47471  Biso   1.000  C
  C962     1.0000 0.65890  0.23382  0.50980  Biso   1.000  C
  C963     1.0000 0.62309  0.40140  0.53879  Biso   1.000  C
  C964     1.0000 0.64328  0.49769  0.64730  Biso   1.000  C
  C965     1.0000 0.69341  0.54380  0.57902  Biso   1.000  C
  C966     1.0000 0.14392  0.29721  0.42509  Biso   1.000  C
  C967     1.0000 0.28297  0.38110  0.43670  Biso   1.000  C
  C968     1.0000 0.28305  0.38110  0.43670  Biso   1.000  C
  C969     1.0000 0.16762  0.60268  0.62341  Biso   1.000  C
  C970     1.0000 0.28297  0.61890  0.56330  Biso   1.000  C
  C971     1.0000 0.28305  0.61890  0.56330  Biso   1.000  C
  C972     1.0000 0.78309  0.24638  0.43869  Biso   1.000  C
  H892     1.0000 0.85958  0.31655  0.47474  Biso   1.000  H
  C973     1.0000 0.64091  0.19619  0.47429  Biso   1.000  C
  H893     1.0000 0.61493  0.22942  0.53389  Biso   1.000  H
  H894     1.0000 0.64114  0.43553  0.51634  Biso   1.000  H
  H895     1.0000 0.57356  0.42297  0.55839  Biso   1.000  H
  H896     1.0000 0.59322  0.35911  0.52564  Biso   1.000  H
  H897     1.0000 0.64411  0.46155  0.66851  Biso   1.000  H
  C974     1.0000 0.58872  0.56050  0.65491  Biso   1.000  C
  C975     1.0000 0.63680  0.60220  0.58649  Biso   1.000  C
  H898     1.0000 0.73173  0.54046  0.55323  Biso   1.000  H
  C976     1.0000 0.11093  0.33801  0.38949  Biso   1.000  C
  C977     1.0000 0.08160  0.23361  0.43891  Biso   1.000  C
  C978     1.0000 0.24861  0.42191  0.40129  Biso   1.000  C
  C979     1.0000 0.37691  0.40140  0.46121  Biso   1.000  C
  C980     1.0000 0.13562  0.55710  0.66100  Biso   1.000  C
  C981     1.0000 0.11093  0.66199  0.61048  Biso   1.000  C
  C982     1.0000 0.22933  0.68059  0.55041  Biso   1.000  C
  C983     1.0000 0.37691  0.59860  0.53879  Biso   1.000  C
  C984     1.0000 0.69920  0.20160  0.43731  Biso   1.000  C
  H899     1.0000 0.82682  0.25020  0.41454  Biso   1.000  H
  H900     1.0000 0.58514  0.16408  0.47432  Biso   1.000  H
  H901     1.0000 0.58522  0.16408  0.47432  Biso   1.000  H
  C985     1.0000 0.58171  0.61143  0.62379  Biso   1.000  C
  H902     1.0000 0.55634  0.56765  0.68182  Biso   1.000  H
  H903     1.0000 0.63474  0.63830  0.56526  Biso   1.000  H
  C986     1.0000 0.01562  0.31909  0.36658  Biso   1.000  C
  C987     1.0000 0.16762  0.39732  0.37659  Biso   1.000  C
  H904     1.0000 0.11718  0.19005  0.43067  Biso   1.000  H
  H905     1.0000 0.01486  0.23509  0.42477  Biso   1.000  H
  H906     1.0000 0.07230  0.23456  0.47006  Biso   1.000  H
  C988     1.0000 0.30324  0.48789  0.39119  Biso   1.000  C
  H907     1.0000 0.35886  0.43553  0.48366  Biso   1.000  H
  H908     1.0000 0.42644  0.42297  0.44161  Biso   1.000  H
  H909     1.0000 0.40678  0.35911  0.47436  Biso   1.000  H
  H910     1.0000 0.40686  0.35911  0.47436  Biso   1.000  H
  H911     1.0000 0.16526  0.57629  0.68746  Biso   1.000  H
  H912     1.0000 0.15970  0.50856  0.65667  Biso   1.000  H
  H913     1.0000 0.06110  0.55721  0.66337  Biso   1.000  H
  C989     1.0000 0.14392  0.70279  0.57491  Biso   1.000  C
  C990     1.0000 0.01562  0.68091  0.63338  Biso   1.000  C
  C991     1.0000 0.25691  0.72028  0.51140  Biso   1.000  C
  H914     1.0000 0.35886  0.56447  0.51634  Biso   1.000  H
  H915     1.0000 0.42644  0.57703  0.55839  Biso   1.000  H
  H916     1.0000 0.40678  0.64089  0.52564  Biso   1.000  H
  H917     1.0000 0.40686  0.64089  0.52564  Biso   1.000  H
  C992     1.0000 0.68160  0.15862  0.39831  Biso   1.000  C
  C993     1.0000 0.51657  0.67502  0.62989  Biso   1.000  C
  C994     1.0000 0.00518  0.25629  0.34330  Biso   1.000  C
  C995     1.0000 0.93120  0.36420  0.36790  Biso   1.000  C
  C996     1.0000 0.13562  0.44290  0.33900  Biso   1.000  C
  C997     1.0000 0.35672  0.49769  0.35270  Biso   1.000  C
  C998     1.0000 0.30659  0.54380  0.42098  Biso   1.000  C
  C999     1.0000 0.08160  0.76639  0.56109  Biso   1.000  C
  C1000    1.0000 0.00518  0.74371  0.65670  Biso   1.000  C
  C1001    1.0000 0.93120  0.63580  0.63210  Biso   1.000  C
  C1002    1.0000 0.19688  0.71493  0.47471  Biso   1.000  C
  C1003    1.0000 0.34110  0.76623  0.50980  Biso   1.000  C
  N112     1.0000 0.60648  0.11771  0.39330  Biso   1.000  N
  H918     1.0000 0.72983  0.16201  0.37573  Biso   1.000  H
  N113     1.0000 0.45623  0.68308  0.66052  Biso   1.000  N
  H919     1.0000 0.52107  0.71180  0.60917  Biso   1.000  H
  H920     1.0000 0.06042  0.22375  0.34262  Biso   1.000  H
  C1004    1.0000 0.91733  0.24029  0.32129  Biso   1.000  C
  C1005    1.0000 0.84389  0.34941  0.34400  Biso   1.000  C
  H921     1.0000 0.93326  0.40543  0.38538  Biso   1.000  H
  H922     1.0000 0.16526  0.42376  0.31254  Biso   1.000  H
  H923     1.0000 0.15970  0.49149  0.34333  Biso   1.000  H
  H924     1.0000 0.06110  0.44279  0.33663  Biso   1.000  H
  C1006    1.0000 0.41128  0.56050  0.34509  Biso   1.000  C
  H925     1.0000 0.35589  0.46155  0.33146  Biso   1.000  H
  H926     1.0000 0.35596  0.46155  0.33146  Biso   1.000  H
  C1007    1.0000 0.36320  0.60220  0.41351  Biso   1.000  C
  H927     1.0000 0.26827  0.54046  0.44677  Biso   1.000  H
  H928     1.0000 0.11718  0.81001  0.56933  Biso   1.000  H
  H929     1.0000 0.01486  0.76491  0.57523  Biso   1.000  H
  H930     1.0000 0.07230  0.76544  0.52994  Biso   1.000  H
  H931     1.0000 0.06042  0.77625  0.65738  Biso   1.000  H
  C1008    1.0000 0.91733  0.75971  0.67871  Biso   1.000  C
  C1009    1.0000 0.84389  0.65059  0.65600  Biso   1.000  C
  H932     1.0000 0.93326  0.59457  0.61462  Biso   1.000  H
  C1010    1.0000 0.21691  0.75362  0.43869  Biso   1.000  C
  H933     1.0000 0.14042  0.68345  0.47474  Biso   1.000  H
  C1011    1.0000 0.35909  0.80381  0.47429  Biso   1.000  C
  H934     1.0000 0.38507  0.77058  0.53389  Biso   1.000  H
  C1012    1.0000 0.59688  0.08040  0.35420  Biso   1.000  C
  C1013    1.0000 0.39672  0.74869  0.66138  Biso   1.000  C
  H935     1.0000 0.91238  0.19662  0.30622  Biso   1.000  H
  C1014    1.0000 0.83619  0.28671  0.32091  Biso   1.000  C
  H936     1.0000 0.91246  0.19662  0.30622  Biso   1.000  H
  H937     1.0000 0.78926  0.38248  0.34346  Biso   1.000  H
  H938     1.0000 0.78933  0.38248  0.34346  Biso   1.000  H
  C1015    1.0000 0.41829  0.61143  0.37621  Biso   1.000  C
  H939     1.0000 0.44366  0.56765  0.31818  Biso   1.000  H
  H940     1.0000 0.36526  0.63830  0.43474  Biso   1.000  H
  H941     1.0000 0.91238  0.80338  0.69378  Biso   1.000  H
  C1016    1.0000 0.83619  0.71329  0.67909  Biso   1.000  C
  H942     1.0000 0.91246  0.80338  0.69378  Biso   1.000  H
  H943     1.0000 0.78926  0.61752  0.65654  Biso   1.000  H
  H944     1.0000 0.78933  0.61752  0.65654  Biso   1.000  H
  C1017    1.0000 0.30080  0.79840  0.43731  Biso   1.000  C
  H945     1.0000 0.17318  0.74985  0.41454  Biso   1.000  H
  H946     1.0000 0.41486  0.83592  0.47432  Biso   1.000  H
  C1018    1.0000 0.50232  0.10271  0.33008  Biso   1.000  C
  H947     1.0000 0.59368  0.02888  0.36011  Biso   1.000  H
  H948     1.0000 0.65760  0.08941  0.33615  Biso   1.000  H
  C1019    1.0000 0.42362  0.79230  0.70061  Biso   1.000  C
  H949     1.0000 0.32312  0.73713  0.66193  Biso   1.000  H
  H950     1.0000 0.41067  0.77662  0.63521  Biso   1.000  H
  C1020    1.0000 0.74309  0.27479  0.29631  Biso   1.000  C
  C1021    1.0000 0.48343  0.67502  0.37011  Biso   1.000  C
  C1022    1.0000 0.74309  0.72521  0.70369  Biso   1.000  C
  C1023    1.0000 0.31840  0.84138  0.39831  Biso   1.000  C
  N114     1.0000 0.52061  0.16880  0.30648  Biso   1.000  N
  H951     1.0000 0.48236  0.06487  0.30981  Biso   1.000  H
  H952     1.0000 0.44564  0.10970  0.35064  Biso   1.000  H
  N115     1.0000 0.52061  0.83120  0.69352  Biso   1.000  N
  H953     1.0000 0.36823  0.82649  0.70664  Biso   1.000  H
  H954     1.0000 0.43070  0.76072  0.72582  Biso   1.000  H
  N116     1.0000 0.73097  0.22100  0.27155  Biso   1.000  N
  H955     1.0000 0.68930  0.30828  0.29875  Biso   1.000  H
  H956     1.0000 0.47893  0.71180  0.39083  Biso   1.000  H
  N117     1.0000 0.54377  0.68308  0.33948  Biso   1.000  N
  N118     1.0000 0.54385  0.68308  0.33948  Biso   1.000  N
  N119     1.0000 0.73097  0.77900  0.72845  Biso   1.000  N
  H957     1.0000 0.68930  0.69172  0.70125  Biso   1.000  H
  N120     1.0000 0.39352  0.88229  0.39330  Biso   1.000  N
  H958     1.0000 0.27017  0.83799  0.37573  Biso   1.000  H
  C1024    1.0000 0.56952  0.15348  0.26539  Biso   1.000  C
  C1025    1.0000 0.42362  0.20770  0.29939  Biso   1.000  C
  C1026    1.0000 0.50232  0.89729  0.66988  Biso   1.000  C
  C1027    1.0000 0.56952  0.84652  0.73461  Biso   1.000  C
  C1028    1.0000 0.63253  0.21490  0.24881  Biso   1.000  C
  C1029    1.0000 0.60328  0.74869  0.33858  Biso   1.000  C
  C1030    1.0000 0.63253  0.78510  0.75119  Biso   1.000  C
  C1031    1.0000 0.40312  0.91960  0.35420  Biso   1.000  C
  H959     1.0000 0.51642  0.14171  0.24403  Biso   1.000  H
  H960     1.0000 0.61402  0.11151  0.26872  Biso   1.000  H
  H961     1.0000 0.61410  0.11151  0.26872  Biso   1.000  H
  H962     1.0000 0.36823  0.17351  0.29336  Biso   1.000  H
  H963     1.0000 0.43070  0.23928  0.27418  Biso   1.000  H
  C1032    1.0000 0.39672  0.25131  0.33858  Biso   1.000  C
  C1033    1.0000 0.59688  0.91960  0.64580  Biso   1.000  C
  H964     1.0000 0.48236  0.93513  0.69019  Biso   1.000  H
  H965     1.0000 0.44564  0.89030  0.64932  Biso   1.000  H
  H966     1.0000 0.51642  0.85829  0.75597  Biso   1.000  H
  H967     1.0000 0.61402  0.88849  0.73128  Biso   1.000  H
  H968     1.0000 0.61410  0.88849  0.73128  Biso   1.000  H
  H969     1.0000 0.64549  0.20807  0.21772  Biso   1.000  H
  H970     1.0000 0.59368  0.25942  0.25230  Biso   1.000  H
  C1034    1.0000 0.57638  0.79230  0.29939  Biso   1.000  C
  H971     1.0000 0.67688  0.73713  0.33807  Biso   1.000  H
  H972     1.0000 0.58933  0.77662  0.36479  Biso   1.000  H
  H973     1.0000 0.64549  0.79193  0.78224  Biso   1.000  H
  H974     1.0000 0.59368  0.74058  0.74767  Biso   1.000  H
  C1035    1.0000 0.49768  0.89729  0.33008  Biso   1.000  C
  H975     1.0000 0.40632  0.97112  0.36011  Biso   1.000  H
  H976     1.0000 0.34240  0.91059  0.33615  Biso   1.000  H
  N121     1.0000 0.45623  0.31692  0.33948  Biso   1.000  N
  H977     1.0000 0.32312  0.26287  0.33807  Biso   1.000  H
  H978     1.0000 0.41067  0.22338  0.36479  Biso   1.000  H
  N122     1.0000 0.60648  0.88229  0.60670  Biso   1.000  N
  H979     1.0000 0.59368  0.97112  0.63989  Biso   1.000  H
  H980     1.0000 0.65760  0.91059  0.66382  Biso   1.000  H
  N123     1.0000 0.47939  0.83120  0.30648  Biso   1.000  N
  H981     1.0000 0.63177  0.82649  0.29336  Biso   1.000  H
  H982     1.0000 0.56930  0.76072  0.27418  Biso   1.000  H
  H983     1.0000 0.51764  0.93513  0.30981  Biso   1.000  H
  H984     1.0000 0.55436  0.89030  0.35064  Biso   1.000  H
  C1036    1.0000 0.51657  0.32498  0.37011  Biso   1.000  C
  C1037    1.0000 0.68160  0.84138  0.60169  Biso   1.000  C
  C1038    1.0000 0.43048  0.84652  0.26539  Biso   1.000  C
  C1039    1.0000 0.58171  0.38863  0.37621  Biso   1.000  C
  H985     1.0000 0.52107  0.28820  0.39083  Biso   1.000  H
  C1040    1.0000 0.69920  0.79840  0.56269  Biso   1.000  C
  H986     1.0000 0.72983  0.83799  0.62427  Biso   1.000  H
  H987     1.0000 0.48358  0.85829  0.24403  Biso   1.000  H
  H988     1.0000 0.38598  0.88849  0.26872  Biso   1.000  H
  C1041    1.0000 0.36747  0.78510  0.24881  Biso   1.000  C
  C1042    1.0000 0.36754  0.78510  0.24881  Biso   1.000  C
  C1043    1.0000 0.58872  0.43950  0.34509  Biso   1.000  C
  C1044    1.0000 0.63680  0.39780  0.41351  Biso   1.000  C
  C1045    1.0000 0.78309  0.75362  0.56131  Biso   1.000  C
  C1046    1.0000 0.64091  0.80381  0.52571  Biso   1.000  C
  N124     1.0000 0.26903  0.77900  0.27155  Biso   1.000  N
  H989     1.0000 0.40632  0.74058  0.25230  Biso   1.000  H
  H990     1.0000 0.35451  0.79193  0.21772  Biso   1.000  H
  H991     1.0000 0.35459  0.79193  0.21772  Biso   1.000  H
  C1047    1.0000 0.64328  0.50231  0.35270  Biso   1.000  C
  H992     1.0000 0.55634  0.43235  0.31818  Biso   1.000  H
  H993     1.0000 0.63474  0.36170  0.43474  Biso   1.000  H
  C1048    1.0000 0.69341  0.45620  0.42098  Biso   1.000  C
  C1049    1.0000 0.80312  0.71493  0.52529  Biso   1.000  C
  H994     1.0000 0.82682  0.74985  0.58546  Biso   1.000  H
  C1050    1.0000 0.65890  0.76623  0.49020  Biso   1.000  C
  H995     1.0000 0.58514  0.83592  0.52568  Biso   1.000  H
  H996     1.0000 0.58522  0.83592  0.52568  Biso   1.000  H
  C1051    1.0000 0.25691  0.72521  0.29631  Biso   1.000  C
  C1052    1.0000 0.69676  0.51211  0.39119  Biso   1.000  C
  H997     1.0000 0.64411  0.53845  0.33146  Biso   1.000  H
  C1053    1.0000 0.69684  0.51211  0.39119  Biso   1.000  C
  H998     1.0000 0.73173  0.45954  0.44677  Biso   1.000  H
  C1054    1.0000 0.74309  0.72028  0.48860  Biso   1.000  C
  H999     1.0000 0.85958  0.68345  0.52526  Biso   1.000  H
  H1000    1.0000 0.61493  0.77058  0.46611  Biso   1.000  H
  H1001    1.0000 0.31070  0.69172  0.29875  Biso   1.000  H
  C1055    1.0000 0.16381  0.71329  0.32091  Biso   1.000  C
  C1056    1.0000 0.75139  0.57809  0.40129  Biso   1.000  C
  C1057    1.0000 0.77067  0.68059  0.44959  Biso   1.000  C
  C1058    1.0000 0.77074  0.68059  0.44959  Biso   1.000  C
  C1059    1.0000 0.15611  0.65059  0.34400  Biso   1.000  C
  C1060    1.0000 0.08267  0.75971  0.32129  Biso   1.000  C
  C1061    1.0000 0.08274  0.75971  0.32129  Biso   1.000  C
  C1062    1.0000 0.71703  0.61890  0.43670  Biso   1.000  C
  C1063    1.0000 0.83238  0.60268  0.37659  Biso   1.000  C
  C1064    1.0000 0.85608  0.70279  0.42509  Biso   1.000  C
  H1002    1.0000 0.21074  0.61752  0.34346  Biso   1.000  H
  C1065    1.0000 0.06880  0.63580  0.36790  Biso   1.000  C
  H1003    1.0000 0.08762  0.80338  0.30622  Biso   1.000  H
  C1066    1.0000 0.99482  0.74371  0.34330  Biso   1.000  C
  C1067    1.0000 0.62309  0.59860  0.46121  Biso   1.000  C
  C1068    1.0000 0.86438  0.55710  0.33900  Biso   1.000  C
  C1069    1.0000 0.88907  0.66199  0.38949  Biso   1.000  C
  C1070    1.0000 0.88914  0.66199  0.38949  Biso   1.000  C
  C1071    1.0000 0.91840  0.76639  0.43891  Biso   1.000  C
  C1072    1.0000 0.98438  0.68091  0.36658  Biso   1.000  C
  H1004    1.0000 0.06674  0.59457  0.38538  Biso   1.000  H
  H1005    1.0000 0.93958  0.77625  0.34262  Biso   1.000  H
  H1006    1.0000 0.64114  0.56447  0.48366  Biso   1.000  H
  H1007    1.0000 0.57356  0.57703  0.44161  Biso   1.000  H
  H1008    1.0000 0.59322  0.64089  0.47436  Biso   1.000  H
  H1009    1.0000 0.83474  0.57629  0.31254  Biso   1.000  H
  H1010    1.0000 0.84030  0.50856  0.34333  Biso   1.000  H
  H1011    1.0000 0.93890  0.55721  0.33663  Biso   1.000  H
  H1012    1.0000 0.83482  0.57629  0.31254  Biso   1.000  H
  H1013    1.0000 0.88282  0.81001  0.43067  Biso   1.000  H
  H1014    1.0000 0.98514  0.76491  0.42477  Biso   1.000  H
  H1015    1.0000 0.92770  0.76544  0.47006  Biso   1.000  H
  H1016    1.0000 0.92777  0.76544  0.47006  Biso   1.000  H
