data_image0
_cell_length_a       25.148
_cell_length_b       25.148
_cell_length_c       11.027
_cell_angle_alpha    90
_cell_angle_beta     90
_cell_angle_gamma    120

_symmetry_space_group_name_H-M    "P 1"
_symmetry_int_tables_number       1

loop_
  _symmetry_equiv_pos_as_xyz
  'x, y, z'

loop_
  _atom_site_label
  _atom_site_occupancy
  _atom_site_fract_x
  _atom_site_fract_y
  _atom_site_fract_z
  _atom_site_thermal_displace_type
  _atom_site_B_iso_or_equiv
  _atom_site_type_symbol
  C1       1.0000 0.15704  0.20942  0.26626  Biso   1.000  C
  N1       1.0000 0.19912  0.21659  0.34143  Biso   1.000  N
  N2       1.0000 0.19908  0.21659  0.34143  Biso   1.000  N
  C2       1.0000 0.14869  0.17999  0.15000  Biso   1.000  C
  H1       1.0000 0.13071  0.22389  0.28784  Biso   1.000  H
  H2       1.0000 0.13067  0.22389  0.28784  Biso   1.000  H
  C3       1.0000 0.14873  0.17999  0.15000  Biso   1.000  C
  C4       1.0000 0.15700  0.20942  0.26626  Biso   1.000  C
  C5       1.0000 0.20398  0.24859  0.45271  Biso   1.000  C
  C6       1.0000 0.20402  0.24859  0.45271  Biso   1.000  C
  C7       1.0000 0.11001  0.18431  0.06502  Biso   1.000  C
  C8       1.0000 0.17911  0.14891  0.11526  Biso   1.000  C
  H3       1.0000 0.17160  0.25938  0.45534  Biso   1.000  H
  C9       1.0000 0.26692  0.30750  0.45643  Biso   1.000  C
  C10      1.0000 0.19682  0.20731  0.56135  Biso   1.000  C
  H4       1.0000 0.17163  0.25943  0.45534  Biso   1.000  H
  C11      1.0000 0.26688  0.30750  0.45643  Biso   1.000  C
  C12      1.0000 0.19678  0.20731  0.56135  Biso   1.000  C
  H5       1.0000 0.08828  0.20368  0.08679  Biso   1.000  H
  H6       1.0000 0.08832  0.20368  0.08679  Biso   1.000  H
  C13      1.0000 0.10293  0.16052  0.94940  Biso   1.000  C
  C14      1.0000 0.10289  0.16052  0.94940  Biso   1.000  C
  C15      1.0000 0.17261  0.12430  0.00227  Biso   1.000  C
  H7       1.0000 0.20460  0.14468  0.17103  Biso   1.000  H
  C16      1.0000 0.17257  0.12430  0.00227  Biso   1.000  C
  H8       1.0000 0.26929  0.33491  0.39213  Biso   1.000  H
  H9       1.0000 0.29901  0.29740  0.44291  Biso   1.000  H
  C17      1.0000 0.27730  0.34010  0.57976  Biso   1.000  C
  H10      1.0000 0.26933  0.33491  0.39213  Biso   1.000  H
  N3       1.0000 0.13341  0.15731  0.56135  Biso   1.000  N
  C18      1.0000 0.21020  0.24138  0.68160  Biso   1.000  C
  H11      1.0000 0.22441  0.19060  0.55146  Biso   1.000  H
  C19      1.0000 0.21022  0.24143  0.68160  Biso   1.000  C
  H12      1.0000 0.22437  0.19060  0.55146  Biso   1.000  H
  C20      1.0000 0.13330  0.12870  0.92074  Biso   1.000  C
  C21      1.0000 0.06632  0.17122  0.86007  Biso   1.000  C
  C22      1.0000 0.06629  0.17122  0.86007  Biso   1.000  C
  C23      1.0000 0.20830  0.09339  0.96690  Biso   1.000  C
  H13      1.0000 0.31751  0.37679  0.58039  Biso   1.000  H
  H14      1.0000 0.24680  0.35259  0.59082  Biso   1.000  H
  C24      1.0000 0.27301  0.29901  0.68269  Biso   1.000  C
  H15      1.0000 0.31747  0.37679  0.58039  Biso   1.000  H
  C25      1.0000 0.12262  0.10271  0.55482  Biso   1.000  C
  H16      1.0000 0.17901  0.25249  0.69656  Biso   1.000  H
  H17      1.0000 0.20807  0.21438  0.74653  Biso   1.000  H
  H18      1.0000 0.17897  0.25249  0.69656  Biso   1.000  H
  H19      1.0000 0.20811  0.21438  0.74653  Biso   1.000  H
  H20      1.0000 0.12702  0.11002  0.84511  Biso   1.000  H
  N4       1.0000 0.04959  0.21020  0.87576  Biso   1.000  N
  H21      1.0000 0.05491  0.14831  0.78897  Biso   1.000  H
  N5       1.0000 0.04963  0.21020  0.87576  Biso   1.000  N
  H22      1.0000 0.22790  0.08352  0.02684  Biso   1.000  H
  H23      1.0000 0.22794  0.08352  0.02684  Biso   1.000  H
  N6       1.0000 0.21231  0.08090  0.85962  Biso   1.000  N
  H24      1.0000 0.27922  0.32040  0.75923  Biso   1.000  H
  H25      1.0000 0.30468  0.28799  0.67434  Biso   1.000  H
  H26      1.0000 0.27918  0.32040  0.75923  Biso   1.000  H
  H27      1.0000 0.30472  0.28799  0.67434  Biso   1.000  H
  H28      1.0000 0.15549  0.09569  0.54938  Biso   1.000  H
  C26      1.0000 0.06020  0.05009  0.55536  Biso   1.000  C
  H29      1.0000 0.15553  0.09569  0.54938  Biso   1.000  H
  C27      1.0000 0.01313  0.21792  0.78226  Biso   1.000  C
  C28      1.0000 0.01309  0.21792  0.78226  Biso   1.000  C
  C29      1.0000 0.24741  0.05009  0.83622  Biso   1.000  C
  C30      1.0000 0.00881  0.05850  0.55500  Biso   1.000  C
  C31      1.0000 0.04971  0.99118  0.55500  Biso   1.000  C
  C32      1.0000 0.04967  0.99118  0.55500  Biso   1.000  C
  C33      1.0000 0.94989  0.19730  0.83622  Biso   1.000  C
  H30      1.0000 0.00881  0.19202  0.71252  Biso   1.000  H
  C34      1.0000 0.04418  0.28440  0.74236  Biso   1.000  C
  C35      1.0000 0.04422  0.28440  0.74236  Biso   1.000  C
  C36      1.0000 0.20481  0.98691  0.78226  Biso   1.000  C
  H31      1.0000 0.26443  0.04532  0.91276  Biso   1.000  H
  C37      1.0000 0.30078  0.08940  0.74789  Biso   1.000  C
  H32      1.0000 0.26439  0.04532  0.91276  Biso   1.000  H
  C38      1.0000 0.30082  0.08940  0.74789  Biso   1.000  C
  H33      1.0000 0.01511  0.09821  0.55437  Biso   1.000  H
  C39      1.0000 0.94990  0.01010  0.55536  Biso   1.000  C
  C40      1.0000 0.98990  0.93980  0.55536  Biso   1.000  C
  H34      1.0000 0.08311  0.98489  0.55437  Biso   1.000  H
  H35      1.0000 0.95471  0.21911  0.91276  Biso   1.000  H
  C41      1.0000 0.91061  0.21140  0.74789  Biso   1.000  C
  N7       1.0000 0.91909  0.13141  0.85962  Biso   1.000  N
  C42      1.0000 0.91057  0.21140  0.74789  Biso   1.000  C
  N8       1.0000 0.91913  0.13141  0.85962  Biso   1.000  N
  C43      1.0000 0.00489  0.29680  0.65485  Biso   1.000  C
  H36      1.0000 0.08289  0.29510  0.70364  Biso   1.000  H
  H37      1.0000 0.05300  0.31039  0.81319  Biso   1.000  H
  C44      1.0000 0.00493  0.29680  0.65485  Biso   1.000  C
  N9       1.0000 0.16059  0.95041  0.87576  Biso   1.000  N
  H38      1.0000 0.18320  0.99118  0.71252  Biso   1.000  H
  C45      1.0000 0.24018  0.95578  0.74236  Biso   1.000  C
  N10      1.0000 0.16063  0.95041  0.87576  Biso   1.000  N
  C46      1.0000 0.24022  0.95578  0.74236  Biso   1.000  C
  H39      1.0000 0.28459  0.09900  0.67661  Biso   1.000  H
  H40      1.0000 0.32948  0.12778  0.78698  Biso   1.000  H
  C47      1.0000 0.33381  0.05620  0.71044  Biso   1.000  C
  H41      1.0000 0.28463  0.09900  0.67661  Biso   1.000  H
  H42      1.0000 0.32952  0.12778  0.78698  Biso   1.000  H
  C48      1.0000 0.94152  0.95032  0.55500  Biso   1.000  C
  C49      1.0000 0.89729  0.01988  0.55482  Biso   1.000  C
  C50      1.0000 0.98010  0.87740  0.55482  Biso   1.000  C
  H43      1.0000 0.90101  0.18559  0.67661  Biso   1.000  H
  H44      1.0000 0.87221  0.20171  0.78698  Biso   1.000  H
  C51      1.0000 0.94380  0.27761  0.71044  Biso   1.000  C
  H45      1.0000 0.90097  0.18559  0.67661  Biso   1.000  H
  C52      1.0000 0.90657  0.11488  0.96690  Biso   1.000  C
  C53      1.0000 0.90661  0.11488  0.96690  Biso   1.000  C
  H46      1.0000 0.99940  0.27421  0.58012  Biso   1.000  H
  H47      1.0000 0.02539  0.34019  0.63544  Biso   1.000  H
  C54      1.0000 0.10491  0.93370  0.86007  Biso   1.000  C
  C55      1.0000 0.29188  0.99509  0.65485  Biso   1.000  C
  H48      1.0000 0.21222  0.91712  0.70364  Biso   1.000  H
  H49      1.0000 0.25743  0.94701  0.81319  Biso   1.000  H
  H50      1.0000 0.25739  0.94701  0.81319  Biso   1.000  H
  C56      1.0000 0.29192  0.99509  0.65485  Biso   1.000  C
  H51      1.0000 0.36562  0.08132  0.65249  Biso   1.000  H
  H52      1.0000 0.35360  0.05060  0.78090  Biso   1.000  H
  H53      1.0000 0.90178  0.91689  0.55437  Biso   1.000  H
  H54      1.0000 0.90182  0.91689  0.55437  Biso   1.000  H
  N11      1.0000 0.84270  0.97608  0.56135  Biso   1.000  N
  N12      1.0000 0.84272  0.97612  0.56135  Biso   1.000  N
  H55      1.0000 0.90428  0.05978  0.54938  Biso   1.000  H
  H56      1.0000 0.90431  0.05978  0.54938  Biso   1.000  H
  H57      1.0000 0.94017  0.84448  0.54938  Biso   1.000  H
  H58      1.0000 0.94021  0.84448  0.54938  Biso   1.000  H
  N13      1.0000 0.02389  0.86661  0.56135  Biso   1.000  N
  N14      1.0000 0.02393  0.86661  0.56135  Biso   1.000  N
  H59      1.0000 0.91872  0.28431  0.65249  Biso   1.000  H
  H60      1.0000 0.94942  0.30300  0.78090  Biso   1.000  H
  H61      1.0000 0.91868  0.28431  0.65249  Biso   1.000  H
  H62      1.0000 0.94938  0.30300  0.78090  Biso   1.000  H
  H63      1.0000 0.91649  0.14441  0.02684  Biso   1.000  H
  C57      1.0000 0.87571  0.04830  0.00227  Biso   1.000  C
  H64      1.0000 0.91652  0.14441  0.02684  Biso   1.000  H
  C58      1.0000 0.05759  0.89710  0.94940  Biso   1.000  C
  H65      1.0000 0.09339  0.94508  0.78897  Biso   1.000  H
  C59      1.0000 0.05763  0.89710  0.94940  Biso   1.000  C
  H66      1.0000 0.31481  0.97461  0.63544  Biso   1.000  H
  H67      1.0000 0.27479  0.00060  0.58012  Biso   1.000  H
  H68      1.0000 0.27483  0.00060  0.58012  Biso   1.000  H
  C60      1.0000 0.79270  0.98949  0.56135  Biso   1.000  C
  C61      1.0000 0.01052  0.80320  0.56135  Biso   1.000  C
  C62      1.0000 0.01048  0.80320  0.56135  Biso   1.000  C
  C63      1.0000 0.87131  0.00459  0.92074  Biso   1.000  C
  C64      1.0000 0.87127  0.00459  0.92074  Biso   1.000  C
  C65      1.0000 0.85112  0.03021  0.11526  Biso   1.000  C
  C66      1.0000 0.99539  0.86671  0.92074  Biso   1.000  C
  C67      1.0000 0.99543  0.86671  0.92074  Biso   1.000  C
  C68      1.0000 0.07431  0.88998  0.06502  Biso   1.000  C
  C69      1.0000 0.75141  0.95542  0.45271  Biso   1.000  C
  C70      1.0000 0.75861  0.96878  0.68160  Biso   1.000  C
  C71      1.0000 0.75859  0.96882  0.68160  Biso   1.000  C
  C72      1.0000 0.75863  0.96882  0.68160  Biso   1.000  C
  H69      1.0000 0.80941  0.03379  0.55146  Biso   1.000  H
  H70      1.0000 0.96622  0.77561  0.55146  Biso   1.000  H
  H71      1.0000 0.96618  0.77561  0.55146  Biso   1.000  H
  C73      1.0000 0.04461  0.79599  0.45271  Biso   1.000  C
  C74      1.0000 0.03121  0.78980  0.68160  Biso   1.000  C
  C75      1.0000 0.83951  0.94242  0.94940  Biso   1.000  C
  H72      1.0000 0.89000  0.01699  0.84511  Biso   1.000  H
  C76      1.0000 0.82000  0.96869  0.15000  Biso   1.000  C
  H73      1.0000 0.85531  0.05992  0.17103  Biso   1.000  H
  H74      1.0000 0.98298  0.87300  0.84511  Biso   1.000  H
  H75      1.0000 0.98302  0.87300  0.84511  Biso   1.000  H
  C77      1.0000 0.95172  0.82740  0.00227  Biso   1.000  C
  C78      1.0000 0.95168  0.82740  0.00227  Biso   1.000  C
  H76      1.0000 0.11539  0.91170  0.08679  Biso   1.000  H
  C79      1.0000 0.03129  0.85128  0.15000  Biso   1.000  C
  C80      1.0000 0.03132  0.85132  0.15000  Biso   1.000  C
  H77      1.0000 0.11543  0.91170  0.08679  Biso   1.000  H
  N15      1.0000 0.78340  0.98251  0.34143  Biso   1.000  N
  H78      1.0000 0.74062  0.91221  0.45534  Biso   1.000  H
  C81      1.0000 0.69249  0.95941  0.45643  Biso   1.000  C
  H79      1.0000 0.74058  0.91221  0.45534  Biso   1.000  H
  C82      1.0000 0.69253  0.95941  0.45643  Biso   1.000  C
  C83      1.0000 0.70102  0.97401  0.68269  Biso   1.000  C
  H80      1.0000 0.74748  0.92649  0.69656  Biso   1.000  H
  H81      1.0000 0.78559  0.99371  0.74653  Biso   1.000  H
  C84      1.0000 0.70098  0.97401  0.68269  Biso   1.000  C
  H82      1.0000 0.74752  0.92649  0.69656  Biso   1.000  H
  H83      1.0000 0.78563  0.99371  0.74653  Biso   1.000  H
  N16      1.0000 0.01752  0.80091  0.34143  Biso   1.000  N
  H84      1.0000 0.08782  0.82841  0.45534  Biso   1.000  H
  C85      1.0000 0.04059  0.73309  0.45643  Biso   1.000  C
  N17      1.0000 0.01748  0.80091  0.34143  Biso   1.000  N
  C86      1.0000 0.02601  0.72698  0.68269  Biso   1.000  C
  H85      1.0000 0.07350  0.82102  0.69656  Biso   1.000  H
  H86      1.0000 0.00630  0.79191  0.74653  Biso   1.000  H
  C87      1.0000 0.02597  0.72698  0.68269  Biso   1.000  C
  C88      1.0000 0.82880  0.89508  0.86007  Biso   1.000  C
  C89      1.0000 0.82876  0.89508  0.86007  Biso   1.000  C
  C90      1.0000 0.81569  0.92571  0.06502  Biso   1.000  C
  C91      1.0000 0.81572  0.92571  0.06502  Biso   1.000  C
  C92      1.0000 0.79061  0.94761  0.26626  Biso   1.000  C
  C93      1.0000 0.88510  0.79168  0.96690  Biso   1.000  C
  C94      1.0000 0.96981  0.82088  0.11526  Biso   1.000  C
  C95      1.0000 0.96977  0.82088  0.11526  Biso   1.000  C
  C96      1.0000 0.05241  0.84301  0.26626  Biso   1.000  C
  H87      1.0000 0.66510  0.93439  0.39213  Biso   1.000  H
  C97      1.0000 0.65990  0.93719  0.57976  Biso   1.000  C
  H88      1.0000 0.70261  0.00161  0.44291  Biso   1.000  H
  H89      1.0000 0.67962  0.95881  0.75923  Biso   1.000  H
  H90      1.0000 0.67958  0.95881  0.75923  Biso   1.000  H
  H91      1.0000 0.71199  0.01671  0.67434  Biso   1.000  H
  H92      1.0000 0.71203  0.01671  0.67434  Biso   1.000  H
  H93      1.0000 0.99838  0.70099  0.44291  Biso   1.000  H
  H94      1.0000 0.99842  0.70099  0.44291  Biso   1.000  H
  H95      1.0000 0.06561  0.73070  0.39213  Biso   1.000  H
  C98      1.0000 0.06280  0.72271  0.57976  Biso   1.000  C
  H96      1.0000 0.98329  0.69530  0.67434  Biso   1.000  H
  H97      1.0000 0.98333  0.69530  0.67434  Biso   1.000  H
  H98      1.0000 0.04120  0.72078  0.75923  Biso   1.000  H
  N18      1.0000 0.78978  0.83939  0.87576  Biso   1.000  N
  H99      1.0000 0.85170  0.90661  0.78897  Biso   1.000  H
  N19      1.0000 0.78982  0.83939  0.87576  Biso   1.000  N
  H100     1.0000 0.79629  0.88461  0.08679  Biso   1.000  H
  H101     1.0000 0.79633  0.88461  0.08679  Biso   1.000  H
  H102     1.0000 0.77608  0.90679  0.28784  Biso   1.000  H
  H103     1.0000 0.77612  0.90679  0.28784  Biso   1.000  H
  N20      1.0000 0.86859  0.78768  0.85962  Biso   1.000  N
  H104     1.0000 0.85560  0.77212  0.02684  Biso   1.000  H
  H105     1.0000 0.85564  0.77212  0.02684  Biso   1.000  H
  H106     1.0000 0.94009  0.79540  0.17103  Biso   1.000  H
  H107     1.0000 0.94013  0.79540  0.17103  Biso   1.000  H
  H108     1.0000 0.09318  0.86928  0.28784  Biso   1.000  H
  H109     1.0000 0.09320  0.86932  0.28784  Biso   1.000  H
  H110     1.0000 0.09322  0.86928  0.28784  Biso   1.000  H
  H111     1.0000 0.62322  0.94072  0.58039  Biso   1.000  H
  H112     1.0000 0.64740  0.89421  0.59082  Biso   1.000  H
  H113     1.0000 0.05931  0.68249  0.58039  Biso   1.000  H
  H114     1.0000 0.10580  0.75320  0.59082  Biso   1.000  H
  H115     1.0000 0.05927  0.68249  0.58039  Biso   1.000  H
  C99      1.0000 0.78209  0.79521  0.78226  Biso   1.000  C
  C100     1.0000 0.78213  0.79521  0.78226  Biso   1.000  C
  C101     1.0000 0.80270  0.75260  0.83622  Biso   1.000  C
  H116     1.0000 0.80799  0.81679  0.71252  Biso   1.000  H
  C102     1.0000 0.71560  0.75981  0.74236  Biso   1.000  C
  H117     1.0000 0.78092  0.73561  0.91276  Biso   1.000  H
  C103     1.0000 0.78860  0.69920  0.74789  Biso   1.000  C
  H118     1.0000 0.78088  0.73561  0.91276  Biso   1.000  H
  C104     1.0000 0.70319  0.70811  0.65485  Biso   1.000  C
  H119     1.0000 0.70489  0.78778  0.70364  Biso   1.000  H
  H120     1.0000 0.68961  0.74259  0.81319  Biso   1.000  H
  H121     1.0000 0.70491  0.78782  0.70364  Biso   1.000  H
  H122     1.0000 0.68957  0.74259  0.81319  Biso   1.000  H
  C105     1.0000 0.70323  0.70811  0.65485  Biso   1.000  C
  H123     1.0000 0.81440  0.71541  0.67661  Biso   1.000  H
  H124     1.0000 0.79831  0.67051  0.78698  Biso   1.000  H
  C106     1.0000 0.72239  0.66619  0.71044  Biso   1.000  C
  H125     1.0000 0.65980  0.68520  0.63544  Biso   1.000  H
  H126     1.0000 0.72581  0.72519  0.58012  Biso   1.000  H
  H127     1.0000 0.71569  0.63442  0.65249  Biso   1.000  H
  H128     1.0000 0.69699  0.64640  0.78090  Biso   1.000  H
  H129     1.0000 0.71573  0.63442  0.65249  Biso   1.000  H
  H130     1.0000 0.69703  0.64640  0.78090  Biso   1.000  H
  C107     1.0000 0.15704  0.20942  0.26626  Biso   1.000  C
  N21      1.0000 0.19912  0.21659  0.34143  Biso   1.000  N
  N22      1.0000 0.19908  0.21659  0.34143  Biso   1.000  N
  C108     1.0000 0.14869  0.17999  0.15000  Biso   1.000  C
  H131     1.0000 0.13071  0.22389  0.28784  Biso   1.000  H
  H132     1.0000 0.13067  0.22389  0.28784  Biso   1.000  H
  C109     1.0000 0.14873  0.17999  0.15000  Biso   1.000  C
  C110     1.0000 0.15700  0.20942  0.26626  Biso   1.000  C
  C111     1.0000 0.20398  0.24859  0.45271  Biso   1.000  C
  C112     1.0000 0.20402  0.24859  0.45271  Biso   1.000  C
  C113     1.0000 0.11001  0.18431  0.06502  Biso   1.000  C
  C114     1.0000 0.17911  0.14891  0.11526  Biso   1.000  C
  H133     1.0000 0.17160  0.25938  0.45534  Biso   1.000  H
  C115     1.0000 0.26692  0.30750  0.45643  Biso   1.000  C
  C116     1.0000 0.19682  0.20731  0.56135  Biso   1.000  C
  H134     1.0000 0.17163  0.25943  0.45534  Biso   1.000  H
  C117     1.0000 0.26688  0.30750  0.45643  Biso   1.000  C
  C118     1.0000 0.19678  0.20731  0.56135  Biso   1.000  C
  H135     1.0000 0.08828  0.20368  0.08679  Biso   1.000  H
  C119     1.0000 0.10293  0.16052  0.94940  Biso   1.000  C
  C120     1.0000 0.10289  0.16052  0.94940  Biso   1.000  C
  H136     1.0000 0.08832  0.20368  0.08679  Biso   1.000  H
  H137     1.0000 0.20460  0.14468  0.17103  Biso   1.000  H
  C121     1.0000 0.17261  0.12430  0.00227  Biso   1.000  C
  C122     1.0000 0.17257  0.12430  0.00227  Biso   1.000  C
  H138     1.0000 0.26929  0.33491  0.39213  Biso   1.000  H
  H139     1.0000 0.29901  0.29740  0.44291  Biso   1.000  H
  C123     1.0000 0.27730  0.34010  0.57976  Biso   1.000  C
  H140     1.0000 0.26933  0.33491  0.39213  Biso   1.000  H
  N23      1.0000 0.13341  0.15731  0.56135  Biso   1.000  N
  C124     1.0000 0.21020  0.24138  0.68160  Biso   1.000  C
  H141     1.0000 0.22441  0.19060  0.55146  Biso   1.000  H
  C125     1.0000 0.21022  0.24143  0.68160  Biso   1.000  C
  H142     1.0000 0.22437  0.19060  0.55146  Biso   1.000  H
  C126     1.0000 0.13330  0.12870  0.92074  Biso   1.000  C
  C127     1.0000 0.06632  0.17122  0.86007  Biso   1.000  C
  C128     1.0000 0.06629  0.17122  0.86007  Biso   1.000  C
  C129     1.0000 0.20830  0.09339  0.96690  Biso   1.000  C
  H143     1.0000 0.24680  0.35259  0.59082  Biso   1.000  H
  C130     1.0000 0.27301  0.29901  0.68269  Biso   1.000  C
  H144     1.0000 0.31751  0.37679  0.58039  Biso   1.000  H
  H145     1.0000 0.31747  0.37679  0.58039  Biso   1.000  H
  C131     1.0000 0.12262  0.10271  0.55482  Biso   1.000  C
  H146     1.0000 0.20807  0.21438  0.74653  Biso   1.000  H
  H147     1.0000 0.17901  0.25249  0.69656  Biso   1.000  H
  H148     1.0000 0.20811  0.21438  0.74653  Biso   1.000  H
  H149     1.0000 0.17897  0.25249  0.69656  Biso   1.000  H
  H150     1.0000 0.12702  0.11002  0.84511  Biso   1.000  H
  N24      1.0000 0.04959  0.21020  0.87576  Biso   1.000  N
  H151     1.0000 0.05491  0.14831  0.78897  Biso   1.000  H
  N25      1.0000 0.04963  0.21020  0.87576  Biso   1.000  N
  H152     1.0000 0.22790  0.08352  0.02684  Biso   1.000  H
  H153     1.0000 0.22794  0.08352  0.02684  Biso   1.000  H
  N26      1.0000 0.21231  0.08090  0.85962  Biso   1.000  N
  H154     1.0000 0.30468  0.28799  0.67434  Biso   1.000  H
  H155     1.0000 0.27922  0.32040  0.75923  Biso   1.000  H
  H156     1.0000 0.27918  0.32040  0.75923  Biso   1.000  H
  H157     1.0000 0.30472  0.28799  0.67434  Biso   1.000  H
  H158     1.0000 0.15549  0.09569  0.54938  Biso   1.000  H
  C132     1.0000 0.06020  0.05009  0.55536  Biso   1.000  C
  H159     1.0000 0.15553  0.09569  0.54938  Biso   1.000  H
  C133     1.0000 0.01313  0.21792  0.78226  Biso   1.000  C
  C134     1.0000 0.01309  0.21792  0.78226  Biso   1.000  C
  C135     1.0000 0.24741  0.05009  0.83622  Biso   1.000  C
  C136     1.0000 0.00881  0.05850  0.55500  Biso   1.000  C
  C137     1.0000 0.04971  0.99118  0.55500  Biso   1.000  C
  C138     1.0000 0.04967  0.99118  0.55500  Biso   1.000  C
  C139     1.0000 0.94989  0.19730  0.83622  Biso   1.000  C
  H160     1.0000 0.00881  0.19202  0.71252  Biso   1.000  H
  C140     1.0000 0.04418  0.28440  0.74236  Biso   1.000  C
  C141     1.0000 0.04422  0.28440  0.74236  Biso   1.000  C
  C142     1.0000 0.20481  0.98691  0.78226  Biso   1.000  C
  H161     1.0000 0.26443  0.04532  0.91276  Biso   1.000  H
  C143     1.0000 0.30078  0.08940  0.74789  Biso   1.000  C
  H162     1.0000 0.26439  0.04532  0.91276  Biso   1.000  H
  C144     1.0000 0.30082  0.08940  0.74789  Biso   1.000  C
  H163     1.0000 0.01511  0.09821  0.55437  Biso   1.000  H
  C145     1.0000 0.94990  0.01010  0.55536  Biso   1.000  C
  C146     1.0000 0.98990  0.93980  0.55536  Biso   1.000  C
  H164     1.0000 0.08311  0.98489  0.55437  Biso   1.000  H
  H165     1.0000 0.95471  0.21911  0.91276  Biso   1.000  H
  C147     1.0000 0.91061  0.21140  0.74789  Biso   1.000  C
  N27      1.0000 0.91909  0.13141  0.85962  Biso   1.000  N
  C148     1.0000 0.91057  0.21140  0.74789  Biso   1.000  C
  N28      1.0000 0.91913  0.13141  0.85962  Biso   1.000  N
  C149     1.0000 0.00489  0.29680  0.65485  Biso   1.000  C
  H166     1.0000 0.08289  0.29510  0.70364  Biso   1.000  H
  H167     1.0000 0.05300  0.31039  0.81319  Biso   1.000  H
  C150     1.0000 0.00493  0.29680  0.65485  Biso   1.000  C
  N29      1.0000 0.16059  0.95041  0.87576  Biso   1.000  N
  H168     1.0000 0.18320  0.99118  0.71252  Biso   1.000  H
  C151     1.0000 0.24018  0.95578  0.74236  Biso   1.000  C
  N30      1.0000 0.16063  0.95041  0.87576  Biso   1.000  N
  C152     1.0000 0.24022  0.95578  0.74236  Biso   1.000  C
  H169     1.0000 0.28459  0.09900  0.67661  Biso   1.000  H
  H170     1.0000 0.32948  0.12778  0.78698  Biso   1.000  H
  C153     1.0000 0.33381  0.05620  0.71044  Biso   1.000  C
  H171     1.0000 0.28463  0.09900  0.67661  Biso   1.000  H
  H172     1.0000 0.32952  0.12778  0.78698  Biso   1.000  H
  C154     1.0000 0.94152  0.95032  0.55500  Biso   1.000  C
  C155     1.0000 0.89729  0.01988  0.55482  Biso   1.000  C
  C156     1.0000 0.98010  0.87740  0.55482  Biso   1.000  C
  H173     1.0000 0.90101  0.18559  0.67661  Biso   1.000  H
  H174     1.0000 0.87221  0.20171  0.78698  Biso   1.000  H
  C157     1.0000 0.94380  0.27761  0.71044  Biso   1.000  C
  H175     1.0000 0.90097  0.18559  0.67661  Biso   1.000  H
  C158     1.0000 0.90657  0.11488  0.96690  Biso   1.000  C
  C159     1.0000 0.90661  0.11488  0.96690  Biso   1.000  C
  H176     1.0000 0.99940  0.27421  0.58012  Biso   1.000  H
  H177     1.0000 0.02539  0.34019  0.63544  Biso   1.000  H
  C160     1.0000 0.10491  0.93370  0.86007  Biso   1.000  C
  C161     1.0000 0.29188  0.99509  0.65485  Biso   1.000  C
  H178     1.0000 0.21222  0.91712  0.70364  Biso   1.000  H
  H179     1.0000 0.25743  0.94701  0.81319  Biso   1.000  H
  H180     1.0000 0.25739  0.94701  0.81319  Biso   1.000  H
  C162     1.0000 0.29192  0.99509  0.65485  Biso   1.000  C
  H181     1.0000 0.36562  0.08132  0.65249  Biso   1.000  H
  H182     1.0000 0.35360  0.05060  0.78090  Biso   1.000  H
  H183     1.0000 0.90178  0.91689  0.55437  Biso   1.000  H
  H184     1.0000 0.90182  0.91689  0.55437  Biso   1.000  H
  N31      1.0000 0.84270  0.97608  0.56135  Biso   1.000  N
  N32      1.0000 0.84272  0.97612  0.56135  Biso   1.000  N
  H185     1.0000 0.90428  0.05978  0.54938  Biso   1.000  H
  H186     1.0000 0.90431  0.05978  0.54938  Biso   1.000  H
  H187     1.0000 0.94017  0.84448  0.54938  Biso   1.000  H
  H188     1.0000 0.94021  0.84448  0.54938  Biso   1.000  H
  N33      1.0000 0.02389  0.86661  0.56135  Biso   1.000  N
  N34      1.0000 0.02393  0.86661  0.56135  Biso   1.000  N
  H189     1.0000 0.91872  0.28431  0.65249  Biso   1.000  H
  H190     1.0000 0.94942  0.30300  0.78090  Biso   1.000  H
  H191     1.0000 0.91868  0.28431  0.65249  Biso   1.000  H
  H192     1.0000 0.94938  0.30300  0.78090  Biso   1.000  H
  H193     1.0000 0.91649  0.14441  0.02684  Biso   1.000  H
  C163     1.0000 0.87571  0.04830  0.00227  Biso   1.000  C
  H194     1.0000 0.91652  0.14441  0.02684  Biso   1.000  H
  C164     1.0000 0.05759  0.89710  0.94940  Biso   1.000  C
  H195     1.0000 0.09339  0.94508  0.78897  Biso   1.000  H
  C165     1.0000 0.05763  0.89710  0.94940  Biso   1.000  C
  H196     1.0000 0.31481  0.97461  0.63544  Biso   1.000  H
  H197     1.0000 0.27479  0.00060  0.58012  Biso   1.000  H
  H198     1.0000 0.27483  0.00060  0.58012  Biso   1.000  H
  C166     1.0000 0.79270  0.98949  0.56135  Biso   1.000  C
  C167     1.0000 0.01052  0.80320  0.56135  Biso   1.000  C
  C168     1.0000 0.01048  0.80320  0.56135  Biso   1.000  C
  C169     1.0000 0.87131  0.00459  0.92074  Biso   1.000  C
  C170     1.0000 0.87127  0.00459  0.92074  Biso   1.000  C
  C171     1.0000 0.85112  0.03021  0.11526  Biso   1.000  C
  C172     1.0000 0.99539  0.86671  0.92074  Biso   1.000  C
  C173     1.0000 0.99543  0.86671  0.92074  Biso   1.000  C
  C174     1.0000 0.07431  0.88998  0.06502  Biso   1.000  C
  C175     1.0000 0.75141  0.95542  0.45271  Biso   1.000  C
  C176     1.0000 0.75861  0.96878  0.68160  Biso   1.000  C
  C177     1.0000 0.75859  0.96882  0.68160  Biso   1.000  C
  C178     1.0000 0.75863  0.96882  0.68160  Biso   1.000  C
  H199     1.0000 0.80941  0.03379  0.55146  Biso   1.000  H
  H200     1.0000 0.96622  0.77561  0.55146  Biso   1.000  H
  H201     1.0000 0.96618  0.77561  0.55146  Biso   1.000  H
  C179     1.0000 0.04461  0.79599  0.45271  Biso   1.000  C
  C180     1.0000 0.03121  0.78980  0.68160  Biso   1.000  C
  C181     1.0000 0.83951  0.94242  0.94940  Biso   1.000  C
  H202     1.0000 0.89000  0.01699  0.84511  Biso   1.000  H
  C182     1.0000 0.82000  0.96869  0.15000  Biso   1.000  C
  H203     1.0000 0.85531  0.05992  0.17103  Biso   1.000  H
  H204     1.0000 0.98298  0.87300  0.84511  Biso   1.000  H
  H205     1.0000 0.98302  0.87300  0.84511  Biso   1.000  H
  C183     1.0000 0.95172  0.82740  0.00227  Biso   1.000  C
  C184     1.0000 0.95168  0.82740  0.00227  Biso   1.000  C
  H206     1.0000 0.11539  0.91170  0.08679  Biso   1.000  H
  C185     1.0000 0.03129  0.85128  0.15000  Biso   1.000  C
  C186     1.0000 0.03132  0.85132  0.15000  Biso   1.000  C
  H207     1.0000 0.11543  0.91170  0.08679  Biso   1.000  H
  N35      1.0000 0.78340  0.98251  0.34143  Biso   1.000  N
  H208     1.0000 0.74062  0.91221  0.45534  Biso   1.000  H
  C187     1.0000 0.69249  0.95941  0.45643  Biso   1.000  C
  H209     1.0000 0.74058  0.91221  0.45534  Biso   1.000  H
  C188     1.0000 0.69253  0.95941  0.45643  Biso   1.000  C
  C189     1.0000 0.70102  0.97401  0.68269  Biso   1.000  C
  H210     1.0000 0.74748  0.92649  0.69656  Biso   1.000  H
  H211     1.0000 0.78559  0.99371  0.74653  Biso   1.000  H
  C190     1.0000 0.70098  0.97401  0.68269  Biso   1.000  C
  H212     1.0000 0.74752  0.92649  0.69656  Biso   1.000  H
  H213     1.0000 0.78563  0.99371  0.74653  Biso   1.000  H
  N36      1.0000 0.01752  0.80091  0.34143  Biso   1.000  N
  H214     1.0000 0.08782  0.82841  0.45534  Biso   1.000  H
  C191     1.0000 0.04059  0.73309  0.45643  Biso   1.000  C
  N37      1.0000 0.01748  0.80091  0.34143  Biso   1.000  N
  C192     1.0000 0.02601  0.72698  0.68269  Biso   1.000  C
  H215     1.0000 0.07350  0.82102  0.69656  Biso   1.000  H
  H216     1.0000 0.00630  0.79191  0.74653  Biso   1.000  H
  C193     1.0000 0.02597  0.72698  0.68269  Biso   1.000  C
  C194     1.0000 0.82880  0.89508  0.86007  Biso   1.000  C
  C195     1.0000 0.82876  0.89508  0.86007  Biso   1.000  C
  C196     1.0000 0.81569  0.92571  0.06502  Biso   1.000  C
  C197     1.0000 0.81572  0.92571  0.06502  Biso   1.000  C
  C198     1.0000 0.79061  0.94761  0.26626  Biso   1.000  C
  C199     1.0000 0.88510  0.79168  0.96690  Biso   1.000  C
  C200     1.0000 0.96981  0.82088  0.11526  Biso   1.000  C
  C201     1.0000 0.96977  0.82088  0.11526  Biso   1.000  C
  C202     1.0000 0.05241  0.84301  0.26626  Biso   1.000  C
  H217     1.0000 0.66510  0.93439  0.39213  Biso   1.000  H
  C203     1.0000 0.65990  0.93719  0.57976  Biso   1.000  C
  H218     1.0000 0.70261  0.00161  0.44291  Biso   1.000  H
  H219     1.0000 0.67962  0.95881  0.75923  Biso   1.000  H
  H220     1.0000 0.67958  0.95881  0.75923  Biso   1.000  H
  H221     1.0000 0.71199  0.01671  0.67434  Biso   1.000  H
  H222     1.0000 0.71203  0.01671  0.67434  Biso   1.000  H
  H223     1.0000 0.99838  0.70099  0.44291  Biso   1.000  H
  H224     1.0000 0.99842  0.70099  0.44291  Biso   1.000  H
  H225     1.0000 0.06561  0.73070  0.39213  Biso   1.000  H
  C204     1.0000 0.06280  0.72271  0.57976  Biso   1.000  C
  H226     1.0000 0.98329  0.69530  0.67434  Biso   1.000  H
  H227     1.0000 0.98333  0.69530  0.67434  Biso   1.000  H
  H228     1.0000 0.04120  0.72078  0.75923  Biso   1.000  H
  N38      1.0000 0.78978  0.83939  0.87576  Biso   1.000  N
  H229     1.0000 0.85170  0.90661  0.78897  Biso   1.000  H
  N39      1.0000 0.78982  0.83939  0.87576  Biso   1.000  N
  H230     1.0000 0.79629  0.88461  0.08679  Biso   1.000  H
  H231     1.0000 0.79633  0.88461  0.08679  Biso   1.000  H
  H232     1.0000 0.77608  0.90679  0.28784  Biso   1.000  H
  H233     1.0000 0.77612  0.90679  0.28784  Biso   1.000  H
  N40      1.0000 0.86859  0.78768  0.85962  Biso   1.000  N
  H234     1.0000 0.85560  0.77212  0.02684  Biso   1.000  H
  H235     1.0000 0.85564  0.77212  0.02684  Biso   1.000  H
  H236     1.0000 0.94009  0.79540  0.17103  Biso   1.000  H
  H237     1.0000 0.94013  0.79540  0.17103  Biso   1.000  H
  H238     1.0000 0.09318  0.86928  0.28784  Biso   1.000  H
  H239     1.0000 0.09320  0.86932  0.28784  Biso   1.000  H
  H240     1.0000 0.09322  0.86928  0.28784  Biso   1.000  H
  H241     1.0000 0.62322  0.94072  0.58039  Biso   1.000  H
  H242     1.0000 0.64740  0.89421  0.59082  Biso   1.000  H
  H243     1.0000 0.05931  0.68249  0.58039  Biso   1.000  H
  H244     1.0000 0.10580  0.75320  0.59082  Biso   1.000  H
  H245     1.0000 0.05927  0.68249  0.58039  Biso   1.000  H
  C205     1.0000 0.78209  0.79521  0.78226  Biso   1.000  C
  C206     1.0000 0.78213  0.79521  0.78226  Biso   1.000  C
  C207     1.0000 0.80270  0.75260  0.83622  Biso   1.000  C
  H246     1.0000 0.80799  0.81679  0.71252  Biso   1.000  H
  C208     1.0000 0.71560  0.75981  0.74236  Biso   1.000  C
  H247     1.0000 0.78092  0.73561  0.91276  Biso   1.000  H
  C209     1.0000 0.78860  0.69920  0.74789  Biso   1.000  C
  H248     1.0000 0.78088  0.73561  0.91276  Biso   1.000  H
  C210     1.0000 0.70319  0.70811  0.65485  Biso   1.000  C
  H249     1.0000 0.70489  0.78778  0.70364  Biso   1.000  H
  H250     1.0000 0.68961  0.74259  0.81319  Biso   1.000  H
  H251     1.0000 0.70491  0.78782  0.70364  Biso   1.000  H
  H252     1.0000 0.68957  0.74259  0.81319  Biso   1.000  H
  C211     1.0000 0.70323  0.70811  0.65485  Biso   1.000  C
  H253     1.0000 0.81440  0.71541  0.67661  Biso   1.000  H
  H254     1.0000 0.79831  0.67051  0.78698  Biso   1.000  H
  C212     1.0000 0.72239  0.66619  0.71044  Biso   1.000  C
  H255     1.0000 0.65980  0.68520  0.63544  Biso   1.000  H
  H256     1.0000 0.72581  0.72519  0.58012  Biso   1.000  H
  H257     1.0000 0.71569  0.63442  0.65249  Biso   1.000  H
  H258     1.0000 0.69699  0.64640  0.78090  Biso   1.000  H
  H259     1.0000 0.71573  0.63442  0.65249  Biso   1.000  H
  H260     1.0000 0.69703  0.64640  0.78090  Biso   1.000  H
  C213     1.0000 0.15704  0.20942  0.26626  Biso   1.000  C
  C214     1.0000 0.14869  0.17999  0.15000  Biso   1.000  C
  H261     1.0000 0.13071  0.22389  0.28784  Biso   1.000  H
  N41      1.0000 0.19908  0.21659  0.34143  Biso   1.000  N
  H262     1.0000 0.13067  0.22389  0.28784  Biso   1.000  H
  N42      1.0000 0.19912  0.21659  0.34143  Biso   1.000  N
  C215     1.0000 0.14873  0.17999  0.15000  Biso   1.000  C
  C216     1.0000 0.15700  0.20942  0.26626  Biso   1.000  C
  C217     1.0000 0.11001  0.18431  0.06502  Biso   1.000  C
  C218     1.0000 0.17911  0.14891  0.11526  Biso   1.000  C
  C219     1.0000 0.20398  0.24859  0.45271  Biso   1.000  C
  C220     1.0000 0.20402  0.24859  0.45271  Biso   1.000  C
  H263     1.0000 0.08828  0.20368  0.08679  Biso   1.000  H
  C221     1.0000 0.10293  0.16052  0.94940  Biso   1.000  C
  C222     1.0000 0.10289  0.16052  0.94940  Biso   1.000  C
  H264     1.0000 0.08832  0.20368  0.08679  Biso   1.000  H
  H265     1.0000 0.20460  0.14468  0.17103  Biso   1.000  H
  C223     1.0000 0.17261  0.12430  0.00227  Biso   1.000  C
  C224     1.0000 0.17257  0.12430  0.00227  Biso   1.000  C
  C225     1.0000 0.26692  0.30750  0.45643  Biso   1.000  C
  C226     1.0000 0.19682  0.20731  0.56135  Biso   1.000  C
  H266     1.0000 0.17160  0.25938  0.45534  Biso   1.000  H
  H267     1.0000 0.17163  0.25943  0.45534  Biso   1.000  H
  C227     1.0000 0.26688  0.30750  0.45643  Biso   1.000  C
  C228     1.0000 0.19678  0.20731  0.56135  Biso   1.000  C
  C229     1.0000 0.13330  0.12870  0.92074  Biso   1.000  C
  C230     1.0000 0.06632  0.17122  0.86007  Biso   1.000  C
  C231     1.0000 0.06629  0.17122  0.86007  Biso   1.000  C
  C232     1.0000 0.20830  0.09339  0.96690  Biso   1.000  C
  H268     1.0000 0.29901  0.29740  0.44291  Biso   1.000  H
  C233     1.0000 0.27730  0.34010  0.57976  Biso   1.000  C
  H269     1.0000 0.26929  0.33491  0.39213  Biso   1.000  H
  H270     1.0000 0.26933  0.33491  0.39213  Biso   1.000  H
  N43      1.0000 0.13341  0.15731  0.56135  Biso   1.000  N
  H271     1.0000 0.22441  0.19060  0.55146  Biso   1.000  H
  C234     1.0000 0.21020  0.24138  0.68160  Biso   1.000  C
  C235     1.0000 0.21022  0.24143  0.68160  Biso   1.000  C
  H272     1.0000 0.22437  0.19060  0.55146  Biso   1.000  H
  H273     1.0000 0.12702  0.11002  0.84511  Biso   1.000  H
  N44      1.0000 0.04959  0.21020  0.87576  Biso   1.000  N
  H274     1.0000 0.05491  0.14831  0.78897  Biso   1.000  H
  N45      1.0000 0.04963  0.21020  0.87576  Biso   1.000  N
  N46      1.0000 0.21231  0.08090  0.85962  Biso   1.000  N
  H275     1.0000 0.22790  0.08352  0.02684  Biso   1.000  H
  H276     1.0000 0.22794  0.08352  0.02684  Biso   1.000  H
  H277     1.0000 0.24680  0.35259  0.59082  Biso   1.000  H
  C236     1.0000 0.27301  0.29901  0.68269  Biso   1.000  C
  H278     1.0000 0.31751  0.37679  0.58039  Biso   1.000  H
  H279     1.0000 0.31747  0.37679  0.58039  Biso   1.000  H
  C237     1.0000 0.12262  0.10271  0.55482  Biso   1.000  C
  H280     1.0000 0.17901  0.25249  0.69656  Biso   1.000  H
  H281     1.0000 0.20807  0.21438  0.74653  Biso   1.000  H
  H282     1.0000 0.17897  0.25249  0.69656  Biso   1.000  H
  H283     1.0000 0.20811  0.21438  0.74653  Biso   1.000  H
  C238     1.0000 0.01313  0.21792  0.78226  Biso   1.000  C
  C239     1.0000 0.01309  0.21792  0.78226  Biso   1.000  C
  C240     1.0000 0.24741  0.05009  0.83622  Biso   1.000  C
  H284     1.0000 0.27922  0.32040  0.75923  Biso   1.000  H
  H285     1.0000 0.30468  0.28799  0.67434  Biso   1.000  H
  H286     1.0000 0.27918  0.32040  0.75923  Biso   1.000  H
  H287     1.0000 0.30472  0.28799  0.67434  Biso   1.000  H
  C241     1.0000 0.06020  0.05009  0.55536  Biso   1.000  C
  H288     1.0000 0.15549  0.09569  0.54938  Biso   1.000  H
  H289     1.0000 0.15553  0.09569  0.54938  Biso   1.000  H
  C242     1.0000 0.94989  0.19730  0.83622  Biso   1.000  C
  H290     1.0000 0.00881  0.19202  0.71252  Biso   1.000  H
  C243     1.0000 0.04418  0.28440  0.74236  Biso   1.000  C
  C244     1.0000 0.04422  0.28440  0.74236  Biso   1.000  C
  C245     1.0000 0.20481  0.98691  0.78226  Biso   1.000  C
  H291     1.0000 0.26443  0.04532  0.91276  Biso   1.000  H
  C246     1.0000 0.30078  0.08940  0.74789  Biso   1.000  C
  H292     1.0000 0.26439  0.04532  0.91276  Biso   1.000  H
  C247     1.0000 0.30082  0.08940  0.74789  Biso   1.000  C
  C248     1.0000 0.00881  0.05850  0.55500  Biso   1.000  C
  C249     1.0000 0.04971  0.99118  0.55500  Biso   1.000  C
  C250     1.0000 0.04967  0.99118  0.55500  Biso   1.000  C
  H293     1.0000 0.95471  0.21911  0.91276  Biso   1.000  H
  C251     1.0000 0.91061  0.21140  0.74789  Biso   1.000  C
  N47      1.0000 0.91909  0.13141  0.85962  Biso   1.000  N
  C252     1.0000 0.91057  0.21140  0.74789  Biso   1.000  C
  N48      1.0000 0.91913  0.13141  0.85962  Biso   1.000  N
  C253     1.0000 0.00489  0.29680  0.65485  Biso   1.000  C
  H294     1.0000 0.08289  0.29510  0.70364  Biso   1.000  H
  H295     1.0000 0.05300  0.31039  0.81319  Biso   1.000  H
  C254     1.0000 0.00493  0.29680  0.65485  Biso   1.000  C
  N49      1.0000 0.16059  0.95041  0.87576  Biso   1.000  N
  H296     1.0000 0.18320  0.99118  0.71252  Biso   1.000  H
  C255     1.0000 0.24018  0.95578  0.74236  Biso   1.000  C
  N50      1.0000 0.16063  0.95041  0.87576  Biso   1.000  N
  C256     1.0000 0.24022  0.95578  0.74236  Biso   1.000  C
  H297     1.0000 0.28459  0.09900  0.67661  Biso   1.000  H
  H298     1.0000 0.32948  0.12778  0.78698  Biso   1.000  H
  C257     1.0000 0.33381  0.05620  0.71044  Biso   1.000  C
  H299     1.0000 0.28463  0.09900  0.67661  Biso   1.000  H
  H300     1.0000 0.32952  0.12778  0.78698  Biso   1.000  H
  H301     1.0000 0.01511  0.09821  0.55437  Biso   1.000  H
  C258     1.0000 0.94990  0.01010  0.55536  Biso   1.000  C
  C259     1.0000 0.98990  0.93980  0.55536  Biso   1.000  C
  H302     1.0000 0.08311  0.98489  0.55437  Biso   1.000  H
  H303     1.0000 0.90101  0.18559  0.67661  Biso   1.000  H
  H304     1.0000 0.87221  0.20171  0.78698  Biso   1.000  H
  C260     1.0000 0.94380  0.27761  0.71044  Biso   1.000  C
  H305     1.0000 0.90097  0.18559  0.67661  Biso   1.000  H
  C261     1.0000 0.90657  0.11488  0.96690  Biso   1.000  C
  C262     1.0000 0.90661  0.11488  0.96690  Biso   1.000  C
  H306     1.0000 0.99940  0.27421  0.58012  Biso   1.000  H
  H307     1.0000 0.02539  0.34019  0.63544  Biso   1.000  H
  C263     1.0000 0.10491  0.93370  0.86007  Biso   1.000  C
  C264     1.0000 0.29188  0.99509  0.65485  Biso   1.000  C
  H308     1.0000 0.21222  0.91712  0.70364  Biso   1.000  H
  H309     1.0000 0.25743  0.94701  0.81319  Biso   1.000  H
  H310     1.0000 0.25739  0.94701  0.81319  Biso   1.000  H
  C265     1.0000 0.29192  0.99509  0.65485  Biso   1.000  C
  H311     1.0000 0.36562  0.08132  0.65249  Biso   1.000  H
  H312     1.0000 0.35360  0.05060  0.78090  Biso   1.000  H
  C266     1.0000 0.94152  0.95032  0.55500  Biso   1.000  C
  C267     1.0000 0.89729  0.01988  0.55482  Biso   1.000  C
  C268     1.0000 0.98010  0.87740  0.55482  Biso   1.000  C
  H313     1.0000 0.91872  0.28431  0.65249  Biso   1.000  H
  H314     1.0000 0.94942  0.30300  0.78090  Biso   1.000  H
  H315     1.0000 0.91868  0.28431  0.65249  Biso   1.000  H
  H316     1.0000 0.94938  0.30300  0.78090  Biso   1.000  H
  H317     1.0000 0.91649  0.14441  0.02684  Biso   1.000  H
  C269     1.0000 0.87571  0.04830  0.00227  Biso   1.000  C
  H318     1.0000 0.91652  0.14441  0.02684  Biso   1.000  H
  C270     1.0000 0.05759  0.89710  0.94940  Biso   1.000  C
  H319     1.0000 0.09339  0.94508  0.78897  Biso   1.000  H
  C271     1.0000 0.05763  0.89710  0.94940  Biso   1.000  C
  H320     1.0000 0.31481  0.97461  0.63544  Biso   1.000  H
  H321     1.0000 0.27479  0.00060  0.58012  Biso   1.000  H
  H322     1.0000 0.27483  0.00060  0.58012  Biso   1.000  H
  H323     1.0000 0.90178  0.91689  0.55437  Biso   1.000  H
  H324     1.0000 0.90182  0.91689  0.55437  Biso   1.000  H
  N51      1.0000 0.84270  0.97608  0.56135  Biso   1.000  N
  N52      1.0000 0.84272  0.97612  0.56135  Biso   1.000  N
  H325     1.0000 0.90428  0.05978  0.54938  Biso   1.000  H
  H326     1.0000 0.90431  0.05978  0.54938  Biso   1.000  H
  H327     1.0000 0.94017  0.84448  0.54938  Biso   1.000  H
  H328     1.0000 0.94021  0.84448  0.54938  Biso   1.000  H
  N53      1.0000 0.02389  0.86661  0.56135  Biso   1.000  N
  N54      1.0000 0.02393  0.86661  0.56135  Biso   1.000  N
  C272     1.0000 0.87131  0.00459  0.92074  Biso   1.000  C
  C273     1.0000 0.87127  0.00459  0.92074  Biso   1.000  C
  C274     1.0000 0.85112  0.03021  0.11526  Biso   1.000  C
  C275     1.0000 0.99539  0.86671  0.92074  Biso   1.000  C
  C276     1.0000 0.99543  0.86671  0.92074  Biso   1.000  C
  C277     1.0000 0.07431  0.88998  0.06502  Biso   1.000  C
  C278     1.0000 0.79270  0.98949  0.56135  Biso   1.000  C
  C279     1.0000 0.01052  0.80320  0.56135  Biso   1.000  C
  C280     1.0000 0.01048  0.80320  0.56135  Biso   1.000  C
  C281     1.0000 0.83951  0.94242  0.94940  Biso   1.000  C
  H329     1.0000 0.89000  0.01699  0.84511  Biso   1.000  H
  C282     1.0000 0.82000  0.96869  0.15000  Biso   1.000  C
  H330     1.0000 0.85531  0.05992  0.17103  Biso   1.000  H
  H331     1.0000 0.98298  0.87300  0.84511  Biso   1.000  H
  H332     1.0000 0.98302  0.87300  0.84511  Biso   1.000  H
  C283     1.0000 0.95172  0.82740  0.00227  Biso   1.000  C
  C284     1.0000 0.95168  0.82740  0.00227  Biso   1.000  C
  H333     1.0000 0.11539  0.91170  0.08679  Biso   1.000  H
  C285     1.0000 0.03129  0.85128  0.15000  Biso   1.000  C
  C286     1.0000 0.03132  0.85132  0.15000  Biso   1.000  C
  H334     1.0000 0.11543  0.91170  0.08679  Biso   1.000  H
  C287     1.0000 0.75141  0.95542  0.45271  Biso   1.000  C
  C288     1.0000 0.75861  0.96878  0.68160  Biso   1.000  C
  C289     1.0000 0.75859  0.96882  0.68160  Biso   1.000  C
  C290     1.0000 0.75863  0.96882  0.68160  Biso   1.000  C
  H335     1.0000 0.80941  0.03379  0.55146  Biso   1.000  H
  H336     1.0000 0.96622  0.77561  0.55146  Biso   1.000  H
  H337     1.0000 0.96618  0.77561  0.55146  Biso   1.000  H
  C291     1.0000 0.04461  0.79599  0.45271  Biso   1.000  C
  C292     1.0000 0.03121  0.78980  0.68160  Biso   1.000  C
  C293     1.0000 0.82880  0.89508  0.86007  Biso   1.000  C
  C294     1.0000 0.82876  0.89508  0.86007  Biso   1.000  C
  C295     1.0000 0.81569  0.92571  0.06502  Biso   1.000  C
  C296     1.0000 0.81572  0.92571  0.06502  Biso   1.000  C
  C297     1.0000 0.79061  0.94761  0.26626  Biso   1.000  C
  C298     1.0000 0.88510  0.79168  0.96690  Biso   1.000  C
  C299     1.0000 0.96981  0.82088  0.11526  Biso   1.000  C
  C300     1.0000 0.96977  0.82088  0.11526  Biso   1.000  C
  C301     1.0000 0.05241  0.84301  0.26626  Biso   1.000  C
  N55      1.0000 0.78340  0.98251  0.34143  Biso   1.000  N
  H338     1.0000 0.74062  0.91221  0.45534  Biso   1.000  H
  C302     1.0000 0.69249  0.95941  0.45643  Biso   1.000  C
  H339     1.0000 0.74058  0.91221  0.45534  Biso   1.000  H
  C303     1.0000 0.69253  0.95941  0.45643  Biso   1.000  C
  C304     1.0000 0.70102  0.97401  0.68269  Biso   1.000  C
  H340     1.0000 0.74748  0.92649  0.69656  Biso   1.000  H
  H341     1.0000 0.78559  0.99371  0.74653  Biso   1.000  H
  C305     1.0000 0.70098  0.97401  0.68269  Biso   1.000  C
  H342     1.0000 0.74752  0.92649  0.69656  Biso   1.000  H
  H343     1.0000 0.78563  0.99371  0.74653  Biso   1.000  H
  N56      1.0000 0.01752  0.80091  0.34143  Biso   1.000  N
  H344     1.0000 0.08782  0.82841  0.45534  Biso   1.000  H
  C306     1.0000 0.04059  0.73309  0.45643  Biso   1.000  C
  N57      1.0000 0.01748  0.80091  0.34143  Biso   1.000  N
  C307     1.0000 0.02601  0.72698  0.68269  Biso   1.000  C
  H345     1.0000 0.07350  0.82102  0.69656  Biso   1.000  H
  H346     1.0000 0.00630  0.79191  0.74653  Biso   1.000  H
  C308     1.0000 0.02597  0.72698  0.68269  Biso   1.000  C
  N58      1.0000 0.78978  0.83939  0.87576  Biso   1.000  N
  H347     1.0000 0.85170  0.90661  0.78897  Biso   1.000  H
  N59      1.0000 0.78982  0.83939  0.87576  Biso   1.000  N
  H348     1.0000 0.79629  0.88461  0.08679  Biso   1.000  H
  H349     1.0000 0.79633  0.88461  0.08679  Biso   1.000  H
  H350     1.0000 0.77608  0.90679  0.28784  Biso   1.000  H
  H351     1.0000 0.77612  0.90679  0.28784  Biso   1.000  H
  N60      1.0000 0.86859  0.78768  0.85962  Biso   1.000  N
  H352     1.0000 0.85560  0.77212  0.02684  Biso   1.000  H
  H353     1.0000 0.85564  0.77212  0.02684  Biso   1.000  H
  H354     1.0000 0.94009  0.79540  0.17103  Biso   1.000  H
  H355     1.0000 0.94013  0.79540  0.17103  Biso   1.000  H
  H356     1.0000 0.09318  0.86928  0.28784  Biso   1.000  H
  H357     1.0000 0.09320  0.86932  0.28784  Biso   1.000  H
  H358     1.0000 0.09322  0.86928  0.28784  Biso   1.000  H
  H359     1.0000 0.66510  0.93439  0.39213  Biso   1.000  H
  C309     1.0000 0.65990  0.93719  0.57976  Biso   1.000  C
  H360     1.0000 0.70261  0.00161  0.44291  Biso   1.000  H
  H361     1.0000 0.67962  0.95881  0.75923  Biso   1.000  H
  H362     1.0000 0.67958  0.95881  0.75923  Biso   1.000  H
  H363     1.0000 0.71199  0.01671  0.67434  Biso   1.000  H
  H364     1.0000 0.71203  0.01671  0.67434  Biso   1.000  H
  H365     1.0000 0.99838  0.70099  0.44291  Biso   1.000  H
  H366     1.0000 0.99842  0.70099  0.44291  Biso   1.000  H
  H367     1.0000 0.06561  0.73070  0.39213  Biso   1.000  H
  C310     1.0000 0.06280  0.72271  0.57976  Biso   1.000  C
  H368     1.0000 0.98329  0.69530  0.67434  Biso   1.000  H
  H369     1.0000 0.98333  0.69530  0.67434  Biso   1.000  H
  H370     1.0000 0.04120  0.72078  0.75923  Biso   1.000  H
  C311     1.0000 0.78209  0.79521  0.78226  Biso   1.000  C
  C312     1.0000 0.78213  0.79521  0.78226  Biso   1.000  C
  C313     1.0000 0.80270  0.75260  0.83622  Biso   1.000  C
  H371     1.0000 0.62322  0.94072  0.58039  Biso   1.000  H
  H372     1.0000 0.64740  0.89421  0.59082  Biso   1.000  H
  H373     1.0000 0.05931  0.68249  0.58039  Biso   1.000  H
  H374     1.0000 0.10580  0.75320  0.59082  Biso   1.000  H
  H375     1.0000 0.05927  0.68249  0.58039  Biso   1.000  H
  H376     1.0000 0.80799  0.81679  0.71252  Biso   1.000  H
  C314     1.0000 0.71560  0.75981  0.74236  Biso   1.000  C
  H377     1.0000 0.78092  0.73561  0.91276  Biso   1.000  H
  C315     1.0000 0.78860  0.69920  0.74789  Biso   1.000  C
  H378     1.0000 0.78088  0.73561  0.91276  Biso   1.000  H
  C316     1.0000 0.70319  0.70811  0.65485  Biso   1.000  C
  H379     1.0000 0.70489  0.78778  0.70364  Biso   1.000  H
  H380     1.0000 0.68961  0.74259  0.81319  Biso   1.000  H
  H381     1.0000 0.70491  0.78782  0.70364  Biso   1.000  H
  H382     1.0000 0.68957  0.74259  0.81319  Biso   1.000  H
  C317     1.0000 0.70323  0.70811  0.65485  Biso   1.000  C
  H383     1.0000 0.81440  0.71541  0.67661  Biso   1.000  H
  H384     1.0000 0.79831  0.67051  0.78698  Biso   1.000  H
  C318     1.0000 0.72239  0.66619  0.71044  Biso   1.000  C
  H385     1.0000 0.65980  0.68520  0.63544  Biso   1.000  H
  H386     1.0000 0.72581  0.72519  0.58012  Biso   1.000  H
  H387     1.0000 0.71569  0.63442  0.65249  Biso   1.000  H
  H388     1.0000 0.69699  0.64640  0.78090  Biso   1.000  H
  H389     1.0000 0.71573  0.63442  0.65249  Biso   1.000  H
  H390     1.0000 0.69703  0.64640  0.78090  Biso   1.000  H
  C319     1.0000 0.15704  0.20942  0.26626  Biso   1.000  C
  C320     1.0000 0.14869  0.17999  0.15000  Biso   1.000  C
  C321     1.0000 0.14873  0.17999  0.15000  Biso   1.000  C
  N61      1.0000 0.19908  0.21659  0.34143  Biso   1.000  N
  H391     1.0000 0.13071  0.22389  0.28784  Biso   1.000  H
  H392     1.0000 0.13067  0.22389  0.28784  Biso   1.000  H
  N62      1.0000 0.19912  0.21659  0.34143  Biso   1.000  N
  C322     1.0000 0.17911  0.14891  0.11526  Biso   1.000  C
  C323     1.0000 0.11001  0.18431  0.06502  Biso   1.000  C
  C324     1.0000 0.15700  0.20942  0.26626  Biso   1.000  C
  C325     1.0000 0.20398  0.24859  0.45271  Biso   1.000  C
  C326     1.0000 0.20402  0.24859  0.45271  Biso   1.000  C
  H393     1.0000 0.20460  0.14468  0.17103  Biso   1.000  H
  C327     1.0000 0.17261  0.12430  0.00227  Biso   1.000  C
  C328     1.0000 0.17257  0.12430  0.00227  Biso   1.000  C
  C329     1.0000 0.10293  0.16052  0.94940  Biso   1.000  C
  C330     1.0000 0.10289  0.16052  0.94940  Biso   1.000  C
  H394     1.0000 0.08828  0.20368  0.08679  Biso   1.000  H
  H395     1.0000 0.08832  0.20368  0.08679  Biso   1.000  H
  H396     1.0000 0.17160  0.25938  0.45534  Biso   1.000  H
  C331     1.0000 0.26692  0.30750  0.45643  Biso   1.000  C
  C332     1.0000 0.19682  0.20731  0.56135  Biso   1.000  C
  H397     1.0000 0.17163  0.25943  0.45534  Biso   1.000  H
  C333     1.0000 0.26688  0.30750  0.45643  Biso   1.000  C
  C334     1.0000 0.19678  0.20731  0.56135  Biso   1.000  C
  C335     1.0000 0.20830  0.09339  0.96690  Biso   1.000  C
  C336     1.0000 0.13330  0.12870  0.92074  Biso   1.000  C
  C337     1.0000 0.06632  0.17122  0.86007  Biso   1.000  C
  C338     1.0000 0.06629  0.17122  0.86007  Biso   1.000  C
  H398     1.0000 0.29901  0.29740  0.44291  Biso   1.000  H
  C339     1.0000 0.27730  0.34010  0.57976  Biso   1.000  C
  H399     1.0000 0.26929  0.33491  0.39213  Biso   1.000  H
  H400     1.0000 0.26933  0.33491  0.39213  Biso   1.000  H
  N63      1.0000 0.13341  0.15731  0.56135  Biso   1.000  N
  C340     1.0000 0.21020  0.24138  0.68160  Biso   1.000  C
  H401     1.0000 0.22441  0.19060  0.55146  Biso   1.000  H
  C341     1.0000 0.21022  0.24143  0.68160  Biso   1.000  C
  H402     1.0000 0.22437  0.19060  0.55146  Biso   1.000  H
  N64      1.0000 0.21231  0.08090  0.85962  Biso   1.000  N
  H403     1.0000 0.22790  0.08352  0.02684  Biso   1.000  H
  H404     1.0000 0.22794  0.08352  0.02684  Biso   1.000  H
  H405     1.0000 0.12702  0.11002  0.84511  Biso   1.000  H
  N65      1.0000 0.04959  0.21020  0.87576  Biso   1.000  N
  H406     1.0000 0.05491  0.14831  0.78897  Biso   1.000  H
  N66      1.0000 0.04963  0.21020  0.87576  Biso   1.000  N
  H407     1.0000 0.24680  0.35259  0.59082  Biso   1.000  H
  C342     1.0000 0.27301  0.29901  0.68269  Biso   1.000  C
  H408     1.0000 0.31751  0.37679  0.58039  Biso   1.000  H
  H409     1.0000 0.31747  0.37679  0.58039  Biso   1.000  H
  C343     1.0000 0.12262  0.10271  0.55482  Biso   1.000  C
  H410     1.0000 0.17901  0.25249  0.69656  Biso   1.000  H
  H411     1.0000 0.20807  0.21438  0.74653  Biso   1.000  H
  H412     1.0000 0.17897  0.25249  0.69656  Biso   1.000  H
  H413     1.0000 0.20811  0.21438  0.74653  Biso   1.000  H
  C344     1.0000 0.24741  0.05009  0.83622  Biso   1.000  C
  C345     1.0000 0.01313  0.21792  0.78226  Biso   1.000  C
  C346     1.0000 0.01309  0.21792  0.78226  Biso   1.000  C
  H414     1.0000 0.27922  0.32040  0.75923  Biso   1.000  H
  H415     1.0000 0.30468  0.28799  0.67434  Biso   1.000  H
  H416     1.0000 0.27918  0.32040  0.75923  Biso   1.000  H
  H417     1.0000 0.30472  0.28799  0.67434  Biso   1.000  H
  C347     1.0000 0.06020  0.05009  0.55536  Biso   1.000  C
  H418     1.0000 0.15549  0.09569  0.54938  Biso   1.000  H
  H419     1.0000 0.15553  0.09569  0.54938  Biso   1.000  H
  C348     1.0000 0.20481  0.98691  0.78226  Biso   1.000  C
  H420     1.0000 0.26443  0.04532  0.91276  Biso   1.000  H
  C349     1.0000 0.30078  0.08940  0.74789  Biso   1.000  C
  H421     1.0000 0.26439  0.04532  0.91276  Biso   1.000  H
  C350     1.0000 0.30082  0.08940  0.74789  Biso   1.000  C
  C351     1.0000 0.94989  0.19730  0.83622  Biso   1.000  C
  H422     1.0000 0.00881  0.19202  0.71252  Biso   1.000  H
  C352     1.0000 0.04418  0.28440  0.74236  Biso   1.000  C
  C353     1.0000 0.04422  0.28440  0.74236  Biso   1.000  C
  C354     1.0000 0.00881  0.05850  0.55500  Biso   1.000  C
  C355     1.0000 0.04971  0.99118  0.55500  Biso   1.000  C
  C356     1.0000 0.04967  0.99118  0.55500  Biso   1.000  C
  N67      1.0000 0.16059  0.95041  0.87576  Biso   1.000  N
  H423     1.0000 0.18320  0.99118  0.71252  Biso   1.000  H
  C357     1.0000 0.24018  0.95578  0.74236  Biso   1.000  C
  N68      1.0000 0.16063  0.95041  0.87576  Biso   1.000  N
  C358     1.0000 0.24022  0.95578  0.74236  Biso   1.000  C
  H424     1.0000 0.28459  0.09900  0.67661  Biso   1.000  H
  H425     1.0000 0.32948  0.12778  0.78698  Biso   1.000  H
  C359     1.0000 0.33381  0.05620  0.71044  Biso   1.000  C
  H426     1.0000 0.28463  0.09900  0.67661  Biso   1.000  H
  H427     1.0000 0.32952  0.12778  0.78698  Biso   1.000  H
  H428     1.0000 0.95471  0.21911  0.91276  Biso   1.000  H
  C360     1.0000 0.91061  0.21140  0.74789  Biso   1.000  C
  N69      1.0000 0.91909  0.13141  0.85962  Biso   1.000  N
  C361     1.0000 0.91057  0.21140  0.74789  Biso   1.000  C
  N70      1.0000 0.91913  0.13141  0.85962  Biso   1.000  N
  C362     1.0000 0.00489  0.29680  0.65485  Biso   1.000  C
  H429     1.0000 0.08289  0.29510  0.70364  Biso   1.000  H
  H430     1.0000 0.05300  0.31039  0.81319  Biso   1.000  H
  C363     1.0000 0.00493  0.29680  0.65485  Biso   1.000  C
  H431     1.0000 0.01511  0.09821  0.55437  Biso   1.000  H
  C364     1.0000 0.94990  0.01010  0.55536  Biso   1.000  C
  C365     1.0000 0.98990  0.93980  0.55536  Biso   1.000  C
  H432     1.0000 0.08311  0.98489  0.55437  Biso   1.000  H
  C366     1.0000 0.10491  0.93370  0.86007  Biso   1.000  C
  C367     1.0000 0.29188  0.99509  0.65485  Biso   1.000  C
  H433     1.0000 0.21222  0.91712  0.70364  Biso   1.000  H
  H434     1.0000 0.25743  0.94701  0.81319  Biso   1.000  H
  H435     1.0000 0.25739  0.94701  0.81319  Biso   1.000  H
  C368     1.0000 0.29192  0.99509  0.65485  Biso   1.000  C
  H436     1.0000 0.36562  0.08132  0.65249  Biso   1.000  H
  H437     1.0000 0.35360  0.05060  0.78090  Biso   1.000  H
  H438     1.0000 0.90101  0.18559  0.67661  Biso   1.000  H
  H439     1.0000 0.87221  0.20171  0.78698  Biso   1.000  H
  C369     1.0000 0.94380  0.27761  0.71044  Biso   1.000  C
  H440     1.0000 0.90097  0.18559  0.67661  Biso   1.000  H
  C370     1.0000 0.90657  0.11488  0.96690  Biso   1.000  C
  C371     1.0000 0.90661  0.11488  0.96690  Biso   1.000  C
  H441     1.0000 0.99940  0.27421  0.58012  Biso   1.000  H
  H442     1.0000 0.02539  0.34019  0.63544  Biso   1.000  H
  C372     1.0000 0.94152  0.95032  0.55500  Biso   1.000  C
  C373     1.0000 0.89729  0.01988  0.55482  Biso   1.000  C
  C374     1.0000 0.98010  0.87740  0.55482  Biso   1.000  C
  C375     1.0000 0.05759  0.89710  0.94940  Biso   1.000  C
  H443     1.0000 0.09339  0.94508  0.78897  Biso   1.000  H
  C376     1.0000 0.05763  0.89710  0.94940  Biso   1.000  C
  H444     1.0000 0.31481  0.97461  0.63544  Biso   1.000  H
  H445     1.0000 0.27479  0.00060  0.58012  Biso   1.000  H
  H446     1.0000 0.27483  0.00060  0.58012  Biso   1.000  H
  H447     1.0000 0.91872  0.28431  0.65249  Biso   1.000  H
  H448     1.0000 0.94942  0.30300  0.78090  Biso   1.000  H
  H449     1.0000 0.91868  0.28431  0.65249  Biso   1.000  H
  H450     1.0000 0.94938  0.30300  0.78090  Biso   1.000  H
  H451     1.0000 0.91649  0.14441  0.02684  Biso   1.000  H
  C377     1.0000 0.87571  0.04830  0.00227  Biso   1.000  C
  H452     1.0000 0.91652  0.14441  0.02684  Biso   1.000  H
  H453     1.0000 0.90178  0.91689  0.55437  Biso   1.000  H
  H454     1.0000 0.90182  0.91689  0.55437  Biso   1.000  H
  N71      1.0000 0.84270  0.97608  0.56135  Biso   1.000  N
  N72      1.0000 0.84272  0.97612  0.56135  Biso   1.000  N
  H455     1.0000 0.90428  0.05978  0.54938  Biso   1.000  H
  H456     1.0000 0.90431  0.05978  0.54938  Biso   1.000  H
  H457     1.0000 0.94017  0.84448  0.54938  Biso   1.000  H
  H458     1.0000 0.94021  0.84448  0.54938  Biso   1.000  H
  N73      1.0000 0.02389  0.86661  0.56135  Biso   1.000  N
  N74      1.0000 0.02393  0.86661  0.56135  Biso   1.000  N
  C378     1.0000 0.99539  0.86671  0.92074  Biso   1.000  C
  C379     1.0000 0.99543  0.86671  0.92074  Biso   1.000  C
  C380     1.0000 0.07431  0.88998  0.06502  Biso   1.000  C
  C381     1.0000 0.87131  0.00459  0.92074  Biso   1.000  C
  C382     1.0000 0.87127  0.00459  0.92074  Biso   1.000  C
  C383     1.0000 0.85112  0.03021  0.11526  Biso   1.000  C
  C384     1.0000 0.79270  0.98949  0.56135  Biso   1.000  C
  C385     1.0000 0.01052  0.80320  0.56135  Biso   1.000  C
  C386     1.0000 0.01048  0.80320  0.56135  Biso   1.000  C
  H459     1.0000 0.98298  0.87300  0.84511  Biso   1.000  H
  H460     1.0000 0.98302  0.87300  0.84511  Biso   1.000  H
  C387     1.0000 0.95172  0.82740  0.00227  Biso   1.000  C
  C388     1.0000 0.95168  0.82740  0.00227  Biso   1.000  C
  H461     1.0000 0.11539  0.91170  0.08679  Biso   1.000  H
  C389     1.0000 0.03129  0.85128  0.15000  Biso   1.000  C
  C390     1.0000 0.03132  0.85132  0.15000  Biso   1.000  C
  H462     1.0000 0.11543  0.91170  0.08679  Biso   1.000  H
  C391     1.0000 0.83951  0.94242  0.94940  Biso   1.000  C
  H463     1.0000 0.89000  0.01699  0.84511  Biso   1.000  H
  C392     1.0000 0.82000  0.96869  0.15000  Biso   1.000  C
  H464     1.0000 0.85531  0.05992  0.17103  Biso   1.000  H
  C393     1.0000 0.75141  0.95542  0.45271  Biso   1.000  C
  C394     1.0000 0.75861  0.96878  0.68160  Biso   1.000  C
  C395     1.0000 0.75859  0.96882  0.68160  Biso   1.000  C
  C396     1.0000 0.75863  0.96882  0.68160  Biso   1.000  C
  H465     1.0000 0.80941  0.03379  0.55146  Biso   1.000  H
  C397     1.0000 0.04461  0.79599  0.45271  Biso   1.000  C
  H466     1.0000 0.96622  0.77561  0.55146  Biso   1.000  H
  H467     1.0000 0.96618  0.77561  0.55146  Biso   1.000  H
  C398     1.0000 0.03121  0.78980  0.68160  Biso   1.000  C
  C399     1.0000 0.88510  0.79168  0.96690  Biso   1.000  C
  C400     1.0000 0.96981  0.82088  0.11526  Biso   1.000  C
  C401     1.0000 0.96977  0.82088  0.11526  Biso   1.000  C
  C402     1.0000 0.05241  0.84301  0.26626  Biso   1.000  C
  C403     1.0000 0.82880  0.89508  0.86007  Biso   1.000  C
  C404     1.0000 0.82876  0.89508  0.86007  Biso   1.000  C
  C405     1.0000 0.81569  0.92571  0.06502  Biso   1.000  C
  C406     1.0000 0.81572  0.92571  0.06502  Biso   1.000  C
  C407     1.0000 0.79061  0.94761  0.26626  Biso   1.000  C
  N75      1.0000 0.78340  0.98251  0.34143  Biso   1.000  N
  H468     1.0000 0.74062  0.91221  0.45534  Biso   1.000  H
  C408     1.0000 0.69249  0.95941  0.45643  Biso   1.000  C
  H469     1.0000 0.74058  0.91221  0.45534  Biso   1.000  H
  C409     1.0000 0.69253  0.95941  0.45643  Biso   1.000  C
  C410     1.0000 0.70102  0.97401  0.68269  Biso   1.000  C
  H470     1.0000 0.74748  0.92649  0.69656  Biso   1.000  H
  H471     1.0000 0.78559  0.99371  0.74653  Biso   1.000  H
  C411     1.0000 0.70098  0.97401  0.68269  Biso   1.000  C
  H472     1.0000 0.74752  0.92649  0.69656  Biso   1.000  H
  H473     1.0000 0.78563  0.99371  0.74653  Biso   1.000  H
  N76      1.0000 0.01752  0.80091  0.34143  Biso   1.000  N
  N77      1.0000 0.01748  0.80091  0.34143  Biso   1.000  N
  H474     1.0000 0.08782  0.82841  0.45534  Biso   1.000  H
  C412     1.0000 0.04059  0.73309  0.45643  Biso   1.000  C
  C413     1.0000 0.02601  0.72698  0.68269  Biso   1.000  C
  H475     1.0000 0.07350  0.82102  0.69656  Biso   1.000  H
  H476     1.0000 0.00630  0.79191  0.74653  Biso   1.000  H
  C414     1.0000 0.02597  0.72698  0.68269  Biso   1.000  C
  N78      1.0000 0.86859  0.78768  0.85962  Biso   1.000  N
  H477     1.0000 0.85560  0.77212  0.02684  Biso   1.000  H
  H478     1.0000 0.85564  0.77212  0.02684  Biso   1.000  H
  H479     1.0000 0.94009  0.79540  0.17103  Biso   1.000  H
  H480     1.0000 0.94013  0.79540  0.17103  Biso   1.000  H
  H481     1.0000 0.09318  0.86928  0.28784  Biso   1.000  H
  H482     1.0000 0.09320  0.86932  0.28784  Biso   1.000  H
  H483     1.0000 0.09322  0.86928  0.28784  Biso   1.000  H
  N79      1.0000 0.78978  0.83939  0.87576  Biso   1.000  N
  H484     1.0000 0.85170  0.90661  0.78897  Biso   1.000  H
  N80      1.0000 0.78982  0.83939  0.87576  Biso   1.000  N
  H485     1.0000 0.79629  0.88461  0.08679  Biso   1.000  H
  H486     1.0000 0.79633  0.88461  0.08679  Biso   1.000  H
  H487     1.0000 0.77608  0.90679  0.28784  Biso   1.000  H
  H488     1.0000 0.77612  0.90679  0.28784  Biso   1.000  H
  H489     1.0000 0.66510  0.93439  0.39213  Biso   1.000  H
  C415     1.0000 0.65990  0.93719  0.57976  Biso   1.000  C
  H490     1.0000 0.70261  0.00161  0.44291  Biso   1.000  H
  H491     1.0000 0.67962  0.95881  0.75923  Biso   1.000  H
  H492     1.0000 0.67958  0.95881  0.75923  Biso   1.000  H
  H493     1.0000 0.71199  0.01671  0.67434  Biso   1.000  H
  H494     1.0000 0.71203  0.01671  0.67434  Biso   1.000  H
  H495     1.0000 0.99838  0.70099  0.44291  Biso   1.000  H
  H496     1.0000 0.99842  0.70099  0.44291  Biso   1.000  H
  H497     1.0000 0.06561  0.73070  0.39213  Biso   1.000  H
  C416     1.0000 0.06280  0.72271  0.57976  Biso   1.000  C
  H498     1.0000 0.98329  0.69530  0.67434  Biso   1.000  H
  H499     1.0000 0.98333  0.69530  0.67434  Biso   1.000  H
  H500     1.0000 0.04120  0.72078  0.75923  Biso   1.000  H
  C417     1.0000 0.80270  0.75260  0.83622  Biso   1.000  C
  C418     1.0000 0.78209  0.79521  0.78226  Biso   1.000  C
  C419     1.0000 0.78213  0.79521  0.78226  Biso   1.000  C
  H501     1.0000 0.62322  0.94072  0.58039  Biso   1.000  H
  H502     1.0000 0.64740  0.89421  0.59082  Biso   1.000  H
  H503     1.0000 0.05931  0.68249  0.58039  Biso   1.000  H
  H504     1.0000 0.10580  0.75320  0.59082  Biso   1.000  H
  H505     1.0000 0.05927  0.68249  0.58039  Biso   1.000  H
  H506     1.0000 0.78092  0.73561  0.91276  Biso   1.000  H
  C420     1.0000 0.78860  0.69920  0.74789  Biso   1.000  C
  H507     1.0000 0.78088  0.73561  0.91276  Biso   1.000  H
  H508     1.0000 0.80799  0.81679  0.71252  Biso   1.000  H
  C421     1.0000 0.71560  0.75981  0.74236  Biso   1.000  C
  H509     1.0000 0.81440  0.71541  0.67661  Biso   1.000  H
  H510     1.0000 0.79831  0.67051  0.78698  Biso   1.000  H
  C422     1.0000 0.72239  0.66619  0.71044  Biso   1.000  C
  C423     1.0000 0.70319  0.70811  0.65485  Biso   1.000  C
  H511     1.0000 0.70489  0.78778  0.70364  Biso   1.000  H
  H512     1.0000 0.68961  0.74259  0.81319  Biso   1.000  H
  H513     1.0000 0.70491  0.78782  0.70364  Biso   1.000  H
  H514     1.0000 0.68957  0.74259  0.81319  Biso   1.000  H
  C424     1.0000 0.70323  0.70811  0.65485  Biso   1.000  C
  H515     1.0000 0.71569  0.63442  0.65249  Biso   1.000  H
  H516     1.0000 0.69699  0.64640  0.78090  Biso   1.000  H
  H517     1.0000 0.71573  0.63442  0.65249  Biso   1.000  H
  H518     1.0000 0.69703  0.64640  0.78090  Biso   1.000  H
  H519     1.0000 0.65980  0.68520  0.63544  Biso   1.000  H
  H520     1.0000 0.72581  0.72519  0.58012  Biso   1.000  H
  C425     1.0000 0.08599  0.32532  0.15507  Biso   1.000  C
  C426     1.0000 0.15208  0.36659  0.19017  Biso   1.000  C
  C427     1.0000 0.05660  0.36269  0.11481  Biso   1.000  C
  H521     1.0000 0.06348  0.29979  0.22381  Biso   1.000  H
  H522     1.0000 0.08359  0.29841  0.08960  Biso   1.000  H
  H523     1.0000 0.17522  0.38932  0.11943  Biso   1.000  H
  H524     1.0000 0.16922  0.34171  0.21819  Biso   1.000  H
  C428     1.0000 0.15901  0.41210  0.29047  Biso   1.000  C
  C429     1.0000 0.06399  0.40999  0.21239  Biso   1.000  C
  H525     1.0000 0.01330  0.33533  0.09921  Biso   1.000  H
  H526     1.0000 0.07561  0.38400  0.03990  Biso   1.000  H
  N81      1.0000 0.22340  0.45260  0.31840  Biso   1.000  N
  H527     1.0000 0.13761  0.38919  0.36356  Biso   1.000  H
  C430     1.0000 0.13050  0.45012  0.24812  Biso   1.000  C
  H528     1.0000 0.04820  0.43552  0.18119  Biso   1.000  H
  H529     1.0000 0.04009  0.38859  0.28340  Biso   1.000  H
  C431     1.0000 0.23931  0.46049  0.42895  Biso   1.000  C
  N82      1.0000 0.13632  0.49222  0.34606  Biso   1.000  N
  H530     1.0000 0.15350  0.47450  0.17747  Biso   1.000  H
  H531     1.0000 0.20971  0.43859  0.48762  Biso   1.000  H
  C432     1.0000 0.30292  0.50301  0.46867  Biso   1.000  C
  C433     1.0000 0.16791  0.54879  0.33037  Biso   1.000  C
  C434     1.0000 0.34701  0.54443  0.38814  Biso   1.000  C
  C435     1.0000 0.32047  0.49938  0.58547  Biso   1.000  C
  C436     1.0000 0.17329  0.59351  0.42051  Biso   1.000  C
  H532     1.0000 0.18911  0.56312  0.25764  Biso   1.000  H
  C437     1.0000 0.40650  0.57983  0.42051  Biso   1.000  C
  H533     1.0000 0.33511  0.54783  0.30997  Biso   1.000  H
  C438     1.0000 0.38142  0.53570  0.62138  Biso   1.000  C
  H534     1.0000 0.29142  0.47262  0.64061  Biso   1.000  H
  C439     1.0000 0.19739  0.65302  0.38814  Biso   1.000  C
  C440     1.0000 0.15153  0.57593  0.53732  Biso   1.000  C
  C441     1.0000 0.42412  0.57561  0.53732  Biso   1.000  C
  C442     1.0000 0.45119  0.61909  0.33037  Biso   1.000  C
  C443     1.0000 0.40150  0.52560  0.74145  Biso   1.000  C
  C444     1.0000 0.20011  0.69710  0.46867  Biso   1.000  C
  H535     1.0000 0.21269  0.66491  0.30997  Biso   1.000  H
  H536     1.0000 0.13461  0.53502  0.55999  Biso   1.000  H
  C445     1.0000 0.15431  0.61863  0.62138  Biso   1.000  C
  H537     1.0000 0.46499  0.59962  0.55999  Biso   1.000  H
  N83      1.0000 0.50780  0.64411  0.34606  Biso   1.000  N
  H538     1.0000 0.43692  0.62602  0.25764  Biso   1.000  H
  N84      1.0000 0.36620  0.48180  0.81110  Biso   1.000  N
  H539     1.0000 0.44150  0.55233  0.76675  Biso   1.000  H
  C446     1.0000 0.22121  0.76069  0.42895  Biso   1.000  C
  C447     1.0000 0.17891  0.67951  0.58547  Biso   1.000  C
  C448     1.0000 0.12410  0.59852  0.74145  Biso   1.000  C
  C449     1.0000 0.54991  0.68039  0.24812  Biso   1.000  C
  C450     1.0000 0.39182  0.47340  0.92210  Biso   1.000  C
  N85      1.0000 0.22922  0.77663  0.31840  Biso   1.000  N
  H540     1.0000 0.22890  0.79031  0.48762  Biso   1.000  H
  H541     1.0000 0.18122  0.70862  0.64061  Biso   1.000  H
  N86      1.0000 0.11563  0.63383  0.81110  Biso   1.000  N
  H542     1.0000 0.11082  0.55852  0.76675  Biso   1.000  H
  H543     1.0000 0.52552  0.67901  0.17747  Biso   1.000  H
  C451     1.0000 0.59002  0.65403  0.21239  Biso   1.000  C
  C452     1.0000 0.58791  0.74692  0.29047  Biso   1.000  C
  H544     1.0000 0.43460  0.50600  0.93180  Biso   1.000  H
  C453     1.0000 0.38732  0.41040  0.91530  Biso   1.000  C
  C454     1.0000 0.35220  0.47408  0.02802  Biso   1.000  C
  C455     1.0000 0.25309  0.84100  0.29047  Biso   1.000  C
  C456     1.0000 0.08162  0.60821  0.92210  Biso   1.000  C
  H545     1.0000 0.56450  0.61271  0.18119  Biso   1.000  H
  H546     1.0000 0.61142  0.65150  0.28340  Biso   1.000  H
  C457     1.0000 0.63730  0.69389  0.11481  Biso   1.000  C
  N87      1.0000 0.54740  0.77080  0.31840  Biso   1.000  N
  C458     1.0000 0.63340  0.78549  0.19017  Biso   1.000  C
  H547     1.0000 0.61079  0.74839  0.36356  Biso   1.000  H
  H548     1.0000 0.34551  0.37959  0.89526  Biso   1.000  H
  H549     1.0000 0.41382  0.41090  0.85091  Biso   1.000  H
  C459     1.0000 0.40542  0.39290  0.03292  Biso   1.000  C
  N88      1.0000 0.36391  0.53671  0.03909  Biso   1.000  N
  H550     1.0000 0.30859  0.44612  0.01061  Biso   1.000  H
  C460     1.0000 0.37020  0.45489  0.14591  Biso   1.000  C
  C461     1.0000 0.31960  0.86952  0.24812  Biso   1.000  C
  C462     1.0000 0.21450  0.84789  0.19017  Biso   1.000  C
  H551     1.0000 0.25158  0.86240  0.36356  Biso   1.000  H
  H552     1.0000 0.07140  0.56541  0.93180  Biso   1.000  H
  C463     1.0000 0.02311  0.61271  0.91530  Biso   1.000  C
  C464     1.0000 0.12189  0.64779  0.02802  Biso   1.000  C
  H553     1.0000 0.66471  0.67800  0.09921  Biso   1.000  H
  H554     1.0000 0.61600  0.69159  0.03990  Biso   1.000  H
  C465     1.0000 0.67468  0.76069  0.15507  Biso   1.000  C
  C466     1.0000 0.53953  0.77883  0.42895  Biso   1.000  C
  H555     1.0000 0.61070  0.78590  0.11943  Biso   1.000  H
  H556     1.0000 0.65830  0.82750  0.21819  Biso   1.000  H
  C467     1.0000 0.36469  0.39258  0.13331  Biso   1.000  C
  H557     1.0000 0.40112  0.35250  0.02521  Biso   1.000  H
  H558     1.0000 0.44801  0.42211  0.05142  Biso   1.000  H
  C468     1.0000 0.31961  0.54672  0.02675  Biso   1.000  C
  H559     1.0000 0.41211  0.48510  0.16668  Biso   1.000  H
  H560     1.0000 0.34368  0.45379  0.21094  Biso   1.000  H
  N89      1.0000 0.35591  0.86373  0.34606  Biso   1.000  N
  H561     1.0000 0.32102  0.84651  0.17747  Biso   1.000  H
  C469     1.0000 0.34600  0.93600  0.21239  Biso   1.000  C
  C470     1.0000 0.23929  0.91401  0.15507  Biso   1.000  C
  H562     1.0000 0.21409  0.82479  0.11943  Biso   1.000  H
  H563     1.0000 0.17248  0.83081  0.21819  Biso   1.000  H
  H564     1.0000 0.03410  0.65449  0.89526  Biso   1.000  H
  H565     1.0000 0.99710  0.58621  0.85091  Biso   1.000  H
  C471     1.0000 0.98750  0.59461  0.03292  Biso   1.000  C
  N90      1.0000 0.17280  0.63612  0.03909  Biso   1.000  N
  H566     1.0000 0.13750  0.69141  0.01061  Biso   1.000  H
  C472     1.0000 0.08470  0.62979  0.14591  Biso   1.000  C
  H567     1.0000 0.70022  0.76372  0.22381  Biso   1.000  H
  H568     1.0000 0.70162  0.78521  0.08960  Biso   1.000  H
  H569     1.0000 0.56140  0.77112  0.48762  Biso   1.000  H
  C473     1.0000 0.49702  0.79991  0.46867  Biso   1.000  C
  H570     1.0000 0.37642  0.38152  0.20912  Biso   1.000  H
  H571     1.0000 0.32240  0.36200  0.11617  Biso   1.000  H
  H572     1.0000 0.28039  0.51330  0.01551  Biso   1.000  H
  C474     1.0000 0.32670  0.60830  0.02938  Biso   1.000  C
  C475     1.0000 0.38089  0.83209  0.33037  Biso   1.000  C
  H573     1.0000 0.38730  0.95180  0.18119  Biso   1.000  H
  H574     1.0000 0.34850  0.95992  0.28340  Biso   1.000  H
  C476     1.0000 0.30608  0.94339  0.11481  Biso   1.000  C
  H575     1.0000 0.23631  0.93651  0.22381  Biso   1.000  H
  H576     1.0000 0.21480  0.91640  0.08960  Biso   1.000  H
  H577     1.0000 0.95138  0.59888  0.02521  Biso   1.000  H
  H578     1.0000 0.97411  0.55200  0.05142  Biso   1.000  H
  C477     1.0000 0.02788  0.63530  0.13331  Biso   1.000  C
  C478     1.0000 0.22710  0.68039  0.02675  Biso   1.000  C
  H579     1.0000 0.07298  0.58791  0.16668  Biso   1.000  H
  H580     1.0000 0.11009  0.65633  0.21094  Biso   1.000  H
  C479     1.0000 0.45563  0.80262  0.38814  Biso   1.000  C
  C480     1.0000 0.50063  0.82112  0.58547  Biso   1.000  C
  C481     1.0000 0.27599  0.61482  0.03101  Biso   1.000  C
  C482     1.0000 0.38519  0.66119  0.03101  Biso   1.000  C
  C483     1.0000 0.42020  0.82672  0.42051  Biso   1.000  C
  H581     1.0000 0.37401  0.81093  0.25764  Biso   1.000  H
  H582     1.0000 0.32200  0.98669  0.09921  Biso   1.000  H
  H583     1.0000 0.30841  0.92443  0.03990  Biso   1.000  H
  H584     1.0000 0.00509  0.62359  0.20912  Biso   1.000  H
  H585     1.0000 0.03960  0.67759  0.11617  Biso   1.000  H
  H586     1.0000 0.23291  0.71960  0.01551  Biso   1.000  H
  C484     1.0000 0.28162  0.67332  0.02938  Biso   1.000  C
  H587     1.0000 0.45220  0.78733  0.30997  Biso   1.000  H
  C485     1.0000 0.46430  0.84573  0.62138  Biso   1.000  C
  H588     1.0000 0.52739  0.81882  0.64061  Biso   1.000  H
  H589     1.0000 0.23720  0.58001  0.03319  Biso   1.000  H
  C486     1.0000 0.39169  0.71840  0.02938  Biso   1.000  C
  H590     1.0000 0.42002  0.65720  0.03319  Biso   1.000  H
  C487     1.0000 0.42442  0.84853  0.53732  Biso   1.000  C
  C488     1.0000 0.33882  0.72401  0.03101  Biso   1.000  C
  C489     1.0000 0.47441  0.87590  0.74145  Biso   1.000  C
  C490     1.0000 0.45330  0.77291  0.02675  Biso   1.000  C
  H591     1.0000 0.40043  0.86543  0.55999  Biso   1.000  H
  H592     1.0000 0.34279  0.76281  0.03319  Biso   1.000  H
  N91      1.0000 0.51819  0.88439  0.81110  Biso   1.000  N
  H593     1.0000 0.44771  0.88921  0.76675  Biso   1.000  H
  N92      1.0000 0.46332  0.82723  0.03909  Biso   1.000  N
  H594     1.0000 0.48671  0.76712  0.01551  Biso   1.000  H
  C491     1.0000 0.52661  0.91842  0.92210  Biso   1.000  C
  C492     1.0000 0.52590  0.87810  0.02802  Biso   1.000  C
  H595     1.0000 0.49401  0.92861  0.93180  Biso   1.000  H
  C493     1.0000 0.58962  0.97691  0.91530  Biso   1.000  C
  H596     1.0000 0.55388  0.86249  0.01061  Biso   1.000  H
  C494     1.0000 0.54509  0.91529  0.14591  Biso   1.000  C
  H597     1.0000 0.62041  0.96589  0.89526  Biso   1.000  H
  H598     1.0000 0.58909  0.00290  0.85091  Biso   1.000  H
  C495     1.0000 0.60709  0.01250  0.03292  Biso   1.000  C
  H599     1.0000 0.51492  0.92700  0.16668  Biso   1.000  H
  H600     1.0000 0.54619  0.88990  0.21094  Biso   1.000  H
  C496     1.0000 0.60741  0.97209  0.13331  Biso   1.000  C
  H601     1.0000 0.64751  0.04863  0.02521  Biso   1.000  H
  H602     1.0000 0.57789  0.02591  0.05142  Biso   1.000  H
  H603     1.0000 0.61850  0.99491  0.20912  Biso   1.000  H
  H604     1.0000 0.63800  0.96043  0.11617  Biso   1.000  H
  C497     1.0000 0.44533  0.39272  0.49125  Biso   1.000  C
  C498     1.0000 0.49430  0.41210  0.59046  Biso   1.000  C
  H605     1.0000 0.45591  0.37532  0.42332  Biso   1.000  H
  H606     1.0000 0.40590  0.36150  0.52272  Biso   1.000  H
  C499     1.0000 0.44083  0.44782  0.44881  Biso   1.000  C
  N93      1.0000 0.49920  0.35819  0.62193  Biso   1.000  N
  H607     1.0000 0.48203  0.42652  0.66201  Biso   1.000  H
  C500     1.0000 0.55643  0.46302  0.54367  Biso   1.000  C
  H608     1.0000 0.40993  0.43501  0.38578  Biso   1.000  H
  H609     1.0000 0.42830  0.46389  0.51601  Biso   1.000  H
  C501     1.0000 0.50164  0.49723  0.40038  Biso   1.000  C
  C502     1.0000 0.48910  0.34070  0.72939  Biso   1.000  C
  N94      1.0000 0.59968  0.48129  0.64469  Biso   1.000  N
  H610     1.0000 0.57028  0.44699  0.47737  Biso   1.000  H
  C503     1.0000 0.55051  0.51591  0.49887  Biso   1.000  C
  H611     1.0000 0.49839  0.53249  0.37590  Biso   1.000  H
  H612     1.0000 0.51313  0.48212  0.32992  Biso   1.000  H
  C504     1.0000 0.49190  0.28601  0.77029  Biso   1.000  C
  H613     1.0000 0.47960  0.36242  0.78516  Biso   1.000  H
  C505     1.0000 0.64410  0.47239  0.63218  Biso   1.000  C
  H614     1.0000 0.58979  0.54709  0.46676  Biso   1.000  H
  H615     1.0000 0.54010  0.53368  0.56643  Biso   1.000  H
  C506     1.0000 0.51209  0.25681  0.69130  Biso   1.000  C
  C507     1.0000 0.47111  0.26113  0.88320  Biso   1.000  C
  C508     1.0000 0.69253  0.49011  0.72159  Biso   1.000  C
  H616     1.0000 0.64639  0.45351  0.56153  Biso   1.000  H
  C509     1.0000 0.50990  0.20240  0.72159  Biso   1.000  C
  H617     1.0000 0.52761  0.27440  0.61585  Biso   1.000  H
  C510     1.0000 0.46994  0.20772  0.91911  Biso   1.000  C
  H618     1.0000 0.45761  0.28041  0.93670  Biso   1.000  H
  C511     1.0000 0.68990  0.51119  0.83731  Biso   1.000  C
  C512     1.0000 0.74471  0.48791  0.69130  Biso   1.000  C
  C513     1.0000 0.48879  0.17871  0.83731  Biso   1.000  C
  C514     1.0000 0.52759  0.17168  0.63218  Biso   1.000  C
  C515     1.0000 0.44578  0.18050  0.03954  Biso   1.000  C
  C516     1.0000 0.73781  0.53010  0.91911  Biso   1.000  C
  H619     1.0000 0.65502  0.51261  0.86007  Biso   1.000  H
  H620     1.0000 0.74681  0.47239  0.61585  Biso   1.000  H
  C517     1.0000 0.79410  0.50811  0.77029  Biso   1.000  C
  H621     1.0000 0.48741  0.14239  0.86007  Biso   1.000  H
  N95      1.0000 0.51873  0.11842  0.64469  Biso   1.000  N
  H622     1.0000 0.54650  0.19289  0.56153  Biso   1.000  H
  N96      1.0000 0.42480  0.20350  0.11182  Biso   1.000  N
  H623     1.0000 0.44638  0.14519  0.06230  Biso   1.000  H
  C518     1.0000 0.79002  0.52891  0.88320  Biso   1.000  C
  C519     1.0000 0.73472  0.55421  0.03954  Biso   1.000  C
  C520     1.0000 0.85161  0.51091  0.72939  Biso   1.000  C
  C521     1.0000 0.53699  0.09339  0.54367  Biso   1.000  C
  C522     1.0000 0.40000  0.17411  0.22926  Biso   1.000  C
  H624     1.0000 0.82282  0.54241  0.93670  Biso   1.000  H
  N97      1.0000 0.77869  0.57519  0.11182  Biso   1.000  N
  H625     1.0000 0.69883  0.55361  0.06230  Biso   1.000  H
  N98      1.0000 0.85900  0.50081  0.62193  Biso   1.000  N
  H626     1.0000 0.88280  0.52041  0.78516  Biso   1.000  H
  H627     1.0000 0.55301  0.12328  0.47737  Biso   1.000  H
  C523     1.0000 0.48411  0.03462  0.49887  Biso   1.000  C
  C524     1.0000 0.58790  0.08219  0.59046  Biso   1.000  C
  C525     1.0000 0.43229  0.22159  0.32674  Biso   1.000  C
  H628     1.0000 0.40750  0.13972  0.24086  Biso   1.000  H
  C526     1.0000 0.33139  0.15061  0.22717  Biso   1.000  C
  C527     1.0000 0.77411  0.59999  0.22926  Biso   1.000  C
  C528     1.0000 0.91780  0.50572  0.59046  Biso   1.000  C
  H629     1.0000 0.45292  0.04270  0.46676  Biso   1.000  H
  H630     1.0000 0.46629  0.00638  0.56643  Biso   1.000  H
  C529     1.0000 0.50280  0.00441  0.40038  Biso   1.000  C
  N99      1.0000 0.64180  0.14101  0.62193  Biso   1.000  N
  H631     1.0000 0.57353  0.05551  0.66201  Biso   1.000  H
  C530     1.0000 0.60731  0.05262  0.49125  Biso   1.000  C
  N100     1.0000 0.49691  0.23670  0.33228  Biso   1.000  N
  H632     1.0000 0.43060  0.25869  0.30679  Biso   1.000  H
  C531     1.0000 0.40340  0.19808  0.44971  Biso   1.000  C
  H633     1.0000 0.31181  0.11750  0.16877  Biso   1.000  H
  H634     1.0000 0.32420  0.18339  0.20205  Biso   1.000  H
  C532     1.0000 0.30290  0.12719  0.35368  Biso   1.000  C
  C533     1.0000 0.78930  0.56771  0.32674  Biso   1.000  C
  H635     1.0000 0.73219  0.59250  0.24086  Biso   1.000  H
  C534     1.0000 0.81918  0.66859  0.22717  Biso   1.000  C
  C535     1.0000 0.90662  0.44360  0.54367  Biso   1.000  C
  H636     1.0000 0.94452  0.51803  0.66201  Biso   1.000  H
  C536     1.0000 0.94743  0.55471  0.49125  Biso   1.000  C
  H637     1.0000 0.51792  0.03099  0.32992  Biso   1.000  H
  C537     1.0000 0.55222  0.99302  0.44881  Biso   1.000  C
  H638     1.0000 0.46751  0.96588  0.37590  Biso   1.000  H
  C538     1.0000 0.65930  0.14840  0.72939  Biso   1.000  C
  H639     1.0000 0.62471  0.08058  0.42332  Biso   1.000  H
  H640     1.0000 0.63851  0.04440  0.52272  Biso   1.000  H
  C539     1.0000 0.53852  0.29281  0.32384  Biso   1.000  C
  C540     1.0000 0.33471  0.17641  0.44427  Biso   1.000  C
  H641     1.0000 0.42311  0.23050  0.50948  Biso   1.000  H
  H642     1.0000 0.40920  0.16420  0.47402  Biso   1.000  H
  H643     1.0000 0.25959  0.11470  0.35186  Biso   1.000  H
  H644     1.0000 0.30648  0.09188  0.37580  Biso   1.000  H
  N101     1.0000 0.73982  0.50310  0.33228  Biso   1.000  N
  H645     1.0000 0.82813  0.56941  0.30679  Biso   1.000  H
  C541     1.0000 0.79472  0.59659  0.44971  Biso   1.000  C
  H646     1.0000 0.80568  0.68819  0.16877  Biso   1.000  H
  H647     1.0000 0.85921  0.67579  0.20205  Biso   1.000  H
  C542     1.0000 0.82429  0.69710  0.35368  Biso   1.000  C
  N102     1.0000 0.88159  0.40030  0.64469  Biso   1.000  N
  H648     1.0000 0.87668  0.42968  0.47737  Biso   1.000  H
  C543     1.0000 0.96542  0.44952  0.49887  Biso   1.000  C
  H649     1.0000 0.91942  0.54411  0.42332  Biso   1.000  H
  H650     1.0000 0.95560  0.59411  0.52272  Biso   1.000  H
  C544     1.0000 0.00702  0.55921  0.44881  Biso   1.000  C
  H651     1.0000 0.56498  0.97488  0.38578  Biso   1.000  H
  H652     1.0000 0.53613  0.96441  0.51601  Biso   1.000  H
  C545     1.0000 0.71401  0.20589  0.77029  Biso   1.000  C
  H653     1.0000 0.63762  0.11722  0.78516  Biso   1.000  H
  C546     1.0000 0.60413  0.31411  0.32484  Biso   1.000  C
  H654     1.0000 0.52632  0.32201  0.31659  Biso   1.000  H
  H655     1.0000 0.31658  0.16140  0.52344  Biso   1.000  H
  H656     1.0000 0.32920  0.21089  0.42378  Biso   1.000  H
  C547     1.0000 0.75429  0.46150  0.32384  Biso   1.000  C
  C548     1.0000 0.84173  0.66533  0.44427  Biso   1.000  C
  H657     1.0000 0.80741  0.57689  0.50948  Biso   1.000  H
  H658     1.0000 0.75500  0.59080  0.47402  Biso   1.000  H
  H659     1.0000 0.85509  0.74040  0.35186  Biso   1.000  H
  H660     1.0000 0.78540  0.69352  0.37580  Biso   1.000  H
  C549     1.0000 0.82830  0.35590  0.63218  Biso   1.000  C
  H661     1.0000 0.95733  0.41022  0.46676  Biso   1.000  H
  H662     1.0000 0.99359  0.45990  0.56643  Biso   1.000  H
  C550     1.0000 0.99563  0.49842  0.40038  Biso   1.000  C
  H663     1.0000 0.02514  0.59011  0.38578  Biso   1.000  H
  H664     1.0000 0.03561  0.57170  0.51601  Biso   1.000  H
  C551     1.0000 0.74320  0.25529  0.69130  Biso   1.000  C
  C552     1.0000 0.73894  0.21002  0.88320  Biso   1.000  C
  C553     1.0000 0.64674  0.37523  0.32547  Biso   1.000  C
  C554     1.0000 0.62482  0.27150  0.32547  Biso   1.000  C
  C555     1.0000 0.70999  0.39589  0.32484  Biso   1.000  C
  H665     1.0000 0.79571  0.47372  0.31659  Biso   1.000  H
  H666     1.0000 0.84481  0.68342  0.52344  Biso   1.000  H
  H667     1.0000 0.88172  0.67079  0.42378  Biso   1.000  H
  C556     1.0000 0.79762  0.30750  0.72159  Biso   1.000  C
  H668     1.0000 0.80711  0.35360  0.56153  Biso   1.000  H
  H669     1.0000 0.96899  0.48690  0.32992  Biso   1.000  H
  H670     1.0000 0.03412  0.50159  0.37590  Biso   1.000  H
  H671     1.0000 0.72560  0.25318  0.61585  Biso   1.000  H
  C557     1.0000 0.79230  0.26218  0.91911  Biso   1.000  C
  H672     1.0000 0.71962  0.17719  0.93670  Biso   1.000  H
  H673     1.0000 0.63350  0.40379  0.32629  Biso   1.000  H
  H674     1.0000 0.59621  0.22972  0.32629  Biso   1.000  H
  C558     1.0000 0.68592  0.29001  0.32484  Biso   1.000  C
  C559     1.0000 0.72852  0.35333  0.32547  Biso   1.000  C
  C560     1.0000 0.82131  0.31012  0.83731  Biso   1.000  C
  C561     1.0000 0.81951  0.26530  0.03954  Biso   1.000  C
  C562     1.0000 0.70719  0.24570  0.32384  Biso   1.000  C
  H675     1.0000 0.77030  0.36650  0.32629  Biso   1.000  H
  H676     1.0000 0.85761  0.34501  0.86007  Biso   1.000  H
  N103     1.0000 0.79652  0.22132  0.11182  Biso   1.000  N
  H677     1.0000 0.85480  0.30121  0.06230  Biso   1.000  H
  N104     1.0000 0.76331  0.26021  0.33228  Biso   1.000  N
  H678     1.0000 0.67801  0.20428  0.31659  Biso   1.000  H
  C563     1.0000 0.82589  0.22591  0.22926  Biso   1.000  C
  C564     1.0000 0.77841  0.21071  0.32674  Biso   1.000  C
  H679     1.0000 0.86031  0.26778  0.24086  Biso   1.000  H
  C565     1.0000 0.84944  0.18082  0.22717  Biso   1.000  C
  H680     1.0000 0.74132  0.17191  0.30679  Biso   1.000  H
  C566     1.0000 0.80191  0.20529  0.44971  Biso   1.000  C
  H681     1.0000 0.88251  0.19432  0.16877  Biso   1.000  H
  H682     1.0000 0.81661  0.14078  0.20205  Biso   1.000  H
  C567     1.0000 0.87281  0.17572  0.35368  Biso   1.000  C
  C568     1.0000 0.82363  0.15832  0.44427  Biso   1.000  C
  H683     1.0000 0.76952  0.19262  0.50948  Biso   1.000  H
  H684     1.0000 0.83580  0.24501  0.47402  Biso   1.000  H
  H685     1.0000 0.88532  0.14491  0.35186  Biso   1.000  H
  H686     1.0000 0.90813  0.21461  0.37580  Biso   1.000  H
  H687     1.0000 0.83861  0.15520  0.52344  Biso   1.000  H
  H688     1.0000 0.78910  0.11828  0.42378  Biso   1.000  H
