data_image0
_cell_length_a       24.8
_cell_length_b       24.8
_cell_length_c       24.8
_cell_angle_alpha    90
_cell_angle_beta     90
_cell_angle_gamma    90

_symmetry_space_group_name_H-M    "P 1"
_symmetry_int_tables_number       1

loop_
  _symmetry_equiv_pos_as_xyz
  'x, y, z'

loop_
  _atom_site_label
  _atom_site_occupancy
  _atom_site_fract_x
  _atom_site_fract_y
  _atom_site_fract_z
  _atom_site_thermal_displace_type
  _atom_site_B_iso_or_equiv
  _atom_site_type_symbol
  C1       1.0000 0.38060  0.24129  0.27839  Biso   1.000  C
  C2       1.0000 0.43060  0.20742  0.28940  Biso   1.000  C
  C3       1.0000 0.38060  0.25871  0.22161  Biso   1.000  C
  H1       1.0000 0.34839  0.22040  0.28589  Biso   1.000  H
  H2       1.0000 0.38040  0.27270  0.30181  Biso   1.000  H
  C4       1.0000 0.48141  0.24000  0.27851  Biso   1.000  C
  H3       1.0000 0.43040  0.19548  0.32669  Biso   1.000  H
  H4       1.0000 0.43020  0.17569  0.26649  Biso   1.000  H
  C5       1.0000 0.43060  0.29258  0.21060  Biso   1.000  C
  H5       1.0000 0.34839  0.27960  0.21411  Biso   1.000  H
  H6       1.0000 0.38040  0.22730  0.19819  Biso   1.000  H
  N1       1.0000 0.52782  0.20504  0.28645  Biso   1.000  N
  C6       1.0000 0.48141  0.26000  0.22149  Biso   1.000  C
  H7       1.0000 0.48331  0.27060  0.30339  Biso   1.000  H
  H8       1.0000 0.43040  0.30452  0.17331  Biso   1.000  H
  H9       1.0000 0.43020  0.32431  0.23351  Biso   1.000  H
  C7       1.0000 0.56109  0.21726  0.32149  Biso   1.000  C
  N2       1.0000 0.52782  0.29496  0.21355  Biso   1.000  N
  H10      1.0000 0.48331  0.22940  0.19661  Biso   1.000  H
  C8       1.0000 0.60827  0.18440  0.33452  Biso   1.000  C
  H11      1.0000 0.55589  0.24911  0.34060  Biso   1.000  H
  C9       1.0000 0.56109  0.28274  0.17851  Biso   1.000  C
  C10      1.0000 0.62181  0.13980  0.30367  Biso   1.000  C
  C11      1.0000 0.63980  0.19633  0.37819  Biso   1.000  C
  C12      1.0000 0.60827  0.31560  0.16548  Biso   1.000  C
  H12      1.0000 0.55589  0.25089  0.15940  Biso   1.000  H
  C13      1.0000 0.66548  0.10827  0.31560  Biso   1.000  C
  H13      1.0000 0.60060  0.13101  0.27399  Biso   1.000  H
  C14      1.0000 0.68440  0.16548  0.39173  Biso   1.000  C
  H14      1.0000 0.63101  0.22601  0.39940  Biso   1.000  H
  C15      1.0000 0.63980  0.30367  0.12181  Biso   1.000  C
  C16      1.0000 0.62181  0.36020  0.19633  Biso   1.000  C
  C17      1.0000 0.69633  0.12181  0.36020  Biso   1.000  C
  C18      1.0000 0.67851  0.06109  0.28274  Biso   1.000  C
  C19      1.0000 0.71726  0.17851  0.43891  Biso   1.000  C
  C20      1.0000 0.68440  0.33452  0.10827  Biso   1.000  C
  H15      1.0000 0.63101  0.27399  0.10060  Biso   1.000  H
  C21      1.0000 0.66548  0.39173  0.18440  Biso   1.000  C
  H16      1.0000 0.60060  0.36899  0.22601  Biso   1.000  H
  H17      1.0000 0.72601  0.10060  0.36899  Biso   1.000  H
  N3       1.0000 0.71355  0.02782  0.29496  Biso   1.000  N
  H18      1.0000 0.65940  0.05589  0.25089  Biso   1.000  H
  N4       1.0000 0.70504  0.21355  0.47218  Biso   1.000  N
  H19      1.0000 0.74911  0.15940  0.44411  Biso   1.000  H
  C22      1.0000 0.69633  0.37819  0.13980  Biso   1.000  C
  C23      1.0000 0.71726  0.32149  0.06109  Biso   1.000  C
  C24      1.0000 0.67851  0.43891  0.21726  Biso   1.000  C
  C25      1.0000 0.72149  0.98141  0.26000  Biso   1.000  C
  C26      1.0000 0.74000  0.22149  0.51859  Biso   1.000  C
  H20      1.0000 0.72601  0.39940  0.13101  Biso   1.000  H
  N5       1.0000 0.70504  0.28645  0.02782  Biso   1.000  N
  H21      1.0000 0.74911  0.34060  0.05589  Biso   1.000  H
  N6       1.0000 0.71355  0.47218  0.20504  Biso   1.000  N
  H22      1.0000 0.65940  0.44411  0.24911  Biso   1.000  H
  C27      1.0000 0.77851  0.98141  0.24000  Biso   1.000  C
  C28      1.0000 0.71060  0.93060  0.29258  Biso   1.000  C
  H23      1.0000 0.69661  0.98331  0.22940  Biso   1.000  H
  C29      1.0000 0.76000  0.27851  0.51859  Biso   1.000  C
  C30      1.0000 0.70742  0.21060  0.56940  Biso   1.000  C
  H24      1.0000 0.77060  0.19661  0.51669  Biso   1.000  H
  C31      1.0000 0.74000  0.27851  0.98141  Biso   1.000  C
  C32      1.0000 0.72149  0.51859  0.24000  Biso   1.000  C
  N7       1.0000 0.78645  0.02782  0.20504  Biso   1.000  N
  C33      1.0000 0.78940  0.93060  0.20742  Biso   1.000  C
  H25      1.0000 0.80339  0.98331  0.27060  Biso   1.000  H
  C34      1.0000 0.72161  0.88060  0.25871  Biso   1.000  C
  H26      1.0000 0.67331  0.93040  0.30452  Biso   1.000  H
  H27      1.0000 0.73351  0.93020  0.32431  Biso   1.000  H
  N8       1.0000 0.79496  0.28645  0.47218  Biso   1.000  N
  C35      1.0000 0.79258  0.28940  0.56940  Biso   1.000  C
  H28      1.0000 0.72940  0.30339  0.51669  Biso   1.000  H
  C36      1.0000 0.74129  0.22161  0.61940  Biso   1.000  C
  H29      1.0000 0.69548  0.17331  0.56960  Biso   1.000  H
  H30      1.0000 0.67569  0.23351  0.56980  Biso   1.000  H
  C37      1.0000 0.76000  0.22149  0.98141  Biso   1.000  C
  C38      1.0000 0.70742  0.28940  0.93060  Biso   1.000  C
  H31      1.0000 0.77060  0.30339  0.98331  Biso   1.000  H
  C39      1.0000 0.77851  0.51859  0.26000  Biso   1.000  C
  C40      1.0000 0.71060  0.56940  0.20742  Biso   1.000  C
  H32      1.0000 0.69661  0.51669  0.27060  Biso   1.000  H
  C41      1.0000 0.82149  0.06109  0.21726  Biso   1.000  C
  C42      1.0000 0.77839  0.88060  0.24129  Biso   1.000  C
  H33      1.0000 0.82669  0.93040  0.19548  Biso   1.000  H
  H34      1.0000 0.76649  0.93020  0.17569  Biso   1.000  H
  H35      1.0000 0.71411  0.84839  0.27960  Biso   1.000  H
  H36      1.0000 0.69819  0.88040  0.22730  Biso   1.000  H
  C43      1.0000 0.78274  0.32149  0.43891  Biso   1.000  C
  C44      1.0000 0.75871  0.27839  0.61940  Biso   1.000  C
  H37      1.0000 0.80452  0.32669  0.56960  Biso   1.000  H
  H38      1.0000 0.82431  0.26649  0.56980  Biso   1.000  H
  H39      1.0000 0.72040  0.21411  0.65161  Biso   1.000  H
  H40      1.0000 0.77270  0.19819  0.61960  Biso   1.000  H
  N9       1.0000 0.79496  0.21355  0.02782  Biso   1.000  N
  C45      1.0000 0.79258  0.21060  0.93060  Biso   1.000  C
  H41      1.0000 0.72940  0.19661  0.98331  Biso   1.000  H
  C46      1.0000 0.74129  0.27839  0.88060  Biso   1.000  C
  H42      1.0000 0.69548  0.32669  0.93040  Biso   1.000  H
  H43      1.0000 0.67569  0.26649  0.93020  Biso   1.000  H
  N10      1.0000 0.78645  0.47218  0.29496  Biso   1.000  N
  C47      1.0000 0.78940  0.56940  0.29258  Biso   1.000  C
  H44      1.0000 0.80339  0.51669  0.22940  Biso   1.000  H
  C48      1.0000 0.72161  0.61940  0.24129  Biso   1.000  C
  H45      1.0000 0.67331  0.56960  0.19548  Biso   1.000  H
  H46      1.0000 0.73351  0.56980  0.17569  Biso   1.000  H
  C49      1.0000 0.83452  0.10827  0.18440  Biso   1.000  C
  H47      1.0000 0.84060  0.05589  0.24911  Biso   1.000  H
  H48      1.0000 0.78589  0.84839  0.22040  Biso   1.000  H
  H49      1.0000 0.80181  0.88040  0.27270  Biso   1.000  H
  C50      1.0000 0.81560  0.33452  0.39173  Biso   1.000  C
  H50      1.0000 0.75089  0.34060  0.44411  Biso   1.000  H
  H51      1.0000 0.77960  0.28589  0.65161  Biso   1.000  H
  H52      1.0000 0.72730  0.30181  0.61960  Biso   1.000  H
  C51      1.0000 0.78274  0.17851  0.06109  Biso   1.000  C
  C52      1.0000 0.75871  0.22161  0.88060  Biso   1.000  C
  H53      1.0000 0.80452  0.17331  0.93040  Biso   1.000  H
  H54      1.0000 0.82431  0.23351  0.93020  Biso   1.000  H
  H55      1.0000 0.72040  0.28589  0.84839  Biso   1.000  H
  H56      1.0000 0.77270  0.30181  0.88040  Biso   1.000  H
  C53      1.0000 0.82149  0.43891  0.28274  Biso   1.000  C
  C54      1.0000 0.77839  0.61940  0.25871  Biso   1.000  C
  H57      1.0000 0.82669  0.56960  0.30452  Biso   1.000  H
  H58      1.0000 0.76649  0.56980  0.32431  Biso   1.000  H
  H59      1.0000 0.71411  0.65161  0.22040  Biso   1.000  H
  H60      1.0000 0.69819  0.61960  0.27270  Biso   1.000  H
  C55      1.0000 0.80367  0.12181  0.13980  Biso   1.000  C
  C56      1.0000 0.87819  0.13980  0.19633  Biso   1.000  C
  C57      1.0000 0.86020  0.30367  0.37819  Biso   1.000  C
  C58      1.0000 0.80367  0.37819  0.36020  Biso   1.000  C
  C59      1.0000 0.81560  0.16548  0.10827  Biso   1.000  C
  H61      1.0000 0.75089  0.15940  0.05589  Biso   1.000  H
  H62      1.0000 0.77960  0.21411  0.84839  Biso   1.000  H
  H63      1.0000 0.72730  0.19819  0.88040  Biso   1.000  H
  C60      1.0000 0.83452  0.39173  0.31560  Biso   1.000  C
  H64      1.0000 0.84060  0.44411  0.25089  Biso   1.000  H
  H65      1.0000 0.78589  0.65161  0.27960  Biso   1.000  H
  H66      1.0000 0.80181  0.61960  0.22730  Biso   1.000  H
  H67      1.0000 0.77399  0.10060  0.13101  Biso   1.000  H
  C61      1.0000 0.89173  0.18440  0.16548  Biso   1.000  C
  H68      1.0000 0.89940  0.13101  0.22601  Biso   1.000  H
  C62      1.0000 0.89173  0.31560  0.33452  Biso   1.000  C
  H69      1.0000 0.86899  0.27399  0.39940  Biso   1.000  H
  H70      1.0000 0.77399  0.39940  0.36899  Biso   1.000  H
  C63      1.0000 0.86020  0.19633  0.12181  Biso   1.000  C
  C64      1.0000 0.87819  0.36020  0.30367  Biso   1.000  C
  C65      1.0000 0.93891  0.21726  0.17851  Biso   1.000  C
  C66      1.0000 0.93891  0.28274  0.32149  Biso   1.000  C
  H71      1.0000 0.86899  0.22601  0.10060  Biso   1.000  H
  H72      1.0000 0.89940  0.36899  0.27399  Biso   1.000  H
  N11      1.0000 0.97218  0.20504  0.21355  Biso   1.000  N
  H73      1.0000 0.94411  0.24911  0.15940  Biso   1.000  H
  N12      1.0000 0.97218  0.29496  0.28645  Biso   1.000  N
  H74      1.0000 0.94411  0.25089  0.34060  Biso   1.000  H
  C67      1.0000 0.01859  0.24000  0.22149  Biso   1.000  C
  C68      1.0000 0.01859  0.26000  0.27851  Biso   1.000  C
  C69      1.0000 0.06940  0.20742  0.21060  Biso   1.000  C
  H75      1.0000 0.01669  0.27060  0.19661  Biso   1.000  H
  C70      1.0000 0.06940  0.29258  0.28940  Biso   1.000  C
  H76      1.0000 0.01669  0.22940  0.30339  Biso   1.000  H
  C71      1.0000 0.11940  0.24129  0.22161  Biso   1.000  C
  H77      1.0000 0.06960  0.19548  0.17331  Biso   1.000  H
  H78      1.0000 0.06980  0.17569  0.23351  Biso   1.000  H
  C72      1.0000 0.11940  0.25871  0.27839  Biso   1.000  C
  H79      1.0000 0.06960  0.30452  0.32669  Biso   1.000  H
  H80      1.0000 0.06980  0.32431  0.26649  Biso   1.000  H
  H81      1.0000 0.15161  0.22040  0.21411  Biso   1.000  H
  H82      1.0000 0.11960  0.27270  0.19819  Biso   1.000  H
  H83      1.0000 0.15161  0.27960  0.28589  Biso   1.000  H
  H84      1.0000 0.11960  0.22730  0.30181  Biso   1.000  H
  C73      1.0000 0.27839  0.38060  0.24129  Biso   1.000  C
  C74      1.0000 0.28940  0.43060  0.20742  Biso   1.000  C
  C75      1.0000 0.22161  0.38060  0.25871  Biso   1.000  C
  H85      1.0000 0.28589  0.34839  0.22040  Biso   1.000  H
  H86      1.0000 0.30181  0.38040  0.27270  Biso   1.000  H
  C76      1.0000 0.27851  0.48141  0.24000  Biso   1.000  C
  H87      1.0000 0.32669  0.43040  0.19548  Biso   1.000  H
  H88      1.0000 0.26649  0.43020  0.17569  Biso   1.000  H
  C77      1.0000 0.21060  0.43060  0.29258  Biso   1.000  C
  H89      1.0000 0.21411  0.34839  0.27960  Biso   1.000  H
  H90      1.0000 0.19819  0.38040  0.22730  Biso   1.000  H
  N13      1.0000 0.28645  0.52782  0.20504  Biso   1.000  N
  C78      1.0000 0.22149  0.48141  0.26000  Biso   1.000  C
  H91      1.0000 0.30339  0.48331  0.27060  Biso   1.000  H
  H92      1.0000 0.17331  0.43040  0.30452  Biso   1.000  H
  H93      1.0000 0.23351  0.43020  0.32431  Biso   1.000  H
  C79      1.0000 0.32149  0.56109  0.21726  Biso   1.000  C
  N14      1.0000 0.21355  0.52782  0.29496  Biso   1.000  N
  H94      1.0000 0.19661  0.48331  0.22940  Biso   1.000  H
  C80      1.0000 0.33452  0.60827  0.18440  Biso   1.000  C
  H95      1.0000 0.34060  0.55589  0.24911  Biso   1.000  H
  C81      1.0000 0.17851  0.56109  0.28274  Biso   1.000  C
  C82      1.0000 0.37819  0.63980  0.19633  Biso   1.000  C
  C83      1.0000 0.30367  0.62181  0.13980  Biso   1.000  C
  C84      1.0000 0.16548  0.60827  0.31560  Biso   1.000  C
  H96      1.0000 0.15940  0.55589  0.25089  Biso   1.000  H
  C85      1.0000 0.39173  0.68440  0.16548  Biso   1.000  C
  H97      1.0000 0.39940  0.63101  0.22601  Biso   1.000  H
  C86      1.0000 0.31560  0.66548  0.10827  Biso   1.000  C
  H98      1.0000 0.27399  0.60060  0.13101  Biso   1.000  H
  C87      1.0000 0.12181  0.63980  0.30367  Biso   1.000  C
  C88      1.0000 0.19633  0.62181  0.36020  Biso   1.000  C
  C89      1.0000 0.36020  0.69633  0.12181  Biso   1.000  C
  C90      1.0000 0.43891  0.71726  0.17851  Biso   1.000  C
  C91      1.0000 0.28274  0.67851  0.06109  Biso   1.000  C
  C92      1.0000 0.10827  0.68440  0.33452  Biso   1.000  C
  H99      1.0000 0.10060  0.63101  0.27399  Biso   1.000  H
  C93      1.0000 0.18440  0.66548  0.39173  Biso   1.000  C
  H100     1.0000 0.22601  0.60060  0.36899  Biso   1.000  H
  H101     1.0000 0.36899  0.72601  0.10060  Biso   1.000  H
  N15      1.0000 0.47218  0.70504  0.21355  Biso   1.000  N
  H102     1.0000 0.44411  0.74911  0.15940  Biso   1.000  H
  N16      1.0000 0.29496  0.71355  0.02782  Biso   1.000  N
  H103     1.0000 0.25089  0.65940  0.05589  Biso   1.000  H
  C94      1.0000 0.13980  0.69633  0.37819  Biso   1.000  C
  C95      1.0000 0.06109  0.71726  0.32149  Biso   1.000  C
  C96      1.0000 0.21726  0.67851  0.43891  Biso   1.000  C
  C97      1.0000 0.51859  0.74000  0.22149  Biso   1.000  C
  C98      1.0000 0.26000  0.72149  0.98141  Biso   1.000  C
  H104     1.0000 0.13101  0.72601  0.39940  Biso   1.000  H
  N17      1.0000 0.02782  0.70504  0.28645  Biso   1.000  N
  H105     1.0000 0.05589  0.74911  0.34060  Biso   1.000  H
  N18      1.0000 0.20504  0.71355  0.47218  Biso   1.000  N
  H106     1.0000 0.24911  0.65940  0.44411  Biso   1.000  H
  C99      1.0000 0.51859  0.76000  0.27851  Biso   1.000  C
  C100     1.0000 0.56940  0.70742  0.21060  Biso   1.000  C
  H107     1.0000 0.51669  0.77060  0.19661  Biso   1.000  H
  C101     1.0000 0.24000  0.77851  0.98141  Biso   1.000  C
  C102     1.0000 0.29258  0.71060  0.93060  Biso   1.000  C
  H108     1.0000 0.22940  0.69661  0.98331  Biso   1.000  H
  C103     1.0000 0.98141  0.74000  0.27851  Biso   1.000  C
  C104     1.0000 0.24000  0.72149  0.51859  Biso   1.000  C
  N19      1.0000 0.47218  0.79496  0.28645  Biso   1.000  N
  C105     1.0000 0.56940  0.79258  0.28940  Biso   1.000  C
  H109     1.0000 0.51669  0.72940  0.30339  Biso   1.000  H
  C106     1.0000 0.61940  0.74129  0.22161  Biso   1.000  C
  H110     1.0000 0.56960  0.69548  0.17331  Biso   1.000  H
  H111     1.0000 0.56980  0.67569  0.23351  Biso   1.000  H
  N20      1.0000 0.20504  0.78645  0.02782  Biso   1.000  N
  C107     1.0000 0.20742  0.78940  0.93060  Biso   1.000  C
  H112     1.0000 0.27060  0.80339  0.98331  Biso   1.000  H
  C108     1.0000 0.25871  0.72161  0.88060  Biso   1.000  C
  H113     1.0000 0.30452  0.67331  0.93040  Biso   1.000  H
  H114     1.0000 0.32431  0.73351  0.93020  Biso   1.000  H
  C109     1.0000 0.98141  0.76000  0.22149  Biso   1.000  C
  C110     1.0000 0.93060  0.70742  0.28940  Biso   1.000  C
  H115     1.0000 0.98331  0.77060  0.30339  Biso   1.000  H
  C111     1.0000 0.26000  0.77851  0.51859  Biso   1.000  C
  C112     1.0000 0.20742  0.71060  0.56940  Biso   1.000  C
  H116     1.0000 0.27060  0.69661  0.51669  Biso   1.000  H
  C113     1.0000 0.43891  0.78274  0.32149  Biso   1.000  C
  C114     1.0000 0.61940  0.75871  0.27839  Biso   1.000  C
  H117     1.0000 0.56960  0.80452  0.32669  Biso   1.000  H
  H118     1.0000 0.56980  0.82431  0.26649  Biso   1.000  H
  H119     1.0000 0.65161  0.72040  0.21411  Biso   1.000  H
  H120     1.0000 0.61960  0.77270  0.19819  Biso   1.000  H
  C115     1.0000 0.21726  0.82149  0.06109  Biso   1.000  C
  C116     1.0000 0.24129  0.77839  0.88060  Biso   1.000  C
  H121     1.0000 0.19548  0.82669  0.93040  Biso   1.000  H
  H122     1.0000 0.17569  0.76649  0.93020  Biso   1.000  H
  H123     1.0000 0.27960  0.71411  0.84839  Biso   1.000  H
  H124     1.0000 0.22730  0.69819  0.88040  Biso   1.000  H
  N21      1.0000 0.02782  0.79496  0.21355  Biso   1.000  N
  C117     1.0000 0.93060  0.79258  0.21060  Biso   1.000  C
  H125     1.0000 0.98331  0.72940  0.19661  Biso   1.000  H
  C118     1.0000 0.88060  0.74129  0.27839  Biso   1.000  C
  H126     1.0000 0.93040  0.69548  0.32669  Biso   1.000  H
  H127     1.0000 0.93020  0.67569  0.26649  Biso   1.000  H
  N22      1.0000 0.29496  0.78645  0.47218  Biso   1.000  N
  C119     1.0000 0.29258  0.78940  0.56940  Biso   1.000  C
  H128     1.0000 0.22940  0.80339  0.51669  Biso   1.000  H
  C120     1.0000 0.24129  0.72161  0.61940  Biso   1.000  C
  H129     1.0000 0.19548  0.67331  0.56960  Biso   1.000  H
  H130     1.0000 0.17569  0.73351  0.56980  Biso   1.000  H
  C121     1.0000 0.39173  0.81560  0.33452  Biso   1.000  C
  H131     1.0000 0.44411  0.75089  0.34060  Biso   1.000  H
  H132     1.0000 0.65161  0.77960  0.28589  Biso   1.000  H
  H133     1.0000 0.61960  0.72730  0.30181  Biso   1.000  H
  C122     1.0000 0.18440  0.83452  0.10827  Biso   1.000  C
  H134     1.0000 0.24911  0.84060  0.05589  Biso   1.000  H
  H135     1.0000 0.22040  0.78589  0.84839  Biso   1.000  H
  H136     1.0000 0.27270  0.80181  0.88040  Biso   1.000  H
  C123     1.0000 0.06109  0.78274  0.17851  Biso   1.000  C
  C124     1.0000 0.88060  0.75871  0.22161  Biso   1.000  C
  H137     1.0000 0.93040  0.80452  0.17331  Biso   1.000  H
  H138     1.0000 0.93020  0.82431  0.23351  Biso   1.000  H
  H139     1.0000 0.84839  0.72040  0.28589  Biso   1.000  H
  H140     1.0000 0.88040  0.77270  0.30181  Biso   1.000  H
  C125     1.0000 0.28274  0.82149  0.43891  Biso   1.000  C
  C126     1.0000 0.25871  0.77839  0.61940  Biso   1.000  C
  H141     1.0000 0.30452  0.82669  0.56960  Biso   1.000  H
  H142     1.0000 0.32431  0.76649  0.56980  Biso   1.000  H
  H143     1.0000 0.22040  0.71411  0.65161  Biso   1.000  H
  H144     1.0000 0.27270  0.69819  0.61960  Biso   1.000  H
  C127     1.0000 0.37819  0.86020  0.30367  Biso   1.000  C
  C128     1.0000 0.36020  0.80367  0.37819  Biso   1.000  C
  C129     1.0000 0.13980  0.80367  0.12181  Biso   1.000  C
  C130     1.0000 0.19633  0.87819  0.13980  Biso   1.000  C
  C131     1.0000 0.10827  0.81560  0.16548  Biso   1.000  C
  H145     1.0000 0.05589  0.75089  0.15940  Biso   1.000  H
  H146     1.0000 0.84839  0.77960  0.21411  Biso   1.000  H
  H147     1.0000 0.88040  0.72730  0.19819  Biso   1.000  H
  C132     1.0000 0.31560  0.83452  0.39173  Biso   1.000  C
  H148     1.0000 0.25089  0.84060  0.44411  Biso   1.000  H
  H149     1.0000 0.27960  0.78589  0.65161  Biso   1.000  H
  H150     1.0000 0.22730  0.80181  0.61960  Biso   1.000  H
  C133     1.0000 0.33452  0.89173  0.31560  Biso   1.000  C
  H151     1.0000 0.39940  0.86899  0.27399  Biso   1.000  H
  H152     1.0000 0.36899  0.77399  0.39940  Biso   1.000  H
  H153     1.0000 0.13101  0.77399  0.10060  Biso   1.000  H
  C134     1.0000 0.16548  0.89173  0.18440  Biso   1.000  C
  H154     1.0000 0.22601  0.89940  0.13101  Biso   1.000  H
  C135     1.0000 0.12181  0.86020  0.19633  Biso   1.000  C
  C136     1.0000 0.30367  0.87819  0.36020  Biso   1.000  C
  C137     1.0000 0.32149  0.93891  0.28274  Biso   1.000  C
  C138     1.0000 0.17851  0.93891  0.21726  Biso   1.000  C
  H155     1.0000 0.10060  0.86899  0.22601  Biso   1.000  H
  H156     1.0000 0.27399  0.89940  0.36899  Biso   1.000  H
  N23      1.0000 0.28645  0.97218  0.29496  Biso   1.000  N
  H157     1.0000 0.34060  0.94411  0.25089  Biso   1.000  H
  N24      1.0000 0.21355  0.97218  0.20504  Biso   1.000  N
  H158     1.0000 0.15940  0.94411  0.24911  Biso   1.000  H
  C139     1.0000 0.27851  0.01859  0.26000  Biso   1.000  C
  C140     1.0000 0.22149  0.01859  0.24000  Biso   1.000  C
  C141     1.0000 0.28940  0.06940  0.29258  Biso   1.000  C
  H159     1.0000 0.30339  0.01669  0.22940  Biso   1.000  H
  C142     1.0000 0.21060  0.06940  0.20742  Biso   1.000  C
  H160     1.0000 0.19661  0.01669  0.27060  Biso   1.000  H
  C143     1.0000 0.27839  0.11940  0.25871  Biso   1.000  C
  H161     1.0000 0.32669  0.06960  0.30452  Biso   1.000  H
  H162     1.0000 0.26649  0.06980  0.32431  Biso   1.000  H
  C144     1.0000 0.22161  0.11940  0.24129  Biso   1.000  C
  H163     1.0000 0.17331  0.06960  0.19548  Biso   1.000  H
  H164     1.0000 0.23351  0.06980  0.17569  Biso   1.000  H
  H165     1.0000 0.28589  0.15161  0.27960  Biso   1.000  H
  H166     1.0000 0.30181  0.11960  0.22730  Biso   1.000  H
  H167     1.0000 0.21411  0.15161  0.22040  Biso   1.000  H
  H168     1.0000 0.19819  0.11960  0.27270  Biso   1.000  H
  C145     1.0000 0.24129  0.27839  0.38060  Biso   1.000  C
  C146     1.0000 0.25871  0.22161  0.38060  Biso   1.000  C
  C147     1.0000 0.20742  0.28940  0.43060  Biso   1.000  C
  H169     1.0000 0.22040  0.28589  0.34839  Biso   1.000  H
  H170     1.0000 0.27270  0.30181  0.38040  Biso   1.000  H
  C148     1.0000 0.29258  0.21060  0.43060  Biso   1.000  C
  H171     1.0000 0.27960  0.21411  0.34839  Biso   1.000  H
  H172     1.0000 0.22730  0.19819  0.38040  Biso   1.000  H
  C149     1.0000 0.24000  0.27851  0.48141  Biso   1.000  C
  H173     1.0000 0.19548  0.32669  0.43040  Biso   1.000  H
  H174     1.0000 0.17569  0.26649  0.43020  Biso   1.000  H
  C150     1.0000 0.26000  0.22149  0.48141  Biso   1.000  C
  H175     1.0000 0.30452  0.17331  0.43040  Biso   1.000  H
  H176     1.0000 0.32431  0.23351  0.43020  Biso   1.000  H
  N25      1.0000 0.20504  0.28645  0.52782  Biso   1.000  N
  H177     1.0000 0.27060  0.30339  0.48331  Biso   1.000  H
  N26      1.0000 0.29496  0.21355  0.52782  Biso   1.000  N
  H178     1.0000 0.22940  0.19661  0.48331  Biso   1.000  H
  C151     1.0000 0.21726  0.32149  0.56109  Biso   1.000  C
  C152     1.0000 0.28274  0.17851  0.56109  Biso   1.000  C
  C153     1.0000 0.18440  0.33452  0.60827  Biso   1.000  C
  H179     1.0000 0.24911  0.34060  0.55589  Biso   1.000  H
  C154     1.0000 0.31560  0.16548  0.60827  Biso   1.000  C
  H180     1.0000 0.25089  0.15940  0.55589  Biso   1.000  H
  C155     1.0000 0.13980  0.30367  0.62181  Biso   1.000  C
  C156     1.0000 0.19633  0.37819  0.63980  Biso   1.000  C
  C157     1.0000 0.30367  0.12181  0.63980  Biso   1.000  C
  C158     1.0000 0.36020  0.19633  0.62181  Biso   1.000  C
  C159     1.0000 0.10827  0.31560  0.66548  Biso   1.000  C
  H181     1.0000 0.13101  0.27399  0.60060  Biso   1.000  H
  C160     1.0000 0.16548  0.39173  0.68440  Biso   1.000  C
  H182     1.0000 0.22601  0.39940  0.63101  Biso   1.000  H
  C161     1.0000 0.33452  0.10827  0.68440  Biso   1.000  C
  H183     1.0000 0.27399  0.10060  0.63101  Biso   1.000  H
  C162     1.0000 0.39173  0.18440  0.66548  Biso   1.000  C
  H184     1.0000 0.36899  0.22601  0.60060  Biso   1.000  H
  C163     1.0000 0.12181  0.36020  0.69633  Biso   1.000  C
  C164     1.0000 0.06109  0.28274  0.67851  Biso   1.000  C
  C165     1.0000 0.17851  0.43891  0.71726  Biso   1.000  C
  C166     1.0000 0.37819  0.13980  0.69633  Biso   1.000  C
  C167     1.0000 0.32149  0.06109  0.71726  Biso   1.000  C
  C168     1.0000 0.43891  0.21726  0.67851  Biso   1.000  C
  H185     1.0000 0.10060  0.36899  0.72601  Biso   1.000  H
  N27      1.0000 0.02782  0.29496  0.71355  Biso   1.000  N
  H186     1.0000 0.05589  0.25089  0.65940  Biso   1.000  H
  N28      1.0000 0.21355  0.47218  0.70504  Biso   1.000  N
  H187     1.0000 0.15940  0.44411  0.74911  Biso   1.000  H
  H188     1.0000 0.39940  0.13101  0.72601  Biso   1.000  H
  N29      1.0000 0.28645  0.02782  0.70504  Biso   1.000  N
  H189     1.0000 0.34060  0.05589  0.74911  Biso   1.000  H
  N30      1.0000 0.47218  0.20504  0.71355  Biso   1.000  N
  H190     1.0000 0.44411  0.24911  0.65940  Biso   1.000  H
  C169     1.0000 0.98141  0.26000  0.72149  Biso   1.000  C
  C170     1.0000 0.22149  0.51859  0.74000  Biso   1.000  C
  C171     1.0000 0.27851  0.98141  0.74000  Biso   1.000  C
  C172     1.0000 0.51859  0.24000  0.72149  Biso   1.000  C
  C173     1.0000 0.98141  0.24000  0.77851  Biso   1.000  C
  C174     1.0000 0.93060  0.29258  0.71060  Biso   1.000  C
  H191     1.0000 0.98331  0.22940  0.69661  Biso   1.000  H
  C175     1.0000 0.27851  0.51859  0.76000  Biso   1.000  C
  C176     1.0000 0.21060  0.56940  0.70742  Biso   1.000  C
  H192     1.0000 0.19661  0.51669  0.77060  Biso   1.000  H
  C177     1.0000 0.22149  0.98141  0.76000  Biso   1.000  C
  C178     1.0000 0.28940  0.93060  0.70742  Biso   1.000  C
  H193     1.0000 0.30339  0.98331  0.77060  Biso   1.000  H
  C179     1.0000 0.51859  0.26000  0.77851  Biso   1.000  C
  C180     1.0000 0.56940  0.20742  0.71060  Biso   1.000  C
  H194     1.0000 0.51669  0.27060  0.69661  Biso   1.000  H
  N31      1.0000 0.02782  0.20504  0.78645  Biso   1.000  N
  C181     1.0000 0.93060  0.20742  0.78940  Biso   1.000  C
  H195     1.0000 0.98331  0.27060  0.80339  Biso   1.000  H
  C182     1.0000 0.88060  0.25871  0.72161  Biso   1.000  C
  H196     1.0000 0.93040  0.30452  0.67331  Biso   1.000  H
  H197     1.0000 0.93020  0.32431  0.73351  Biso   1.000  H
  N32      1.0000 0.28645  0.47218  0.79496  Biso   1.000  N
  C183     1.0000 0.28940  0.56940  0.79258  Biso   1.000  C
  H198     1.0000 0.30339  0.51669  0.72940  Biso   1.000  H
  C184     1.0000 0.22161  0.61940  0.74129  Biso   1.000  C
  H199     1.0000 0.17331  0.56960  0.69548  Biso   1.000  H
  H200     1.0000 0.23351  0.56980  0.67569  Biso   1.000  H
  N33      1.0000 0.21355  0.02782  0.79496  Biso   1.000  N
  C185     1.0000 0.21060  0.93060  0.79258  Biso   1.000  C
  H201     1.0000 0.19661  0.98331  0.72940  Biso   1.000  H
  C186     1.0000 0.27839  0.88060  0.74129  Biso   1.000  C
  H202     1.0000 0.32669  0.93040  0.69548  Biso   1.000  H
  H203     1.0000 0.26649  0.93020  0.67569  Biso   1.000  H
  N34      1.0000 0.47218  0.29496  0.78645  Biso   1.000  N
  C187     1.0000 0.56940  0.29258  0.78940  Biso   1.000  C
  H204     1.0000 0.51669  0.22940  0.80339  Biso   1.000  H
  C188     1.0000 0.61940  0.24129  0.72161  Biso   1.000  C
  H205     1.0000 0.56960  0.19548  0.67331  Biso   1.000  H
  H206     1.0000 0.56980  0.17569  0.73351  Biso   1.000  H
  C189     1.0000 0.06109  0.21726  0.82149  Biso   1.000  C
  C190     1.0000 0.88060  0.24129  0.77839  Biso   1.000  C
  H207     1.0000 0.93040  0.19548  0.82669  Biso   1.000  H
  H208     1.0000 0.93020  0.17569  0.76649  Biso   1.000  H
  H209     1.0000 0.84839  0.27960  0.71411  Biso   1.000  H
  H210     1.0000 0.88040  0.22730  0.69819  Biso   1.000  H
  C191     1.0000 0.32149  0.43891  0.78274  Biso   1.000  C
  C192     1.0000 0.27839  0.61940  0.75871  Biso   1.000  C
  H211     1.0000 0.32669  0.56960  0.80452  Biso   1.000  H
  H212     1.0000 0.26649  0.56980  0.82431  Biso   1.000  H
  H213     1.0000 0.21411  0.65161  0.72040  Biso   1.000  H
  H214     1.0000 0.19819  0.61960  0.77270  Biso   1.000  H
  C193     1.0000 0.17851  0.06109  0.78274  Biso   1.000  C
  C194     1.0000 0.22161  0.88060  0.75871  Biso   1.000  C
  H215     1.0000 0.17331  0.93040  0.80452  Biso   1.000  H
  H216     1.0000 0.23351  0.93020  0.82431  Biso   1.000  H
  H217     1.0000 0.28589  0.84839  0.72040  Biso   1.000  H
  H218     1.0000 0.30181  0.88040  0.77270  Biso   1.000  H
  C195     1.0000 0.43891  0.28274  0.82149  Biso   1.000  C
  C196     1.0000 0.61940  0.25871  0.77839  Biso   1.000  C
  H219     1.0000 0.56960  0.30452  0.82669  Biso   1.000  H
  H220     1.0000 0.56980  0.32431  0.76649  Biso   1.000  H
  H221     1.0000 0.65161  0.22040  0.71411  Biso   1.000  H
  H222     1.0000 0.61960  0.27270  0.69819  Biso   1.000  H
  C197     1.0000 0.10827  0.18440  0.83452  Biso   1.000  C
  H223     1.0000 0.05589  0.24911  0.84060  Biso   1.000  H
  H224     1.0000 0.84839  0.22040  0.78589  Biso   1.000  H
  H225     1.0000 0.88040  0.27270  0.80181  Biso   1.000  H
  C198     1.0000 0.33452  0.39173  0.81560  Biso   1.000  C
  H226     1.0000 0.34060  0.44411  0.75089  Biso   1.000  H
  H227     1.0000 0.28589  0.65161  0.77960  Biso   1.000  H
  H228     1.0000 0.30181  0.61960  0.72730  Biso   1.000  H
  C199     1.0000 0.16548  0.10827  0.81560  Biso   1.000  C
  H229     1.0000 0.15940  0.05589  0.75089  Biso   1.000  H
  H230     1.0000 0.21411  0.84839  0.77960  Biso   1.000  H
  H231     1.0000 0.19819  0.88040  0.72730  Biso   1.000  H
  C200     1.0000 0.39173  0.31560  0.83452  Biso   1.000  C
  H232     1.0000 0.44411  0.25089  0.84060  Biso   1.000  H
  H233     1.0000 0.65161  0.27960  0.78589  Biso   1.000  H
  H234     1.0000 0.61960  0.22730  0.80181  Biso   1.000  H
  C201     1.0000 0.12181  0.13980  0.80367  Biso   1.000  C
  C202     1.0000 0.13980  0.19633  0.87819  Biso   1.000  C
  C203     1.0000 0.37819  0.36020  0.80367  Biso   1.000  C
  C204     1.0000 0.30367  0.37819  0.86020  Biso   1.000  C
  C205     1.0000 0.19633  0.12181  0.86020  Biso   1.000  C
  C206     1.0000 0.36020  0.30367  0.87819  Biso   1.000  C
  H235     1.0000 0.10060  0.13101  0.77399  Biso   1.000  H
  C207     1.0000 0.18440  0.16548  0.89173  Biso   1.000  C
  H236     1.0000 0.13101  0.22601  0.89940  Biso   1.000  H
  H237     1.0000 0.39940  0.36899  0.77399  Biso   1.000  H
  C208     1.0000 0.31560  0.33452  0.89173  Biso   1.000  C
  H238     1.0000 0.27399  0.39940  0.86899  Biso   1.000  H
  H239     1.0000 0.22601  0.10060  0.86899  Biso   1.000  H
  H240     1.0000 0.36899  0.27399  0.89940  Biso   1.000  H
  C209     1.0000 0.21726  0.17851  0.93891  Biso   1.000  C
  C210     1.0000 0.28274  0.32149  0.93891  Biso   1.000  C
  N35      1.0000 0.20504  0.21355  0.97218  Biso   1.000  N
  H241     1.0000 0.24911  0.15940  0.94411  Biso   1.000  H
  N36      1.0000 0.29496  0.28645  0.97218  Biso   1.000  N
  H242     1.0000 0.25089  0.34060  0.94411  Biso   1.000  H
  C211     1.0000 0.24000  0.22149  0.01859  Biso   1.000  C
  C212     1.0000 0.26000  0.27851  0.01859  Biso   1.000  C
  C213     1.0000 0.20742  0.21060  0.06940  Biso   1.000  C
  H243     1.0000 0.27060  0.19661  0.01669  Biso   1.000  H
  C214     1.0000 0.29258  0.28940  0.06940  Biso   1.000  C
  H244     1.0000 0.22940  0.30339  0.01669  Biso   1.000  H
  C215     1.0000 0.24129  0.22161  0.11940  Biso   1.000  C
  H245     1.0000 0.19548  0.17331  0.06960  Biso   1.000  H
  H246     1.0000 0.17569  0.23351  0.06980  Biso   1.000  H
  C216     1.0000 0.25871  0.27839  0.11940  Biso   1.000  C
  H247     1.0000 0.30452  0.32669  0.06960  Biso   1.000  H
  H248     1.0000 0.32431  0.26649  0.06980  Biso   1.000  H
  H249     1.0000 0.22040  0.21411  0.15161  Biso   1.000  H
  H250     1.0000 0.27270  0.19819  0.11960  Biso   1.000  H
  H251     1.0000 0.27960  0.28589  0.15161  Biso   1.000  H
  H252     1.0000 0.22730  0.30181  0.11960  Biso   1.000  H
  C217     1.0000 0.44633  0.38980  0.37181  Biso   1.000  C
  C218     1.0000 0.41548  0.43440  0.35827  Biso   1.000  C
  H253     1.0000 0.47601  0.38101  0.35060  Biso   1.000  H
  C219     1.0000 0.43440  0.35827  0.41548  Biso   1.000  C
  C220     1.0000 0.42851  0.46726  0.31109  Biso   1.000  C
  C221     1.0000 0.37181  0.44633  0.38980  Biso   1.000  C
  C222     1.0000 0.38980  0.37181  0.44633  Biso   1.000  C
  C223     1.0000 0.46726  0.31109  0.42851  Biso   1.000  C
  N37      1.0000 0.46355  0.45504  0.27782  Biso   1.000  N
  H254     1.0000 0.40940  0.49911  0.30589  Biso   1.000  H
  C224     1.0000 0.35827  0.41548  0.43440  Biso   1.000  C
  H255     1.0000 0.35060  0.47601  0.38101  Biso   1.000  H
  H256     1.0000 0.38101  0.35060  0.47601  Biso   1.000  H
  N38      1.0000 0.45504  0.27782  0.46355  Biso   1.000  N
  H257     1.0000 0.49911  0.30589  0.40940  Biso   1.000  H
  C225     1.0000 0.47149  0.49000  0.23141  Biso   1.000  C
  C226     1.0000 0.31109  0.42851  0.46726  Biso   1.000  C
  C227     1.0000 0.49000  0.23141  0.47149  Biso   1.000  C
  C228     1.0000 0.46060  0.45742  0.18060  Biso   1.000  C
  H258     1.0000 0.44661  0.52060  0.23331  Biso   1.000  H
  C229     1.0000 0.52851  0.51000  0.23141  Biso   1.000  C
  N39      1.0000 0.27782  0.46355  0.45504  Biso   1.000  N
  H259     1.0000 0.30589  0.40940  0.49911  Biso   1.000  H
  C230     1.0000 0.51000  0.23141  0.52851  Biso   1.000  C
  C231     1.0000 0.45742  0.18060  0.46060  Biso   1.000  C
  H260     1.0000 0.52060  0.23331  0.44661  Biso   1.000  H
  C232     1.0000 0.47161  0.49129  0.13060  Biso   1.000  C
  H261     1.0000 0.42331  0.44548  0.18040  Biso   1.000  H
  H262     1.0000 0.48351  0.42569  0.18020  Biso   1.000  H
  N40      1.0000 0.53645  0.54496  0.27782  Biso   1.000  N
  C233     1.0000 0.53940  0.54258  0.18060  Biso   1.000  C
  H263     1.0000 0.55339  0.47940  0.23331  Biso   1.000  H
  C234     1.0000 0.23141  0.47149  0.49000  Biso   1.000  C
  N41      1.0000 0.54496  0.27782  0.53645  Biso   1.000  N
  C235     1.0000 0.54258  0.18060  0.53940  Biso   1.000  C
  H264     1.0000 0.47940  0.23331  0.55339  Biso   1.000  H
  C236     1.0000 0.49129  0.13060  0.47161  Biso   1.000  C
  H265     1.0000 0.44548  0.18040  0.42331  Biso   1.000  H
  H266     1.0000 0.42569  0.18020  0.48351  Biso   1.000  H
  H267     1.0000 0.46411  0.47040  0.09839  Biso   1.000  H
  H268     1.0000 0.44819  0.52270  0.13040  Biso   1.000  H
  C237     1.0000 0.52839  0.50871  0.13060  Biso   1.000  C
  C238     1.0000 0.57149  0.53274  0.31109  Biso   1.000  C
  H269     1.0000 0.57669  0.55452  0.18040  Biso   1.000  H
  H270     1.0000 0.51649  0.57431  0.18020  Biso   1.000  H
  C239     1.0000 0.23141  0.52851  0.51000  Biso   1.000  C
  C240     1.0000 0.18060  0.46060  0.45742  Biso   1.000  C
  H271     1.0000 0.23331  0.44661  0.52060  Biso   1.000  H
  C241     1.0000 0.53274  0.31109  0.57149  Biso   1.000  C
  C242     1.0000 0.50871  0.13060  0.52839  Biso   1.000  C
  H272     1.0000 0.55452  0.18040  0.57669  Biso   1.000  H
  H273     1.0000 0.57431  0.18020  0.51649  Biso   1.000  H
  H274     1.0000 0.47040  0.09839  0.46411  Biso   1.000  H
  H275     1.0000 0.52270  0.13040  0.44819  Biso   1.000  H
  H276     1.0000 0.53589  0.52960  0.09839  Biso   1.000  H
  H277     1.0000 0.55181  0.47730  0.13040  Biso   1.000  H
  C243     1.0000 0.58452  0.56560  0.35827  Biso   1.000  C
  H278     1.0000 0.59060  0.50089  0.30589  Biso   1.000  H
  N42      1.0000 0.27782  0.53645  0.54496  Biso   1.000  N
  C244     1.0000 0.18060  0.53940  0.54258  Biso   1.000  C
  H279     1.0000 0.23331  0.55339  0.47940  Biso   1.000  H
  C245     1.0000 0.13060  0.47161  0.49129  Biso   1.000  C
  H280     1.0000 0.18040  0.42331  0.44548  Biso   1.000  H
  H281     1.0000 0.18020  0.48351  0.42569  Biso   1.000  H
  C246     1.0000 0.56560  0.35827  0.58452  Biso   1.000  C
  H282     1.0000 0.50089  0.30589  0.59060  Biso   1.000  H
  H283     1.0000 0.52960  0.09839  0.53589  Biso   1.000  H
  H284     1.0000 0.47730  0.13040  0.55181  Biso   1.000  H
  C247     1.0000 0.55367  0.61020  0.37181  Biso   1.000  C
  C248     1.0000 0.62819  0.55367  0.38980  Biso   1.000  C
  C249     1.0000 0.31109  0.57149  0.53274  Biso   1.000  C
  C250     1.0000 0.13060  0.52839  0.50871  Biso   1.000  C
  H285     1.0000 0.18040  0.57669  0.55452  Biso   1.000  H
  H286     1.0000 0.18020  0.51649  0.57431  Biso   1.000  H
  H287     1.0000 0.09839  0.46411  0.47040  Biso   1.000  H
  H288     1.0000 0.13040  0.44819  0.52270  Biso   1.000  H
  C251     1.0000 0.61020  0.37181  0.55367  Biso   1.000  C
  C252     1.0000 0.55367  0.38980  0.62819  Biso   1.000  C
  C253     1.0000 0.56560  0.64173  0.41548  Biso   1.000  C
  H289     1.0000 0.52399  0.61899  0.35060  Biso   1.000  H
  C254     1.0000 0.64173  0.58452  0.43440  Biso   1.000  C
  H290     1.0000 0.64940  0.52399  0.38101  Biso   1.000  H
  C255     1.0000 0.35827  0.58452  0.56560  Biso   1.000  C
  H291     1.0000 0.30589  0.59060  0.50089  Biso   1.000  H
  H292     1.0000 0.09839  0.53589  0.52960  Biso   1.000  H
  H293     1.0000 0.13040  0.55181  0.47730  Biso   1.000  H
  C256     1.0000 0.64173  0.41548  0.56560  Biso   1.000  C
  H294     1.0000 0.61899  0.35060  0.52399  Biso   1.000  H
  C257     1.0000 0.58452  0.43440  0.64173  Biso   1.000  C
  H295     1.0000 0.52399  0.38101  0.64940  Biso   1.000  H
  C258     1.0000 0.61020  0.62819  0.44633  Biso   1.000  C
  C259     1.0000 0.53274  0.68891  0.42851  Biso   1.000  C
  C260     1.0000 0.68891  0.57149  0.46726  Biso   1.000  C
  C261     1.0000 0.37181  0.55367  0.61020  Biso   1.000  C
  C262     1.0000 0.38980  0.62819  0.55367  Biso   1.000  C
  C263     1.0000 0.62819  0.44633  0.61020  Biso   1.000  C
  C264     1.0000 0.68891  0.42851  0.53274  Biso   1.000  C
  C265     1.0000 0.57149  0.46726  0.68891  Biso   1.000  C
  H296     1.0000 0.61899  0.64940  0.47601  Biso   1.000  H
  N43      1.0000 0.54496  0.72218  0.46355  Biso   1.000  N
  H297     1.0000 0.50089  0.69411  0.40940  Biso   1.000  H
  N44      1.0000 0.72218  0.53645  0.45504  Biso   1.000  N
  H298     1.0000 0.69411  0.59060  0.49911  Biso   1.000  H
  C266     1.0000 0.41548  0.56560  0.64173  Biso   1.000  C
  H299     1.0000 0.35060  0.52399  0.61899  Biso   1.000  H
  C267     1.0000 0.43440  0.64173  0.58452  Biso   1.000  C
  H300     1.0000 0.38101  0.64940  0.52399  Biso   1.000  H
  H301     1.0000 0.64940  0.47601  0.61899  Biso   1.000  H
  N45      1.0000 0.72218  0.46355  0.54496  Biso   1.000  N
  H302     1.0000 0.69411  0.40940  0.50089  Biso   1.000  H
  N46      1.0000 0.53645  0.45504  0.72218  Biso   1.000  N
  H303     1.0000 0.59060  0.49911  0.69411  Biso   1.000  H
  C268     1.0000 0.51000  0.76859  0.47149  Biso   1.000  C
  C269     1.0000 0.76859  0.52851  0.49000  Biso   1.000  C
  C270     1.0000 0.44633  0.61020  0.62819  Biso   1.000  C
  C271     1.0000 0.42851  0.53274  0.68891  Biso   1.000  C
  C272     1.0000 0.46726  0.68891  0.57149  Biso   1.000  C
  C273     1.0000 0.76859  0.47149  0.51000  Biso   1.000  C
  C274     1.0000 0.52851  0.49000  0.76859  Biso   1.000  C
  C275     1.0000 0.49000  0.76859  0.52851  Biso   1.000  C
  C276     1.0000 0.54258  0.81940  0.46060  Biso   1.000  C
  H304     1.0000 0.47940  0.76669  0.44661  Biso   1.000  H
  C277     1.0000 0.81940  0.53940  0.45742  Biso   1.000  C
  H305     1.0000 0.76669  0.55339  0.52060  Biso   1.000  H
  H306     1.0000 0.47601  0.61899  0.64940  Biso   1.000  H
  N47      1.0000 0.46355  0.54496  0.72218  Biso   1.000  N
  H307     1.0000 0.40940  0.50089  0.69411  Biso   1.000  H
  N48      1.0000 0.45504  0.72218  0.53645  Biso   1.000  N
  H308     1.0000 0.49911  0.69411  0.59060  Biso   1.000  H
  C278     1.0000 0.81940  0.46060  0.54258  Biso   1.000  C
  H309     1.0000 0.76669  0.44661  0.47940  Biso   1.000  H
  C279     1.0000 0.47149  0.51000  0.76859  Biso   1.000  C
  C280     1.0000 0.53940  0.45742  0.81940  Biso   1.000  C
  H310     1.0000 0.55339  0.52060  0.76669  Biso   1.000  H
  C281     1.0000 0.45742  0.81940  0.53940  Biso   1.000  C
  H311     1.0000 0.52060  0.76669  0.55339  Biso   1.000  H
  C282     1.0000 0.50871  0.86940  0.47161  Biso   1.000  C
  H312     1.0000 0.55452  0.81960  0.42331  Biso   1.000  H
  H313     1.0000 0.57431  0.81980  0.48351  Biso   1.000  H
  C283     1.0000 0.86940  0.52839  0.49129  Biso   1.000  C
  H314     1.0000 0.81960  0.57669  0.44548  Biso   1.000  H
  H315     1.0000 0.81980  0.51649  0.42569  Biso   1.000  H
  C284     1.0000 0.86940  0.47161  0.50871  Biso   1.000  C
  H316     1.0000 0.81960  0.42331  0.55452  Biso   1.000  H
  H317     1.0000 0.81980  0.48351  0.57431  Biso   1.000  H
  C285     1.0000 0.46060  0.54258  0.81940  Biso   1.000  C
  H318     1.0000 0.44661  0.47940  0.76669  Biso   1.000  H
  C286     1.0000 0.52839  0.49129  0.86940  Biso   1.000  C
  H319     1.0000 0.57669  0.44548  0.81960  Biso   1.000  H
  H320     1.0000 0.51649  0.42569  0.81980  Biso   1.000  H
  C287     1.0000 0.49129  0.86940  0.52839  Biso   1.000  C
  H321     1.0000 0.44548  0.81960  0.57669  Biso   1.000  H
  H322     1.0000 0.42569  0.81980  0.51649  Biso   1.000  H
  H323     1.0000 0.52960  0.90161  0.46411  Biso   1.000  H
  H324     1.0000 0.47730  0.86960  0.44819  Biso   1.000  H
  H325     1.0000 0.90161  0.53589  0.47040  Biso   1.000  H
  H326     1.0000 0.86960  0.55181  0.52270  Biso   1.000  H
  H327     1.0000 0.90161  0.46411  0.52960  Biso   1.000  H
  H328     1.0000 0.86960  0.44819  0.47730  Biso   1.000  H
  C288     1.0000 0.47161  0.50871  0.86940  Biso   1.000  C
  H329     1.0000 0.42331  0.55452  0.81960  Biso   1.000  H
  H330     1.0000 0.48351  0.57431  0.81980  Biso   1.000  H
  H331     1.0000 0.53589  0.47040  0.90161  Biso   1.000  H
  H332     1.0000 0.55181  0.52270  0.86960  Biso   1.000  H
  H333     1.0000 0.47040  0.90161  0.53589  Biso   1.000  H
  H334     1.0000 0.52270  0.86960  0.55181  Biso   1.000  H
  H335     1.0000 0.46411  0.52960  0.90161  Biso   1.000  H
  H336     1.0000 0.44819  0.47730  0.86960  Biso   1.000  H
  C289     1.0000 0.44633  0.11020  0.12819  Biso   1.000  C
  C290     1.0000 0.41548  0.06560  0.14173  Biso   1.000  C
  H337     1.0000 0.47601  0.11899  0.14940  Biso   1.000  H
  C291     1.0000 0.43440  0.14173  0.08452  Biso   1.000  C
  C292     1.0000 0.42851  0.03274  0.18891  Biso   1.000  C
  C293     1.0000 0.37181  0.05367  0.11020  Biso   1.000  C
  C294     1.0000 0.38980  0.12819  0.05367  Biso   1.000  C
  C295     1.0000 0.46726  0.18891  0.07149  Biso   1.000  C
  N49      1.0000 0.46355  0.04496  0.22218  Biso   1.000  N
  H338     1.0000 0.40940  0.00089  0.19411  Biso   1.000  H
  C296     1.0000 0.35827  0.08452  0.06560  Biso   1.000  C
  H339     1.0000 0.35060  0.02399  0.11899  Biso   1.000  H
  H340     1.0000 0.38101  0.14940  0.02399  Biso   1.000  H
  N50      1.0000 0.45504  0.22218  0.03645  Biso   1.000  N
  H341     1.0000 0.49911  0.19411  0.09060  Biso   1.000  H
  C297     1.0000 0.47149  0.01000  0.26859  Biso   1.000  C
  C298     1.0000 0.31109  0.07149  0.03274  Biso   1.000  C
  C299     1.0000 0.49000  0.26859  0.02851  Biso   1.000  C
  C300     1.0000 0.46060  0.04258  0.31940  Biso   1.000  C
  H342     1.0000 0.44661  0.97940  0.26669  Biso   1.000  H
  C301     1.0000 0.52851  0.99000  0.26859  Biso   1.000  C
  N51      1.0000 0.27782  0.03645  0.04496  Biso   1.000  N
  H343     1.0000 0.30589  0.09060  0.00089  Biso   1.000  H
  C302     1.0000 0.45742  0.31940  0.03940  Biso   1.000  C
  H344     1.0000 0.52060  0.26669  0.05339  Biso   1.000  H
  C303     1.0000 0.51000  0.26859  0.97149  Biso   1.000  C
  C304     1.0000 0.47161  0.00871  0.36940  Biso   1.000  C
  H345     1.0000 0.42331  0.05452  0.31960  Biso   1.000  H
  H346     1.0000 0.48351  0.07431  0.31980  Biso   1.000  H
  H347     1.0000 0.55339  0.02060  0.26669  Biso   1.000  H
  N52      1.0000 0.53645  0.95504  0.22218  Biso   1.000  N
  C305     1.0000 0.53940  0.95742  0.31940  Biso   1.000  C
  C306     1.0000 0.23141  0.02851  0.01000  Biso   1.000  C
  C307     1.0000 0.49129  0.36940  0.02839  Biso   1.000  C
  H348     1.0000 0.44548  0.31960  0.07669  Biso   1.000  H
  H349     1.0000 0.42569  0.31980  0.01649  Biso   1.000  H
  N53      1.0000 0.54496  0.22218  0.96355  Biso   1.000  N
  C308     1.0000 0.54258  0.31940  0.96060  Biso   1.000  C
  H350     1.0000 0.47940  0.26669  0.94661  Biso   1.000  H
  H351     1.0000 0.46411  0.02960  0.40161  Biso   1.000  H
  H352     1.0000 0.44819  0.97730  0.36960  Biso   1.000  H
  C309     1.0000 0.52839  0.99129  0.36940  Biso   1.000  C
  C310     1.0000 0.57149  0.96726  0.18891  Biso   1.000  C
  H353     1.0000 0.57669  0.94548  0.31960  Biso   1.000  H
  H354     1.0000 0.51649  0.92569  0.31980  Biso   1.000  H
  C311     1.0000 0.18060  0.03940  0.04258  Biso   1.000  C
  C312     1.0000 0.23141  0.97149  0.99000  Biso   1.000  C
  H355     1.0000 0.23331  0.05339  0.97940  Biso   1.000  H
  H356     1.0000 0.47040  0.40161  0.03589  Biso   1.000  H
  H357     1.0000 0.52270  0.36960  0.05181  Biso   1.000  H
  C313     1.0000 0.50871  0.36940  0.97161  Biso   1.000  C
  C314     1.0000 0.53274  0.18891  0.92851  Biso   1.000  C
  H358     1.0000 0.55452  0.31960  0.92331  Biso   1.000  H
  H359     1.0000 0.57431  0.31980  0.98351  Biso   1.000  H
  H360     1.0000 0.55181  0.02270  0.36960  Biso   1.000  H
  H361     1.0000 0.53589  0.97040  0.40161  Biso   1.000  H
  C315     1.0000 0.58452  0.93440  0.14173  Biso   1.000  C
  H362     1.0000 0.59060  0.99911  0.19411  Biso   1.000  H
  C316     1.0000 0.13060  0.02839  0.00871  Biso   1.000  C
  H363     1.0000 0.18040  0.07669  0.05452  Biso   1.000  H
  H364     1.0000 0.18020  0.01649  0.07431  Biso   1.000  H
  N54      1.0000 0.27782  0.96355  0.95504  Biso   1.000  N
  C317     1.0000 0.18060  0.96060  0.95742  Biso   1.000  C
  H365     1.0000 0.23331  0.94661  0.02060  Biso   1.000  H
  H366     1.0000 0.52960  0.40161  0.96411  Biso   1.000  H
  H367     1.0000 0.47730  0.36960  0.94819  Biso   1.000  H
  C318     1.0000 0.56560  0.14173  0.91548  Biso   1.000  C
  H368     1.0000 0.50089  0.19411  0.90940  Biso   1.000  H
  C319     1.0000 0.55367  0.88980  0.12819  Biso   1.000  C
  C320     1.0000 0.62819  0.94633  0.11020  Biso   1.000  C
  H369     1.0000 0.09839  0.03589  0.02960  Biso   1.000  H
  C321     1.0000 0.13060  0.97161  0.99129  Biso   1.000  C
  H370     1.0000 0.13040  0.05181  0.97730  Biso   1.000  H
  C322     1.0000 0.31109  0.92851  0.96726  Biso   1.000  C
  H371     1.0000 0.18040  0.92331  0.94548  Biso   1.000  H
  H372     1.0000 0.18020  0.98351  0.92569  Biso   1.000  H
  C323     1.0000 0.61020  0.12819  0.94633  Biso   1.000  C
  C324     1.0000 0.55367  0.11020  0.87181  Biso   1.000  C
  C325     1.0000 0.56560  0.85827  0.08452  Biso   1.000  C
  H373     1.0000 0.52399  0.88101  0.14940  Biso   1.000  H
  C326     1.0000 0.64173  0.91548  0.06560  Biso   1.000  C
  H374     1.0000 0.64940  0.97601  0.11899  Biso   1.000  H
  H375     1.0000 0.09839  0.96411  0.97040  Biso   1.000  H
  H376     1.0000 0.13040  0.94819  0.02270  Biso   1.000  H
  C327     1.0000 0.35827  0.91548  0.93440  Biso   1.000  C
  H377     1.0000 0.30589  0.90940  0.99911  Biso   1.000  H
  C328     1.0000 0.64173  0.08452  0.93440  Biso   1.000  C
  H378     1.0000 0.61899  0.14940  0.97601  Biso   1.000  H
  C329     1.0000 0.58452  0.06560  0.85827  Biso   1.000  C
  H379     1.0000 0.52399  0.11899  0.85060  Biso   1.000  H
  C330     1.0000 0.61020  0.87181  0.05367  Biso   1.000  C
  C331     1.0000 0.53274  0.81109  0.07149  Biso   1.000  C
  C332     1.0000 0.68891  0.92851  0.03274  Biso   1.000  C
  C333     1.0000 0.37181  0.94633  0.88980  Biso   1.000  C
  C334     1.0000 0.38980  0.87181  0.94633  Biso   1.000  C
  C335     1.0000 0.62819  0.05367  0.88980  Biso   1.000  C
  C336     1.0000 0.68891  0.07149  0.96726  Biso   1.000  C
  C337     1.0000 0.57149  0.03274  0.81109  Biso   1.000  C
  H380     1.0000 0.61899  0.85060  0.02399  Biso   1.000  H
  N55      1.0000 0.54496  0.77782  0.03645  Biso   1.000  N
  H381     1.0000 0.50089  0.80589  0.09060  Biso   1.000  H
  N56      1.0000 0.72218  0.96355  0.04496  Biso   1.000  N
  H382     1.0000 0.69411  0.90940  0.00089  Biso   1.000  H
  C338     1.0000 0.41548  0.93440  0.85827  Biso   1.000  C
  H383     1.0000 0.35060  0.97601  0.88101  Biso   1.000  H
  C339     1.0000 0.43440  0.85827  0.91548  Biso   1.000  C
  H384     1.0000 0.38101  0.85060  0.97601  Biso   1.000  H
  H385     1.0000 0.64940  0.02399  0.88101  Biso   1.000  H
  N57      1.0000 0.72218  0.03645  0.95504  Biso   1.000  N
  H386     1.0000 0.69411  0.09060  0.99911  Biso   1.000  H
  N58      1.0000 0.53645  0.04496  0.77782  Biso   1.000  N
  H387     1.0000 0.59060  0.00089  0.80589  Biso   1.000  H
  C340     1.0000 0.51000  0.73141  0.02851  Biso   1.000  C
  C341     1.0000 0.76859  0.97149  0.01000  Biso   1.000  C
  C342     1.0000 0.44633  0.88980  0.87181  Biso   1.000  C
  C343     1.0000 0.42851  0.96726  0.81109  Biso   1.000  C
  C344     1.0000 0.46726  0.81109  0.92851  Biso   1.000  C
  C345     1.0000 0.76859  0.02851  0.99000  Biso   1.000  C
  C346     1.0000 0.52851  0.01000  0.73141  Biso   1.000  C
  C347     1.0000 0.49000  0.73141  0.97149  Biso   1.000  C
  C348     1.0000 0.54258  0.68060  0.03940  Biso   1.000  C
  H388     1.0000 0.47940  0.73331  0.05339  Biso   1.000  H
  H389     1.0000 0.76669  0.94661  0.97940  Biso   1.000  H
  C349     1.0000 0.81940  0.96060  0.04258  Biso   1.000  C
  H390     1.0000 0.47601  0.88101  0.85060  Biso   1.000  H
  N59      1.0000 0.46355  0.95504  0.77782  Biso   1.000  N
  H391     1.0000 0.40940  0.99911  0.80589  Biso   1.000  H
  N60      1.0000 0.45504  0.77782  0.96355  Biso   1.000  N
  H392     1.0000 0.49911  0.80589  0.90940  Biso   1.000  H
  H393     1.0000 0.76669  0.05339  0.02060  Biso   1.000  H
  C350     1.0000 0.81940  0.03940  0.95742  Biso   1.000  C
  C351     1.0000 0.47149  0.99000  0.73141  Biso   1.000  C
  H394     1.0000 0.55339  0.97940  0.73331  Biso   1.000  H
  C352     1.0000 0.53940  0.04258  0.68060  Biso   1.000  C
  C353     1.0000 0.45742  0.68060  0.96060  Biso   1.000  C
  H395     1.0000 0.52060  0.73331  0.94661  Biso   1.000  H
  C354     1.0000 0.50871  0.63060  0.02839  Biso   1.000  C
  H396     1.0000 0.55452  0.68040  0.07669  Biso   1.000  H
  H397     1.0000 0.57431  0.68020  0.01649  Biso   1.000  H
  C355     1.0000 0.86940  0.97161  0.00871  Biso   1.000  C
  H398     1.0000 0.81960  0.92331  0.05452  Biso   1.000  H
  H399     1.0000 0.81980  0.98351  0.07431  Biso   1.000  H
  C356     1.0000 0.86940  0.02839  0.99129  Biso   1.000  C
  H400     1.0000 0.81960  0.07669  0.94548  Biso   1.000  H
  H401     1.0000 0.81980  0.01649  0.92569  Biso   1.000  H
  C357     1.0000 0.46060  0.95742  0.68060  Biso   1.000  C
  H402     1.0000 0.44661  0.02060  0.73331  Biso   1.000  H
  C358     1.0000 0.52839  0.00871  0.63060  Biso   1.000  C
  H403     1.0000 0.57669  0.05452  0.68040  Biso   1.000  H
  H404     1.0000 0.51649  0.07431  0.68020  Biso   1.000  H
  C359     1.0000 0.49129  0.63060  0.97161  Biso   1.000  C
  H405     1.0000 0.44548  0.68040  0.92331  Biso   1.000  H
  H406     1.0000 0.42569  0.68020  0.98351  Biso   1.000  H
  H407     1.0000 0.52960  0.59839  0.03589  Biso   1.000  H
  H408     1.0000 0.47730  0.63040  0.05181  Biso   1.000  H
  H409     1.0000 0.86960  0.94819  0.97730  Biso   1.000  H
  H410     1.0000 0.90161  0.96411  0.02960  Biso   1.000  H
  H411     1.0000 0.86960  0.05181  0.02270  Biso   1.000  H
  H412     1.0000 0.90161  0.03589  0.97040  Biso   1.000  H
  C360     1.0000 0.47161  0.99129  0.63060  Biso   1.000  C
  H413     1.0000 0.42331  0.94548  0.68040  Biso   1.000  H
  H414     1.0000 0.48351  0.92569  0.68020  Biso   1.000  H
  H415     1.0000 0.55181  0.97730  0.63040  Biso   1.000  H
  H416     1.0000 0.53589  0.02960  0.59839  Biso   1.000  H
  H417     1.0000 0.47040  0.59839  0.96411  Biso   1.000  H
  H418     1.0000 0.52270  0.63040  0.94819  Biso   1.000  H
  H419     1.0000 0.46411  0.97040  0.59839  Biso   1.000  H
  H420     1.0000 0.44819  0.02270  0.63040  Biso   1.000  H
  C361     1.0000 0.44633  0.11020  0.12819  Biso   1.000  C
  C362     1.0000 0.41548  0.06560  0.14173  Biso   1.000  C
  H421     1.0000 0.47601  0.11899  0.14940  Biso   1.000  H
  C363     1.0000 0.43440  0.14173  0.08452  Biso   1.000  C
  C364     1.0000 0.42851  0.03274  0.18891  Biso   1.000  C
  C365     1.0000 0.37181  0.05367  0.11020  Biso   1.000  C
  C366     1.0000 0.38980  0.12819  0.05367  Biso   1.000  C
  C367     1.0000 0.46726  0.18891  0.07149  Biso   1.000  C
  N61      1.0000 0.46355  0.04496  0.22218  Biso   1.000  N
  H422     1.0000 0.40940  0.00089  0.19411  Biso   1.000  H
  C368     1.0000 0.35827  0.08452  0.06560  Biso   1.000  C
  H423     1.0000 0.35060  0.02399  0.11899  Biso   1.000  H
  H424     1.0000 0.38101  0.14940  0.02399  Biso   1.000  H
  N62      1.0000 0.45504  0.22218  0.03645  Biso   1.000  N
  H425     1.0000 0.49911  0.19411  0.09060  Biso   1.000  H
  C369     1.0000 0.47149  0.01000  0.26859  Biso   1.000  C
  C370     1.0000 0.31109  0.07149  0.03274  Biso   1.000  C
  C371     1.0000 0.49000  0.26859  0.02851  Biso   1.000  C
  C372     1.0000 0.46060  0.04258  0.31940  Biso   1.000  C
  H426     1.0000 0.44661  0.97940  0.26669  Biso   1.000  H
  C373     1.0000 0.52851  0.99000  0.26859  Biso   1.000  C
  N63      1.0000 0.27782  0.03645  0.04496  Biso   1.000  N
  H427     1.0000 0.30589  0.09060  0.00089  Biso   1.000  H
  C374     1.0000 0.45742  0.31940  0.03940  Biso   1.000  C
  H428     1.0000 0.52060  0.26669  0.05339  Biso   1.000  H
  C375     1.0000 0.51000  0.26859  0.97149  Biso   1.000  C
  C376     1.0000 0.47161  0.00871  0.36940  Biso   1.000  C
  H429     1.0000 0.42331  0.05452  0.31960  Biso   1.000  H
  H430     1.0000 0.48351  0.07431  0.31980  Biso   1.000  H
  H431     1.0000 0.55339  0.02060  0.26669  Biso   1.000  H
  N64      1.0000 0.53645  0.95504  0.22218  Biso   1.000  N
  C377     1.0000 0.53940  0.95742  0.31940  Biso   1.000  C
  C378     1.0000 0.23141  0.02851  0.01000  Biso   1.000  C
  C379     1.0000 0.49129  0.36940  0.02839  Biso   1.000  C
  H432     1.0000 0.44548  0.31960  0.07669  Biso   1.000  H
  H433     1.0000 0.42569  0.31980  0.01649  Biso   1.000  H
  N65      1.0000 0.54496  0.22218  0.96355  Biso   1.000  N
  C380     1.0000 0.54258  0.31940  0.96060  Biso   1.000  C
  H434     1.0000 0.47940  0.26669  0.94661  Biso   1.000  H
  H435     1.0000 0.46411  0.02960  0.40161  Biso   1.000  H
  H436     1.0000 0.44819  0.97730  0.36960  Biso   1.000  H
  C381     1.0000 0.52839  0.99129  0.36940  Biso   1.000  C
  C382     1.0000 0.57149  0.96726  0.18891  Biso   1.000  C
  H437     1.0000 0.57669  0.94548  0.31960  Biso   1.000  H
  H438     1.0000 0.51649  0.92569  0.31980  Biso   1.000  H
  C383     1.0000 0.18060  0.03940  0.04258  Biso   1.000  C
  C384     1.0000 0.23141  0.97149  0.99000  Biso   1.000  C
  H439     1.0000 0.23331  0.05339  0.97940  Biso   1.000  H
  H440     1.0000 0.47040  0.40161  0.03589  Biso   1.000  H
  H441     1.0000 0.52270  0.36960  0.05181  Biso   1.000  H
  C385     1.0000 0.50871  0.36940  0.97161  Biso   1.000  C
  C386     1.0000 0.53274  0.18891  0.92851  Biso   1.000  C
  H442     1.0000 0.55452  0.31960  0.92331  Biso   1.000  H
  H443     1.0000 0.57431  0.31980  0.98351  Biso   1.000  H
  H444     1.0000 0.55181  0.02270  0.36960  Biso   1.000  H
  H445     1.0000 0.53589  0.97040  0.40161  Biso   1.000  H
  C387     1.0000 0.58452  0.93440  0.14173  Biso   1.000  C
  H446     1.0000 0.59060  0.99911  0.19411  Biso   1.000  H
  C388     1.0000 0.13060  0.02839  0.00871  Biso   1.000  C
  H447     1.0000 0.18040  0.07669  0.05452  Biso   1.000  H
  H448     1.0000 0.18020  0.01649  0.07431  Biso   1.000  H
  N66      1.0000 0.27782  0.96355  0.95504  Biso   1.000  N
  C389     1.0000 0.18060  0.96060  0.95742  Biso   1.000  C
  H449     1.0000 0.23331  0.94661  0.02060  Biso   1.000  H
  H450     1.0000 0.52960  0.40161  0.96411  Biso   1.000  H
  H451     1.0000 0.47730  0.36960  0.94819  Biso   1.000  H
  C390     1.0000 0.56560  0.14173  0.91548  Biso   1.000  C
  H452     1.0000 0.50089  0.19411  0.90940  Biso   1.000  H
  C391     1.0000 0.55367  0.88980  0.12819  Biso   1.000  C
  C392     1.0000 0.62819  0.94633  0.11020  Biso   1.000  C
  H453     1.0000 0.09839  0.03589  0.02960  Biso   1.000  H
  C393     1.0000 0.13060  0.97161  0.99129  Biso   1.000  C
  H454     1.0000 0.13040  0.05181  0.97730  Biso   1.000  H
  C394     1.0000 0.31109  0.92851  0.96726  Biso   1.000  C
  H455     1.0000 0.18040  0.92331  0.94548  Biso   1.000  H
  H456     1.0000 0.18020  0.98351  0.92569  Biso   1.000  H
  C395     1.0000 0.61020  0.12819  0.94633  Biso   1.000  C
  C396     1.0000 0.55367  0.11020  0.87181  Biso   1.000  C
  C397     1.0000 0.56560  0.85827  0.08452  Biso   1.000  C
  H457     1.0000 0.52399  0.88101  0.14940  Biso   1.000  H
  C398     1.0000 0.64173  0.91548  0.06560  Biso   1.000  C
  H458     1.0000 0.64940  0.97601  0.11899  Biso   1.000  H
  H459     1.0000 0.09839  0.96411  0.97040  Biso   1.000  H
  H460     1.0000 0.13040  0.94819  0.02270  Biso   1.000  H
  C399     1.0000 0.35827  0.91548  0.93440  Biso   1.000  C
  H461     1.0000 0.30589  0.90940  0.99911  Biso   1.000  H
  C400     1.0000 0.64173  0.08452  0.93440  Biso   1.000  C
  H462     1.0000 0.61899  0.14940  0.97601  Biso   1.000  H
  C401     1.0000 0.58452  0.06560  0.85827  Biso   1.000  C
  H463     1.0000 0.52399  0.11899  0.85060  Biso   1.000  H
  C402     1.0000 0.61020  0.87181  0.05367  Biso   1.000  C
  C403     1.0000 0.53274  0.81109  0.07149  Biso   1.000  C
  C404     1.0000 0.68891  0.92851  0.03274  Biso   1.000  C
  C405     1.0000 0.37181  0.94633  0.88980  Biso   1.000  C
  C406     1.0000 0.38980  0.87181  0.94633  Biso   1.000  C
  C407     1.0000 0.62819  0.05367  0.88980  Biso   1.000  C
  C408     1.0000 0.68891  0.07149  0.96726  Biso   1.000  C
  C409     1.0000 0.57149  0.03274  0.81109  Biso   1.000  C
  H464     1.0000 0.61899  0.85060  0.02399  Biso   1.000  H
  N67      1.0000 0.54496  0.77782  0.03645  Biso   1.000  N
  H465     1.0000 0.50089  0.80589  0.09060  Biso   1.000  H
  N68      1.0000 0.72218  0.96355  0.04496  Biso   1.000  N
  H466     1.0000 0.69411  0.90940  0.00089  Biso   1.000  H
  C410     1.0000 0.41548  0.93440  0.85827  Biso   1.000  C
  H467     1.0000 0.35060  0.97601  0.88101  Biso   1.000  H
  C411     1.0000 0.43440  0.85827  0.91548  Biso   1.000  C
  H468     1.0000 0.38101  0.85060  0.97601  Biso   1.000  H
  H469     1.0000 0.64940  0.02399  0.88101  Biso   1.000  H
  N69      1.0000 0.72218  0.03645  0.95504  Biso   1.000  N
  H470     1.0000 0.69411  0.09060  0.99911  Biso   1.000  H
  N70      1.0000 0.53645  0.04496  0.77782  Biso   1.000  N
  H471     1.0000 0.59060  0.00089  0.80589  Biso   1.000  H
  C412     1.0000 0.51000  0.73141  0.02851  Biso   1.000  C
  C413     1.0000 0.76859  0.97149  0.01000  Biso   1.000  C
  C414     1.0000 0.44633  0.88980  0.87181  Biso   1.000  C
  C415     1.0000 0.42851  0.96726  0.81109  Biso   1.000  C
  C416     1.0000 0.46726  0.81109  0.92851  Biso   1.000  C
  C417     1.0000 0.76859  0.02851  0.99000  Biso   1.000  C
  C418     1.0000 0.52851  0.01000  0.73141  Biso   1.000  C
  C419     1.0000 0.49000  0.73141  0.97149  Biso   1.000  C
  C420     1.0000 0.54258  0.68060  0.03940  Biso   1.000  C
  H472     1.0000 0.47940  0.73331  0.05339  Biso   1.000  H
  H473     1.0000 0.76669  0.94661  0.97940  Biso   1.000  H
  C421     1.0000 0.81940  0.96060  0.04258  Biso   1.000  C
  H474     1.0000 0.47601  0.88101  0.85060  Biso   1.000  H
  N71      1.0000 0.46355  0.95504  0.77782  Biso   1.000  N
  H475     1.0000 0.40940  0.99911  0.80589  Biso   1.000  H
  N72      1.0000 0.45504  0.77782  0.96355  Biso   1.000  N
  H476     1.0000 0.49911  0.80589  0.90940  Biso   1.000  H
  H477     1.0000 0.76669  0.05339  0.02060  Biso   1.000  H
  C422     1.0000 0.81940  0.03940  0.95742  Biso   1.000  C
  C423     1.0000 0.47149  0.99000  0.73141  Biso   1.000  C
  H478     1.0000 0.55339  0.97940  0.73331  Biso   1.000  H
  C424     1.0000 0.53940  0.04258  0.68060  Biso   1.000  C
  C425     1.0000 0.45742  0.68060  0.96060  Biso   1.000  C
  H479     1.0000 0.52060  0.73331  0.94661  Biso   1.000  H
  C426     1.0000 0.50871  0.63060  0.02839  Biso   1.000  C
  H480     1.0000 0.55452  0.68040  0.07669  Biso   1.000  H
  H481     1.0000 0.57431  0.68020  0.01649  Biso   1.000  H
  C427     1.0000 0.86940  0.97161  0.00871  Biso   1.000  C
  H482     1.0000 0.81960  0.92331  0.05452  Biso   1.000  H
  H483     1.0000 0.81980  0.98351  0.07431  Biso   1.000  H
  C428     1.0000 0.86940  0.02839  0.99129  Biso   1.000  C
  H484     1.0000 0.81960  0.07669  0.94548  Biso   1.000  H
  H485     1.0000 0.81980  0.01649  0.92569  Biso   1.000  H
  C429     1.0000 0.46060  0.95742  0.68060  Biso   1.000  C
  H486     1.0000 0.44661  0.02060  0.73331  Biso   1.000  H
  C430     1.0000 0.52839  0.00871  0.63060  Biso   1.000  C
  H487     1.0000 0.57669  0.05452  0.68040  Biso   1.000  H
  H488     1.0000 0.51649  0.07431  0.68020  Biso   1.000  H
  C431     1.0000 0.49129  0.63060  0.97161  Biso   1.000  C
  H489     1.0000 0.44548  0.68040  0.92331  Biso   1.000  H
  H490     1.0000 0.42569  0.68020  0.98351  Biso   1.000  H
  H491     1.0000 0.52960  0.59839  0.03589  Biso   1.000  H
  H492     1.0000 0.47730  0.63040  0.05181  Biso   1.000  H
  H493     1.0000 0.86960  0.94819  0.97730  Biso   1.000  H
  H494     1.0000 0.90161  0.96411  0.02960  Biso   1.000  H
  H495     1.0000 0.86960  0.05181  0.02270  Biso   1.000  H
  H496     1.0000 0.90161  0.03589  0.97040  Biso   1.000  H
  C432     1.0000 0.47161  0.99129  0.63060  Biso   1.000  C
  H497     1.0000 0.42331  0.94548  0.68040  Biso   1.000  H
  H498     1.0000 0.48351  0.92569  0.68020  Biso   1.000  H
  H499     1.0000 0.55181  0.97730  0.63040  Biso   1.000  H
  H500     1.0000 0.53589  0.02960  0.59839  Biso   1.000  H
  H501     1.0000 0.47040  0.59839  0.96411  Biso   1.000  H
  H502     1.0000 0.52270  0.63040  0.94819  Biso   1.000  H
  H503     1.0000 0.46411  0.97040  0.59839  Biso   1.000  H
  H504     1.0000 0.44819  0.02270  0.63040  Biso   1.000  H
  C433     1.0000 0.44633  0.11020  0.12819  Biso   1.000  C
  C434     1.0000 0.41548  0.06560  0.14173  Biso   1.000  C
  H505     1.0000 0.47601  0.11899  0.14940  Biso   1.000  H
  C435     1.0000 0.43440  0.14173  0.08452  Biso   1.000  C
  C436     1.0000 0.42851  0.03274  0.18891  Biso   1.000  C
  C437     1.0000 0.37181  0.05367  0.11020  Biso   1.000  C
  C438     1.0000 0.38980  0.12819  0.05367  Biso   1.000  C
  C439     1.0000 0.46726  0.18891  0.07149  Biso   1.000  C
  N73      1.0000 0.46355  0.04496  0.22218  Biso   1.000  N
  H506     1.0000 0.40940  0.00089  0.19411  Biso   1.000  H
  C440     1.0000 0.35827  0.08452  0.06560  Biso   1.000  C
  H507     1.0000 0.35060  0.02399  0.11899  Biso   1.000  H
  H508     1.0000 0.38101  0.14940  0.02399  Biso   1.000  H
  N74      1.0000 0.45504  0.22218  0.03645  Biso   1.000  N
  H509     1.0000 0.49911  0.19411  0.09060  Biso   1.000  H
  C441     1.0000 0.47149  0.01000  0.26859  Biso   1.000  C
  C442     1.0000 0.31109  0.07149  0.03274  Biso   1.000  C
  C443     1.0000 0.49000  0.26859  0.02851  Biso   1.000  C
  C444     1.0000 0.46060  0.04258  0.31940  Biso   1.000  C
  H510     1.0000 0.44661  0.97940  0.26669  Biso   1.000  H
  C445     1.0000 0.52851  0.99000  0.26859  Biso   1.000  C
  N75      1.0000 0.27782  0.03645  0.04496  Biso   1.000  N
  H511     1.0000 0.30589  0.09060  0.00089  Biso   1.000  H
  C446     1.0000 0.45742  0.31940  0.03940  Biso   1.000  C
  H512     1.0000 0.52060  0.26669  0.05339  Biso   1.000  H
  C447     1.0000 0.51000  0.26859  0.97149  Biso   1.000  C
  C448     1.0000 0.47161  0.00871  0.36940  Biso   1.000  C
  H513     1.0000 0.42331  0.05452  0.31960  Biso   1.000  H
  H514     1.0000 0.48351  0.07431  0.31980  Biso   1.000  H
  H515     1.0000 0.55339  0.02060  0.26669  Biso   1.000  H
  N76      1.0000 0.53645  0.95504  0.22218  Biso   1.000  N
  C449     1.0000 0.53940  0.95742  0.31940  Biso   1.000  C
  C450     1.0000 0.23141  0.02851  0.01000  Biso   1.000  C
  C451     1.0000 0.49129  0.36940  0.02839  Biso   1.000  C
  H516     1.0000 0.44548  0.31960  0.07669  Biso   1.000  H
  H517     1.0000 0.42569  0.31980  0.01649  Biso   1.000  H
  N77      1.0000 0.54496  0.22218  0.96355  Biso   1.000  N
  C452     1.0000 0.54258  0.31940  0.96060  Biso   1.000  C
  H518     1.0000 0.47940  0.26669  0.94661  Biso   1.000  H
  H519     1.0000 0.46411  0.02960  0.40161  Biso   1.000  H
  H520     1.0000 0.44819  0.97730  0.36960  Biso   1.000  H
  C453     1.0000 0.52839  0.99129  0.36940  Biso   1.000  C
  C454     1.0000 0.57149  0.96726  0.18891  Biso   1.000  C
  H521     1.0000 0.57669  0.94548  0.31960  Biso   1.000  H
  H522     1.0000 0.51649  0.92569  0.31980  Biso   1.000  H
  C455     1.0000 0.18060  0.03940  0.04258  Biso   1.000  C
  C456     1.0000 0.23141  0.97149  0.99000  Biso   1.000  C
  H523     1.0000 0.23331  0.05339  0.97940  Biso   1.000  H
  H524     1.0000 0.47040  0.40161  0.03589  Biso   1.000  H
  H525     1.0000 0.52270  0.36960  0.05181  Biso   1.000  H
  C457     1.0000 0.50871  0.36940  0.97161  Biso   1.000  C
  C458     1.0000 0.53274  0.18891  0.92851  Biso   1.000  C
  H526     1.0000 0.55452  0.31960  0.92331  Biso   1.000  H
  H527     1.0000 0.57431  0.31980  0.98351  Biso   1.000  H
  H528     1.0000 0.55181  0.02270  0.36960  Biso   1.000  H
  H529     1.0000 0.53589  0.97040  0.40161  Biso   1.000  H
  C459     1.0000 0.58452  0.93440  0.14173  Biso   1.000  C
  H530     1.0000 0.59060  0.99911  0.19411  Biso   1.000  H
  C460     1.0000 0.13060  0.02839  0.00871  Biso   1.000  C
  H531     1.0000 0.18040  0.07669  0.05452  Biso   1.000  H
  H532     1.0000 0.18020  0.01649  0.07431  Biso   1.000  H
  N78      1.0000 0.27782  0.96355  0.95504  Biso   1.000  N
  C461     1.0000 0.18060  0.96060  0.95742  Biso   1.000  C
  H533     1.0000 0.23331  0.94661  0.02060  Biso   1.000  H
  H534     1.0000 0.52960  0.40161  0.96411  Biso   1.000  H
  H535     1.0000 0.47730  0.36960  0.94819  Biso   1.000  H
  C462     1.0000 0.56560  0.14173  0.91548  Biso   1.000  C
  H536     1.0000 0.50089  0.19411  0.90940  Biso   1.000  H
  C463     1.0000 0.55367  0.88980  0.12819  Biso   1.000  C
  C464     1.0000 0.62819  0.94633  0.11020  Biso   1.000  C
  H537     1.0000 0.09839  0.03589  0.02960  Biso   1.000  H
  C465     1.0000 0.13060  0.97161  0.99129  Biso   1.000  C
  H538     1.0000 0.13040  0.05181  0.97730  Biso   1.000  H
  C466     1.0000 0.31109  0.92851  0.96726  Biso   1.000  C
  H539     1.0000 0.18040  0.92331  0.94548  Biso   1.000  H
  H540     1.0000 0.18020  0.98351  0.92569  Biso   1.000  H
  C467     1.0000 0.61020  0.12819  0.94633  Biso   1.000  C
  C468     1.0000 0.55367  0.11020  0.87181  Biso   1.000  C
  C469     1.0000 0.56560  0.85827  0.08452  Biso   1.000  C
  H541     1.0000 0.52399  0.88101  0.14940  Biso   1.000  H
  C470     1.0000 0.64173  0.91548  0.06560  Biso   1.000  C
  H542     1.0000 0.64940  0.97601  0.11899  Biso   1.000  H
  H543     1.0000 0.09839  0.96411  0.97040  Biso   1.000  H
  H544     1.0000 0.13040  0.94819  0.02270  Biso   1.000  H
  C471     1.0000 0.35827  0.91548  0.93440  Biso   1.000  C
  H545     1.0000 0.30589  0.90940  0.99911  Biso   1.000  H
  C472     1.0000 0.64173  0.08452  0.93440  Biso   1.000  C
  H546     1.0000 0.61899  0.14940  0.97601  Biso   1.000  H
  C473     1.0000 0.58452  0.06560  0.85827  Biso   1.000  C
  H547     1.0000 0.52399  0.11899  0.85060  Biso   1.000  H
  C474     1.0000 0.61020  0.87181  0.05367  Biso   1.000  C
  C475     1.0000 0.53274  0.81109  0.07149  Biso   1.000  C
  C476     1.0000 0.68891  0.92851  0.03274  Biso   1.000  C
  C477     1.0000 0.37181  0.94633  0.88980  Biso   1.000  C
  C478     1.0000 0.38980  0.87181  0.94633  Biso   1.000  C
  C479     1.0000 0.62819  0.05367  0.88980  Biso   1.000  C
  C480     1.0000 0.68891  0.07149  0.96726  Biso   1.000  C
  C481     1.0000 0.57149  0.03274  0.81109  Biso   1.000  C
  H548     1.0000 0.61899  0.85060  0.02399  Biso   1.000  H
  N79      1.0000 0.54496  0.77782  0.03645  Biso   1.000  N
  H549     1.0000 0.50089  0.80589  0.09060  Biso   1.000  H
  N80      1.0000 0.72218  0.96355  0.04496  Biso   1.000  N
  H550     1.0000 0.69411  0.90940  0.00089  Biso   1.000  H
  C482     1.0000 0.41548  0.93440  0.85827  Biso   1.000  C
  H551     1.0000 0.35060  0.97601  0.88101  Biso   1.000  H
  C483     1.0000 0.43440  0.85827  0.91548  Biso   1.000  C
  H552     1.0000 0.38101  0.85060  0.97601  Biso   1.000  H
  H553     1.0000 0.64940  0.02399  0.88101  Biso   1.000  H
  N81      1.0000 0.72218  0.03645  0.95504  Biso   1.000  N
  H554     1.0000 0.69411  0.09060  0.99911  Biso   1.000  H
  N82      1.0000 0.53645  0.04496  0.77782  Biso   1.000  N
  H555     1.0000 0.59060  0.00089  0.80589  Biso   1.000  H
  C484     1.0000 0.51000  0.73141  0.02851  Biso   1.000  C
  C485     1.0000 0.76859  0.97149  0.01000  Biso   1.000  C
  C486     1.0000 0.44633  0.88980  0.87181  Biso   1.000  C
  C487     1.0000 0.42851  0.96726  0.81109  Biso   1.000  C
  C488     1.0000 0.46726  0.81109  0.92851  Biso   1.000  C
  C489     1.0000 0.76859  0.02851  0.99000  Biso   1.000  C
  C490     1.0000 0.52851  0.01000  0.73141  Biso   1.000  C
  C491     1.0000 0.49000  0.73141  0.97149  Biso   1.000  C
  C492     1.0000 0.54258  0.68060  0.03940  Biso   1.000  C
  H556     1.0000 0.47940  0.73331  0.05339  Biso   1.000  H
  H557     1.0000 0.76669  0.94661  0.97940  Biso   1.000  H
  C493     1.0000 0.81940  0.96060  0.04258  Biso   1.000  C
  H558     1.0000 0.47601  0.88101  0.85060  Biso   1.000  H
  N83      1.0000 0.46355  0.95504  0.77782  Biso   1.000  N
  H559     1.0000 0.40940  0.99911  0.80589  Biso   1.000  H
  N84      1.0000 0.45504  0.77782  0.96355  Biso   1.000  N
  H560     1.0000 0.49911  0.80589  0.90940  Biso   1.000  H
  H561     1.0000 0.76669  0.05339  0.02060  Biso   1.000  H
  C494     1.0000 0.81940  0.03940  0.95742  Biso   1.000  C
  C495     1.0000 0.47149  0.99000  0.73141  Biso   1.000  C
  H562     1.0000 0.55339  0.97940  0.73331  Biso   1.000  H
  C496     1.0000 0.53940  0.04258  0.68060  Biso   1.000  C
  C497     1.0000 0.45742  0.68060  0.96060  Biso   1.000  C
  H563     1.0000 0.52060  0.73331  0.94661  Biso   1.000  H
  C498     1.0000 0.50871  0.63060  0.02839  Biso   1.000  C
  H564     1.0000 0.55452  0.68040  0.07669  Biso   1.000  H
  H565     1.0000 0.57431  0.68020  0.01649  Biso   1.000  H
  C499     1.0000 0.86940  0.97161  0.00871  Biso   1.000  C
  H566     1.0000 0.81960  0.92331  0.05452  Biso   1.000  H
  H567     1.0000 0.81980  0.98351  0.07431  Biso   1.000  H
  C500     1.0000 0.86940  0.02839  0.99129  Biso   1.000  C
  H568     1.0000 0.81960  0.07669  0.94548  Biso   1.000  H
  H569     1.0000 0.81980  0.01649  0.92569  Biso   1.000  H
  C501     1.0000 0.46060  0.95742  0.68060  Biso   1.000  C
  H570     1.0000 0.44661  0.02060  0.73331  Biso   1.000  H
  C502     1.0000 0.52839  0.00871  0.63060  Biso   1.000  C
  H571     1.0000 0.57669  0.05452  0.68040  Biso   1.000  H
  H572     1.0000 0.51649  0.07431  0.68020  Biso   1.000  H
  C503     1.0000 0.49129  0.63060  0.97161  Biso   1.000  C
  H573     1.0000 0.44548  0.68040  0.92331  Biso   1.000  H
  H574     1.0000 0.42569  0.68020  0.98351  Biso   1.000  H
  H575     1.0000 0.52960  0.59839  0.03589  Biso   1.000  H
  H576     1.0000 0.47730  0.63040  0.05181  Biso   1.000  H
  H577     1.0000 0.86960  0.94819  0.97730  Biso   1.000  H
  H578     1.0000 0.90161  0.96411  0.02960  Biso   1.000  H
  H579     1.0000 0.86960  0.05181  0.02270  Biso   1.000  H
  H580     1.0000 0.90161  0.03589  0.97040  Biso   1.000  H
  C504     1.0000 0.47161  0.99129  0.63060  Biso   1.000  C
  H581     1.0000 0.42331  0.94548  0.68040  Biso   1.000  H
  H582     1.0000 0.48351  0.92569  0.68020  Biso   1.000  H
  H583     1.0000 0.55181  0.97730  0.63040  Biso   1.000  H
  H584     1.0000 0.53589  0.02960  0.59839  Biso   1.000  H
  H585     1.0000 0.47040  0.59839  0.96411  Biso   1.000  H
  H586     1.0000 0.52270  0.63040  0.94819  Biso   1.000  H
  H587     1.0000 0.46411  0.97040  0.59839  Biso   1.000  H
  H588     1.0000 0.44819  0.02270  0.63040  Biso   1.000  H
  C505     1.0000 0.44633  0.11020  0.12819  Biso   1.000  C
  C506     1.0000 0.41548  0.06560  0.14173  Biso   1.000  C
  H589     1.0000 0.47601  0.11899  0.14940  Biso   1.000  H
  C507     1.0000 0.43440  0.14173  0.08452  Biso   1.000  C
  C508     1.0000 0.42851  0.03274  0.18891  Biso   1.000  C
  C509     1.0000 0.37181  0.05367  0.11020  Biso   1.000  C
  C510     1.0000 0.38980  0.12819  0.05367  Biso   1.000  C
  C511     1.0000 0.46726  0.18891  0.07149  Biso   1.000  C
  N85      1.0000 0.46355  0.04496  0.22218  Biso   1.000  N
  H590     1.0000 0.40940  0.00089  0.19411  Biso   1.000  H
  C512     1.0000 0.35827  0.08452  0.06560  Biso   1.000  C
  H591     1.0000 0.35060  0.02399  0.11899  Biso   1.000  H
  H592     1.0000 0.38101  0.14940  0.02399  Biso   1.000  H
  N86      1.0000 0.45504  0.22218  0.03645  Biso   1.000  N
  H593     1.0000 0.49911  0.19411  0.09060  Biso   1.000  H
  C513     1.0000 0.47149  0.01000  0.26859  Biso   1.000  C
  C514     1.0000 0.31109  0.07149  0.03274  Biso   1.000  C
  C515     1.0000 0.49000  0.26859  0.02851  Biso   1.000  C
  C516     1.0000 0.46060  0.04258  0.31940  Biso   1.000  C
  H594     1.0000 0.44661  0.97940  0.26669  Biso   1.000  H
  C517     1.0000 0.52851  0.99000  0.26859  Biso   1.000  C
  N87      1.0000 0.27782  0.03645  0.04496  Biso   1.000  N
  H595     1.0000 0.30589  0.09060  0.00089  Biso   1.000  H
  C518     1.0000 0.45742  0.31940  0.03940  Biso   1.000  C
  H596     1.0000 0.52060  0.26669  0.05339  Biso   1.000  H
  C519     1.0000 0.51000  0.26859  0.97149  Biso   1.000  C
  C520     1.0000 0.47161  0.00871  0.36940  Biso   1.000  C
  H597     1.0000 0.42331  0.05452  0.31960  Biso   1.000  H
  H598     1.0000 0.48351  0.07431  0.31980  Biso   1.000  H
  H599     1.0000 0.55339  0.02060  0.26669  Biso   1.000  H
  N88      1.0000 0.53645  0.95504  0.22218  Biso   1.000  N
  C521     1.0000 0.53940  0.95742  0.31940  Biso   1.000  C
  C522     1.0000 0.23141  0.02851  0.01000  Biso   1.000  C
  C523     1.0000 0.49129  0.36940  0.02839  Biso   1.000  C
  H600     1.0000 0.44548  0.31960  0.07669  Biso   1.000  H
  H601     1.0000 0.42569  0.31980  0.01649  Biso   1.000  H
  N89      1.0000 0.54496  0.22218  0.96355  Biso   1.000  N
  C524     1.0000 0.54258  0.31940  0.96060  Biso   1.000  C
  H602     1.0000 0.47940  0.26669  0.94661  Biso   1.000  H
  H603     1.0000 0.46411  0.02960  0.40161  Biso   1.000  H
  H604     1.0000 0.44819  0.97730  0.36960  Biso   1.000  H
  C525     1.0000 0.52839  0.99129  0.36940  Biso   1.000  C
  C526     1.0000 0.57149  0.96726  0.18891  Biso   1.000  C
  H605     1.0000 0.57669  0.94548  0.31960  Biso   1.000  H
  H606     1.0000 0.51649  0.92569  0.31980  Biso   1.000  H
  C527     1.0000 0.18060  0.03940  0.04258  Biso   1.000  C
  C528     1.0000 0.23141  0.97149  0.99000  Biso   1.000  C
  H607     1.0000 0.23331  0.05339  0.97940  Biso   1.000  H
  H608     1.0000 0.47040  0.40161  0.03589  Biso   1.000  H
  H609     1.0000 0.52270  0.36960  0.05181  Biso   1.000  H
  C529     1.0000 0.50871  0.36940  0.97161  Biso   1.000  C
  C530     1.0000 0.53274  0.18891  0.92851  Biso   1.000  C
  H610     1.0000 0.55452  0.31960  0.92331  Biso   1.000  H
  H611     1.0000 0.57431  0.31980  0.98351  Biso   1.000  H
  H612     1.0000 0.55181  0.02270  0.36960  Biso   1.000  H
  H613     1.0000 0.53589  0.97040  0.40161  Biso   1.000  H
  C531     1.0000 0.58452  0.93440  0.14173  Biso   1.000  C
  H614     1.0000 0.59060  0.99911  0.19411  Biso   1.000  H
  C532     1.0000 0.13060  0.02839  0.00871  Biso   1.000  C
  H615     1.0000 0.18040  0.07669  0.05452  Biso   1.000  H
  H616     1.0000 0.18020  0.01649  0.07431  Biso   1.000  H
  N90      1.0000 0.27782  0.96355  0.95504  Biso   1.000  N
  C533     1.0000 0.18060  0.96060  0.95742  Biso   1.000  C
  H617     1.0000 0.23331  0.94661  0.02060  Biso   1.000  H
  H618     1.0000 0.52960  0.40161  0.96411  Biso   1.000  H
  H619     1.0000 0.47730  0.36960  0.94819  Biso   1.000  H
  C534     1.0000 0.56560  0.14173  0.91548  Biso   1.000  C
  H620     1.0000 0.50089  0.19411  0.90940  Biso   1.000  H
  C535     1.0000 0.55367  0.88980  0.12819  Biso   1.000  C
  C536     1.0000 0.62819  0.94633  0.11020  Biso   1.000  C
  H621     1.0000 0.09839  0.03589  0.02960  Biso   1.000  H
  C537     1.0000 0.13060  0.97161  0.99129  Biso   1.000  C
  H622     1.0000 0.13040  0.05181  0.97730  Biso   1.000  H
  C538     1.0000 0.31109  0.92851  0.96726  Biso   1.000  C
  H623     1.0000 0.18040  0.92331  0.94548  Biso   1.000  H
  H624     1.0000 0.18020  0.98351  0.92569  Biso   1.000  H
  C539     1.0000 0.61020  0.12819  0.94633  Biso   1.000  C
  C540     1.0000 0.55367  0.11020  0.87181  Biso   1.000  C
  C541     1.0000 0.56560  0.85827  0.08452  Biso   1.000  C
  H625     1.0000 0.52399  0.88101  0.14940  Biso   1.000  H
  C542     1.0000 0.64173  0.91548  0.06560  Biso   1.000  C
  H626     1.0000 0.64940  0.97601  0.11899  Biso   1.000  H
  H627     1.0000 0.09839  0.96411  0.97040  Biso   1.000  H
  H628     1.0000 0.13040  0.94819  0.02270  Biso   1.000  H
  C543     1.0000 0.35827  0.91548  0.93440  Biso   1.000  C
  H629     1.0000 0.30589  0.90940  0.99911  Biso   1.000  H
  C544     1.0000 0.64173  0.08452  0.93440  Biso   1.000  C
  H630     1.0000 0.61899  0.14940  0.97601  Biso   1.000  H
  C545     1.0000 0.58452  0.06560  0.85827  Biso   1.000  C
  H631     1.0000 0.52399  0.11899  0.85060  Biso   1.000  H
  C546     1.0000 0.61020  0.87181  0.05367  Biso   1.000  C
  C547     1.0000 0.53274  0.81109  0.07149  Biso   1.000  C
  C548     1.0000 0.68891  0.92851  0.03274  Biso   1.000  C
  C549     1.0000 0.37181  0.94633  0.88980  Biso   1.000  C
  C550     1.0000 0.38980  0.87181  0.94633  Biso   1.000  C
  C551     1.0000 0.62819  0.05367  0.88980  Biso   1.000  C
  C552     1.0000 0.68891  0.07149  0.96726  Biso   1.000  C
  C553     1.0000 0.57149  0.03274  0.81109  Biso   1.000  C
  H632     1.0000 0.61899  0.85060  0.02399  Biso   1.000  H
  N91      1.0000 0.54496  0.77782  0.03645  Biso   1.000  N
  H633     1.0000 0.50089  0.80589  0.09060  Biso   1.000  H
  N92      1.0000 0.72218  0.96355  0.04496  Biso   1.000  N
  H634     1.0000 0.69411  0.90940  0.00089  Biso   1.000  H
  C554     1.0000 0.41548  0.93440  0.85827  Biso   1.000  C
  H635     1.0000 0.35060  0.97601  0.88101  Biso   1.000  H
  C555     1.0000 0.43440  0.85827  0.91548  Biso   1.000  C
  H636     1.0000 0.38101  0.85060  0.97601  Biso   1.000  H
  H637     1.0000 0.64940  0.02399  0.88101  Biso   1.000  H
  N93      1.0000 0.72218  0.03645  0.95504  Biso   1.000  N
  H638     1.0000 0.69411  0.09060  0.99911  Biso   1.000  H
  N94      1.0000 0.53645  0.04496  0.77782  Biso   1.000  N
  H639     1.0000 0.59060  0.00089  0.80589  Biso   1.000  H
  C556     1.0000 0.51000  0.73141  0.02851  Biso   1.000  C
  C557     1.0000 0.76859  0.97149  0.01000  Biso   1.000  C
  C558     1.0000 0.44633  0.88980  0.87181  Biso   1.000  C
  C559     1.0000 0.42851  0.96726  0.81109  Biso   1.000  C
  C560     1.0000 0.46726  0.81109  0.92851  Biso   1.000  C
  C561     1.0000 0.76859  0.02851  0.99000  Biso   1.000  C
  C562     1.0000 0.52851  0.01000  0.73141  Biso   1.000  C
  C563     1.0000 0.49000  0.73141  0.97149  Biso   1.000  C
  C564     1.0000 0.54258  0.68060  0.03940  Biso   1.000  C
  H640     1.0000 0.47940  0.73331  0.05339  Biso   1.000  H
  H641     1.0000 0.76669  0.94661  0.97940  Biso   1.000  H
  C565     1.0000 0.81940  0.96060  0.04258  Biso   1.000  C
  H642     1.0000 0.47601  0.88101  0.85060  Biso   1.000  H
  N95      1.0000 0.46355  0.95504  0.77782  Biso   1.000  N
  H643     1.0000 0.40940  0.99911  0.80589  Biso   1.000  H
  N96      1.0000 0.45504  0.77782  0.96355  Biso   1.000  N
  H644     1.0000 0.49911  0.80589  0.90940  Biso   1.000  H
  H645     1.0000 0.76669  0.05339  0.02060  Biso   1.000  H
  C566     1.0000 0.81940  0.03940  0.95742  Biso   1.000  C
  C567     1.0000 0.47149  0.99000  0.73141  Biso   1.000  C
  H646     1.0000 0.55339  0.97940  0.73331  Biso   1.000  H
  C568     1.0000 0.53940  0.04258  0.68060  Biso   1.000  C
  C569     1.0000 0.45742  0.68060  0.96060  Biso   1.000  C
  H647     1.0000 0.52060  0.73331  0.94661  Biso   1.000  H
  C570     1.0000 0.50871  0.63060  0.02839  Biso   1.000  C
  H648     1.0000 0.55452  0.68040  0.07669  Biso   1.000  H
  H649     1.0000 0.57431  0.68020  0.01649  Biso   1.000  H
  C571     1.0000 0.86940  0.97161  0.00871  Biso   1.000  C
  H650     1.0000 0.81960  0.92331  0.05452  Biso   1.000  H
  H651     1.0000 0.81980  0.98351  0.07431  Biso   1.000  H
  C572     1.0000 0.86940  0.02839  0.99129  Biso   1.000  C
  H652     1.0000 0.81960  0.07669  0.94548  Biso   1.000  H
  H653     1.0000 0.81980  0.01649  0.92569  Biso   1.000  H
  C573     1.0000 0.46060  0.95742  0.68060  Biso   1.000  C
  H654     1.0000 0.44661  0.02060  0.73331  Biso   1.000  H
  C574     1.0000 0.52839  0.00871  0.63060  Biso   1.000  C
  H655     1.0000 0.57669  0.05452  0.68040  Biso   1.000  H
  H656     1.0000 0.51649  0.07431  0.68020  Biso   1.000  H
  C575     1.0000 0.49129  0.63060  0.97161  Biso   1.000  C
  H657     1.0000 0.44548  0.68040  0.92331  Biso   1.000  H
  H658     1.0000 0.42569  0.68020  0.98351  Biso   1.000  H
  H659     1.0000 0.52960  0.59839  0.03589  Biso   1.000  H
  H660     1.0000 0.47730  0.63040  0.05181  Biso   1.000  H
  H661     1.0000 0.86960  0.94819  0.97730  Biso   1.000  H
  H662     1.0000 0.90161  0.96411  0.02960  Biso   1.000  H
  H663     1.0000 0.86960  0.05181  0.02270  Biso   1.000  H
  H664     1.0000 0.90161  0.03589  0.97040  Biso   1.000  H
  C576     1.0000 0.47161  0.99129  0.63060  Biso   1.000  C
  H665     1.0000 0.42331  0.94548  0.68040  Biso   1.000  H
  H666     1.0000 0.48351  0.92569  0.68020  Biso   1.000  H
  H667     1.0000 0.55181  0.97730  0.63040  Biso   1.000  H
  H668     1.0000 0.53589  0.02960  0.59839  Biso   1.000  H
  H669     1.0000 0.47040  0.59839  0.96411  Biso   1.000  H
  H670     1.0000 0.52270  0.63040  0.94819  Biso   1.000  H
  H671     1.0000 0.46411  0.97040  0.59839  Biso   1.000  H
  H672     1.0000 0.44819  0.02270  0.63040  Biso   1.000  H
  C577     1.0000 0.12819  0.44633  0.11020  Biso   1.000  C
  C578     1.0000 0.14173  0.41548  0.06560  Biso   1.000  C
  C579     1.0000 0.08452  0.43440  0.14173  Biso   1.000  C
  H673     1.0000 0.14940  0.47601  0.11899  Biso   1.000  H
  C580     1.0000 0.11020  0.37181  0.05367  Biso   1.000  C
  C581     1.0000 0.18891  0.42851  0.03274  Biso   1.000  C
  C582     1.0000 0.05367  0.38980  0.12819  Biso   1.000  C
  C583     1.0000 0.07149  0.46726  0.18891  Biso   1.000  C
  C584     1.0000 0.06560  0.35827  0.08452  Biso   1.000  C
  H674     1.0000 0.11899  0.35060  0.02399  Biso   1.000  H
  N97      1.0000 0.22218  0.46355  0.04496  Biso   1.000  N
  H675     1.0000 0.19411  0.40940  0.00089  Biso   1.000  H
  H676     1.0000 0.02399  0.38101  0.14940  Biso   1.000  H
  N98      1.0000 0.03645  0.45504  0.22218  Biso   1.000  N
  H677     1.0000 0.09060  0.49911  0.19411  Biso   1.000  H
  C585     1.0000 0.03274  0.31109  0.07149  Biso   1.000  C
  C586     1.0000 0.26859  0.47149  0.01000  Biso   1.000  C
  C587     1.0000 0.02851  0.49000  0.26859  Biso   1.000  C
  N99      1.0000 0.04496  0.27782  0.03645  Biso   1.000  N
  H678     1.0000 0.00089  0.30589  0.09060  Biso   1.000  H
  C588     1.0000 0.31940  0.46060  0.04258  Biso   1.000  C
  C589     1.0000 0.26859  0.52851  0.99000  Biso   1.000  C
  H679     1.0000 0.26669  0.44661  0.97940  Biso   1.000  H
  C590     1.0000 0.03940  0.45742  0.31940  Biso   1.000  C
  H680     1.0000 0.05339  0.52060  0.26669  Biso   1.000  H
  C591     1.0000 0.97149  0.51000  0.26859  Biso   1.000  C
  C592     1.0000 0.01000  0.23141  0.02851  Biso   1.000  C
  C593     1.0000 0.36940  0.47161  0.00871  Biso   1.000  C
  H681     1.0000 0.31960  0.42331  0.05452  Biso   1.000  H
  H682     1.0000 0.31980  0.48351  0.07431  Biso   1.000  H
  H683     1.0000 0.26669  0.55339  0.02060  Biso   1.000  H
  N100     1.0000 0.22218  0.53645  0.95504  Biso   1.000  N
  C594     1.0000 0.31940  0.53940  0.95742  Biso   1.000  C
  C595     1.0000 0.02839  0.49129  0.36940  Biso   1.000  C
  H684     1.0000 0.07669  0.44548  0.31960  Biso   1.000  H
  H685     1.0000 0.01649  0.42569  0.31980  Biso   1.000  H
  N101     1.0000 0.96355  0.54496  0.22218  Biso   1.000  N
  C596     1.0000 0.96060  0.54258  0.31940  Biso   1.000  C
  H686     1.0000 0.94661  0.47940  0.26669  Biso   1.000  H
  C597     1.0000 0.04258  0.18060  0.03940  Biso   1.000  C
  C598     1.0000 0.99000  0.23141  0.97149  Biso   1.000  C
  H687     1.0000 0.97940  0.23331  0.05339  Biso   1.000  H
  H688     1.0000 0.40161  0.46411  0.02960  Biso   1.000  H
  C599     1.0000 0.36940  0.52839  0.99129  Biso   1.000  C
  H689     1.0000 0.36960  0.44819  0.97730  Biso   1.000  H
  C600     1.0000 0.18891  0.57149  0.96726  Biso   1.000  C
  H690     1.0000 0.31960  0.57669  0.94548  Biso   1.000  H
  H691     1.0000 0.31980  0.51649  0.92569  Biso   1.000  H
  H692     1.0000 0.03589  0.47040  0.40161  Biso   1.000  H
  H693     1.0000 0.05181  0.52270  0.36960  Biso   1.000  H
  C601     1.0000 0.97161  0.50871  0.36940  Biso   1.000  C
  C602     1.0000 0.92851  0.53274  0.18891  Biso   1.000  C
  H694     1.0000 0.92331  0.55452  0.31960  Biso   1.000  H
  H695     1.0000 0.98351  0.57431  0.31980  Biso   1.000  H
  C603     1.0000 0.00871  0.13060  0.02839  Biso   1.000  C
  H696     1.0000 0.05452  0.18040  0.07669  Biso   1.000  H
  H697     1.0000 0.07431  0.18020  0.01649  Biso   1.000  H
  N102     1.0000 0.95504  0.27782  0.96355  Biso   1.000  N
  C604     1.0000 0.95742  0.18060  0.96060  Biso   1.000  C
  H698     1.0000 0.02060  0.23331  0.94661  Biso   1.000  H
  H699     1.0000 0.36960  0.55181  0.02270  Biso   1.000  H
  H700     1.0000 0.40161  0.53589  0.97040  Biso   1.000  H
  C605     1.0000 0.14173  0.58452  0.93440  Biso   1.000  C
  H701     1.0000 0.19411  0.59060  0.99911  Biso   1.000  H
  H702     1.0000 0.96411  0.52960  0.40161  Biso   1.000  H
  H703     1.0000 0.94819  0.47730  0.36960  Biso   1.000  H
  C606     1.0000 0.91548  0.56560  0.14173  Biso   1.000  C
  H704     1.0000 0.90940  0.50089  0.19411  Biso   1.000  H
  H705     1.0000 0.02960  0.09839  0.03589  Biso   1.000  H
  C607     1.0000 0.99129  0.13060  0.97161  Biso   1.000  C
  H706     1.0000 0.97730  0.13040  0.05181  Biso   1.000  H
  C608     1.0000 0.96726  0.31109  0.92851  Biso   1.000  C
  H707     1.0000 0.94548  0.18040  0.92331  Biso   1.000  H
  H708     1.0000 0.92569  0.18020  0.98351  Biso   1.000  H
  C609     1.0000 0.12819  0.55367  0.88980  Biso   1.000  C
  C610     1.0000 0.11020  0.62819  0.94633  Biso   1.000  C
  C611     1.0000 0.94633  0.61020  0.12819  Biso   1.000  C
  C612     1.0000 0.87181  0.55367  0.11020  Biso   1.000  C
  H709     1.0000 0.97040  0.09839  0.96411  Biso   1.000  H
  H710     1.0000 0.02270  0.13040  0.94819  Biso   1.000  H
  C613     1.0000 0.93440  0.35827  0.91548  Biso   1.000  C
  H711     1.0000 0.99911  0.30589  0.90940  Biso   1.000  H
  C614     1.0000 0.08452  0.56560  0.85827  Biso   1.000  C
  H712     1.0000 0.14940  0.52399  0.88101  Biso   1.000  H
  C615     1.0000 0.06560  0.64173  0.91548  Biso   1.000  C
  H713     1.0000 0.11899  0.64940  0.97601  Biso   1.000  H
  C616     1.0000 0.93440  0.64173  0.08452  Biso   1.000  C
  H714     1.0000 0.97601  0.61899  0.14940  Biso   1.000  H
  C617     1.0000 0.85827  0.58452  0.06560  Biso   1.000  C
  H715     1.0000 0.85060  0.52399  0.11899  Biso   1.000  H
  C618     1.0000 0.88980  0.37181  0.94633  Biso   1.000  C
  C619     1.0000 0.94633  0.38980  0.87181  Biso   1.000  C
  C620     1.0000 0.05367  0.61020  0.87181  Biso   1.000  C
  C621     1.0000 0.07149  0.53274  0.81109  Biso   1.000  C
  C622     1.0000 0.03274  0.68891  0.92851  Biso   1.000  C
  C623     1.0000 0.88980  0.62819  0.05367  Biso   1.000  C
  C624     1.0000 0.96726  0.68891  0.07149  Biso   1.000  C
  C625     1.0000 0.81109  0.57149  0.03274  Biso   1.000  C
  C626     1.0000 0.85827  0.41548  0.93440  Biso   1.000  C
  H716     1.0000 0.88101  0.35060  0.97601  Biso   1.000  H
  C627     1.0000 0.91548  0.43440  0.85827  Biso   1.000  C
  H717     1.0000 0.97601  0.38101  0.85060  Biso   1.000  H
  H718     1.0000 0.02399  0.61899  0.85060  Biso   1.000  H
  N103     1.0000 0.03645  0.54496  0.77782  Biso   1.000  N
  H719     1.0000 0.09060  0.50089  0.80589  Biso   1.000  H
  N104     1.0000 0.04496  0.72218  0.96355  Biso   1.000  N
  H720     1.0000 0.00089  0.69411  0.90940  Biso   1.000  H
  H721     1.0000 0.88101  0.64940  0.02399  Biso   1.000  H
  N105     1.0000 0.95504  0.72218  0.03645  Biso   1.000  N
  H722     1.0000 0.99911  0.69411  0.09060  Biso   1.000  H
  N106     1.0000 0.77782  0.53645  0.04496  Biso   1.000  N
  H723     1.0000 0.80589  0.59060  0.00089  Biso   1.000  H
  C628     1.0000 0.87181  0.44633  0.88980  Biso   1.000  C
  C629     1.0000 0.81109  0.42851  0.96726  Biso   1.000  C
  C630     1.0000 0.92851  0.46726  0.81109  Biso   1.000  C
  C631     1.0000 0.02851  0.51000  0.73141  Biso   1.000  C
  C632     1.0000 0.01000  0.76859  0.97149  Biso   1.000  C
  C633     1.0000 0.99000  0.76859  0.02851  Biso   1.000  C
  C634     1.0000 0.73141  0.52851  0.01000  Biso   1.000  C
  H724     1.0000 0.85060  0.47601  0.88101  Biso   1.000  H
  N107     1.0000 0.77782  0.46355  0.95504  Biso   1.000  N
  H725     1.0000 0.80589  0.40940  0.99911  Biso   1.000  H
  N108     1.0000 0.96355  0.45504  0.77782  Biso   1.000  N
  H726     1.0000 0.90940  0.49911  0.80589  Biso   1.000  H
  C635     1.0000 0.97149  0.49000  0.73141  Biso   1.000  C
  C636     1.0000 0.03940  0.54258  0.68060  Biso   1.000  C
  H727     1.0000 0.05339  0.47940  0.73331  Biso   1.000  H
  H728     1.0000 0.97940  0.76669  0.94661  Biso   1.000  H
  C637     1.0000 0.04258  0.81940  0.96060  Biso   1.000  C
  H729     1.0000 0.02060  0.76669  0.05339  Biso   1.000  H
  C638     1.0000 0.95742  0.81940  0.03940  Biso   1.000  C
  C639     1.0000 0.73141  0.47149  0.99000  Biso   1.000  C
  H730     1.0000 0.73331  0.55339  0.97940  Biso   1.000  H
  C640     1.0000 0.68060  0.53940  0.04258  Biso   1.000  C
  C641     1.0000 0.96060  0.45742  0.68060  Biso   1.000  C
  H731     1.0000 0.94661  0.52060  0.73331  Biso   1.000  H
  C642     1.0000 0.02839  0.50871  0.63060  Biso   1.000  C
  H732     1.0000 0.07669  0.55452  0.68040  Biso   1.000  H
  H733     1.0000 0.01649  0.57431  0.68020  Biso   1.000  H
  C643     1.0000 0.00871  0.86940  0.97161  Biso   1.000  C
  H734     1.0000 0.05452  0.81960  0.92331  Biso   1.000  H
  H735     1.0000 0.07431  0.81980  0.98351  Biso   1.000  H
  C644     1.0000 0.99129  0.86940  0.02839  Biso   1.000  C
  H736     1.0000 0.94548  0.81960  0.07669  Biso   1.000  H
  H737     1.0000 0.92569  0.81980  0.01649  Biso   1.000  H
  C645     1.0000 0.68060  0.46060  0.95742  Biso   1.000  C
  H738     1.0000 0.73331  0.44661  0.02060  Biso   1.000  H
  C646     1.0000 0.63060  0.52839  0.00871  Biso   1.000  C
  H739     1.0000 0.68040  0.57669  0.05452  Biso   1.000  H
  H740     1.0000 0.68020  0.51649  0.07431  Biso   1.000  H
  C647     1.0000 0.97161  0.49129  0.63060  Biso   1.000  C
  H741     1.0000 0.92331  0.44548  0.68040  Biso   1.000  H
  H742     1.0000 0.98351  0.42569  0.68020  Biso   1.000  H
  H743     1.0000 0.03589  0.52960  0.59839  Biso   1.000  H
  H744     1.0000 0.05181  0.47730  0.63040  Biso   1.000  H
  H745     1.0000 0.97730  0.86960  0.94819  Biso   1.000  H
  H746     1.0000 0.02960  0.90161  0.96411  Biso   1.000  H
  H747     1.0000 0.02270  0.86960  0.05181  Biso   1.000  H
  H748     1.0000 0.97040  0.90161  0.03589  Biso   1.000  H
  C648     1.0000 0.63060  0.47161  0.99129  Biso   1.000  C
  H749     1.0000 0.68040  0.42331  0.94548  Biso   1.000  H
  H750     1.0000 0.68020  0.48351  0.92569  Biso   1.000  H
  H751     1.0000 0.63040  0.55181  0.97730  Biso   1.000  H
  H752     1.0000 0.59839  0.53589  0.02960  Biso   1.000  H
  H753     1.0000 0.96411  0.47040  0.59839  Biso   1.000  H
  H754     1.0000 0.94819  0.52270  0.63040  Biso   1.000  H
  H755     1.0000 0.59839  0.46411  0.97040  Biso   1.000  H
  H756     1.0000 0.63040  0.44819  0.02270  Biso   1.000  H
  C649     1.0000 0.12819  0.44633  0.11020  Biso   1.000  C
  C650     1.0000 0.14173  0.41548  0.06560  Biso   1.000  C
  C651     1.0000 0.08452  0.43440  0.14173  Biso   1.000  C
  H757     1.0000 0.14940  0.47601  0.11899  Biso   1.000  H
  C652     1.0000 0.11020  0.37181  0.05367  Biso   1.000  C
  C653     1.0000 0.18891  0.42851  0.03274  Biso   1.000  C
  C654     1.0000 0.05367  0.38980  0.12819  Biso   1.000  C
  C655     1.0000 0.07149  0.46726  0.18891  Biso   1.000  C
  C656     1.0000 0.06560  0.35827  0.08452  Biso   1.000  C
  H758     1.0000 0.11899  0.35060  0.02399  Biso   1.000  H
  N109     1.0000 0.22218  0.46355  0.04496  Biso   1.000  N
  H759     1.0000 0.19411  0.40940  0.00089  Biso   1.000  H
  H760     1.0000 0.02399  0.38101  0.14940  Biso   1.000  H
  N110     1.0000 0.03645  0.45504  0.22218  Biso   1.000  N
  H761     1.0000 0.09060  0.49911  0.19411  Biso   1.000  H
  C657     1.0000 0.03274  0.31109  0.07149  Biso   1.000  C
  C658     1.0000 0.26859  0.47149  0.01000  Biso   1.000  C
  C659     1.0000 0.02851  0.49000  0.26859  Biso   1.000  C
  N111     1.0000 0.04496  0.27782  0.03645  Biso   1.000  N
  H762     1.0000 0.00089  0.30589  0.09060  Biso   1.000  H
  C660     1.0000 0.31940  0.46060  0.04258  Biso   1.000  C
  C661     1.0000 0.26859  0.52851  0.99000  Biso   1.000  C
  H763     1.0000 0.26669  0.44661  0.97940  Biso   1.000  H
  C662     1.0000 0.03940  0.45742  0.31940  Biso   1.000  C
  H764     1.0000 0.05339  0.52060  0.26669  Biso   1.000  H
  C663     1.0000 0.97149  0.51000  0.26859  Biso   1.000  C
  C664     1.0000 0.01000  0.23141  0.02851  Biso   1.000  C
  C665     1.0000 0.36940  0.47161  0.00871  Biso   1.000  C
  H765     1.0000 0.31960  0.42331  0.05452  Biso   1.000  H
  H766     1.0000 0.31980  0.48351  0.07431  Biso   1.000  H
  H767     1.0000 0.26669  0.55339  0.02060  Biso   1.000  H
  N112     1.0000 0.22218  0.53645  0.95504  Biso   1.000  N
  C666     1.0000 0.31940  0.53940  0.95742  Biso   1.000  C
  C667     1.0000 0.02839  0.49129  0.36940  Biso   1.000  C
  H768     1.0000 0.07669  0.44548  0.31960  Biso   1.000  H
  H769     1.0000 0.01649  0.42569  0.31980  Biso   1.000  H
  N113     1.0000 0.96355  0.54496  0.22218  Biso   1.000  N
  C668     1.0000 0.96060  0.54258  0.31940  Biso   1.000  C
  H770     1.0000 0.94661  0.47940  0.26669  Biso   1.000  H
  C669     1.0000 0.04258  0.18060  0.03940  Biso   1.000  C
  C670     1.0000 0.99000  0.23141  0.97149  Biso   1.000  C
  H771     1.0000 0.97940  0.23331  0.05339  Biso   1.000  H
  H772     1.0000 0.40161  0.46411  0.02960  Biso   1.000  H
  C671     1.0000 0.36940  0.52839  0.99129  Biso   1.000  C
  H773     1.0000 0.36960  0.44819  0.97730  Biso   1.000  H
  C672     1.0000 0.18891  0.57149  0.96726  Biso   1.000  C
  H774     1.0000 0.31960  0.57669  0.94548  Biso   1.000  H
  H775     1.0000 0.31980  0.51649  0.92569  Biso   1.000  H
  H776     1.0000 0.03589  0.47040  0.40161  Biso   1.000  H
  H777     1.0000 0.05181  0.52270  0.36960  Biso   1.000  H
  C673     1.0000 0.97161  0.50871  0.36940  Biso   1.000  C
  C674     1.0000 0.92851  0.53274  0.18891  Biso   1.000  C
  H778     1.0000 0.92331  0.55452  0.31960  Biso   1.000  H
  H779     1.0000 0.98351  0.57431  0.31980  Biso   1.000  H
  C675     1.0000 0.00871  0.13060  0.02839  Biso   1.000  C
  H780     1.0000 0.05452  0.18040  0.07669  Biso   1.000  H
  H781     1.0000 0.07431  0.18020  0.01649  Biso   1.000  H
  N114     1.0000 0.95504  0.27782  0.96355  Biso   1.000  N
  C676     1.0000 0.95742  0.18060  0.96060  Biso   1.000  C
  H782     1.0000 0.02060  0.23331  0.94661  Biso   1.000  H
  H783     1.0000 0.36960  0.55181  0.02270  Biso   1.000  H
  H784     1.0000 0.40161  0.53589  0.97040  Biso   1.000  H
  C677     1.0000 0.14173  0.58452  0.93440  Biso   1.000  C
  H785     1.0000 0.19411  0.59060  0.99911  Biso   1.000  H
  H786     1.0000 0.96411  0.52960  0.40161  Biso   1.000  H
  H787     1.0000 0.94819  0.47730  0.36960  Biso   1.000  H
  C678     1.0000 0.91548  0.56560  0.14173  Biso   1.000  C
  H788     1.0000 0.90940  0.50089  0.19411  Biso   1.000  H
  H789     1.0000 0.02960  0.09839  0.03589  Biso   1.000  H
  C679     1.0000 0.99129  0.13060  0.97161  Biso   1.000  C
  H790     1.0000 0.97730  0.13040  0.05181  Biso   1.000  H
  C680     1.0000 0.96726  0.31109  0.92851  Biso   1.000  C
  H791     1.0000 0.94548  0.18040  0.92331  Biso   1.000  H
  H792     1.0000 0.92569  0.18020  0.98351  Biso   1.000  H
  C681     1.0000 0.12819  0.55367  0.88980  Biso   1.000  C
  C682     1.0000 0.11020  0.62819  0.94633  Biso   1.000  C
  C683     1.0000 0.94633  0.61020  0.12819  Biso   1.000  C
  C684     1.0000 0.87181  0.55367  0.11020  Biso   1.000  C
  H793     1.0000 0.97040  0.09839  0.96411  Biso   1.000  H
  H794     1.0000 0.02270  0.13040  0.94819  Biso   1.000  H
  C685     1.0000 0.93440  0.35827  0.91548  Biso   1.000  C
  H795     1.0000 0.99911  0.30589  0.90940  Biso   1.000  H
  C686     1.0000 0.08452  0.56560  0.85827  Biso   1.000  C
  H796     1.0000 0.14940  0.52399  0.88101  Biso   1.000  H
  C687     1.0000 0.06560  0.64173  0.91548  Biso   1.000  C
  H797     1.0000 0.11899  0.64940  0.97601  Biso   1.000  H
  C688     1.0000 0.93440  0.64173  0.08452  Biso   1.000  C
  H798     1.0000 0.97601  0.61899  0.14940  Biso   1.000  H
  C689     1.0000 0.85827  0.58452  0.06560  Biso   1.000  C
  H799     1.0000 0.85060  0.52399  0.11899  Biso   1.000  H
  C690     1.0000 0.88980  0.37181  0.94633  Biso   1.000  C
  C691     1.0000 0.94633  0.38980  0.87181  Biso   1.000  C
  C692     1.0000 0.05367  0.61020  0.87181  Biso   1.000  C
  C693     1.0000 0.07149  0.53274  0.81109  Biso   1.000  C
  C694     1.0000 0.03274  0.68891  0.92851  Biso   1.000  C
  C695     1.0000 0.88980  0.62819  0.05367  Biso   1.000  C
  C696     1.0000 0.96726  0.68891  0.07149  Biso   1.000  C
  C697     1.0000 0.81109  0.57149  0.03274  Biso   1.000  C
  C698     1.0000 0.85827  0.41548  0.93440  Biso   1.000  C
  H800     1.0000 0.88101  0.35060  0.97601  Biso   1.000  H
  C699     1.0000 0.91548  0.43440  0.85827  Biso   1.000  C
  H801     1.0000 0.97601  0.38101  0.85060  Biso   1.000  H
  H802     1.0000 0.02399  0.61899  0.85060  Biso   1.000  H
  N115     1.0000 0.03645  0.54496  0.77782  Biso   1.000  N
  H803     1.0000 0.09060  0.50089  0.80589  Biso   1.000  H
  N116     1.0000 0.04496  0.72218  0.96355  Biso   1.000  N
  H804     1.0000 0.00089  0.69411  0.90940  Biso   1.000  H
  H805     1.0000 0.88101  0.64940  0.02399  Biso   1.000  H
  N117     1.0000 0.95504  0.72218  0.03645  Biso   1.000  N
  H806     1.0000 0.99911  0.69411  0.09060  Biso   1.000  H
  N118     1.0000 0.77782  0.53645  0.04496  Biso   1.000  N
  H807     1.0000 0.80589  0.59060  0.00089  Biso   1.000  H
  C700     1.0000 0.87181  0.44633  0.88980  Biso   1.000  C
  C701     1.0000 0.81109  0.42851  0.96726  Biso   1.000  C
  C702     1.0000 0.92851  0.46726  0.81109  Biso   1.000  C
  C703     1.0000 0.02851  0.51000  0.73141  Biso   1.000  C
  C704     1.0000 0.01000  0.76859  0.97149  Biso   1.000  C
  C705     1.0000 0.99000  0.76859  0.02851  Biso   1.000  C
  C706     1.0000 0.73141  0.52851  0.01000  Biso   1.000  C
  H808     1.0000 0.85060  0.47601  0.88101  Biso   1.000  H
  N119     1.0000 0.77782  0.46355  0.95504  Biso   1.000  N
  H809     1.0000 0.80589  0.40940  0.99911  Biso   1.000  H
  N120     1.0000 0.96355  0.45504  0.77782  Biso   1.000  N
  H810     1.0000 0.90940  0.49911  0.80589  Biso   1.000  H
  C707     1.0000 0.97149  0.49000  0.73141  Biso   1.000  C
  C708     1.0000 0.03940  0.54258  0.68060  Biso   1.000  C
  H811     1.0000 0.05339  0.47940  0.73331  Biso   1.000  H
  H812     1.0000 0.97940  0.76669  0.94661  Biso   1.000  H
  C709     1.0000 0.04258  0.81940  0.96060  Biso   1.000  C
  H813     1.0000 0.02060  0.76669  0.05339  Biso   1.000  H
  C710     1.0000 0.95742  0.81940  0.03940  Biso   1.000  C
  C711     1.0000 0.73141  0.47149  0.99000  Biso   1.000  C
  H814     1.0000 0.73331  0.55339  0.97940  Biso   1.000  H
  C712     1.0000 0.68060  0.53940  0.04258  Biso   1.000  C
  C713     1.0000 0.96060  0.45742  0.68060  Biso   1.000  C
  H815     1.0000 0.94661  0.52060  0.73331  Biso   1.000  H
  C714     1.0000 0.02839  0.50871  0.63060  Biso   1.000  C
  H816     1.0000 0.07669  0.55452  0.68040  Biso   1.000  H
  H817     1.0000 0.01649  0.57431  0.68020  Biso   1.000  H
  C715     1.0000 0.00871  0.86940  0.97161  Biso   1.000  C
  H818     1.0000 0.05452  0.81960  0.92331  Biso   1.000  H
  H819     1.0000 0.07431  0.81980  0.98351  Biso   1.000  H
  C716     1.0000 0.99129  0.86940  0.02839  Biso   1.000  C
  H820     1.0000 0.94548  0.81960  0.07669  Biso   1.000  H
  H821     1.0000 0.92569  0.81980  0.01649  Biso   1.000  H
  C717     1.0000 0.68060  0.46060  0.95742  Biso   1.000  C
  H822     1.0000 0.73331  0.44661  0.02060  Biso   1.000  H
  C718     1.0000 0.63060  0.52839  0.00871  Biso   1.000  C
  H823     1.0000 0.68040  0.57669  0.05452  Biso   1.000  H
  H824     1.0000 0.68020  0.51649  0.07431  Biso   1.000  H
  C719     1.0000 0.97161  0.49129  0.63060  Biso   1.000  C
  H825     1.0000 0.92331  0.44548  0.68040  Biso   1.000  H
  H826     1.0000 0.98351  0.42569  0.68020  Biso   1.000  H
  H827     1.0000 0.03589  0.52960  0.59839  Biso   1.000  H
  H828     1.0000 0.05181  0.47730  0.63040  Biso   1.000  H
  H829     1.0000 0.97730  0.86960  0.94819  Biso   1.000  H
  H830     1.0000 0.02960  0.90161  0.96411  Biso   1.000  H
  H831     1.0000 0.02270  0.86960  0.05181  Biso   1.000  H
  H832     1.0000 0.97040  0.90161  0.03589  Biso   1.000  H
  C720     1.0000 0.63060  0.47161  0.99129  Biso   1.000  C
  H833     1.0000 0.68040  0.42331  0.94548  Biso   1.000  H
  H834     1.0000 0.68020  0.48351  0.92569  Biso   1.000  H
  H835     1.0000 0.63040  0.55181  0.97730  Biso   1.000  H
  H836     1.0000 0.59839  0.53589  0.02960  Biso   1.000  H
  H837     1.0000 0.96411  0.47040  0.59839  Biso   1.000  H
  H838     1.0000 0.94819  0.52270  0.63040  Biso   1.000  H
  H839     1.0000 0.59839  0.46411  0.97040  Biso   1.000  H
  H840     1.0000 0.63040  0.44819  0.02270  Biso   1.000  H
  C721     1.0000 0.12819  0.44633  0.11020  Biso   1.000  C
  C722     1.0000 0.14173  0.41548  0.06560  Biso   1.000  C
  C723     1.0000 0.08452  0.43440  0.14173  Biso   1.000  C
  H841     1.0000 0.14940  0.47601  0.11899  Biso   1.000  H
  C724     1.0000 0.11020  0.37181  0.05367  Biso   1.000  C
  C725     1.0000 0.18891  0.42851  0.03274  Biso   1.000  C
  C726     1.0000 0.05367  0.38980  0.12819  Biso   1.000  C
  C727     1.0000 0.07149  0.46726  0.18891  Biso   1.000  C
  C728     1.0000 0.06560  0.35827  0.08452  Biso   1.000  C
  H842     1.0000 0.11899  0.35060  0.02399  Biso   1.000  H
  N121     1.0000 0.22218  0.46355  0.04496  Biso   1.000  N
  H843     1.0000 0.19411  0.40940  0.00089  Biso   1.000  H
  H844     1.0000 0.02399  0.38101  0.14940  Biso   1.000  H
  N122     1.0000 0.03645  0.45504  0.22218  Biso   1.000  N
  H845     1.0000 0.09060  0.49911  0.19411  Biso   1.000  H
  C729     1.0000 0.03274  0.31109  0.07149  Biso   1.000  C
  C730     1.0000 0.26859  0.47149  0.01000  Biso   1.000  C
  C731     1.0000 0.02851  0.49000  0.26859  Biso   1.000  C
  N123     1.0000 0.04496  0.27782  0.03645  Biso   1.000  N
  H846     1.0000 0.00089  0.30589  0.09060  Biso   1.000  H
  C732     1.0000 0.31940  0.46060  0.04258  Biso   1.000  C
  C733     1.0000 0.26859  0.52851  0.99000  Biso   1.000  C
  H847     1.0000 0.26669  0.44661  0.97940  Biso   1.000  H
  C734     1.0000 0.03940  0.45742  0.31940  Biso   1.000  C
  H848     1.0000 0.05339  0.52060  0.26669  Biso   1.000  H
  C735     1.0000 0.97149  0.51000  0.26859  Biso   1.000  C
  C736     1.0000 0.01000  0.23141  0.02851  Biso   1.000  C
  C737     1.0000 0.36940  0.47161  0.00871  Biso   1.000  C
  H849     1.0000 0.31960  0.42331  0.05452  Biso   1.000  H
  H850     1.0000 0.31980  0.48351  0.07431  Biso   1.000  H
  H851     1.0000 0.26669  0.55339  0.02060  Biso   1.000  H
  N124     1.0000 0.22218  0.53645  0.95504  Biso   1.000  N
  C738     1.0000 0.31940  0.53940  0.95742  Biso   1.000  C
  C739     1.0000 0.02839  0.49129  0.36940  Biso   1.000  C
  H852     1.0000 0.07669  0.44548  0.31960  Biso   1.000  H
  H853     1.0000 0.01649  0.42569  0.31980  Biso   1.000  H
  N125     1.0000 0.96355  0.54496  0.22218  Biso   1.000  N
  C740     1.0000 0.96060  0.54258  0.31940  Biso   1.000  C
  H854     1.0000 0.94661  0.47940  0.26669  Biso   1.000  H
  C741     1.0000 0.04258  0.18060  0.03940  Biso   1.000  C
  C742     1.0000 0.99000  0.23141  0.97149  Biso   1.000  C
  H855     1.0000 0.97940  0.23331  0.05339  Biso   1.000  H
  H856     1.0000 0.40161  0.46411  0.02960  Biso   1.000  H
  C743     1.0000 0.36940  0.52839  0.99129  Biso   1.000  C
  H857     1.0000 0.36960  0.44819  0.97730  Biso   1.000  H
  C744     1.0000 0.18891  0.57149  0.96726  Biso   1.000  C
  H858     1.0000 0.31960  0.57669  0.94548  Biso   1.000  H
  H859     1.0000 0.31980  0.51649  0.92569  Biso   1.000  H
  H860     1.0000 0.03589  0.47040  0.40161  Biso   1.000  H
  H861     1.0000 0.05181  0.52270  0.36960  Biso   1.000  H
  C745     1.0000 0.97161  0.50871  0.36940  Biso   1.000  C
  C746     1.0000 0.92851  0.53274  0.18891  Biso   1.000  C
  H862     1.0000 0.92331  0.55452  0.31960  Biso   1.000  H
  H863     1.0000 0.98351  0.57431  0.31980  Biso   1.000  H
  C747     1.0000 0.00871  0.13060  0.02839  Biso   1.000  C
  H864     1.0000 0.05452  0.18040  0.07669  Biso   1.000  H
  H865     1.0000 0.07431  0.18020  0.01649  Biso   1.000  H
  N126     1.0000 0.95504  0.27782  0.96355  Biso   1.000  N
  C748     1.0000 0.95742  0.18060  0.96060  Biso   1.000  C
  H866     1.0000 0.02060  0.23331  0.94661  Biso   1.000  H
  H867     1.0000 0.36960  0.55181  0.02270  Biso   1.000  H
  H868     1.0000 0.40161  0.53589  0.97040  Biso   1.000  H
  C749     1.0000 0.14173  0.58452  0.93440  Biso   1.000  C
  H869     1.0000 0.19411  0.59060  0.99911  Biso   1.000  H
  H870     1.0000 0.96411  0.52960  0.40161  Biso   1.000  H
  H871     1.0000 0.94819  0.47730  0.36960  Biso   1.000  H
  C750     1.0000 0.91548  0.56560  0.14173  Biso   1.000  C
  H872     1.0000 0.90940  0.50089  0.19411  Biso   1.000  H
  H873     1.0000 0.02960  0.09839  0.03589  Biso   1.000  H
  C751     1.0000 0.99129  0.13060  0.97161  Biso   1.000  C
  H874     1.0000 0.97730  0.13040  0.05181  Biso   1.000  H
  C752     1.0000 0.96726  0.31109  0.92851  Biso   1.000  C
  H875     1.0000 0.94548  0.18040  0.92331  Biso   1.000  H
  H876     1.0000 0.92569  0.18020  0.98351  Biso   1.000  H
  C753     1.0000 0.12819  0.55367  0.88980  Biso   1.000  C
  C754     1.0000 0.11020  0.62819  0.94633  Biso   1.000  C
  C755     1.0000 0.94633  0.61020  0.12819  Biso   1.000  C
  C756     1.0000 0.87181  0.55367  0.11020  Biso   1.000  C
  H877     1.0000 0.97040  0.09839  0.96411  Biso   1.000  H
  H878     1.0000 0.02270  0.13040  0.94819  Biso   1.000  H
  C757     1.0000 0.93440  0.35827  0.91548  Biso   1.000  C
  H879     1.0000 0.99911  0.30589  0.90940  Biso   1.000  H
  C758     1.0000 0.08452  0.56560  0.85827  Biso   1.000  C
  H880     1.0000 0.14940  0.52399  0.88101  Biso   1.000  H
  C759     1.0000 0.06560  0.64173  0.91548  Biso   1.000  C
  H881     1.0000 0.11899  0.64940  0.97601  Biso   1.000  H
  C760     1.0000 0.93440  0.64173  0.08452  Biso   1.000  C
  H882     1.0000 0.97601  0.61899  0.14940  Biso   1.000  H
  C761     1.0000 0.85827  0.58452  0.06560  Biso   1.000  C
  H883     1.0000 0.85060  0.52399  0.11899  Biso   1.000  H
  C762     1.0000 0.88980  0.37181  0.94633  Biso   1.000  C
  C763     1.0000 0.94633  0.38980  0.87181  Biso   1.000  C
  C764     1.0000 0.05367  0.61020  0.87181  Biso   1.000  C
  C765     1.0000 0.07149  0.53274  0.81109  Biso   1.000  C
  C766     1.0000 0.03274  0.68891  0.92851  Biso   1.000  C
  C767     1.0000 0.88980  0.62819  0.05367  Biso   1.000  C
  C768     1.0000 0.96726  0.68891  0.07149  Biso   1.000  C
  C769     1.0000 0.81109  0.57149  0.03274  Biso   1.000  C
  C770     1.0000 0.85827  0.41548  0.93440  Biso   1.000  C
  H884     1.0000 0.88101  0.35060  0.97601  Biso   1.000  H
  C771     1.0000 0.91548  0.43440  0.85827  Biso   1.000  C
  H885     1.0000 0.97601  0.38101  0.85060  Biso   1.000  H
  H886     1.0000 0.02399  0.61899  0.85060  Biso   1.000  H
  N127     1.0000 0.03645  0.54496  0.77782  Biso   1.000  N
  H887     1.0000 0.09060  0.50089  0.80589  Biso   1.000  H
  N128     1.0000 0.04496  0.72218  0.96355  Biso   1.000  N
  H888     1.0000 0.00089  0.69411  0.90940  Biso   1.000  H
  H889     1.0000 0.88101  0.64940  0.02399  Biso   1.000  H
  N129     1.0000 0.95504  0.72218  0.03645  Biso   1.000  N
  H890     1.0000 0.99911  0.69411  0.09060  Biso   1.000  H
  N130     1.0000 0.77782  0.53645  0.04496  Biso   1.000  N
  H891     1.0000 0.80589  0.59060  0.00089  Biso   1.000  H
  C772     1.0000 0.87181  0.44633  0.88980  Biso   1.000  C
  C773     1.0000 0.81109  0.42851  0.96726  Biso   1.000  C
  C774     1.0000 0.92851  0.46726  0.81109  Biso   1.000  C
  C775     1.0000 0.02851  0.51000  0.73141  Biso   1.000  C
  C776     1.0000 0.01000  0.76859  0.97149  Biso   1.000  C
  C777     1.0000 0.99000  0.76859  0.02851  Biso   1.000  C
  C778     1.0000 0.73141  0.52851  0.01000  Biso   1.000  C
  H892     1.0000 0.85060  0.47601  0.88101  Biso   1.000  H
  N131     1.0000 0.77782  0.46355  0.95504  Biso   1.000  N
  H893     1.0000 0.80589  0.40940  0.99911  Biso   1.000  H
  N132     1.0000 0.96355  0.45504  0.77782  Biso   1.000  N
  H894     1.0000 0.90940  0.49911  0.80589  Biso   1.000  H
  C779     1.0000 0.97149  0.49000  0.73141  Biso   1.000  C
  C780     1.0000 0.03940  0.54258  0.68060  Biso   1.000  C
  H895     1.0000 0.05339  0.47940  0.73331  Biso   1.000  H
  H896     1.0000 0.97940  0.76669  0.94661  Biso   1.000  H
  C781     1.0000 0.04258  0.81940  0.96060  Biso   1.000  C
  H897     1.0000 0.02060  0.76669  0.05339  Biso   1.000  H
  C782     1.0000 0.95742  0.81940  0.03940  Biso   1.000  C
  C783     1.0000 0.73141  0.47149  0.99000  Biso   1.000  C
  H898     1.0000 0.73331  0.55339  0.97940  Biso   1.000  H
  C784     1.0000 0.68060  0.53940  0.04258  Biso   1.000  C
  C785     1.0000 0.96060  0.45742  0.68060  Biso   1.000  C
  H899     1.0000 0.94661  0.52060  0.73331  Biso   1.000  H
  C786     1.0000 0.02839  0.50871  0.63060  Biso   1.000  C
  H900     1.0000 0.07669  0.55452  0.68040  Biso   1.000  H
  H901     1.0000 0.01649  0.57431  0.68020  Biso   1.000  H
  C787     1.0000 0.00871  0.86940  0.97161  Biso   1.000  C
  H902     1.0000 0.05452  0.81960  0.92331  Biso   1.000  H
  H903     1.0000 0.07431  0.81980  0.98351  Biso   1.000  H
  C788     1.0000 0.99129  0.86940  0.02839  Biso   1.000  C
  H904     1.0000 0.94548  0.81960  0.07669  Biso   1.000  H
  H905     1.0000 0.92569  0.81980  0.01649  Biso   1.000  H
  C789     1.0000 0.68060  0.46060  0.95742  Biso   1.000  C
  H906     1.0000 0.73331  0.44661  0.02060  Biso   1.000  H
  C790     1.0000 0.63060  0.52839  0.00871  Biso   1.000  C
  H907     1.0000 0.68040  0.57669  0.05452  Biso   1.000  H
  H908     1.0000 0.68020  0.51649  0.07431  Biso   1.000  H
  C791     1.0000 0.97161  0.49129  0.63060  Biso   1.000  C
  H909     1.0000 0.92331  0.44548  0.68040  Biso   1.000  H
  H910     1.0000 0.98351  0.42569  0.68020  Biso   1.000  H
  H911     1.0000 0.03589  0.52960  0.59839  Biso   1.000  H
  H912     1.0000 0.05181  0.47730  0.63040  Biso   1.000  H
  H913     1.0000 0.97730  0.86960  0.94819  Biso   1.000  H
  H914     1.0000 0.02960  0.90161  0.96411  Biso   1.000  H
  H915     1.0000 0.02270  0.86960  0.05181  Biso   1.000  H
  H916     1.0000 0.97040  0.90161  0.03589  Biso   1.000  H
  C792     1.0000 0.63060  0.47161  0.99129  Biso   1.000  C
  H917     1.0000 0.68040  0.42331  0.94548  Biso   1.000  H
  H918     1.0000 0.68020  0.48351  0.92569  Biso   1.000  H
  H919     1.0000 0.63040  0.55181  0.97730  Biso   1.000  H
  H920     1.0000 0.59839  0.53589  0.02960  Biso   1.000  H
  H921     1.0000 0.96411  0.47040  0.59839  Biso   1.000  H
  H922     1.0000 0.94819  0.52270  0.63040  Biso   1.000  H
  H923     1.0000 0.59839  0.46411  0.97040  Biso   1.000  H
  H924     1.0000 0.63040  0.44819  0.02270  Biso   1.000  H
  C793     1.0000 0.12819  0.44633  0.11020  Biso   1.000  C
  C794     1.0000 0.14173  0.41548  0.06560  Biso   1.000  C
  C795     1.0000 0.08452  0.43440  0.14173  Biso   1.000  C
  H925     1.0000 0.14940  0.47601  0.11899  Biso   1.000  H
  C796     1.0000 0.11020  0.37181  0.05367  Biso   1.000  C
  C797     1.0000 0.18891  0.42851  0.03274  Biso   1.000  C
  C798     1.0000 0.05367  0.38980  0.12819  Biso   1.000  C
  C799     1.0000 0.07149  0.46726  0.18891  Biso   1.000  C
  C800     1.0000 0.06560  0.35827  0.08452  Biso   1.000  C
  H926     1.0000 0.11899  0.35060  0.02399  Biso   1.000  H
  N133     1.0000 0.22218  0.46355  0.04496  Biso   1.000  N
  H927     1.0000 0.19411  0.40940  0.00089  Biso   1.000  H
  H928     1.0000 0.02399  0.38101  0.14940  Biso   1.000  H
  N134     1.0000 0.03645  0.45504  0.22218  Biso   1.000  N
  H929     1.0000 0.09060  0.49911  0.19411  Biso   1.000  H
  C801     1.0000 0.03274  0.31109  0.07149  Biso   1.000  C
  C802     1.0000 0.26859  0.47149  0.01000  Biso   1.000  C
  C803     1.0000 0.02851  0.49000  0.26859  Biso   1.000  C
  N135     1.0000 0.04496  0.27782  0.03645  Biso   1.000  N
  H930     1.0000 0.00089  0.30589  0.09060  Biso   1.000  H
  C804     1.0000 0.31940  0.46060  0.04258  Biso   1.000  C
  C805     1.0000 0.26859  0.52851  0.99000  Biso   1.000  C
  H931     1.0000 0.26669  0.44661  0.97940  Biso   1.000  H
  C806     1.0000 0.03940  0.45742  0.31940  Biso   1.000  C
  H932     1.0000 0.05339  0.52060  0.26669  Biso   1.000  H
  C807     1.0000 0.97149  0.51000  0.26859  Biso   1.000  C
  C808     1.0000 0.01000  0.23141  0.02851  Biso   1.000  C
  C809     1.0000 0.36940  0.47161  0.00871  Biso   1.000  C
  H933     1.0000 0.31960  0.42331  0.05452  Biso   1.000  H
  H934     1.0000 0.31980  0.48351  0.07431  Biso   1.000  H
  H935     1.0000 0.26669  0.55339  0.02060  Biso   1.000  H
  N136     1.0000 0.22218  0.53645  0.95504  Biso   1.000  N
  C810     1.0000 0.31940  0.53940  0.95742  Biso   1.000  C
  C811     1.0000 0.02839  0.49129  0.36940  Biso   1.000  C
  H936     1.0000 0.07669  0.44548  0.31960  Biso   1.000  H
  H937     1.0000 0.01649  0.42569  0.31980  Biso   1.000  H
  N137     1.0000 0.96355  0.54496  0.22218  Biso   1.000  N
  C812     1.0000 0.96060  0.54258  0.31940  Biso   1.000  C
  H938     1.0000 0.94661  0.47940  0.26669  Biso   1.000  H
  C813     1.0000 0.04258  0.18060  0.03940  Biso   1.000  C
  C814     1.0000 0.99000  0.23141  0.97149  Biso   1.000  C
  H939     1.0000 0.97940  0.23331  0.05339  Biso   1.000  H
  H940     1.0000 0.40161  0.46411  0.02960  Biso   1.000  H
  C815     1.0000 0.36940  0.52839  0.99129  Biso   1.000  C
  H941     1.0000 0.36960  0.44819  0.97730  Biso   1.000  H
  C816     1.0000 0.18891  0.57149  0.96726  Biso   1.000  C
  H942     1.0000 0.31960  0.57669  0.94548  Biso   1.000  H
  H943     1.0000 0.31980  0.51649  0.92569  Biso   1.000  H
  H944     1.0000 0.03589  0.47040  0.40161  Biso   1.000  H
  H945     1.0000 0.05181  0.52270  0.36960  Biso   1.000  H
  C817     1.0000 0.97161  0.50871  0.36940  Biso   1.000  C
  C818     1.0000 0.92851  0.53274  0.18891  Biso   1.000  C
  H946     1.0000 0.92331  0.55452  0.31960  Biso   1.000  H
  H947     1.0000 0.98351  0.57431  0.31980  Biso   1.000  H
  C819     1.0000 0.00871  0.13060  0.02839  Biso   1.000  C
  H948     1.0000 0.05452  0.18040  0.07669  Biso   1.000  H
  H949     1.0000 0.07431  0.18020  0.01649  Biso   1.000  H
  N138     1.0000 0.95504  0.27782  0.96355  Biso   1.000  N
  C820     1.0000 0.95742  0.18060  0.96060  Biso   1.000  C
  H950     1.0000 0.02060  0.23331  0.94661  Biso   1.000  H
  H951     1.0000 0.36960  0.55181  0.02270  Biso   1.000  H
  H952     1.0000 0.40161  0.53589  0.97040  Biso   1.000  H
  C821     1.0000 0.14173  0.58452  0.93440  Biso   1.000  C
  H953     1.0000 0.19411  0.59060  0.99911  Biso   1.000  H
  H954     1.0000 0.96411  0.52960  0.40161  Biso   1.000  H
  H955     1.0000 0.94819  0.47730  0.36960  Biso   1.000  H
  C822     1.0000 0.91548  0.56560  0.14173  Biso   1.000  C
  H956     1.0000 0.90940  0.50089  0.19411  Biso   1.000  H
  H957     1.0000 0.02960  0.09839  0.03589  Biso   1.000  H
  C823     1.0000 0.99129  0.13060  0.97161  Biso   1.000  C
  H958     1.0000 0.97730  0.13040  0.05181  Biso   1.000  H
  C824     1.0000 0.96726  0.31109  0.92851  Biso   1.000  C
  H959     1.0000 0.94548  0.18040  0.92331  Biso   1.000  H
  H960     1.0000 0.92569  0.18020  0.98351  Biso   1.000  H
  C825     1.0000 0.12819  0.55367  0.88980  Biso   1.000  C
  C826     1.0000 0.11020  0.62819  0.94633  Biso   1.000  C
  C827     1.0000 0.94633  0.61020  0.12819  Biso   1.000  C
  C828     1.0000 0.87181  0.55367  0.11020  Biso   1.000  C
  H961     1.0000 0.97040  0.09839  0.96411  Biso   1.000  H
  H962     1.0000 0.02270  0.13040  0.94819  Biso   1.000  H
  C829     1.0000 0.93440  0.35827  0.91548  Biso   1.000  C
  H963     1.0000 0.99911  0.30589  0.90940  Biso   1.000  H
  C830     1.0000 0.08452  0.56560  0.85827  Biso   1.000  C
  H964     1.0000 0.14940  0.52399  0.88101  Biso   1.000  H
  C831     1.0000 0.06560  0.64173  0.91548  Biso   1.000  C
  H965     1.0000 0.11899  0.64940  0.97601  Biso   1.000  H
  C832     1.0000 0.93440  0.64173  0.08452  Biso   1.000  C
  H966     1.0000 0.97601  0.61899  0.14940  Biso   1.000  H
  C833     1.0000 0.85827  0.58452  0.06560  Biso   1.000  C
  H967     1.0000 0.85060  0.52399  0.11899  Biso   1.000  H
  C834     1.0000 0.88980  0.37181  0.94633  Biso   1.000  C
  C835     1.0000 0.94633  0.38980  0.87181  Biso   1.000  C
  C836     1.0000 0.05367  0.61020  0.87181  Biso   1.000  C
  C837     1.0000 0.07149  0.53274  0.81109  Biso   1.000  C
  C838     1.0000 0.03274  0.68891  0.92851  Biso   1.000  C
  C839     1.0000 0.88980  0.62819  0.05367  Biso   1.000  C
  C840     1.0000 0.96726  0.68891  0.07149  Biso   1.000  C
  C841     1.0000 0.81109  0.57149  0.03274  Biso   1.000  C
  C842     1.0000 0.85827  0.41548  0.93440  Biso   1.000  C
  H968     1.0000 0.88101  0.35060  0.97601  Biso   1.000  H
  C843     1.0000 0.91548  0.43440  0.85827  Biso   1.000  C
  H969     1.0000 0.97601  0.38101  0.85060  Biso   1.000  H
  H970     1.0000 0.02399  0.61899  0.85060  Biso   1.000  H
  N139     1.0000 0.03645  0.54496  0.77782  Biso   1.000  N
  H971     1.0000 0.09060  0.50089  0.80589  Biso   1.000  H
  N140     1.0000 0.04496  0.72218  0.96355  Biso   1.000  N
  H972     1.0000 0.00089  0.69411  0.90940  Biso   1.000  H
  H973     1.0000 0.88101  0.64940  0.02399  Biso   1.000  H
  N141     1.0000 0.95504  0.72218  0.03645  Biso   1.000  N
  H974     1.0000 0.99911  0.69411  0.09060  Biso   1.000  H
  N142     1.0000 0.77782  0.53645  0.04496  Biso   1.000  N
  H975     1.0000 0.80589  0.59060  0.00089  Biso   1.000  H
  C844     1.0000 0.87181  0.44633  0.88980  Biso   1.000  C
  C845     1.0000 0.81109  0.42851  0.96726  Biso   1.000  C
  C846     1.0000 0.92851  0.46726  0.81109  Biso   1.000  C
  C847     1.0000 0.02851  0.51000  0.73141  Biso   1.000  C
  C848     1.0000 0.01000  0.76859  0.97149  Biso   1.000  C
  C849     1.0000 0.99000  0.76859  0.02851  Biso   1.000  C
  C850     1.0000 0.73141  0.52851  0.01000  Biso   1.000  C
  H976     1.0000 0.85060  0.47601  0.88101  Biso   1.000  H
  N143     1.0000 0.77782  0.46355  0.95504  Biso   1.000  N
  H977     1.0000 0.80589  0.40940  0.99911  Biso   1.000  H
  N144     1.0000 0.96355  0.45504  0.77782  Biso   1.000  N
  H978     1.0000 0.90940  0.49911  0.80589  Biso   1.000  H
  C851     1.0000 0.97149  0.49000  0.73141  Biso   1.000  C
  C852     1.0000 0.03940  0.54258  0.68060  Biso   1.000  C
  H979     1.0000 0.05339  0.47940  0.73331  Biso   1.000  H
  H980     1.0000 0.97940  0.76669  0.94661  Biso   1.000  H
  C853     1.0000 0.04258  0.81940  0.96060  Biso   1.000  C
  H981     1.0000 0.02060  0.76669  0.05339  Biso   1.000  H
  C854     1.0000 0.95742  0.81940  0.03940  Biso   1.000  C
  C855     1.0000 0.73141  0.47149  0.99000  Biso   1.000  C
  H982     1.0000 0.73331  0.55339  0.97940  Biso   1.000  H
  C856     1.0000 0.68060  0.53940  0.04258  Biso   1.000  C
  C857     1.0000 0.96060  0.45742  0.68060  Biso   1.000  C
  H983     1.0000 0.94661  0.52060  0.73331  Biso   1.000  H
  C858     1.0000 0.02839  0.50871  0.63060  Biso   1.000  C
  H984     1.0000 0.07669  0.55452  0.68040  Biso   1.000  H
  H985     1.0000 0.01649  0.57431  0.68020  Biso   1.000  H
  C859     1.0000 0.00871  0.86940  0.97161  Biso   1.000  C
  H986     1.0000 0.05452  0.81960  0.92331  Biso   1.000  H
  H987     1.0000 0.07431  0.81980  0.98351  Biso   1.000  H
  C860     1.0000 0.99129  0.86940  0.02839  Biso   1.000  C
  H988     1.0000 0.94548  0.81960  0.07669  Biso   1.000  H
  H989     1.0000 0.92569  0.81980  0.01649  Biso   1.000  H
  C861     1.0000 0.68060  0.46060  0.95742  Biso   1.000  C
  H990     1.0000 0.73331  0.44661  0.02060  Biso   1.000  H
  C862     1.0000 0.63060  0.52839  0.00871  Biso   1.000  C
  H991     1.0000 0.68040  0.57669  0.05452  Biso   1.000  H
  H992     1.0000 0.68020  0.51649  0.07431  Biso   1.000  H
  C863     1.0000 0.97161  0.49129  0.63060  Biso   1.000  C
  H993     1.0000 0.92331  0.44548  0.68040  Biso   1.000  H
  H994     1.0000 0.98351  0.42569  0.68020  Biso   1.000  H
  H995     1.0000 0.03589  0.52960  0.59839  Biso   1.000  H
  H996     1.0000 0.05181  0.47730  0.63040  Biso   1.000  H
  H997     1.0000 0.97730  0.86960  0.94819  Biso   1.000  H
  H998     1.0000 0.02960  0.90161  0.96411  Biso   1.000  H
  H999     1.0000 0.02270  0.86960  0.05181  Biso   1.000  H
  H1000    1.0000 0.97040  0.90161  0.03589  Biso   1.000  H
  C864     1.0000 0.63060  0.47161  0.99129  Biso   1.000  C
  H1001    1.0000 0.68040  0.42331  0.94548  Biso   1.000  H
  H1002    1.0000 0.68020  0.48351  0.92569  Biso   1.000  H
  H1003    1.0000 0.63040  0.55181  0.97730  Biso   1.000  H
  H1004    1.0000 0.59839  0.53589  0.02960  Biso   1.000  H
  H1005    1.0000 0.96411  0.47040  0.59839  Biso   1.000  H
  H1006    1.0000 0.94819  0.52270  0.63040  Biso   1.000  H
  H1007    1.0000 0.59839  0.46411  0.97040  Biso   1.000  H
  H1008    1.0000 0.63040  0.44819  0.02270  Biso   1.000  H
  C865     1.0000 0.11020  0.12819  0.44633  Biso   1.000  C
  C866     1.0000 0.14173  0.08452  0.43440  Biso   1.000  C
  C867     1.0000 0.06560  0.14173  0.41548  Biso   1.000  C
  H1009    1.0000 0.11899  0.14940  0.47601  Biso   1.000  H
  C868     1.0000 0.12819  0.05367  0.38980  Biso   1.000  C
  C869     1.0000 0.18891  0.07149  0.46726  Biso   1.000  C
  C870     1.0000 0.05367  0.11020  0.37181  Biso   1.000  C
  C871     1.0000 0.03274  0.18891  0.42851  Biso   1.000  C
  C872     1.0000 0.08452  0.06560  0.35827  Biso   1.000  C
  H1010    1.0000 0.14940  0.02399  0.38101  Biso   1.000  H
  N145     1.0000 0.22218  0.03645  0.45504  Biso   1.000  N
  H1011    1.0000 0.19411  0.09060  0.49911  Biso   1.000  H
  H1012    1.0000 0.02399  0.11899  0.35060  Biso   1.000  H
  N146     1.0000 0.04496  0.22218  0.46355  Biso   1.000  N
  H1013    1.0000 0.00089  0.19411  0.40940  Biso   1.000  H
  C873     1.0000 0.07149  0.03274  0.31109  Biso   1.000  C
  C874     1.0000 0.26859  0.02851  0.49000  Biso   1.000  C
  C875     1.0000 0.01000  0.26859  0.47149  Biso   1.000  C
  N147     1.0000 0.03645  0.04496  0.27782  Biso   1.000  N
  H1014    1.0000 0.09060  0.00089  0.30589  Biso   1.000  H
  C876     1.0000 0.31940  0.03940  0.45742  Biso   1.000  C
  H1015    1.0000 0.26669  0.05339  0.52060  Biso   1.000  H
  C877     1.0000 0.26859  0.97149  0.51000  Biso   1.000  C
  C878     1.0000 0.04258  0.31940  0.46060  Biso   1.000  C
  C879     1.0000 0.99000  0.26859  0.52851  Biso   1.000  C
  H1016    1.0000 0.97940  0.26669  0.44661  Biso   1.000  H
  C880     1.0000 0.02851  0.01000  0.23141  Biso   1.000  C
  C881     1.0000 0.36940  0.02839  0.49129  Biso   1.000  C
  H1017    1.0000 0.31960  0.07669  0.44548  Biso   1.000  H
  H1018    1.0000 0.31980  0.01649  0.42569  Biso   1.000  H
  N148     1.0000 0.22218  0.96355  0.54496  Biso   1.000  N
  C882     1.0000 0.31940  0.96060  0.54258  Biso   1.000  C
  H1019    1.0000 0.26669  0.94661  0.47940  Biso   1.000  H
  C883     1.0000 0.00871  0.36940  0.47161  Biso   1.000  C
  H1020    1.0000 0.05452  0.31960  0.42331  Biso   1.000  H
  H1021    1.0000 0.07431  0.31980  0.48351  Biso   1.000  H
  H1022    1.0000 0.02060  0.26669  0.55339  Biso   1.000  H
  N149     1.0000 0.95504  0.22218  0.53645  Biso   1.000  N
  C884     1.0000 0.95742  0.31940  0.53940  Biso   1.000  C
  C885     1.0000 0.03940  0.04258  0.18060  Biso   1.000  C
  C886     1.0000 0.97149  0.99000  0.23141  Biso   1.000  C
  H1023    1.0000 0.05339  0.97940  0.23331  Biso   1.000  H
  H1024    1.0000 0.40161  0.03589  0.47040  Biso   1.000  H
  H1025    1.0000 0.36960  0.05181  0.52270  Biso   1.000  H
  C887     1.0000 0.36940  0.97161  0.50871  Biso   1.000  C
  C888     1.0000 0.18891  0.92851  0.53274  Biso   1.000  C
  H1026    1.0000 0.31960  0.92331  0.55452  Biso   1.000  H
  H1027    1.0000 0.31980  0.98351  0.57431  Biso   1.000  H
  H1028    1.0000 0.02960  0.40161  0.46411  Biso   1.000  H
  C889     1.0000 0.99129  0.36940  0.52839  Biso   1.000  C
  H1029    1.0000 0.97730  0.36960  0.44819  Biso   1.000  H
  C890     1.0000 0.96726  0.18891  0.57149  Biso   1.000  C
  H1030    1.0000 0.94548  0.31960  0.57669  Biso   1.000  H
  H1031    1.0000 0.92569  0.31980  0.51649  Biso   1.000  H
  C891     1.0000 0.02839  0.00871  0.13060  Biso   1.000  C
  H1032    1.0000 0.07669  0.05452  0.18040  Biso   1.000  H
  H1033    1.0000 0.01649  0.07431  0.18020  Biso   1.000  H
  N150     1.0000 0.96355  0.95504  0.27782  Biso   1.000  N
  C892     1.0000 0.96060  0.95742  0.18060  Biso   1.000  C
  H1034    1.0000 0.94661  0.02060  0.23331  Biso   1.000  H
  H1035    1.0000 0.40161  0.96411  0.52960  Biso   1.000  H
  H1036    1.0000 0.36960  0.94819  0.47730  Biso   1.000  H
  C893     1.0000 0.14173  0.91548  0.56560  Biso   1.000  C
  H1037    1.0000 0.19411  0.90940  0.50089  Biso   1.000  H
  H1038    1.0000 0.02270  0.36960  0.55181  Biso   1.000  H
  H1039    1.0000 0.97040  0.40161  0.53589  Biso   1.000  H
  C894     1.0000 0.93440  0.14173  0.58452  Biso   1.000  C
  H1040    1.0000 0.99911  0.19411  0.59060  Biso   1.000  H
  H1041    1.0000 0.03589  0.02960  0.09839  Biso   1.000  H
  C895     1.0000 0.97161  0.99129  0.13060  Biso   1.000  C
  H1042    1.0000 0.05181  0.97730  0.13040  Biso   1.000  H
  C896     1.0000 0.92851  0.96726  0.31109  Biso   1.000  C
  H1043    1.0000 0.92331  0.94548  0.18040  Biso   1.000  H
  H1044    1.0000 0.98351  0.92569  0.18020  Biso   1.000  H
  C897     1.0000 0.12819  0.94633  0.61020  Biso   1.000  C
  C898     1.0000 0.11020  0.87181  0.55367  Biso   1.000  C
  C899     1.0000 0.88980  0.12819  0.55367  Biso   1.000  C
  C900     1.0000 0.94633  0.11020  0.62819  Biso   1.000  C
  H1045    1.0000 0.96411  0.97040  0.09839  Biso   1.000  H
  H1046    1.0000 0.94819  0.02270  0.13040  Biso   1.000  H
  C901     1.0000 0.91548  0.93440  0.35827  Biso   1.000  C
  H1047    1.0000 0.90940  0.99911  0.30589  Biso   1.000  H
  C902     1.0000 0.08452  0.93440  0.64173  Biso   1.000  C
  H1048    1.0000 0.14940  0.97601  0.61899  Biso   1.000  H
  C903     1.0000 0.06560  0.85827  0.58452  Biso   1.000  C
  H1049    1.0000 0.11899  0.85060  0.52399  Biso   1.000  H
  C904     1.0000 0.85827  0.08452  0.56560  Biso   1.000  C
  H1050    1.0000 0.88101  0.14940  0.52399  Biso   1.000  H
  C905     1.0000 0.91548  0.06560  0.64173  Biso   1.000  C
  H1051    1.0000 0.97601  0.11899  0.64940  Biso   1.000  H
  C906     1.0000 0.94633  0.88980  0.37181  Biso   1.000  C
  C907     1.0000 0.87181  0.94633  0.38980  Biso   1.000  C
  C908     1.0000 0.05367  0.88980  0.62819  Biso   1.000  C
  C909     1.0000 0.07149  0.96726  0.68891  Biso   1.000  C
  C910     1.0000 0.03274  0.81109  0.57149  Biso   1.000  C
  C911     1.0000 0.87181  0.05367  0.61020  Biso   1.000  C
  C912     1.0000 0.81109  0.07149  0.53274  Biso   1.000  C
  C913     1.0000 0.92851  0.03274  0.68891  Biso   1.000  C
  C914     1.0000 0.93440  0.85827  0.41548  Biso   1.000  C
  H1052    1.0000 0.97601  0.88101  0.35060  Biso   1.000  H
  C915     1.0000 0.85827  0.91548  0.43440  Biso   1.000  C
  H1053    1.0000 0.85060  0.97601  0.38101  Biso   1.000  H
  H1054    1.0000 0.02399  0.88101  0.64940  Biso   1.000  H
  N151     1.0000 0.03645  0.95504  0.72218  Biso   1.000  N
  H1055    1.0000 0.09060  0.99911  0.69411  Biso   1.000  H
  N152     1.0000 0.04496  0.77782  0.53645  Biso   1.000  N
  H1056    1.0000 0.00089  0.80589  0.59060  Biso   1.000  H
  H1057    1.0000 0.85060  0.02399  0.61899  Biso   1.000  H
  N153     1.0000 0.77782  0.03645  0.54496  Biso   1.000  N
  H1058    1.0000 0.80589  0.09060  0.50089  Biso   1.000  H
  N154     1.0000 0.96355  0.04496  0.72218  Biso   1.000  N
  H1059    1.0000 0.90940  0.00089  0.69411  Biso   1.000  H
  C916     1.0000 0.88980  0.87181  0.44633  Biso   1.000  C
  C917     1.0000 0.96726  0.81109  0.42851  Biso   1.000  C
  C918     1.0000 0.81109  0.92851  0.46726  Biso   1.000  C
  C919     1.0000 0.02851  0.99000  0.76859  Biso   1.000  C
  C920     1.0000 0.01000  0.73141  0.52851  Biso   1.000  C
  C921     1.0000 0.73141  0.02851  0.51000  Biso   1.000  C
  C922     1.0000 0.97149  0.01000  0.76859  Biso   1.000  C
  H1060    1.0000 0.88101  0.85060  0.47601  Biso   1.000  H
  N155     1.0000 0.95504  0.77782  0.46355  Biso   1.000  N
  H1061    1.0000 0.99911  0.80589  0.40940  Biso   1.000  H
  N156     1.0000 0.77782  0.96355  0.45504  Biso   1.000  N
  H1062    1.0000 0.80589  0.90940  0.49911  Biso   1.000  H
  H1063    1.0000 0.05339  0.02060  0.76669  Biso   1.000  H
  C923     1.0000 0.03940  0.95742  0.81940  Biso   1.000  C
  C924     1.0000 0.99000  0.73141  0.47149  Biso   1.000  C
  H1064    1.0000 0.97940  0.73331  0.55339  Biso   1.000  H
  C925     1.0000 0.04258  0.68060  0.53940  Biso   1.000  C
  C926     1.0000 0.73141  0.97149  0.49000  Biso   1.000  C
  C927     1.0000 0.68060  0.03940  0.54258  Biso   1.000  C
  H1065    1.0000 0.73331  0.05339  0.47940  Biso   1.000  H
  H1066    1.0000 0.94661  0.97940  0.76669  Biso   1.000  H
  C928     1.0000 0.96060  0.04258  0.81940  Biso   1.000  C
  C929     1.0000 0.02839  0.99129  0.86940  Biso   1.000  C
  H1067    1.0000 0.07669  0.94548  0.81960  Biso   1.000  H
  H1068    1.0000 0.01649  0.92569  0.81980  Biso   1.000  H
  C930     1.0000 0.95742  0.68060  0.46060  Biso   1.000  C
  H1069    1.0000 0.02060  0.73331  0.44661  Biso   1.000  H
  C931     1.0000 0.00871  0.63060  0.52839  Biso   1.000  C
  H1070    1.0000 0.05452  0.68040  0.57669  Biso   1.000  H
  H1071    1.0000 0.07431  0.68020  0.51649  Biso   1.000  H
  C932     1.0000 0.68060  0.96060  0.45742  Biso   1.000  C
  H1072    1.0000 0.73331  0.94661  0.52060  Biso   1.000  H
  C933     1.0000 0.63060  0.02839  0.50871  Biso   1.000  C
  H1073    1.0000 0.68040  0.07669  0.55452  Biso   1.000  H
  H1074    1.0000 0.68020  0.01649  0.57431  Biso   1.000  H
  C934     1.0000 0.97161  0.00871  0.86940  Biso   1.000  C
  H1075    1.0000 0.92331  0.05452  0.81960  Biso   1.000  H
  H1076    1.0000 0.98351  0.07431  0.81980  Biso   1.000  H
  H1077    1.0000 0.05181  0.02270  0.86960  Biso   1.000  H
  H1078    1.0000 0.03589  0.97040  0.90161  Biso   1.000  H
  C935     1.0000 0.99129  0.63060  0.47161  Biso   1.000  C
  H1079    1.0000 0.94548  0.68040  0.42331  Biso   1.000  H
  H1080    1.0000 0.92569  0.68020  0.48351  Biso   1.000  H
  H1081    1.0000 0.97730  0.63040  0.55181  Biso   1.000  H
  H1082    1.0000 0.02960  0.59839  0.53589  Biso   1.000  H
  C936     1.0000 0.63060  0.97161  0.49129  Biso   1.000  C
  H1083    1.0000 0.68040  0.92331  0.44548  Biso   1.000  H
  H1084    1.0000 0.68020  0.98351  0.42569  Biso   1.000  H
  H1085    1.0000 0.59839  0.03589  0.52960  Biso   1.000  H
  H1086    1.0000 0.63040  0.05181  0.47730  Biso   1.000  H
  H1087    1.0000 0.94819  0.97730  0.86960  Biso   1.000  H
  H1088    1.0000 0.96411  0.02960  0.90161  Biso   1.000  H
  H1089    1.0000 0.97040  0.59839  0.46411  Biso   1.000  H
  H1090    1.0000 0.02270  0.63040  0.44819  Biso   1.000  H
  H1091    1.0000 0.59839  0.96411  0.47040  Biso   1.000  H
  H1092    1.0000 0.63040  0.94819  0.52270  Biso   1.000  H
  C937     1.0000 0.11020  0.12819  0.44633  Biso   1.000  C
  C938     1.0000 0.14173  0.08452  0.43440  Biso   1.000  C
  C939     1.0000 0.06560  0.14173  0.41548  Biso   1.000  C
  H1093    1.0000 0.11899  0.14940  0.47601  Biso   1.000  H
  C940     1.0000 0.12819  0.05367  0.38980  Biso   1.000  C
  C941     1.0000 0.18891  0.07149  0.46726  Biso   1.000  C
  C942     1.0000 0.05367  0.11020  0.37181  Biso   1.000  C
  C943     1.0000 0.03274  0.18891  0.42851  Biso   1.000  C
  C944     1.0000 0.08452  0.06560  0.35827  Biso   1.000  C
  H1094    1.0000 0.14940  0.02399  0.38101  Biso   1.000  H
  N157     1.0000 0.22218  0.03645  0.45504  Biso   1.000  N
  H1095    1.0000 0.19411  0.09060  0.49911  Biso   1.000  H
  H1096    1.0000 0.02399  0.11899  0.35060  Biso   1.000  H
  N158     1.0000 0.04496  0.22218  0.46355  Biso   1.000  N
  H1097    1.0000 0.00089  0.19411  0.40940  Biso   1.000  H
  C945     1.0000 0.07149  0.03274  0.31109  Biso   1.000  C
  C946     1.0000 0.26859  0.02851  0.49000  Biso   1.000  C
  C947     1.0000 0.01000  0.26859  0.47149  Biso   1.000  C
  N159     1.0000 0.03645  0.04496  0.27782  Biso   1.000  N
  H1098    1.0000 0.09060  0.00089  0.30589  Biso   1.000  H
  C948     1.0000 0.31940  0.03940  0.45742  Biso   1.000  C
  H1099    1.0000 0.26669  0.05339  0.52060  Biso   1.000  H
  C949     1.0000 0.26859  0.97149  0.51000  Biso   1.000  C
  C950     1.0000 0.04258  0.31940  0.46060  Biso   1.000  C
  C951     1.0000 0.99000  0.26859  0.52851  Biso   1.000  C
  H1100    1.0000 0.97940  0.26669  0.44661  Biso   1.000  H
  C952     1.0000 0.02851  0.01000  0.23141  Biso   1.000  C
  C953     1.0000 0.36940  0.02839  0.49129  Biso   1.000  C
  H1101    1.0000 0.31960  0.07669  0.44548  Biso   1.000  H
  H1102    1.0000 0.31980  0.01649  0.42569  Biso   1.000  H
  N160     1.0000 0.22218  0.96355  0.54496  Biso   1.000  N
  C954     1.0000 0.31940  0.96060  0.54258  Biso   1.000  C
  H1103    1.0000 0.26669  0.94661  0.47940  Biso   1.000  H
  C955     1.0000 0.00871  0.36940  0.47161  Biso   1.000  C
  H1104    1.0000 0.05452  0.31960  0.42331  Biso   1.000  H
  H1105    1.0000 0.07431  0.31980  0.48351  Biso   1.000  H
  H1106    1.0000 0.02060  0.26669  0.55339  Biso   1.000  H
  N161     1.0000 0.95504  0.22218  0.53645  Biso   1.000  N
  C956     1.0000 0.95742  0.31940  0.53940  Biso   1.000  C
  C957     1.0000 0.03940  0.04258  0.18060  Biso   1.000  C
  C958     1.0000 0.97149  0.99000  0.23141  Biso   1.000  C
  H1107    1.0000 0.05339  0.97940  0.23331  Biso   1.000  H
  H1108    1.0000 0.40161  0.03589  0.47040  Biso   1.000  H
  H1109    1.0000 0.36960  0.05181  0.52270  Biso   1.000  H
  C959     1.0000 0.36940  0.97161  0.50871  Biso   1.000  C
  C960     1.0000 0.18891  0.92851  0.53274  Biso   1.000  C
  H1110    1.0000 0.31960  0.92331  0.55452  Biso   1.000  H
  H1111    1.0000 0.31980  0.98351  0.57431  Biso   1.000  H
  H1112    1.0000 0.02960  0.40161  0.46411  Biso   1.000  H
  C961     1.0000 0.99129  0.36940  0.52839  Biso   1.000  C
  H1113    1.0000 0.97730  0.36960  0.44819  Biso   1.000  H
  C962     1.0000 0.96726  0.18891  0.57149  Biso   1.000  C
  H1114    1.0000 0.94548  0.31960  0.57669  Biso   1.000  H
  H1115    1.0000 0.92569  0.31980  0.51649  Biso   1.000  H
  C963     1.0000 0.02839  0.00871  0.13060  Biso   1.000  C
  H1116    1.0000 0.07669  0.05452  0.18040  Biso   1.000  H
  H1117    1.0000 0.01649  0.07431  0.18020  Biso   1.000  H
  N162     1.0000 0.96355  0.95504  0.27782  Biso   1.000  N
  C964     1.0000 0.96060  0.95742  0.18060  Biso   1.000  C
  H1118    1.0000 0.94661  0.02060  0.23331  Biso   1.000  H
  H1119    1.0000 0.40161  0.96411  0.52960  Biso   1.000  H
  H1120    1.0000 0.36960  0.94819  0.47730  Biso   1.000  H
  C965     1.0000 0.14173  0.91548  0.56560  Biso   1.000  C
  H1121    1.0000 0.19411  0.90940  0.50089  Biso   1.000  H
  H1122    1.0000 0.02270  0.36960  0.55181  Biso   1.000  H
  H1123    1.0000 0.97040  0.40161  0.53589  Biso   1.000  H
  C966     1.0000 0.93440  0.14173  0.58452  Biso   1.000  C
  H1124    1.0000 0.99911  0.19411  0.59060  Biso   1.000  H
  H1125    1.0000 0.03589  0.02960  0.09839  Biso   1.000  H
  C967     1.0000 0.97161  0.99129  0.13060  Biso   1.000  C
  H1126    1.0000 0.05181  0.97730  0.13040  Biso   1.000  H
  C968     1.0000 0.92851  0.96726  0.31109  Biso   1.000  C
  H1127    1.0000 0.92331  0.94548  0.18040  Biso   1.000  H
  H1128    1.0000 0.98351  0.92569  0.18020  Biso   1.000  H
  C969     1.0000 0.12819  0.94633  0.61020  Biso   1.000  C
  C970     1.0000 0.11020  0.87181  0.55367  Biso   1.000  C
  C971     1.0000 0.88980  0.12819  0.55367  Biso   1.000  C
  C972     1.0000 0.94633  0.11020  0.62819  Biso   1.000  C
  H1129    1.0000 0.96411  0.97040  0.09839  Biso   1.000  H
  H1130    1.0000 0.94819  0.02270  0.13040  Biso   1.000  H
  C973     1.0000 0.91548  0.93440  0.35827  Biso   1.000  C
  H1131    1.0000 0.90940  0.99911  0.30589  Biso   1.000  H
  C974     1.0000 0.08452  0.93440  0.64173  Biso   1.000  C
  H1132    1.0000 0.14940  0.97601  0.61899  Biso   1.000  H
  C975     1.0000 0.06560  0.85827  0.58452  Biso   1.000  C
  H1133    1.0000 0.11899  0.85060  0.52399  Biso   1.000  H
  C976     1.0000 0.85827  0.08452  0.56560  Biso   1.000  C
  H1134    1.0000 0.88101  0.14940  0.52399  Biso   1.000  H
  C977     1.0000 0.91548  0.06560  0.64173  Biso   1.000  C
  H1135    1.0000 0.97601  0.11899  0.64940  Biso   1.000  H
  C978     1.0000 0.94633  0.88980  0.37181  Biso   1.000  C
  C979     1.0000 0.87181  0.94633  0.38980  Biso   1.000  C
  C980     1.0000 0.05367  0.88980  0.62819  Biso   1.000  C
  C981     1.0000 0.07149  0.96726  0.68891  Biso   1.000  C
  C982     1.0000 0.03274  0.81109  0.57149  Biso   1.000  C
  C983     1.0000 0.87181  0.05367  0.61020  Biso   1.000  C
  C984     1.0000 0.81109  0.07149  0.53274  Biso   1.000  C
  C985     1.0000 0.92851  0.03274  0.68891  Biso   1.000  C
  C986     1.0000 0.93440  0.85827  0.41548  Biso   1.000  C
  H1136    1.0000 0.97601  0.88101  0.35060  Biso   1.000  H
  C987     1.0000 0.85827  0.91548  0.43440  Biso   1.000  C
  H1137    1.0000 0.85060  0.97601  0.38101  Biso   1.000  H
  H1138    1.0000 0.02399  0.88101  0.64940  Biso   1.000  H
  N163     1.0000 0.03645  0.95504  0.72218  Biso   1.000  N
  H1139    1.0000 0.09060  0.99911  0.69411  Biso   1.000  H
  N164     1.0000 0.04496  0.77782  0.53645  Biso   1.000  N
  H1140    1.0000 0.00089  0.80589  0.59060  Biso   1.000  H
  H1141    1.0000 0.85060  0.02399  0.61899  Biso   1.000  H
  N165     1.0000 0.77782  0.03645  0.54496  Biso   1.000  N
  H1142    1.0000 0.80589  0.09060  0.50089  Biso   1.000  H
  N166     1.0000 0.96355  0.04496  0.72218  Biso   1.000  N
  H1143    1.0000 0.90940  0.00089  0.69411  Biso   1.000  H
  C988     1.0000 0.88980  0.87181  0.44633  Biso   1.000  C
  C989     1.0000 0.96726  0.81109  0.42851  Biso   1.000  C
  C990     1.0000 0.81109  0.92851  0.46726  Biso   1.000  C
  C991     1.0000 0.02851  0.99000  0.76859  Biso   1.000  C
  C992     1.0000 0.01000  0.73141  0.52851  Biso   1.000  C
  C993     1.0000 0.73141  0.02851  0.51000  Biso   1.000  C
  C994     1.0000 0.97149  0.01000  0.76859  Biso   1.000  C
  H1144    1.0000 0.88101  0.85060  0.47601  Biso   1.000  H
  N167     1.0000 0.95504  0.77782  0.46355  Biso   1.000  N
  H1145    1.0000 0.99911  0.80589  0.40940  Biso   1.000  H
  N168     1.0000 0.77782  0.96355  0.45504  Biso   1.000  N
  H1146    1.0000 0.80589  0.90940  0.49911  Biso   1.000  H
  H1147    1.0000 0.05339  0.02060  0.76669  Biso   1.000  H
  C995     1.0000 0.03940  0.95742  0.81940  Biso   1.000  C
  C996     1.0000 0.99000  0.73141  0.47149  Biso   1.000  C
  H1148    1.0000 0.97940  0.73331  0.55339  Biso   1.000  H
  C997     1.0000 0.04258  0.68060  0.53940  Biso   1.000  C
  C998     1.0000 0.73141  0.97149  0.49000  Biso   1.000  C
  C999     1.0000 0.68060  0.03940  0.54258  Biso   1.000  C
  H1149    1.0000 0.73331  0.05339  0.47940  Biso   1.000  H
  H1150    1.0000 0.94661  0.97940  0.76669  Biso   1.000  H
  C1000    1.0000 0.96060  0.04258  0.81940  Biso   1.000  C
  C1001    1.0000 0.02839  0.99129  0.86940  Biso   1.000  C
  H1151    1.0000 0.07669  0.94548  0.81960  Biso   1.000  H
  H1152    1.0000 0.01649  0.92569  0.81980  Biso   1.000  H
  C1002    1.0000 0.95742  0.68060  0.46060  Biso   1.000  C
  H1153    1.0000 0.02060  0.73331  0.44661  Biso   1.000  H
  C1003    1.0000 0.00871  0.63060  0.52839  Biso   1.000  C
  H1154    1.0000 0.05452  0.68040  0.57669  Biso   1.000  H
  H1155    1.0000 0.07431  0.68020  0.51649  Biso   1.000  H
  C1004    1.0000 0.68060  0.96060  0.45742  Biso   1.000  C
  H1156    1.0000 0.73331  0.94661  0.52060  Biso   1.000  H
  C1005    1.0000 0.63060  0.02839  0.50871  Biso   1.000  C
  H1157    1.0000 0.68040  0.07669  0.55452  Biso   1.000  H
  H1158    1.0000 0.68020  0.01649  0.57431  Biso   1.000  H
  C1006    1.0000 0.97161  0.00871  0.86940  Biso   1.000  C
  H1159    1.0000 0.92331  0.05452  0.81960  Biso   1.000  H
  H1160    1.0000 0.98351  0.07431  0.81980  Biso   1.000  H
  H1161    1.0000 0.05181  0.02270  0.86960  Biso   1.000  H
  H1162    1.0000 0.03589  0.97040  0.90161  Biso   1.000  H
  C1007    1.0000 0.99129  0.63060  0.47161  Biso   1.000  C
  H1163    1.0000 0.94548  0.68040  0.42331  Biso   1.000  H
  H1164    1.0000 0.92569  0.68020  0.48351  Biso   1.000  H
  H1165    1.0000 0.97730  0.63040  0.55181  Biso   1.000  H
  H1166    1.0000 0.02960  0.59839  0.53589  Biso   1.000  H
  C1008    1.0000 0.63060  0.97161  0.49129  Biso   1.000  C
  H1167    1.0000 0.68040  0.92331  0.44548  Biso   1.000  H
  H1168    1.0000 0.68020  0.98351  0.42569  Biso   1.000  H
  H1169    1.0000 0.59839  0.03589  0.52960  Biso   1.000  H
  H1170    1.0000 0.63040  0.05181  0.47730  Biso   1.000  H
  H1171    1.0000 0.94819  0.97730  0.86960  Biso   1.000  H
  H1172    1.0000 0.96411  0.02960  0.90161  Biso   1.000  H
  H1173    1.0000 0.97040  0.59839  0.46411  Biso   1.000  H
  H1174    1.0000 0.02270  0.63040  0.44819  Biso   1.000  H
  H1175    1.0000 0.59839  0.96411  0.47040  Biso   1.000  H
  H1176    1.0000 0.63040  0.94819  0.52270  Biso   1.000  H
  C1009    1.0000 0.11020  0.12819  0.44633  Biso   1.000  C
  C1010    1.0000 0.14173  0.08452  0.43440  Biso   1.000  C
  C1011    1.0000 0.06560  0.14173  0.41548  Biso   1.000  C
  H1177    1.0000 0.11899  0.14940  0.47601  Biso   1.000  H
  C1012    1.0000 0.12819  0.05367  0.38980  Biso   1.000  C
  C1013    1.0000 0.18891  0.07149  0.46726  Biso   1.000  C
  C1014    1.0000 0.05367  0.11020  0.37181  Biso   1.000  C
  C1015    1.0000 0.03274  0.18891  0.42851  Biso   1.000  C
  C1016    1.0000 0.08452  0.06560  0.35827  Biso   1.000  C
  H1178    1.0000 0.14940  0.02399  0.38101  Biso   1.000  H
  N169     1.0000 0.22218  0.03645  0.45504  Biso   1.000  N
  H1179    1.0000 0.19411  0.09060  0.49911  Biso   1.000  H
  H1180    1.0000 0.02399  0.11899  0.35060  Biso   1.000  H
  N170     1.0000 0.04496  0.22218  0.46355  Biso   1.000  N
  H1181    1.0000 0.00089  0.19411  0.40940  Biso   1.000  H
  C1017    1.0000 0.07149  0.03274  0.31109  Biso   1.000  C
  C1018    1.0000 0.26859  0.02851  0.49000  Biso   1.000  C
  C1019    1.0000 0.01000  0.26859  0.47149  Biso   1.000  C
  N171     1.0000 0.03645  0.04496  0.27782  Biso   1.000  N
  H1182    1.0000 0.09060  0.00089  0.30589  Biso   1.000  H
  C1020    1.0000 0.31940  0.03940  0.45742  Biso   1.000  C
  H1183    1.0000 0.26669  0.05339  0.52060  Biso   1.000  H
  C1021    1.0000 0.26859  0.97149  0.51000  Biso   1.000  C
  C1022    1.0000 0.04258  0.31940  0.46060  Biso   1.000  C
  C1023    1.0000 0.99000  0.26859  0.52851  Biso   1.000  C
  H1184    1.0000 0.97940  0.26669  0.44661  Biso   1.000  H
  C1024    1.0000 0.02851  0.01000  0.23141  Biso   1.000  C
  C1025    1.0000 0.36940  0.02839  0.49129  Biso   1.000  C
  H1185    1.0000 0.31960  0.07669  0.44548  Biso   1.000  H
  H1186    1.0000 0.31980  0.01649  0.42569  Biso   1.000  H
  N172     1.0000 0.22218  0.96355  0.54496  Biso   1.000  N
  C1026    1.0000 0.31940  0.96060  0.54258  Biso   1.000  C
  H1187    1.0000 0.26669  0.94661  0.47940  Biso   1.000  H
  C1027    1.0000 0.00871  0.36940  0.47161  Biso   1.000  C
  H1188    1.0000 0.05452  0.31960  0.42331  Biso   1.000  H
  H1189    1.0000 0.07431  0.31980  0.48351  Biso   1.000  H
  H1190    1.0000 0.02060  0.26669  0.55339  Biso   1.000  H
  N173     1.0000 0.95504  0.22218  0.53645  Biso   1.000  N
  C1028    1.0000 0.95742  0.31940  0.53940  Biso   1.000  C
  C1029    1.0000 0.03940  0.04258  0.18060  Biso   1.000  C
  C1030    1.0000 0.97149  0.99000  0.23141  Biso   1.000  C
  H1191    1.0000 0.05339  0.97940  0.23331  Biso   1.000  H
  H1192    1.0000 0.40161  0.03589  0.47040  Biso   1.000  H
  H1193    1.0000 0.36960  0.05181  0.52270  Biso   1.000  H
  C1031    1.0000 0.36940  0.97161  0.50871  Biso   1.000  C
  C1032    1.0000 0.18891  0.92851  0.53274  Biso   1.000  C
  H1194    1.0000 0.31960  0.92331  0.55452  Biso   1.000  H
  H1195    1.0000 0.31980  0.98351  0.57431  Biso   1.000  H
  H1196    1.0000 0.02960  0.40161  0.46411  Biso   1.000  H
  C1033    1.0000 0.99129  0.36940  0.52839  Biso   1.000  C
  H1197    1.0000 0.97730  0.36960  0.44819  Biso   1.000  H
  C1034    1.0000 0.96726  0.18891  0.57149  Biso   1.000  C
  H1198    1.0000 0.94548  0.31960  0.57669  Biso   1.000  H
  H1199    1.0000 0.92569  0.31980  0.51649  Biso   1.000  H
  C1035    1.0000 0.02839  0.00871  0.13060  Biso   1.000  C
  H1200    1.0000 0.07669  0.05452  0.18040  Biso   1.000  H
  H1201    1.0000 0.01649  0.07431  0.18020  Biso   1.000  H
  N174     1.0000 0.96355  0.95504  0.27782  Biso   1.000  N
  C1036    1.0000 0.96060  0.95742  0.18060  Biso   1.000  C
  H1202    1.0000 0.94661  0.02060  0.23331  Biso   1.000  H
  H1203    1.0000 0.40161  0.96411  0.52960  Biso   1.000  H
  H1204    1.0000 0.36960  0.94819  0.47730  Biso   1.000  H
  C1037    1.0000 0.14173  0.91548  0.56560  Biso   1.000  C
  H1205    1.0000 0.19411  0.90940  0.50089  Biso   1.000  H
  H1206    1.0000 0.02270  0.36960  0.55181  Biso   1.000  H
  H1207    1.0000 0.97040  0.40161  0.53589  Biso   1.000  H
  C1038    1.0000 0.93440  0.14173  0.58452  Biso   1.000  C
  H1208    1.0000 0.99911  0.19411  0.59060  Biso   1.000  H
  H1209    1.0000 0.03589  0.02960  0.09839  Biso   1.000  H
  C1039    1.0000 0.97161  0.99129  0.13060  Biso   1.000  C
  H1210    1.0000 0.05181  0.97730  0.13040  Biso   1.000  H
  C1040    1.0000 0.92851  0.96726  0.31109  Biso   1.000  C
  H1211    1.0000 0.92331  0.94548  0.18040  Biso   1.000  H
  H1212    1.0000 0.98351  0.92569  0.18020  Biso   1.000  H
  C1041    1.0000 0.12819  0.94633  0.61020  Biso   1.000  C
  C1042    1.0000 0.11020  0.87181  0.55367  Biso   1.000  C
  C1043    1.0000 0.88980  0.12819  0.55367  Biso   1.000  C
  C1044    1.0000 0.94633  0.11020  0.62819  Biso   1.000  C
  H1213    1.0000 0.96411  0.97040  0.09839  Biso   1.000  H
  H1214    1.0000 0.94819  0.02270  0.13040  Biso   1.000  H
  C1045    1.0000 0.91548  0.93440  0.35827  Biso   1.000  C
  H1215    1.0000 0.90940  0.99911  0.30589  Biso   1.000  H
  C1046    1.0000 0.08452  0.93440  0.64173  Biso   1.000  C
  H1216    1.0000 0.14940  0.97601  0.61899  Biso   1.000  H
  C1047    1.0000 0.06560  0.85827  0.58452  Biso   1.000  C
  H1217    1.0000 0.11899  0.85060  0.52399  Biso   1.000  H
  C1048    1.0000 0.85827  0.08452  0.56560  Biso   1.000  C
  H1218    1.0000 0.88101  0.14940  0.52399  Biso   1.000  H
  C1049    1.0000 0.91548  0.06560  0.64173  Biso   1.000  C
  H1219    1.0000 0.97601  0.11899  0.64940  Biso   1.000  H
  C1050    1.0000 0.94633  0.88980  0.37181  Biso   1.000  C
  C1051    1.0000 0.87181  0.94633  0.38980  Biso   1.000  C
  C1052    1.0000 0.05367  0.88980  0.62819  Biso   1.000  C
  C1053    1.0000 0.07149  0.96726  0.68891  Biso   1.000  C
  C1054    1.0000 0.03274  0.81109  0.57149  Biso   1.000  C
  C1055    1.0000 0.87181  0.05367  0.61020  Biso   1.000  C
  C1056    1.0000 0.81109  0.07149  0.53274  Biso   1.000  C
  C1057    1.0000 0.92851  0.03274  0.68891  Biso   1.000  C
  C1058    1.0000 0.93440  0.85827  0.41548  Biso   1.000  C
  H1220    1.0000 0.97601  0.88101  0.35060  Biso   1.000  H
  C1059    1.0000 0.85827  0.91548  0.43440  Biso   1.000  C
  H1221    1.0000 0.85060  0.97601  0.38101  Biso   1.000  H
  H1222    1.0000 0.02399  0.88101  0.64940  Biso   1.000  H
  N175     1.0000 0.03645  0.95504  0.72218  Biso   1.000  N
  H1223    1.0000 0.09060  0.99911  0.69411  Biso   1.000  H
  N176     1.0000 0.04496  0.77782  0.53645  Biso   1.000  N
  H1224    1.0000 0.00089  0.80589  0.59060  Biso   1.000  H
  H1225    1.0000 0.85060  0.02399  0.61899  Biso   1.000  H
  N177     1.0000 0.77782  0.03645  0.54496  Biso   1.000  N
  H1226    1.0000 0.80589  0.09060  0.50089  Biso   1.000  H
  N178     1.0000 0.96355  0.04496  0.72218  Biso   1.000  N
  H1227    1.0000 0.90940  0.00089  0.69411  Biso   1.000  H
  C1060    1.0000 0.88980  0.87181  0.44633  Biso   1.000  C
  C1061    1.0000 0.96726  0.81109  0.42851  Biso   1.000  C
  C1062    1.0000 0.81109  0.92851  0.46726  Biso   1.000  C
  C1063    1.0000 0.02851  0.99000  0.76859  Biso   1.000  C
  C1064    1.0000 0.01000  0.73141  0.52851  Biso   1.000  C
  C1065    1.0000 0.73141  0.02851  0.51000  Biso   1.000  C
  C1066    1.0000 0.97149  0.01000  0.76859  Biso   1.000  C
  H1228    1.0000 0.88101  0.85060  0.47601  Biso   1.000  H
  N179     1.0000 0.95504  0.77782  0.46355  Biso   1.000  N
  H1229    1.0000 0.99911  0.80589  0.40940  Biso   1.000  H
  N180     1.0000 0.77782  0.96355  0.45504  Biso   1.000  N
  H1230    1.0000 0.80589  0.90940  0.49911  Biso   1.000  H
  H1231    1.0000 0.05339  0.02060  0.76669  Biso   1.000  H
  C1067    1.0000 0.03940  0.95742  0.81940  Biso   1.000  C
  C1068    1.0000 0.99000  0.73141  0.47149  Biso   1.000  C
  H1232    1.0000 0.97940  0.73331  0.55339  Biso   1.000  H
  C1069    1.0000 0.04258  0.68060  0.53940  Biso   1.000  C
  C1070    1.0000 0.73141  0.97149  0.49000  Biso   1.000  C
  C1071    1.0000 0.68060  0.03940  0.54258  Biso   1.000  C
  H1233    1.0000 0.73331  0.05339  0.47940  Biso   1.000  H
  H1234    1.0000 0.94661  0.97940  0.76669  Biso   1.000  H
  C1072    1.0000 0.96060  0.04258  0.81940  Biso   1.000  C
  C1073    1.0000 0.02839  0.99129  0.86940  Biso   1.000  C
  H1235    1.0000 0.07669  0.94548  0.81960  Biso   1.000  H
  H1236    1.0000 0.01649  0.92569  0.81980  Biso   1.000  H
  C1074    1.0000 0.95742  0.68060  0.46060  Biso   1.000  C
  H1237    1.0000 0.02060  0.73331  0.44661  Biso   1.000  H
  C1075    1.0000 0.00871  0.63060  0.52839  Biso   1.000  C
  H1238    1.0000 0.05452  0.68040  0.57669  Biso   1.000  H
  H1239    1.0000 0.07431  0.68020  0.51649  Biso   1.000  H
  C1076    1.0000 0.68060  0.96060  0.45742  Biso   1.000  C
  H1240    1.0000 0.73331  0.94661  0.52060  Biso   1.000  H
  C1077    1.0000 0.63060  0.02839  0.50871  Biso   1.000  C
  H1241    1.0000 0.68040  0.07669  0.55452  Biso   1.000  H
  H1242    1.0000 0.68020  0.01649  0.57431  Biso   1.000  H
  C1078    1.0000 0.97161  0.00871  0.86940  Biso   1.000  C
  H1243    1.0000 0.92331  0.05452  0.81960  Biso   1.000  H
  H1244    1.0000 0.98351  0.07431  0.81980  Biso   1.000  H
  H1245    1.0000 0.05181  0.02270  0.86960  Biso   1.000  H
  H1246    1.0000 0.03589  0.97040  0.90161  Biso   1.000  H
  C1079    1.0000 0.99129  0.63060  0.47161  Biso   1.000  C
  H1247    1.0000 0.94548  0.68040  0.42331  Biso   1.000  H
  H1248    1.0000 0.92569  0.68020  0.48351  Biso   1.000  H
  H1249    1.0000 0.97730  0.63040  0.55181  Biso   1.000  H
  H1250    1.0000 0.02960  0.59839  0.53589  Biso   1.000  H
  C1080    1.0000 0.63060  0.97161  0.49129  Biso   1.000  C
  H1251    1.0000 0.68040  0.92331  0.44548  Biso   1.000  H
  H1252    1.0000 0.68020  0.98351  0.42569  Biso   1.000  H
  H1253    1.0000 0.59839  0.03589  0.52960  Biso   1.000  H
  H1254    1.0000 0.63040  0.05181  0.47730  Biso   1.000  H
  H1255    1.0000 0.94819  0.97730  0.86960  Biso   1.000  H
  H1256    1.0000 0.96411  0.02960  0.90161  Biso   1.000  H
  H1257    1.0000 0.97040  0.59839  0.46411  Biso   1.000  H
  H1258    1.0000 0.02270  0.63040  0.44819  Biso   1.000  H
  H1259    1.0000 0.59839  0.96411  0.47040  Biso   1.000  H
  H1260    1.0000 0.63040  0.94819  0.52270  Biso   1.000  H
  C1081    1.0000 0.11020  0.12819  0.44633  Biso   1.000  C
  C1082    1.0000 0.14173  0.08452  0.43440  Biso   1.000  C
  C1083    1.0000 0.06560  0.14173  0.41548  Biso   1.000  C
  H1261    1.0000 0.11899  0.14940  0.47601  Biso   1.000  H
  C1084    1.0000 0.12819  0.05367  0.38980  Biso   1.000  C
  C1085    1.0000 0.18891  0.07149  0.46726  Biso   1.000  C
  C1086    1.0000 0.05367  0.11020  0.37181  Biso   1.000  C
  C1087    1.0000 0.03274  0.18891  0.42851  Biso   1.000  C
  C1088    1.0000 0.08452  0.06560  0.35827  Biso   1.000  C
  H1262    1.0000 0.14940  0.02399  0.38101  Biso   1.000  H
  N181     1.0000 0.22218  0.03645  0.45504  Biso   1.000  N
  H1263    1.0000 0.19411  0.09060  0.49911  Biso   1.000  H
  H1264    1.0000 0.02399  0.11899  0.35060  Biso   1.000  H
  N182     1.0000 0.04496  0.22218  0.46355  Biso   1.000  N
  H1265    1.0000 0.00089  0.19411  0.40940  Biso   1.000  H
  C1089    1.0000 0.07149  0.03274  0.31109  Biso   1.000  C
  C1090    1.0000 0.26859  0.02851  0.49000  Biso   1.000  C
  C1091    1.0000 0.01000  0.26859  0.47149  Biso   1.000  C
  N183     1.0000 0.03645  0.04496  0.27782  Biso   1.000  N
  H1266    1.0000 0.09060  0.00089  0.30589  Biso   1.000  H
  C1092    1.0000 0.31940  0.03940  0.45742  Biso   1.000  C
  H1267    1.0000 0.26669  0.05339  0.52060  Biso   1.000  H
  C1093    1.0000 0.26859  0.97149  0.51000  Biso   1.000  C
  C1094    1.0000 0.04258  0.31940  0.46060  Biso   1.000  C
  C1095    1.0000 0.99000  0.26859  0.52851  Biso   1.000  C
  H1268    1.0000 0.97940  0.26669  0.44661  Biso   1.000  H
  C1096    1.0000 0.02851  0.01000  0.23141  Biso   1.000  C
  C1097    1.0000 0.36940  0.02839  0.49129  Biso   1.000  C
  H1269    1.0000 0.31960  0.07669  0.44548  Biso   1.000  H
  H1270    1.0000 0.31980  0.01649  0.42569  Biso   1.000  H
  N184     1.0000 0.22218  0.96355  0.54496  Biso   1.000  N
  C1098    1.0000 0.31940  0.96060  0.54258  Biso   1.000  C
  H1271    1.0000 0.26669  0.94661  0.47940  Biso   1.000  H
  C1099    1.0000 0.00871  0.36940  0.47161  Biso   1.000  C
  H1272    1.0000 0.05452  0.31960  0.42331  Biso   1.000  H
  H1273    1.0000 0.07431  0.31980  0.48351  Biso   1.000  H
  H1274    1.0000 0.02060  0.26669  0.55339  Biso   1.000  H
  N185     1.0000 0.95504  0.22218  0.53645  Biso   1.000  N
  C1100    1.0000 0.95742  0.31940  0.53940  Biso   1.000  C
  C1101    1.0000 0.03940  0.04258  0.18060  Biso   1.000  C
  C1102    1.0000 0.97149  0.99000  0.23141  Biso   1.000  C
  H1275    1.0000 0.05339  0.97940  0.23331  Biso   1.000  H
  H1276    1.0000 0.40161  0.03589  0.47040  Biso   1.000  H
  H1277    1.0000 0.36960  0.05181  0.52270  Biso   1.000  H
  C1103    1.0000 0.36940  0.97161  0.50871  Biso   1.000  C
  C1104    1.0000 0.18891  0.92851  0.53274  Biso   1.000  C
  H1278    1.0000 0.31960  0.92331  0.55452  Biso   1.000  H
  H1279    1.0000 0.31980  0.98351  0.57431  Biso   1.000  H
  H1280    1.0000 0.02960  0.40161  0.46411  Biso   1.000  H
  C1105    1.0000 0.99129  0.36940  0.52839  Biso   1.000  C
  H1281    1.0000 0.97730  0.36960  0.44819  Biso   1.000  H
  C1106    1.0000 0.96726  0.18891  0.57149  Biso   1.000  C
  H1282    1.0000 0.94548  0.31960  0.57669  Biso   1.000  H
  H1283    1.0000 0.92569  0.31980  0.51649  Biso   1.000  H
  C1107    1.0000 0.02839  0.00871  0.13060  Biso   1.000  C
  H1284    1.0000 0.07669  0.05452  0.18040  Biso   1.000  H
  H1285    1.0000 0.01649  0.07431  0.18020  Biso   1.000  H
  N186     1.0000 0.96355  0.95504  0.27782  Biso   1.000  N
  C1108    1.0000 0.96060  0.95742  0.18060  Biso   1.000  C
  H1286    1.0000 0.94661  0.02060  0.23331  Biso   1.000  H
  H1287    1.0000 0.40161  0.96411  0.52960  Biso   1.000  H
  H1288    1.0000 0.36960  0.94819  0.47730  Biso   1.000  H
  C1109    1.0000 0.14173  0.91548  0.56560  Biso   1.000  C
  H1289    1.0000 0.19411  0.90940  0.50089  Biso   1.000  H
  H1290    1.0000 0.02270  0.36960  0.55181  Biso   1.000  H
  H1291    1.0000 0.97040  0.40161  0.53589  Biso   1.000  H
  C1110    1.0000 0.93440  0.14173  0.58452  Biso   1.000  C
  H1292    1.0000 0.99911  0.19411  0.59060  Biso   1.000  H
  H1293    1.0000 0.03589  0.02960  0.09839  Biso   1.000  H
  C1111    1.0000 0.97161  0.99129  0.13060  Biso   1.000  C
  H1294    1.0000 0.05181  0.97730  0.13040  Biso   1.000  H
  C1112    1.0000 0.92851  0.96726  0.31109  Biso   1.000  C
  H1295    1.0000 0.92331  0.94548  0.18040  Biso   1.000  H
  H1296    1.0000 0.98351  0.92569  0.18020  Biso   1.000  H
  C1113    1.0000 0.12819  0.94633  0.61020  Biso   1.000  C
  C1114    1.0000 0.11020  0.87181  0.55367  Biso   1.000  C
  C1115    1.0000 0.88980  0.12819  0.55367  Biso   1.000  C
  C1116    1.0000 0.94633  0.11020  0.62819  Biso   1.000  C
  H1297    1.0000 0.96411  0.97040  0.09839  Biso   1.000  H
  H1298    1.0000 0.94819  0.02270  0.13040  Biso   1.000  H
  C1117    1.0000 0.91548  0.93440  0.35827  Biso   1.000  C
  H1299    1.0000 0.90940  0.99911  0.30589  Biso   1.000  H
  C1118    1.0000 0.08452  0.93440  0.64173  Biso   1.000  C
  H1300    1.0000 0.14940  0.97601  0.61899  Biso   1.000  H
  C1119    1.0000 0.06560  0.85827  0.58452  Biso   1.000  C
  H1301    1.0000 0.11899  0.85060  0.52399  Biso   1.000  H
  C1120    1.0000 0.85827  0.08452  0.56560  Biso   1.000  C
  H1302    1.0000 0.88101  0.14940  0.52399  Biso   1.000  H
  C1121    1.0000 0.91548  0.06560  0.64173  Biso   1.000  C
  H1303    1.0000 0.97601  0.11899  0.64940  Biso   1.000  H
  C1122    1.0000 0.94633  0.88980  0.37181  Biso   1.000  C
  C1123    1.0000 0.87181  0.94633  0.38980  Biso   1.000  C
  C1124    1.0000 0.05367  0.88980  0.62819  Biso   1.000  C
  C1125    1.0000 0.07149  0.96726  0.68891  Biso   1.000  C
  C1126    1.0000 0.03274  0.81109  0.57149  Biso   1.000  C
  C1127    1.0000 0.87181  0.05367  0.61020  Biso   1.000  C
  C1128    1.0000 0.81109  0.07149  0.53274  Biso   1.000  C
  C1129    1.0000 0.92851  0.03274  0.68891  Biso   1.000  C
  C1130    1.0000 0.93440  0.85827  0.41548  Biso   1.000  C
  H1304    1.0000 0.97601  0.88101  0.35060  Biso   1.000  H
  C1131    1.0000 0.85827  0.91548  0.43440  Biso   1.000  C
  H1305    1.0000 0.85060  0.97601  0.38101  Biso   1.000  H
  H1306    1.0000 0.02399  0.88101  0.64940  Biso   1.000  H
  N187     1.0000 0.03645  0.95504  0.72218  Biso   1.000  N
  H1307    1.0000 0.09060  0.99911  0.69411  Biso   1.000  H
  N188     1.0000 0.04496  0.77782  0.53645  Biso   1.000  N
  H1308    1.0000 0.00089  0.80589  0.59060  Biso   1.000  H
  H1309    1.0000 0.85060  0.02399  0.61899  Biso   1.000  H
  N189     1.0000 0.77782  0.03645  0.54496  Biso   1.000  N
  H1310    1.0000 0.80589  0.09060  0.50089  Biso   1.000  H
  N190     1.0000 0.96355  0.04496  0.72218  Biso   1.000  N
  H1311    1.0000 0.90940  0.00089  0.69411  Biso   1.000  H
  C1132    1.0000 0.88980  0.87181  0.44633  Biso   1.000  C
  C1133    1.0000 0.96726  0.81109  0.42851  Biso   1.000  C
  C1134    1.0000 0.81109  0.92851  0.46726  Biso   1.000  C
  C1135    1.0000 0.02851  0.99000  0.76859  Biso   1.000  C
  C1136    1.0000 0.01000  0.73141  0.52851  Biso   1.000  C
  C1137    1.0000 0.73141  0.02851  0.51000  Biso   1.000  C
  C1138    1.0000 0.97149  0.01000  0.76859  Biso   1.000  C
  H1312    1.0000 0.88101  0.85060  0.47601  Biso   1.000  H
  N191     1.0000 0.95504  0.77782  0.46355  Biso   1.000  N
  H1313    1.0000 0.99911  0.80589  0.40940  Biso   1.000  H
  N192     1.0000 0.77782  0.96355  0.45504  Biso   1.000  N
  H1314    1.0000 0.80589  0.90940  0.49911  Biso   1.000  H
  H1315    1.0000 0.05339  0.02060  0.76669  Biso   1.000  H
  C1139    1.0000 0.03940  0.95742  0.81940  Biso   1.000  C
  C1140    1.0000 0.99000  0.73141  0.47149  Biso   1.000  C
  H1316    1.0000 0.97940  0.73331  0.55339  Biso   1.000  H
  C1141    1.0000 0.04258  0.68060  0.53940  Biso   1.000  C
  C1142    1.0000 0.73141  0.97149  0.49000  Biso   1.000  C
  C1143    1.0000 0.68060  0.03940  0.54258  Biso   1.000  C
  H1317    1.0000 0.73331  0.05339  0.47940  Biso   1.000  H
  H1318    1.0000 0.94661  0.97940  0.76669  Biso   1.000  H
  C1144    1.0000 0.96060  0.04258  0.81940  Biso   1.000  C
  C1145    1.0000 0.02839  0.99129  0.86940  Biso   1.000  C
  H1319    1.0000 0.07669  0.94548  0.81960  Biso   1.000  H
  H1320    1.0000 0.01649  0.92569  0.81980  Biso   1.000  H
  C1146    1.0000 0.95742  0.68060  0.46060  Biso   1.000  C
  H1321    1.0000 0.02060  0.73331  0.44661  Biso   1.000  H
  C1147    1.0000 0.00871  0.63060  0.52839  Biso   1.000  C
  H1322    1.0000 0.05452  0.68040  0.57669  Biso   1.000  H
  H1323    1.0000 0.07431  0.68020  0.51649  Biso   1.000  H
  C1148    1.0000 0.68060  0.96060  0.45742  Biso   1.000  C
  H1324    1.0000 0.73331  0.94661  0.52060  Biso   1.000  H
  C1149    1.0000 0.63060  0.02839  0.50871  Biso   1.000  C
  H1325    1.0000 0.68040  0.07669  0.55452  Biso   1.000  H
  H1326    1.0000 0.68020  0.01649  0.57431  Biso   1.000  H
  C1150    1.0000 0.97161  0.00871  0.86940  Biso   1.000  C
  H1327    1.0000 0.92331  0.05452  0.81960  Biso   1.000  H
  H1328    1.0000 0.98351  0.07431  0.81980  Biso   1.000  H
  H1329    1.0000 0.05181  0.02270  0.86960  Biso   1.000  H
  H1330    1.0000 0.03589  0.97040  0.90161  Biso   1.000  H
  C1151    1.0000 0.99129  0.63060  0.47161  Biso   1.000  C
  H1331    1.0000 0.94548  0.68040  0.42331  Biso   1.000  H
  H1332    1.0000 0.92569  0.68020  0.48351  Biso   1.000  H
  H1333    1.0000 0.97730  0.63040  0.55181  Biso   1.000  H
  H1334    1.0000 0.02960  0.59839  0.53589  Biso   1.000  H
  C1152    1.0000 0.63060  0.97161  0.49129  Biso   1.000  C
  H1335    1.0000 0.68040  0.92331  0.44548  Biso   1.000  H
  H1336    1.0000 0.68020  0.98351  0.42569  Biso   1.000  H
  H1337    1.0000 0.59839  0.03589  0.52960  Biso   1.000  H
  H1338    1.0000 0.63040  0.05181  0.47730  Biso   1.000  H
  H1339    1.0000 0.94819  0.97730  0.86960  Biso   1.000  H
  H1340    1.0000 0.96411  0.02960  0.90161  Biso   1.000  H
  H1341    1.0000 0.97040  0.59839  0.46411  Biso   1.000  H
  H1342    1.0000 0.02270  0.63040  0.44819  Biso   1.000  H
  H1343    1.0000 0.59839  0.96411  0.47040  Biso   1.000  H
  H1344    1.0000 0.63040  0.94819  0.52270  Biso   1.000  H
  C1153    1.0000 0.75871  0.72161  0.38060  Biso   1.000  C
  C1154    1.0000 0.79258  0.71060  0.43060  Biso   1.000  C
  C1155    1.0000 0.74129  0.77839  0.38060  Biso   1.000  C
  H1345    1.0000 0.77960  0.71411  0.34839  Biso   1.000  H
  H1346    1.0000 0.72730  0.69819  0.38040  Biso   1.000  H
  C1156    1.0000 0.76000  0.72149  0.48141  Biso   1.000  C
  H1347    1.0000 0.80452  0.67331  0.43040  Biso   1.000  H
  H1348    1.0000 0.82431  0.73351  0.43020  Biso   1.000  H
  C1157    1.0000 0.70742  0.78940  0.43060  Biso   1.000  C
  H1349    1.0000 0.72040  0.78589  0.34839  Biso   1.000  H
  H1350    1.0000 0.77270  0.80181  0.38040  Biso   1.000  H
  N193     1.0000 0.79496  0.71355  0.52782  Biso   1.000  N
  C1158    1.0000 0.74000  0.77851  0.48141  Biso   1.000  C
  H1351    1.0000 0.72940  0.69661  0.48331  Biso   1.000  H
  H1352    1.0000 0.69548  0.82669  0.43040  Biso   1.000  H
  H1353    1.0000 0.67569  0.76649  0.43020  Biso   1.000  H
  C1159    1.0000 0.78274  0.67851  0.56109  Biso   1.000  C
  N194     1.0000 0.70504  0.78645  0.52782  Biso   1.000  N
  H1354    1.0000 0.77060  0.80339  0.48331  Biso   1.000  H
  C1160    1.0000 0.81560  0.66548  0.60827  Biso   1.000  C
  H1355    1.0000 0.75089  0.65940  0.55589  Biso   1.000  H
  C1161    1.0000 0.71726  0.82149  0.56109  Biso   1.000  C
  C1162    1.0000 0.86020  0.69633  0.62181  Biso   1.000  C
  C1163    1.0000 0.80367  0.62181  0.63980  Biso   1.000  C
  C1164    1.0000 0.68440  0.83452  0.60827  Biso   1.000  C
  H1356    1.0000 0.74911  0.84060  0.55589  Biso   1.000  H
  C1165    1.0000 0.89173  0.68440  0.66548  Biso   1.000  C
  H1357    1.0000 0.86899  0.72601  0.60060  Biso   1.000  H
  C1166    1.0000 0.83452  0.60827  0.68440  Biso   1.000  C
  H1358    1.0000 0.77399  0.60060  0.63101  Biso   1.000  H
  C1167    1.0000 0.69633  0.87819  0.63980  Biso   1.000  C
  C1168    1.0000 0.63980  0.80367  0.62181  Biso   1.000  C
  C1169    1.0000 0.87819  0.63980  0.69633  Biso   1.000  C
  C1170    1.0000 0.93891  0.71726  0.67851  Biso   1.000  C
  C1171    1.0000 0.82149  0.56109  0.71726  Biso   1.000  C
  C1172    1.0000 0.66548  0.89173  0.68440  Biso   1.000  C
  H1359    1.0000 0.72601  0.89940  0.63101  Biso   1.000  H
  C1173    1.0000 0.60827  0.81560  0.66548  Biso   1.000  C
  H1360    1.0000 0.63101  0.77399  0.60060  Biso   1.000  H
  H1361    1.0000 0.89940  0.63101  0.72601  Biso   1.000  H
  N195     1.0000 0.97218  0.70504  0.71355  Biso   1.000  N
  H1362    1.0000 0.94411  0.74911  0.65940  Biso   1.000  H
  N196     1.0000 0.78645  0.52782  0.70504  Biso   1.000  N
  H1363    1.0000 0.84060  0.55589  0.74911  Biso   1.000  H
  C1174    1.0000 0.62181  0.86020  0.69633  Biso   1.000  C
  C1175    1.0000 0.67851  0.93891  0.71726  Biso   1.000  C
  C1176    1.0000 0.56109  0.78274  0.67851  Biso   1.000  C
  C1177    1.0000 0.01859  0.74000  0.72149  Biso   1.000  C
  C1178    1.0000 0.77851  0.48141  0.74000  Biso   1.000  C
  H1364    1.0000 0.60060  0.86899  0.72601  Biso   1.000  H
  N197     1.0000 0.71355  0.97218  0.70504  Biso   1.000  N
  H1365    1.0000 0.65940  0.94411  0.74911  Biso   1.000  H
  N198     1.0000 0.52782  0.79496  0.71355  Biso   1.000  N
  H1366    1.0000 0.55589  0.75089  0.65940  Biso   1.000  H
  C1179    1.0000 0.01859  0.76000  0.77851  Biso   1.000  C
  C1180    1.0000 0.06940  0.70742  0.71060  Biso   1.000  C
  H1367    1.0000 0.01669  0.77060  0.69661  Biso   1.000  H
  C1181    1.0000 0.72149  0.48141  0.76000  Biso   1.000  C
  C1182    1.0000 0.78940  0.43060  0.70742  Biso   1.000  C
  H1368    1.0000 0.80339  0.48331  0.77060  Biso   1.000  H
  C1183    1.0000 0.72149  0.01859  0.74000  Biso   1.000  C
  C1184    1.0000 0.48141  0.76000  0.72149  Biso   1.000  C
  N199     1.0000 0.97218  0.79496  0.78645  Biso   1.000  N
  C1185    1.0000 0.06940  0.79258  0.78940  Biso   1.000  C
  H1369    1.0000 0.01669  0.72940  0.80339  Biso   1.000  H
  C1186    1.0000 0.11940  0.74129  0.72161  Biso   1.000  C
  H1370    1.0000 0.06960  0.69548  0.67331  Biso   1.000  H
  H1371    1.0000 0.06980  0.67569  0.73351  Biso   1.000  H
  N200     1.0000 0.71355  0.52782  0.79496  Biso   1.000  N
  C1187    1.0000 0.71060  0.43060  0.79258  Biso   1.000  C
  H1372    1.0000 0.69661  0.48331  0.72940  Biso   1.000  H
  C1188    1.0000 0.77839  0.38060  0.74129  Biso   1.000  C
  H1373    1.0000 0.82669  0.43040  0.69548  Biso   1.000  H
  H1374    1.0000 0.76649  0.43020  0.67569  Biso   1.000  H
  C1189    1.0000 0.77851  0.01859  0.76000  Biso   1.000  C
  C1190    1.0000 0.71060  0.06940  0.70742  Biso   1.000  C
  H1375    1.0000 0.69661  0.01669  0.77060  Biso   1.000  H
  C1191    1.0000 0.48141  0.74000  0.77851  Biso   1.000  C
  C1192    1.0000 0.43060  0.79258  0.71060  Biso   1.000  C
  H1376    1.0000 0.48331  0.72940  0.69661  Biso   1.000  H
  C1193    1.0000 0.93891  0.78274  0.82149  Biso   1.000  C
  C1194    1.0000 0.11940  0.75871  0.77839  Biso   1.000  C
  H1377    1.0000 0.06960  0.80452  0.82669  Biso   1.000  H
  H1378    1.0000 0.06980  0.82431  0.76649  Biso   1.000  H
  H1379    1.0000 0.15161  0.72040  0.71411  Biso   1.000  H
  H1380    1.0000 0.11960  0.77270  0.69819  Biso   1.000  H
  C1195    1.0000 0.67851  0.56109  0.78274  Biso   1.000  C
  C1196    1.0000 0.72161  0.38060  0.75871  Biso   1.000  C
  H1381    1.0000 0.67331  0.43040  0.80452  Biso   1.000  H
  H1382    1.0000 0.73351  0.43020  0.82431  Biso   1.000  H
  H1383    1.0000 0.78589  0.34839  0.72040  Biso   1.000  H
  H1384    1.0000 0.80181  0.38040  0.77270  Biso   1.000  H
  N201     1.0000 0.78645  0.97218  0.79496  Biso   1.000  N
  C1197    1.0000 0.78940  0.06940  0.79258  Biso   1.000  C
  H1385    1.0000 0.80339  0.01669  0.72940  Biso   1.000  H
  C1198    1.0000 0.72161  0.11940  0.74129  Biso   1.000  C
  H1386    1.0000 0.67331  0.06960  0.69548  Biso   1.000  H
  H1387    1.0000 0.73351  0.06980  0.67569  Biso   1.000  H
  N202     1.0000 0.52782  0.70504  0.78645  Biso   1.000  N
  C1199    1.0000 0.43060  0.70742  0.78940  Biso   1.000  C
  H1388    1.0000 0.48331  0.77060  0.80339  Biso   1.000  H
  C1200    1.0000 0.38060  0.75871  0.72161  Biso   1.000  C
  H1389    1.0000 0.43040  0.80452  0.67331  Biso   1.000  H
  H1390    1.0000 0.43020  0.82431  0.73351  Biso   1.000  H
  C1201    1.0000 0.89173  0.81560  0.83452  Biso   1.000  C
  H1391    1.0000 0.94411  0.75089  0.84060  Biso   1.000  H
  H1392    1.0000 0.15161  0.77960  0.78589  Biso   1.000  H
  H1393    1.0000 0.11960  0.72730  0.80181  Biso   1.000  H
  C1202    1.0000 0.66548  0.60827  0.81560  Biso   1.000  C
  H1394    1.0000 0.65940  0.55589  0.75089  Biso   1.000  H
  H1395    1.0000 0.71411  0.34839  0.77960  Biso   1.000  H
  H1396    1.0000 0.69819  0.38040  0.72730  Biso   1.000  H
  C1203    1.0000 0.82149  0.93891  0.78274  Biso   1.000  C
  C1204    1.0000 0.77839  0.11940  0.75871  Biso   1.000  C
  H1397    1.0000 0.82669  0.06960  0.80452  Biso   1.000  H
  H1398    1.0000 0.76649  0.06980  0.82431  Biso   1.000  H
  H1399    1.0000 0.71411  0.15161  0.72040  Biso   1.000  H
  H1400    1.0000 0.69819  0.11960  0.77270  Biso   1.000  H
  C1205    1.0000 0.56109  0.71726  0.82149  Biso   1.000  C
  C1206    1.0000 0.38060  0.74129  0.77839  Biso   1.000  C
  H1401    1.0000 0.43040  0.69548  0.82669  Biso   1.000  H
  H1402    1.0000 0.43020  0.67569  0.76649  Biso   1.000  H
  H1403    1.0000 0.34839  0.77960  0.71411  Biso   1.000  H
  H1404    1.0000 0.38040  0.72730  0.69819  Biso   1.000  H
  C1207    1.0000 0.86020  0.80367  0.87819  Biso   1.000  C
  C1208    1.0000 0.87819  0.86020  0.80367  Biso   1.000  C
  C1209    1.0000 0.62181  0.63980  0.80367  Biso   1.000  C
  C1210    1.0000 0.69633  0.62181  0.86020  Biso   1.000  C
  C1211    1.0000 0.83452  0.89173  0.81560  Biso   1.000  C
  H1405    1.0000 0.84060  0.94411  0.75089  Biso   1.000  H
  H1406    1.0000 0.78589  0.15161  0.77960  Biso   1.000  H
  H1407    1.0000 0.80181  0.11960  0.72730  Biso   1.000  H
  C1212    1.0000 0.60827  0.68440  0.83452  Biso   1.000  C
  H1408    1.0000 0.55589  0.74911  0.84060  Biso   1.000  H
  H1409    1.0000 0.34839  0.72040  0.78589  Biso   1.000  H
  H1410    1.0000 0.38040  0.77270  0.80181  Biso   1.000  H
  C1213    1.0000 0.81560  0.83452  0.89173  Biso   1.000  C
  H1411    1.0000 0.86899  0.77399  0.89940  Biso   1.000  H
  H1412    1.0000 0.89940  0.86899  0.77399  Biso   1.000  H
  H1413    1.0000 0.60060  0.63101  0.77399  Biso   1.000  H
  C1214    1.0000 0.68440  0.66548  0.89173  Biso   1.000  C
  H1414    1.0000 0.72601  0.60060  0.86899  Biso   1.000  H
  C1215    1.0000 0.80367  0.87819  0.86020  Biso   1.000  C
  C1216    1.0000 0.63980  0.69633  0.87819  Biso   1.000  C
  C1217    1.0000 0.78274  0.82149  0.93891  Biso   1.000  C
  C1218    1.0000 0.71726  0.67851  0.93891  Biso   1.000  C
  H1415    1.0000 0.77399  0.89940  0.86899  Biso   1.000  H
  H1416    1.0000 0.63101  0.72601  0.89940  Biso   1.000  H
  N203     1.0000 0.79496  0.78645  0.97218  Biso   1.000  N
  H1417    1.0000 0.75089  0.84060  0.94411  Biso   1.000  H
  N204     1.0000 0.70504  0.71355  0.97218  Biso   1.000  N
  H1418    1.0000 0.74911  0.65940  0.94411  Biso   1.000  H
  C1219    1.0000 0.76000  0.77851  0.01859  Biso   1.000  C
  C1220    1.0000 0.74000  0.72149  0.01859  Biso   1.000  C
  C1221    1.0000 0.79258  0.78940  0.06940  Biso   1.000  C
  H1419    1.0000 0.72940  0.80339  0.01669  Biso   1.000  H
  C1222    1.0000 0.70742  0.71060  0.06940  Biso   1.000  C
  H1420    1.0000 0.77060  0.69661  0.01669  Biso   1.000  H
  C1223    1.0000 0.75871  0.77839  0.11940  Biso   1.000  C
  H1421    1.0000 0.80452  0.82669  0.06960  Biso   1.000  H
  H1422    1.0000 0.82431  0.76649  0.06980  Biso   1.000  H
  C1224    1.0000 0.74129  0.72161  0.11940  Biso   1.000  C
  H1423    1.0000 0.69548  0.67331  0.06960  Biso   1.000  H
  H1424    1.0000 0.67569  0.73351  0.06980  Biso   1.000  H
  H1425    1.0000 0.77960  0.78589  0.15161  Biso   1.000  H
  H1426    1.0000 0.72730  0.80181  0.11960  Biso   1.000  H
  H1427    1.0000 0.72040  0.71411  0.15161  Biso   1.000  H
  H1428    1.0000 0.77270  0.69819  0.11960  Biso   1.000  H
