data_image0
_cell_length_a       15.153
_cell_length_b       18.339
_cell_length_c       12.791
_cell_angle_alpha    90
_cell_angle_beta     93.28
_cell_angle_gamma    90

_symmetry_space_group_name_H-M    "P 1"
_symmetry_int_tables_number       1

loop_
  _symmetry_equiv_pos_as_xyz
  'x, y, z'

loop_
  _atom_site_label
  _atom_site_occupancy
  _atom_site_fract_x
  _atom_site_fract_y
  _atom_site_fract_z
  _atom_site_thermal_displace_type
  _atom_site_B_iso_or_equiv
  _atom_site_type_symbol
  C1       1.0000 0.82135  0.17711  0.55607  Biso   1.000  C
  O1       1.0000 0.76361  0.15224  0.49600  Biso   1.000  O
  N1       1.0000 0.82535  0.17040  0.66351  Biso   1.000  N
  N2       1.0000 0.89186  0.21779  0.52936  Biso   1.000  N
  C2       1.0000 0.75727  0.13332  0.71863  Biso   1.000  C
  C3       1.0000 0.89476  0.21359  0.71503  Biso   1.000  C
  C4       1.0000 0.94185  0.24909  0.62020  Biso   1.000  C
  C5       1.0000 0.89477  0.24718  0.42427  Biso   1.000  C
  H1       1.0000 0.74280  0.16260  0.77831  Biso   1.000  H
  H2       1.0000 0.70448  0.12961  0.67228  Biso   1.000  H
  N3       1.0000 0.78240  0.06031  0.75520  Biso   1.000  N
  C6       1.0000 0.85779  0.27482  0.78449  Biso   1.000  C
  N4       1.0000 0.96566  0.17051  0.76617  Biso   1.000  N
  C7       1.0000 0.94225  0.33328  0.62850  Biso   1.000  C
  N5       1.0000 0.03096  0.22090  0.63289  Biso   1.000  N
  H3       1.0000 0.84021  0.23469  0.38496  Biso   1.000  H
  H4       1.0000 0.89796  0.29991  0.42874  Biso   1.000  H
  N6       1.0000 0.96896  0.22090  0.36711  Biso   1.000  N
  C8       1.0000 0.82817  0.04308  0.85426  Biso   1.000  C
  C9       1.0000 0.75117  0.00000  0.70297  Biso   1.000  C
  H5       1.0000 0.81138  0.30062  0.74448  Biso   1.000  H
  H6       1.0000 0.83185  0.25269  0.84440  Biso   1.000  H
  C10      1.0000 0.93039  0.33061  0.82412  Biso   1.000  C
  C11      1.0000 0.95910  0.13392  0.86664  Biso   1.000  C
  C12      1.0000 0.04491  0.17929  0.72208  Biso   1.000  C
  C13      1.0000 0.98128  0.36038  0.73289  Biso   1.000  C
  H7       1.0000 0.88217  0.35111  0.61832  Biso   1.000  H
  H8       1.0000 0.97607  0.35329  0.57306  Biso   1.000  H
  C14      1.0000 0.10522  0.24718  0.57572  Biso   1.000  C
  C15      1.0000 0.95508  0.17929  0.27792  Biso   1.000  C
  C16      1.0000 0.05807  0.24909  0.37980  Biso   1.000  C
  C17      1.0000 0.78080  0.07421  0.94753  Biso   1.000  C
  N7       1.0000 0.92225  0.06009  0.85787  Biso   1.000  N
  C18      1.0000 0.82817  0.95692  0.85426  Biso   1.000  C
  O2       1.0000 0.70291  0.00000  0.62192  Biso   1.000  O
  N8       1.0000 0.78240  0.93969  0.75520  Biso   1.000  N
  H9       1.0000 0.97135  0.30689  0.87431  Biso   1.000  H
  H10      1.0000 0.90265  0.37069  0.85928  Biso   1.000  H
  H11      1.0000 0.92226  0.16299  0.91002  Biso   1.000  H
  H12      1.0000 0.01760  0.13130  0.90148  Biso   1.000  H
  O3       1.0000 0.11587  0.15655  0.75669  Biso   1.000  O
  H13      1.0000 0.97968  0.41333  0.73390  Biso   1.000  H
  H14      1.0000 0.04268  0.34538  0.74158  Biso   1.000  H
  H15      1.0000 0.15978  0.23469  0.61503  Biso   1.000  H
  H16      1.0000 0.10197  0.29991  0.57134  Biso   1.000  H
  N9       1.0000 0.10806  0.21779  0.47063  Biso   1.000  N
  O4       1.0000 0.88412  0.15655  0.24330  Biso   1.000  O
  N10      1.0000 0.03432  0.17051  0.23383  Biso   1.000  N
  C19      1.0000 0.10516  0.21359  0.28496  Biso   1.000  C
  C20      1.0000 0.05767  0.33328  0.37149  Biso   1.000  C
  H17      1.0000 0.77616  0.12678  0.94033  Biso   1.000  H
  C21      1.0000 0.68908  0.04210  0.95458  Biso   1.000  C
  H18      1.0000 0.81558  0.06391  0.01182  Biso   1.000  H
  C22      1.0000 0.97464  0.00000  0.86601  Biso   1.000  C
  C23      1.0000 0.78080  0.92579  0.94753  Biso   1.000  C
  N11      1.0000 0.92225  0.93991  0.85787  Biso   1.000  N
  C24      1.0000 0.75727  0.86668  0.71863  Biso   1.000  C
  C25      1.0000 0.17857  0.17711  0.44393  Biso   1.000  C
  C26      1.0000 0.04089  0.13392  0.13344  Biso   1.000  C
  C27      1.0000 0.14220  0.27482  0.21550  Biso   1.000  C
  N12      1.0000 0.17457  0.17040  0.33649  Biso   1.000  N
  C28      1.0000 0.01871  0.36038  0.26711  Biso   1.000  C
  H19      1.0000 0.11782  0.35111  0.38167  Biso   1.000  H
  H20      1.0000 0.02392  0.35329  0.42694  Biso   1.000  H
  H21      1.0000 0.65146  0.05938  0.89569  Biso   1.000  H
  C29      1.0000 0.68908  0.95790  0.95458  Biso   1.000  C
  H22      1.0000 0.66404  0.05938  0.01816  Biso   1.000  H
  O5       1.0000 0.05565  0.00000  0.87901  Biso   1.000  O
  H23      1.0000 0.77616  0.87322  0.94033  Biso   1.000  H
  H24      1.0000 0.81558  0.93609  0.01182  Biso   1.000  H
  C30      1.0000 0.95910  0.86608  0.86664  Biso   1.000  C
  H25      1.0000 0.74280  0.83740  0.77831  Biso   1.000  H
  H26      1.0000 0.70448  0.87039  0.67228  Biso   1.000  H
  N13      1.0000 0.82535  0.82960  0.66351  Biso   1.000  N
  O6       1.0000 0.23638  0.15224  0.50399  Biso   1.000  O
  H27      1.0000 0.98239  0.13130  0.09851  Biso   1.000  H
  H28      1.0000 0.07766  0.16299  0.08998  Biso   1.000  H
  N14      1.0000 0.07768  0.06009  0.14213  Biso   1.000  N
  H29      1.0000 0.18861  0.30062  0.25552  Biso   1.000  H
  H30      1.0000 0.16808  0.25269  0.15560  Biso   1.000  H
  C31      1.0000 0.06960  0.33061  0.17588  Biso   1.000  C
  C32      1.0000 0.24272  0.13332  0.28136  Biso   1.000  C
  H31      1.0000 0.95731  0.34538  0.25842  Biso   1.000  H
  H32      1.0000 0.02031  0.41333  0.26609  Biso   1.000  H
  H33      1.0000 0.65146  0.94062  0.89569  Biso   1.000  H
  H34      1.0000 0.66404  0.94062  0.01816  Biso   1.000  H
  H35      1.0000 0.92226  0.83701  0.91002  Biso   1.000  H
  N15      1.0000 0.96566  0.82949  0.76617  Biso   1.000  N
  H36      1.0000 0.01760  0.86870  0.90148  Biso   1.000  H
  C33      1.0000 0.89476  0.78641  0.71503  Biso   1.000  C
  C34      1.0000 0.82135  0.82289  0.55607  Biso   1.000  C
  C35      1.0000 0.02528  0.00000  0.13399  Biso   1.000  C
  C36      1.0000 0.17182  0.04308  0.14573  Biso   1.000  C
  H37      1.0000 0.02857  0.30689  0.12568  Biso   1.000  H
  H38      1.0000 0.09727  0.37069  0.14072  Biso   1.000  H
  H39      1.0000 0.25719  0.16260  0.22169  Biso   1.000  H
  H40      1.0000 0.29551  0.12961  0.32772  Biso   1.000  H
  N16      1.0000 0.21759  0.06031  0.24479  Biso   1.000  N
  C37      1.0000 0.04491  0.82071  0.72208  Biso   1.000  C
  C38      1.0000 0.94185  0.75091  0.62020  Biso   1.000  C
  C39      1.0000 0.85779  0.72518  0.78449  Biso   1.000  C
  N17      1.0000 0.89186  0.78221  0.52936  Biso   1.000  N
  O7       1.0000 0.76361  0.84776  0.49600  Biso   1.000  O
  O8       1.0000 0.94427  0.00000  0.12099  Biso   1.000  O
  N18      1.0000 0.07768  0.93991  0.14213  Biso   1.000  N
  C40      1.0000 0.17182  0.95692  0.14573  Biso   1.000  C
  C41      1.0000 0.21919  0.07421  0.05247  Biso   1.000  C
  C42      1.0000 0.24882  0.00000  0.29702  Biso   1.000  C
  N19      1.0000 0.03096  0.77910  0.63289  Biso   1.000  N
  O9       1.0000 0.11587  0.84345  0.75669  Biso   1.000  O
  C43      1.0000 0.94225  0.66672  0.62850  Biso   1.000  C
  H41      1.0000 0.81138  0.69938  0.74448  Biso   1.000  H
  H42      1.0000 0.83185  0.74731  0.84440  Biso   1.000  H
  C44      1.0000 0.93039  0.66939  0.82412  Biso   1.000  C
  C45      1.0000 0.89477  0.75282  0.42427  Biso   1.000  C
  C46      1.0000 0.04089  0.86608  0.13344  Biso   1.000  C
  C47      1.0000 0.21919  0.92579  0.05247  Biso   1.000  C
  N20      1.0000 0.21759  0.93969  0.24479  Biso   1.000  N
  H43      1.0000 0.18441  0.06391  0.98818  Biso   1.000  H
  H44      1.0000 0.22383  0.12678  0.05967  Biso   1.000  H
  C48      1.0000 0.31091  0.04210  0.04542  Biso   1.000  C
  O10      1.0000 0.29708  0.00000  0.37807  Biso   1.000  O
  C49      1.0000 0.10522  0.75282  0.57572  Biso   1.000  C
  C50      1.0000 0.98128  0.63962  0.73289  Biso   1.000  C
  H45      1.0000 0.88217  0.64889  0.61832  Biso   1.000  H
  H46      1.0000 0.97607  0.64671  0.57306  Biso   1.000  H
  H47      1.0000 0.97135  0.69311  0.87431  Biso   1.000  H
  H48      1.0000 0.90265  0.62931  0.85928  Biso   1.000  H
  N21      1.0000 0.96896  0.77910  0.36711  Biso   1.000  N
  H49      1.0000 0.84021  0.76531  0.38496  Biso   1.000  H
  H50      1.0000 0.89796  0.70009  0.42874  Biso   1.000  H
  H51      1.0000 0.98239  0.86870  0.09851  Biso   1.000  H
  H52      1.0000 0.07766  0.83701  0.08998  Biso   1.000  H
  N22      1.0000 0.03432  0.82949  0.23383  Biso   1.000  N
  H53      1.0000 0.18441  0.93609  0.98818  Biso   1.000  H
  H54      1.0000 0.22383  0.87322  0.05967  Biso   1.000  H
  C51      1.0000 0.31091  0.95790  0.04542  Biso   1.000  C
  C52      1.0000 0.24272  0.86668  0.28136  Biso   1.000  C
  H55      1.0000 0.33589  0.05938  0.98183  Biso   1.000  H
  H56      1.0000 0.34847  0.05938  0.10431  Biso   1.000  H
  H57      1.0000 0.15978  0.76531  0.61503  Biso   1.000  H
  H58      1.0000 0.10197  0.70009  0.57134  Biso   1.000  H
  N23      1.0000 0.10806  0.78221  0.47063  Biso   1.000  N
  H59      1.0000 0.97968  0.58667  0.73390  Biso   1.000  H
  H60      1.0000 0.04268  0.65462  0.74158  Biso   1.000  H
  C53      1.0000 0.95508  0.82071  0.27792  Biso   1.000  C
  C54      1.0000 0.05807  0.75091  0.37980  Biso   1.000  C
  C55      1.0000 0.10516  0.78641  0.28496  Biso   1.000  C
  H61      1.0000 0.33589  0.94062  0.98183  Biso   1.000  H
  H62      1.0000 0.34847  0.94062  0.10431  Biso   1.000  H
  H63      1.0000 0.25719  0.83740  0.22169  Biso   1.000  H
  H64      1.0000 0.29551  0.87039  0.32772  Biso   1.000  H
  N24      1.0000 0.17457  0.82960  0.33649  Biso   1.000  N
  C56      1.0000 0.17857  0.82289  0.44393  Biso   1.000  C
  O11      1.0000 0.88412  0.84345  0.24330  Biso   1.000  O
  C57      1.0000 0.05767  0.66672  0.37149  Biso   1.000  C
  C58      1.0000 0.14220  0.72518  0.21550  Biso   1.000  C
  O12      1.0000 0.23638  0.84776  0.50399  Biso   1.000  O
  C59      1.0000 0.01871  0.63962  0.26711  Biso   1.000  C
  H65      1.0000 0.11782  0.64889  0.38167  Biso   1.000  H
  H66      1.0000 0.02392  0.64671  0.42694  Biso   1.000  H
  H67      1.0000 0.18861  0.69938  0.25552  Biso   1.000  H
  H68      1.0000 0.16808  0.74731  0.15560  Biso   1.000  H
  C60      1.0000 0.06960  0.66939  0.17588  Biso   1.000  C
  H69      1.0000 0.95731  0.65462  0.25842  Biso   1.000  H
  H70      1.0000 0.02031  0.58667  0.26609  Biso   1.000  H
  H71      1.0000 0.02857  0.69311  0.12568  Biso   1.000  H
  H72      1.0000 0.09727  0.62931  0.14072  Biso   1.000  H
  C61      1.0000 0.82135  0.17711  0.55607  Biso   1.000  C
  O13      1.0000 0.76361  0.15224  0.49600  Biso   1.000  O
  N25      1.0000 0.82535  0.17040  0.66351  Biso   1.000  N
  N26      1.0000 0.89186  0.21779  0.52936  Biso   1.000  N
  C62      1.0000 0.75727  0.13332  0.71863  Biso   1.000  C
  C63      1.0000 0.89476  0.21359  0.71503  Biso   1.000  C
  C64      1.0000 0.94185  0.24909  0.62020  Biso   1.000  C
  C65      1.0000 0.89477  0.24718  0.42427  Biso   1.000  C
  H73      1.0000 0.74280  0.16260  0.77831  Biso   1.000  H
  H74      1.0000 0.70448  0.12961  0.67228  Biso   1.000  H
  N27      1.0000 0.78240  0.06031  0.75520  Biso   1.000  N
  C66      1.0000 0.85779  0.27482  0.78449  Biso   1.000  C
  N28      1.0000 0.96566  0.17051  0.76617  Biso   1.000  N
  C67      1.0000 0.94225  0.33328  0.62850  Biso   1.000  C
  N29      1.0000 0.03096  0.22090  0.63289  Biso   1.000  N
  H75      1.0000 0.84021  0.23469  0.38496  Biso   1.000  H
  H76      1.0000 0.89796  0.29991  0.42874  Biso   1.000  H
  N30      1.0000 0.96896  0.22090  0.36711  Biso   1.000  N
  C68      1.0000 0.82817  0.04308  0.85426  Biso   1.000  C
  C69      1.0000 0.75117  0.00000  0.70297  Biso   1.000  C
  H77      1.0000 0.81138  0.30062  0.74448  Biso   1.000  H
  H78      1.0000 0.83185  0.25269  0.84440  Biso   1.000  H
  C70      1.0000 0.93039  0.33061  0.82412  Biso   1.000  C
  C71      1.0000 0.95910  0.13392  0.86664  Biso   1.000  C
  C72      1.0000 0.04491  0.17929  0.72208  Biso   1.000  C
  C73      1.0000 0.98128  0.36038  0.73289  Biso   1.000  C
  H79      1.0000 0.88217  0.35111  0.61832  Biso   1.000  H
  H80      1.0000 0.97607  0.35329  0.57306  Biso   1.000  H
  C74      1.0000 0.10522  0.24718  0.57572  Biso   1.000  C
  C75      1.0000 0.95508  0.17929  0.27792  Biso   1.000  C
  C76      1.0000 0.05807  0.24909  0.37980  Biso   1.000  C
  C77      1.0000 0.78080  0.07421  0.94753  Biso   1.000  C
  N31      1.0000 0.92225  0.06009  0.85787  Biso   1.000  N
  C78      1.0000 0.82817  0.95692  0.85426  Biso   1.000  C
  O14      1.0000 0.70291  0.00000  0.62192  Biso   1.000  O
  N32      1.0000 0.78240  0.93969  0.75520  Biso   1.000  N
  H81      1.0000 0.97135  0.30689  0.87431  Biso   1.000  H
  H82      1.0000 0.90265  0.37069  0.85928  Biso   1.000  H
  H83      1.0000 0.92226  0.16299  0.91002  Biso   1.000  H
  H84      1.0000 0.01760  0.13130  0.90148  Biso   1.000  H
  O15      1.0000 0.11587  0.15655  0.75669  Biso   1.000  O
  H85      1.0000 0.97968  0.41333  0.73390  Biso   1.000  H
  H86      1.0000 0.04268  0.34538  0.74158  Biso   1.000  H
  H87      1.0000 0.15978  0.23469  0.61503  Biso   1.000  H
  H88      1.0000 0.10197  0.29991  0.57134  Biso   1.000  H
  N33      1.0000 0.10806  0.21779  0.47063  Biso   1.000  N
  O16      1.0000 0.88412  0.15655  0.24330  Biso   1.000  O
  N34      1.0000 0.03432  0.17051  0.23383  Biso   1.000  N
  C79      1.0000 0.10516  0.21359  0.28496  Biso   1.000  C
  C80      1.0000 0.05767  0.33328  0.37149  Biso   1.000  C
  H89      1.0000 0.77616  0.12678  0.94033  Biso   1.000  H
  C81      1.0000 0.68908  0.04210  0.95458  Biso   1.000  C
  H90      1.0000 0.81558  0.06391  0.01182  Biso   1.000  H
  C82      1.0000 0.97464  0.00000  0.86601  Biso   1.000  C
  C83      1.0000 0.78080  0.92579  0.94753  Biso   1.000  C
  N35      1.0000 0.92225  0.93991  0.85787  Biso   1.000  N
  C84      1.0000 0.75727  0.86668  0.71863  Biso   1.000  C
  C85      1.0000 0.17857  0.17711  0.44393  Biso   1.000  C
  C86      1.0000 0.04089  0.13392  0.13344  Biso   1.000  C
  C87      1.0000 0.14220  0.27482  0.21550  Biso   1.000  C
  N36      1.0000 0.17457  0.17040  0.33649  Biso   1.000  N
  C88      1.0000 0.01871  0.36038  0.26711  Biso   1.000  C
  H91      1.0000 0.11782  0.35111  0.38167  Biso   1.000  H
  H92      1.0000 0.02392  0.35329  0.42694  Biso   1.000  H
  H93      1.0000 0.65146  0.05938  0.89569  Biso   1.000  H
  C89      1.0000 0.68908  0.95790  0.95458  Biso   1.000  C
  H94      1.0000 0.66404  0.05938  0.01816  Biso   1.000  H
  O17      1.0000 0.05565  0.00000  0.87901  Biso   1.000  O
  H95      1.0000 0.77616  0.87322  0.94033  Biso   1.000  H
  H96      1.0000 0.81558  0.93609  0.01182  Biso   1.000  H
  C90      1.0000 0.95910  0.86608  0.86664  Biso   1.000  C
  H97      1.0000 0.74280  0.83740  0.77831  Biso   1.000  H
  H98      1.0000 0.70448  0.87039  0.67228  Biso   1.000  H
  N37      1.0000 0.82535  0.82960  0.66351  Biso   1.000  N
  O18      1.0000 0.23638  0.15224  0.50399  Biso   1.000  O
  H99      1.0000 0.98239  0.13130  0.09851  Biso   1.000  H
  H100     1.0000 0.07766  0.16299  0.08998  Biso   1.000  H
  N38      1.0000 0.07768  0.06009  0.14213  Biso   1.000  N
  H101     1.0000 0.18861  0.30062  0.25552  Biso   1.000  H
  H102     1.0000 0.16808  0.25269  0.15560  Biso   1.000  H
  C91      1.0000 0.06960  0.33061  0.17588  Biso   1.000  C
  C92      1.0000 0.24272  0.13332  0.28136  Biso   1.000  C
  H103     1.0000 0.95731  0.34538  0.25842  Biso   1.000  H
  H104     1.0000 0.02031  0.41333  0.26609  Biso   1.000  H
  H105     1.0000 0.65146  0.94062  0.89569  Biso   1.000  H
  H106     1.0000 0.66404  0.94062  0.01816  Biso   1.000  H
  H107     1.0000 0.92226  0.83701  0.91002  Biso   1.000  H
  N39      1.0000 0.96566  0.82949  0.76617  Biso   1.000  N
  H108     1.0000 0.01760  0.86870  0.90148  Biso   1.000  H
  C93      1.0000 0.89476  0.78641  0.71503  Biso   1.000  C
  C94      1.0000 0.82135  0.82289  0.55607  Biso   1.000  C
  C95      1.0000 0.02528  0.00000  0.13399  Biso   1.000  C
  C96      1.0000 0.17182  0.04308  0.14573  Biso   1.000  C
  H109     1.0000 0.02857  0.30689  0.12568  Biso   1.000  H
  H110     1.0000 0.09727  0.37069  0.14072  Biso   1.000  H
  H111     1.0000 0.25719  0.16260  0.22169  Biso   1.000  H
  H112     1.0000 0.29551  0.12961  0.32772  Biso   1.000  H
  N40      1.0000 0.21759  0.06031  0.24479  Biso   1.000  N
  C97      1.0000 0.04491  0.82071  0.72208  Biso   1.000  C
  C98      1.0000 0.94185  0.75091  0.62020  Biso   1.000  C
  C99      1.0000 0.85779  0.72518  0.78449  Biso   1.000  C
  N41      1.0000 0.89186  0.78221  0.52936  Biso   1.000  N
  O19      1.0000 0.76361  0.84776  0.49600  Biso   1.000  O
  O20      1.0000 0.94427  0.00000  0.12099  Biso   1.000  O
  N42      1.0000 0.07768  0.93991  0.14213  Biso   1.000  N
  C100     1.0000 0.17182  0.95692  0.14573  Biso   1.000  C
  C101     1.0000 0.21919  0.07421  0.05247  Biso   1.000  C
  C102     1.0000 0.24882  0.00000  0.29702  Biso   1.000  C
  N43      1.0000 0.03096  0.77910  0.63289  Biso   1.000  N
  O21      1.0000 0.11587  0.84345  0.75669  Biso   1.000  O
  C103     1.0000 0.94225  0.66672  0.62850  Biso   1.000  C
  H113     1.0000 0.81138  0.69938  0.74448  Biso   1.000  H
  H114     1.0000 0.83185  0.74731  0.84440  Biso   1.000  H
  C104     1.0000 0.93039  0.66939  0.82412  Biso   1.000  C
  C105     1.0000 0.89477  0.75282  0.42427  Biso   1.000  C
  C106     1.0000 0.04089  0.86608  0.13344  Biso   1.000  C
  C107     1.0000 0.21919  0.92579  0.05247  Biso   1.000  C
  N44      1.0000 0.21759  0.93969  0.24479  Biso   1.000  N
  H115     1.0000 0.18441  0.06391  0.98818  Biso   1.000  H
  H116     1.0000 0.22383  0.12678  0.05967  Biso   1.000  H
  C108     1.0000 0.31091  0.04210  0.04542  Biso   1.000  C
  O22      1.0000 0.29708  0.00000  0.37807  Biso   1.000  O
  C109     1.0000 0.10522  0.75282  0.57572  Biso   1.000  C
  C110     1.0000 0.98128  0.63962  0.73289  Biso   1.000  C
  H117     1.0000 0.88217  0.64889  0.61832  Biso   1.000  H
  H118     1.0000 0.97607  0.64671  0.57306  Biso   1.000  H
  H119     1.0000 0.97135  0.69311  0.87431  Biso   1.000  H
  H120     1.0000 0.90265  0.62931  0.85928  Biso   1.000  H
  N45      1.0000 0.96896  0.77910  0.36711  Biso   1.000  N
  H121     1.0000 0.84021  0.76531  0.38496  Biso   1.000  H
  H122     1.0000 0.89796  0.70009  0.42874  Biso   1.000  H
  H123     1.0000 0.98239  0.86870  0.09851  Biso   1.000  H
  H124     1.0000 0.07766  0.83701  0.08998  Biso   1.000  H
  N46      1.0000 0.03432  0.82949  0.23383  Biso   1.000  N
  H125     1.0000 0.18441  0.93609  0.98818  Biso   1.000  H
  H126     1.0000 0.22383  0.87322  0.05967  Biso   1.000  H
  C111     1.0000 0.31091  0.95790  0.04542  Biso   1.000  C
  C112     1.0000 0.24272  0.86668  0.28136  Biso   1.000  C
  H127     1.0000 0.33589  0.05938  0.98183  Biso   1.000  H
  H128     1.0000 0.34847  0.05938  0.10431  Biso   1.000  H
  H129     1.0000 0.15978  0.76531  0.61503  Biso   1.000  H
  H130     1.0000 0.10197  0.70009  0.57134  Biso   1.000  H
  N47      1.0000 0.10806  0.78221  0.47063  Biso   1.000  N
  H131     1.0000 0.97968  0.58667  0.73390  Biso   1.000  H
  H132     1.0000 0.04268  0.65462  0.74158  Biso   1.000  H
  C113     1.0000 0.95508  0.82071  0.27792  Biso   1.000  C
  C114     1.0000 0.05807  0.75091  0.37980  Biso   1.000  C
  C115     1.0000 0.10516  0.78641  0.28496  Biso   1.000  C
  H133     1.0000 0.33589  0.94062  0.98183  Biso   1.000  H
  H134     1.0000 0.34847  0.94062  0.10431  Biso   1.000  H
  H135     1.0000 0.25719  0.83740  0.22169  Biso   1.000  H
  H136     1.0000 0.29551  0.87039  0.32772  Biso   1.000  H
  N48      1.0000 0.17457  0.82960  0.33649  Biso   1.000  N
  C116     1.0000 0.17857  0.82289  0.44393  Biso   1.000  C
  O23      1.0000 0.88412  0.84345  0.24330  Biso   1.000  O
  C117     1.0000 0.05767  0.66672  0.37149  Biso   1.000  C
  C118     1.0000 0.14220  0.72518  0.21550  Biso   1.000  C
  O24      1.0000 0.23638  0.84776  0.50399  Biso   1.000  O
  C119     1.0000 0.01871  0.63962  0.26711  Biso   1.000  C
  H137     1.0000 0.11782  0.64889  0.38167  Biso   1.000  H
  H138     1.0000 0.02392  0.64671  0.42694  Biso   1.000  H
  H139     1.0000 0.18861  0.69938  0.25552  Biso   1.000  H
  H140     1.0000 0.16808  0.74731  0.15560  Biso   1.000  H
  C120     1.0000 0.06960  0.66939  0.17588  Biso   1.000  C
  H141     1.0000 0.95731  0.65462  0.25842  Biso   1.000  H
  H142     1.0000 0.02031  0.58667  0.26609  Biso   1.000  H
  H143     1.0000 0.02857  0.69311  0.12568  Biso   1.000  H
  H144     1.0000 0.09727  0.62931  0.14072  Biso   1.000  H
  C121     1.0000 0.82135  0.17711  0.55607  Biso   1.000  C
  O25      1.0000 0.76361  0.15224  0.49600  Biso   1.000  O
  N49      1.0000 0.82535  0.17040  0.66351  Biso   1.000  N
  N50      1.0000 0.89186  0.21779  0.52936  Biso   1.000  N
  C122     1.0000 0.75727  0.13332  0.71863  Biso   1.000  C
  C123     1.0000 0.89476  0.21359  0.71503  Biso   1.000  C
  C124     1.0000 0.94185  0.24909  0.62020  Biso   1.000  C
  C125     1.0000 0.89477  0.24718  0.42427  Biso   1.000  C
  H145     1.0000 0.74280  0.16260  0.77831  Biso   1.000  H
  H146     1.0000 0.70448  0.12961  0.67228  Biso   1.000  H
  N51      1.0000 0.78240  0.06031  0.75520  Biso   1.000  N
  C126     1.0000 0.85779  0.27482  0.78449  Biso   1.000  C
  N52      1.0000 0.96566  0.17051  0.76617  Biso   1.000  N
  C127     1.0000 0.94225  0.33328  0.62850  Biso   1.000  C
  N53      1.0000 0.03096  0.22090  0.63289  Biso   1.000  N
  H147     1.0000 0.84021  0.23469  0.38496  Biso   1.000  H
  H148     1.0000 0.89796  0.29991  0.42874  Biso   1.000  H
  N54      1.0000 0.96896  0.22090  0.36711  Biso   1.000  N
  C128     1.0000 0.82817  0.04308  0.85426  Biso   1.000  C
  C129     1.0000 0.75117  0.00000  0.70297  Biso   1.000  C
  H149     1.0000 0.81138  0.30062  0.74448  Biso   1.000  H
  H150     1.0000 0.83185  0.25269  0.84440  Biso   1.000  H
  C130     1.0000 0.93039  0.33061  0.82412  Biso   1.000  C
  C131     1.0000 0.95910  0.13392  0.86664  Biso   1.000  C
  C132     1.0000 0.04491  0.17929  0.72208  Biso   1.000  C
  C133     1.0000 0.98128  0.36038  0.73289  Biso   1.000  C
  H151     1.0000 0.88217  0.35111  0.61832  Biso   1.000  H
  H152     1.0000 0.97607  0.35329  0.57306  Biso   1.000  H
  C134     1.0000 0.10522  0.24718  0.57572  Biso   1.000  C
  C135     1.0000 0.95508  0.17929  0.27792  Biso   1.000  C
  C136     1.0000 0.05807  0.24909  0.37980  Biso   1.000  C
  C137     1.0000 0.78080  0.07421  0.94753  Biso   1.000  C
  N55      1.0000 0.92225  0.06009  0.85787  Biso   1.000  N
  C138     1.0000 0.82817  0.95692  0.85426  Biso   1.000  C
  O26      1.0000 0.70291  0.00000  0.62192  Biso   1.000  O
  N56      1.0000 0.78240  0.93969  0.75520  Biso   1.000  N
  H153     1.0000 0.97135  0.30689  0.87431  Biso   1.000  H
  H154     1.0000 0.90265  0.37069  0.85928  Biso   1.000  H
  H155     1.0000 0.92226  0.16299  0.91002  Biso   1.000  H
  H156     1.0000 0.01760  0.13130  0.90148  Biso   1.000  H
  O27      1.0000 0.11587  0.15655  0.75669  Biso   1.000  O
  H157     1.0000 0.97968  0.41333  0.73390  Biso   1.000  H
  H158     1.0000 0.04268  0.34538  0.74158  Biso   1.000  H
  H159     1.0000 0.15978  0.23469  0.61503  Biso   1.000  H
  H160     1.0000 0.10197  0.29991  0.57134  Biso   1.000  H
  N57      1.0000 0.10806  0.21779  0.47063  Biso   1.000  N
  O28      1.0000 0.88412  0.15655  0.24330  Biso   1.000  O
  N58      1.0000 0.03432  0.17051  0.23383  Biso   1.000  N
  C139     1.0000 0.10516  0.21359  0.28496  Biso   1.000  C
  C140     1.0000 0.05767  0.33328  0.37149  Biso   1.000  C
  H161     1.0000 0.77616  0.12678  0.94033  Biso   1.000  H
  C141     1.0000 0.68908  0.04210  0.95458  Biso   1.000  C
  H162     1.0000 0.81558  0.06391  0.01182  Biso   1.000  H
  C142     1.0000 0.97464  0.00000  0.86601  Biso   1.000  C
  C143     1.0000 0.78080  0.92579  0.94753  Biso   1.000  C
  N59      1.0000 0.92225  0.93991  0.85787  Biso   1.000  N
  C144     1.0000 0.75727  0.86668  0.71863  Biso   1.000  C
  C145     1.0000 0.17857  0.17711  0.44393  Biso   1.000  C
  C146     1.0000 0.04089  0.13392  0.13344  Biso   1.000  C
  C147     1.0000 0.14220  0.27482  0.21550  Biso   1.000  C
  N60      1.0000 0.17457  0.17040  0.33649  Biso   1.000  N
  C148     1.0000 0.01871  0.36038  0.26711  Biso   1.000  C
  H163     1.0000 0.11782  0.35111  0.38167  Biso   1.000  H
  H164     1.0000 0.02392  0.35329  0.42694  Biso   1.000  H
  H165     1.0000 0.65146  0.05938  0.89569  Biso   1.000  H
  C149     1.0000 0.68908  0.95790  0.95458  Biso   1.000  C
  H166     1.0000 0.66404  0.05938  0.01816  Biso   1.000  H
  O29      1.0000 0.05565  0.00000  0.87901  Biso   1.000  O
  H167     1.0000 0.77616  0.87322  0.94033  Biso   1.000  H
  H168     1.0000 0.81558  0.93609  0.01182  Biso   1.000  H
  C150     1.0000 0.95910  0.86608  0.86664  Biso   1.000  C
  H169     1.0000 0.74280  0.83740  0.77831  Biso   1.000  H
  H170     1.0000 0.70448  0.87039  0.67228  Biso   1.000  H
  N61      1.0000 0.82535  0.82960  0.66351  Biso   1.000  N
  O30      1.0000 0.23638  0.15224  0.50399  Biso   1.000  O
  H171     1.0000 0.98239  0.13130  0.09851  Biso   1.000  H
  H172     1.0000 0.07766  0.16299  0.08998  Biso   1.000  H
  N62      1.0000 0.07768  0.06009  0.14213  Biso   1.000  N
  H173     1.0000 0.18861  0.30062  0.25552  Biso   1.000  H
  H174     1.0000 0.16808  0.25269  0.15560  Biso   1.000  H
  C151     1.0000 0.06960  0.33061  0.17588  Biso   1.000  C
  C152     1.0000 0.24272  0.13332  0.28136  Biso   1.000  C
  H175     1.0000 0.95731  0.34538  0.25842  Biso   1.000  H
  H176     1.0000 0.02031  0.41333  0.26609  Biso   1.000  H
  H177     1.0000 0.65146  0.94062  0.89569  Biso   1.000  H
  H178     1.0000 0.66404  0.94062  0.01816  Biso   1.000  H
  H179     1.0000 0.92226  0.83701  0.91002  Biso   1.000  H
  N63      1.0000 0.96566  0.82949  0.76617  Biso   1.000  N
  H180     1.0000 0.01760  0.86870  0.90148  Biso   1.000  H
  C153     1.0000 0.89476  0.78641  0.71503  Biso   1.000  C
  C154     1.0000 0.82135  0.82289  0.55607  Biso   1.000  C
  C155     1.0000 0.02528  0.00000  0.13399  Biso   1.000  C
  C156     1.0000 0.17182  0.04308  0.14573  Biso   1.000  C
  H181     1.0000 0.02857  0.30689  0.12568  Biso   1.000  H
  H182     1.0000 0.09727  0.37069  0.14072  Biso   1.000  H
  H183     1.0000 0.25719  0.16260  0.22169  Biso   1.000  H
  H184     1.0000 0.29551  0.12961  0.32772  Biso   1.000  H
  N64      1.0000 0.21759  0.06031  0.24479  Biso   1.000  N
  C157     1.0000 0.04491  0.82071  0.72208  Biso   1.000  C
  C158     1.0000 0.94185  0.75091  0.62020  Biso   1.000  C
  C159     1.0000 0.85779  0.72518  0.78449  Biso   1.000  C
  N65      1.0000 0.89186  0.78221  0.52936  Biso   1.000  N
  O31      1.0000 0.76361  0.84776  0.49600  Biso   1.000  O
  O32      1.0000 0.94427  0.00000  0.12099  Biso   1.000  O
  N66      1.0000 0.07768  0.93991  0.14213  Biso   1.000  N
  C160     1.0000 0.17182  0.95692  0.14573  Biso   1.000  C
  C161     1.0000 0.21919  0.07421  0.05247  Biso   1.000  C
  C162     1.0000 0.24882  0.00000  0.29702  Biso   1.000  C
  N67      1.0000 0.03096  0.77910  0.63289  Biso   1.000  N
  O33      1.0000 0.11587  0.84345  0.75669  Biso   1.000  O
  C163     1.0000 0.94225  0.66672  0.62850  Biso   1.000  C
  H185     1.0000 0.81138  0.69938  0.74448  Biso   1.000  H
  H186     1.0000 0.83185  0.74731  0.84440  Biso   1.000  H
  C164     1.0000 0.93039  0.66939  0.82412  Biso   1.000  C
  C165     1.0000 0.89477  0.75282  0.42427  Biso   1.000  C
  C166     1.0000 0.04089  0.86608  0.13344  Biso   1.000  C
  C167     1.0000 0.21919  0.92579  0.05247  Biso   1.000  C
  N68      1.0000 0.21759  0.93969  0.24479  Biso   1.000  N
  H187     1.0000 0.18441  0.06391  0.98818  Biso   1.000  H
  H188     1.0000 0.22383  0.12678  0.05967  Biso   1.000  H
  C168     1.0000 0.31091  0.04210  0.04542  Biso   1.000  C
  O34      1.0000 0.29708  0.00000  0.37807  Biso   1.000  O
  C169     1.0000 0.10522  0.75282  0.57572  Biso   1.000  C
  C170     1.0000 0.98128  0.63962  0.73289  Biso   1.000  C
  H189     1.0000 0.88217  0.64889  0.61832  Biso   1.000  H
  H190     1.0000 0.97607  0.64671  0.57306  Biso   1.000  H
  H191     1.0000 0.97135  0.69311  0.87431  Biso   1.000  H
  H192     1.0000 0.90265  0.62931  0.85928  Biso   1.000  H
  N69      1.0000 0.96896  0.77910  0.36711  Biso   1.000  N
  H193     1.0000 0.84021  0.76531  0.38496  Biso   1.000  H
  H194     1.0000 0.89796  0.70009  0.42874  Biso   1.000  H
  H195     1.0000 0.98239  0.86870  0.09851  Biso   1.000  H
  H196     1.0000 0.07766  0.83701  0.08998  Biso   1.000  H
  N70      1.0000 0.03432  0.82949  0.23383  Biso   1.000  N
  H197     1.0000 0.18441  0.93609  0.98818  Biso   1.000  H
  H198     1.0000 0.22383  0.87322  0.05967  Biso   1.000  H
  C171     1.0000 0.31091  0.95790  0.04542  Biso   1.000  C
  C172     1.0000 0.24272  0.86668  0.28136  Biso   1.000  C
  H199     1.0000 0.33589  0.05938  0.98183  Biso   1.000  H
  H200     1.0000 0.34847  0.05938  0.10431  Biso   1.000  H
  H201     1.0000 0.15978  0.76531  0.61503  Biso   1.000  H
  H202     1.0000 0.10197  0.70009  0.57134  Biso   1.000  H
  N71      1.0000 0.10806  0.78221  0.47063  Biso   1.000  N
  H203     1.0000 0.97968  0.58667  0.73390  Biso   1.000  H
  H204     1.0000 0.04268  0.65462  0.74158  Biso   1.000  H
  C173     1.0000 0.95508  0.82071  0.27792  Biso   1.000  C
  C174     1.0000 0.05807  0.75091  0.37980  Biso   1.000  C
  C175     1.0000 0.10516  0.78641  0.28496  Biso   1.000  C
  H205     1.0000 0.33589  0.94062  0.98183  Biso   1.000  H
  H206     1.0000 0.34847  0.94062  0.10431  Biso   1.000  H
  H207     1.0000 0.25719  0.83740  0.22169  Biso   1.000  H
  H208     1.0000 0.29551  0.87039  0.32772  Biso   1.000  H
  N72      1.0000 0.17457  0.82960  0.33649  Biso   1.000  N
  C176     1.0000 0.17857  0.82289  0.44393  Biso   1.000  C
  O35      1.0000 0.88412  0.84345  0.24330  Biso   1.000  O
  C177     1.0000 0.05767  0.66672  0.37149  Biso   1.000  C
  C178     1.0000 0.14220  0.72518  0.21550  Biso   1.000  C
  O36      1.0000 0.23638  0.84776  0.50399  Biso   1.000  O
  C179     1.0000 0.01871  0.63962  0.26711  Biso   1.000  C
  H209     1.0000 0.11782  0.64889  0.38167  Biso   1.000  H
  H210     1.0000 0.02392  0.64671  0.42694  Biso   1.000  H
  H211     1.0000 0.18861  0.69938  0.25552  Biso   1.000  H
  H212     1.0000 0.16808  0.74731  0.15560  Biso   1.000  H
  C180     1.0000 0.06960  0.66939  0.17588  Biso   1.000  C
  H213     1.0000 0.95731  0.65462  0.25842  Biso   1.000  H
  H214     1.0000 0.02031  0.58667  0.26609  Biso   1.000  H
  H215     1.0000 0.02857  0.69311  0.12568  Biso   1.000  H
  H216     1.0000 0.09727  0.62931  0.14072  Biso   1.000  H
  C181     1.0000 0.82135  0.17711  0.55607  Biso   1.000  C
  O37      1.0000 0.76361  0.15224  0.49600  Biso   1.000  O
  N73      1.0000 0.82535  0.17040  0.66351  Biso   1.000  N
  N74      1.0000 0.89186  0.21779  0.52936  Biso   1.000  N
  C182     1.0000 0.75727  0.13332  0.71863  Biso   1.000  C
  C183     1.0000 0.89476  0.21359  0.71503  Biso   1.000  C
  C184     1.0000 0.94185  0.24909  0.62020  Biso   1.000  C
  C185     1.0000 0.89477  0.24718  0.42427  Biso   1.000  C
  H217     1.0000 0.74280  0.16260  0.77831  Biso   1.000  H
  H218     1.0000 0.70448  0.12961  0.67228  Biso   1.000  H
  N75      1.0000 0.78240  0.06031  0.75520  Biso   1.000  N
  C186     1.0000 0.85779  0.27482  0.78449  Biso   1.000  C
  N76      1.0000 0.96566  0.17051  0.76617  Biso   1.000  N
  C187     1.0000 0.94225  0.33328  0.62850  Biso   1.000  C
  N77      1.0000 0.03096  0.22090  0.63289  Biso   1.000  N
  H219     1.0000 0.84021  0.23469  0.38496  Biso   1.000  H
  H220     1.0000 0.89796  0.29991  0.42874  Biso   1.000  H
  N78      1.0000 0.96896  0.22090  0.36711  Biso   1.000  N
  C188     1.0000 0.82817  0.04308  0.85426  Biso   1.000  C
  C189     1.0000 0.75117  0.00000  0.70297  Biso   1.000  C
  H221     1.0000 0.81138  0.30062  0.74448  Biso   1.000  H
  H222     1.0000 0.83185  0.25269  0.84440  Biso   1.000  H
  C190     1.0000 0.93039  0.33061  0.82412  Biso   1.000  C
  C191     1.0000 0.95910  0.13392  0.86664  Biso   1.000  C
  C192     1.0000 0.04491  0.17929  0.72208  Biso   1.000  C
  C193     1.0000 0.98128  0.36038  0.73289  Biso   1.000  C
  H223     1.0000 0.88217  0.35111  0.61832  Biso   1.000  H
  H224     1.0000 0.97607  0.35329  0.57306  Biso   1.000  H
  C194     1.0000 0.10522  0.24718  0.57572  Biso   1.000  C
  C195     1.0000 0.95508  0.17929  0.27792  Biso   1.000  C
  C196     1.0000 0.05807  0.24909  0.37980  Biso   1.000  C
  C197     1.0000 0.78080  0.07421  0.94753  Biso   1.000  C
  N79      1.0000 0.92225  0.06009  0.85787  Biso   1.000  N
  C198     1.0000 0.82817  0.95692  0.85426  Biso   1.000  C
  O38      1.0000 0.70291  0.00000  0.62192  Biso   1.000  O
  N80      1.0000 0.78240  0.93969  0.75520  Biso   1.000  N
  H225     1.0000 0.97135  0.30689  0.87431  Biso   1.000  H
  H226     1.0000 0.90265  0.37069  0.85928  Biso   1.000  H
  H227     1.0000 0.92226  0.16299  0.91002  Biso   1.000  H
  H228     1.0000 0.01760  0.13130  0.90148  Biso   1.000  H
  O39      1.0000 0.11587  0.15655  0.75669  Biso   1.000  O
  H229     1.0000 0.97968  0.41333  0.73390  Biso   1.000  H
  H230     1.0000 0.04268  0.34538  0.74158  Biso   1.000  H
  H231     1.0000 0.15978  0.23469  0.61503  Biso   1.000  H
  H232     1.0000 0.10197  0.29991  0.57134  Biso   1.000  H
  N81      1.0000 0.10806  0.21779  0.47063  Biso   1.000  N
  O40      1.0000 0.88412  0.15655  0.24330  Biso   1.000  O
  N82      1.0000 0.03432  0.17051  0.23383  Biso   1.000  N
  C199     1.0000 0.10516  0.21359  0.28496  Biso   1.000  C
  C200     1.0000 0.05767  0.33328  0.37149  Biso   1.000  C
  H233     1.0000 0.77616  0.12678  0.94033  Biso   1.000  H
  C201     1.0000 0.68908  0.04210  0.95458  Biso   1.000  C
  H234     1.0000 0.81558  0.06391  0.01182  Biso   1.000  H
  C202     1.0000 0.97464  0.00000  0.86601  Biso   1.000  C
  C203     1.0000 0.78080  0.92579  0.94753  Biso   1.000  C
  N83      1.0000 0.92225  0.93991  0.85787  Biso   1.000  N
  C204     1.0000 0.75727  0.86668  0.71863  Biso   1.000  C
  C205     1.0000 0.17857  0.17711  0.44393  Biso   1.000  C
  C206     1.0000 0.04089  0.13392  0.13344  Biso   1.000  C
  C207     1.0000 0.14220  0.27482  0.21550  Biso   1.000  C
  N84      1.0000 0.17457  0.17040  0.33649  Biso   1.000  N
  C208     1.0000 0.01871  0.36038  0.26711  Biso   1.000  C
  H235     1.0000 0.11782  0.35111  0.38167  Biso   1.000  H
  H236     1.0000 0.02392  0.35329  0.42694  Biso   1.000  H
  H237     1.0000 0.65146  0.05938  0.89569  Biso   1.000  H
  C209     1.0000 0.68908  0.95790  0.95458  Biso   1.000  C
  H238     1.0000 0.66404  0.05938  0.01816  Biso   1.000  H
  O41      1.0000 0.05565  0.00000  0.87901  Biso   1.000  O
  H239     1.0000 0.77616  0.87322  0.94033  Biso   1.000  H
  H240     1.0000 0.81558  0.93609  0.01182  Biso   1.000  H
  C210     1.0000 0.95910  0.86608  0.86664  Biso   1.000  C
  H241     1.0000 0.74280  0.83740  0.77831  Biso   1.000  H
  H242     1.0000 0.70448  0.87039  0.67228  Biso   1.000  H
  N85      1.0000 0.82535  0.82960  0.66351  Biso   1.000  N
  O42      1.0000 0.23638  0.15224  0.50399  Biso   1.000  O
  H243     1.0000 0.98239  0.13130  0.09851  Biso   1.000  H
  H244     1.0000 0.07766  0.16299  0.08998  Biso   1.000  H
  N86      1.0000 0.07768  0.06009  0.14213  Biso   1.000  N
  H245     1.0000 0.18861  0.30062  0.25552  Biso   1.000  H
  H246     1.0000 0.16808  0.25269  0.15560  Biso   1.000  H
  C211     1.0000 0.06960  0.33061  0.17588  Biso   1.000  C
  C212     1.0000 0.24272  0.13332  0.28136  Biso   1.000  C
  H247     1.0000 0.95731  0.34538  0.25842  Biso   1.000  H
  H248     1.0000 0.02031  0.41333  0.26609  Biso   1.000  H
  H249     1.0000 0.65146  0.94062  0.89569  Biso   1.000  H
  H250     1.0000 0.66404  0.94062  0.01816  Biso   1.000  H
  H251     1.0000 0.92226  0.83701  0.91002  Biso   1.000  H
  N87      1.0000 0.96566  0.82949  0.76617  Biso   1.000  N
  H252     1.0000 0.01760  0.86870  0.90148  Biso   1.000  H
  C213     1.0000 0.89476  0.78641  0.71503  Biso   1.000  C
  C214     1.0000 0.82135  0.82289  0.55607  Biso   1.000  C
  C215     1.0000 0.02528  0.00000  0.13399  Biso   1.000  C
  C216     1.0000 0.17182  0.04308  0.14573  Biso   1.000  C
  H253     1.0000 0.02857  0.30689  0.12568  Biso   1.000  H
  H254     1.0000 0.09727  0.37069  0.14072  Biso   1.000  H
  H255     1.0000 0.25719  0.16260  0.22169  Biso   1.000  H
  H256     1.0000 0.29551  0.12961  0.32772  Biso   1.000  H
  N88      1.0000 0.21759  0.06031  0.24479  Biso   1.000  N
  C217     1.0000 0.04491  0.82071  0.72208  Biso   1.000  C
  C218     1.0000 0.94185  0.75091  0.62020  Biso   1.000  C
  C219     1.0000 0.85779  0.72518  0.78449  Biso   1.000  C
  N89      1.0000 0.89186  0.78221  0.52936  Biso   1.000  N
  O43      1.0000 0.76361  0.84776  0.49600  Biso   1.000  O
  O44      1.0000 0.94427  0.00000  0.12099  Biso   1.000  O
  N90      1.0000 0.07768  0.93991  0.14213  Biso   1.000  N
  C220     1.0000 0.17182  0.95692  0.14573  Biso   1.000  C
  C221     1.0000 0.21919  0.07421  0.05247  Biso   1.000  C
  C222     1.0000 0.24882  0.00000  0.29702  Biso   1.000  C
  N91      1.0000 0.03096  0.77910  0.63289  Biso   1.000  N
  O45      1.0000 0.11587  0.84345  0.75669  Biso   1.000  O
  C223     1.0000 0.94225  0.66672  0.62850  Biso   1.000  C
  H257     1.0000 0.81138  0.69938  0.74448  Biso   1.000  H
  H258     1.0000 0.83185  0.74731  0.84440  Biso   1.000  H
  C224     1.0000 0.93039  0.66939  0.82412  Biso   1.000  C
  C225     1.0000 0.89477  0.75282  0.42427  Biso   1.000  C
  C226     1.0000 0.04089  0.86608  0.13344  Biso   1.000  C
  C227     1.0000 0.21919  0.92579  0.05247  Biso   1.000  C
  N92      1.0000 0.21759  0.93969  0.24479  Biso   1.000  N
  H259     1.0000 0.18441  0.06391  0.98818  Biso   1.000  H
  H260     1.0000 0.22383  0.12678  0.05967  Biso   1.000  H
  C228     1.0000 0.31091  0.04210  0.04542  Biso   1.000  C
  O46      1.0000 0.29708  0.00000  0.37807  Biso   1.000  O
  C229     1.0000 0.10522  0.75282  0.57572  Biso   1.000  C
  C230     1.0000 0.98128  0.63962  0.73289  Biso   1.000  C
  H261     1.0000 0.88217  0.64889  0.61832  Biso   1.000  H
  H262     1.0000 0.97607  0.64671  0.57306  Biso   1.000  H
  H263     1.0000 0.97135  0.69311  0.87431  Biso   1.000  H
  H264     1.0000 0.90265  0.62931  0.85928  Biso   1.000  H
  N93      1.0000 0.96896  0.77910  0.36711  Biso   1.000  N
  H265     1.0000 0.84021  0.76531  0.38496  Biso   1.000  H
  H266     1.0000 0.89796  0.70009  0.42874  Biso   1.000  H
  H267     1.0000 0.98239  0.86870  0.09851  Biso   1.000  H
  H268     1.0000 0.07766  0.83701  0.08998  Biso   1.000  H
  N94      1.0000 0.03432  0.82949  0.23383  Biso   1.000  N
  H269     1.0000 0.18441  0.93609  0.98818  Biso   1.000  H
  H270     1.0000 0.22383  0.87322  0.05967  Biso   1.000  H
  C231     1.0000 0.31091  0.95790  0.04542  Biso   1.000  C
  C232     1.0000 0.24272  0.86668  0.28136  Biso   1.000  C
  H271     1.0000 0.33589  0.05938  0.98183  Biso   1.000  H
  H272     1.0000 0.34847  0.05938  0.10431  Biso   1.000  H
  H273     1.0000 0.15978  0.76531  0.61503  Biso   1.000  H
  H274     1.0000 0.10197  0.70009  0.57134  Biso   1.000  H
  N95      1.0000 0.10806  0.78221  0.47063  Biso   1.000  N
  H275     1.0000 0.97968  0.58667  0.73390  Biso   1.000  H
  H276     1.0000 0.04268  0.65462  0.74158  Biso   1.000  H
  C233     1.0000 0.95508  0.82071  0.27792  Biso   1.000  C
  C234     1.0000 0.05807  0.75091  0.37980  Biso   1.000  C
  C235     1.0000 0.10516  0.78641  0.28496  Biso   1.000  C
  H277     1.0000 0.33589  0.94062  0.98183  Biso   1.000  H
  H278     1.0000 0.34847  0.94062  0.10431  Biso   1.000  H
  H279     1.0000 0.25719  0.83740  0.22169  Biso   1.000  H
  H280     1.0000 0.29551  0.87039  0.32772  Biso   1.000  H
  N96      1.0000 0.17457  0.82960  0.33649  Biso   1.000  N
  C236     1.0000 0.17857  0.82289  0.44393  Biso   1.000  C
  O47      1.0000 0.88412  0.84345  0.24330  Biso   1.000  O
  C237     1.0000 0.05767  0.66672  0.37149  Biso   1.000  C
  C238     1.0000 0.14220  0.72518  0.21550  Biso   1.000  C
  O48      1.0000 0.23638  0.84776  0.50399  Biso   1.000  O
  C239     1.0000 0.01871  0.63962  0.26711  Biso   1.000  C
  H281     1.0000 0.11782  0.64889  0.38167  Biso   1.000  H
  H282     1.0000 0.02392  0.64671  0.42694  Biso   1.000  H
  H283     1.0000 0.18861  0.69938  0.25552  Biso   1.000  H
  H284     1.0000 0.16808  0.74731  0.15560  Biso   1.000  H
  C240     1.0000 0.06960  0.66939  0.17588  Biso   1.000  C
  H285     1.0000 0.95731  0.65462  0.25842  Biso   1.000  H
  H286     1.0000 0.02031  0.58667  0.26609  Biso   1.000  H
  H287     1.0000 0.02857  0.69311  0.12568  Biso   1.000  H
  H288     1.0000 0.09727  0.62931  0.14072  Biso   1.000  H
  O49      1.0000 0.73641  0.34773  0.50399  Biso   1.000  O
  C241     1.0000 0.67860  0.32292  0.44393  Biso   1.000  C
  N97      1.0000 0.67460  0.32963  0.33649  Biso   1.000  N
  N98      1.0000 0.60809  0.28219  0.47063  Biso   1.000  N
  C242     1.0000 0.60520  0.28638  0.28496  Biso   1.000  C
  C243     1.0000 0.74269  0.36670  0.28136  Biso   1.000  C
  C244     1.0000 0.55810  0.25089  0.37980  Biso   1.000  C
  C245     1.0000 0.60518  0.25279  0.57572  Biso   1.000  C
  N99      1.0000 0.53429  0.32952  0.23383  Biso   1.000  N
  C246     1.0000 0.64216  0.22520  0.21550  Biso   1.000  C
  N100     1.0000 0.71762  0.43972  0.24479  Biso   1.000  N
  H289     1.0000 0.75723  0.33742  0.22169  Biso   1.000  H
  H290     1.0000 0.79548  0.37041  0.32772  Biso   1.000  H
  N101     1.0000 0.46899  0.27908  0.36711  Biso   1.000  N
  C247     1.0000 0.55770  0.16669  0.37149  Biso   1.000  C
  H291     1.0000 0.65981  0.26528  0.61503  Biso   1.000  H
  H292     1.0000 0.60200  0.20012  0.57134  Biso   1.000  H
  N102     1.0000 0.53100  0.27908  0.63289  Biso   1.000  N
  C248     1.0000 0.45512  0.32068  0.27792  Biso   1.000  C
  C249     1.0000 0.54093  0.36611  0.13344  Biso   1.000  C
  H293     1.0000 0.68858  0.19941  0.25552  Biso   1.000  H
  H294     1.0000 0.66811  0.24729  0.15560  Biso   1.000  H
  C250     1.0000 0.56957  0.16942  0.17588  Biso   1.000  C
  C251     1.0000 0.67179  0.45690  0.14573  Biso   1.000  C
  C252     1.0000 0.74879  0.49997  0.29702  Biso   1.000  C
  C253     1.0000 0.39481  0.25279  0.42427  Biso   1.000  C
  C254     1.0000 0.51868  0.13959  0.26711  Biso   1.000  C
  H295     1.0000 0.61779  0.14892  0.38167  Biso   1.000  H
  H296     1.0000 0.52389  0.14668  0.42694  Biso   1.000  H
  C255     1.0000 0.44189  0.25089  0.62020  Biso   1.000  C
  C256     1.0000 0.54487  0.32068  0.72208  Biso   1.000  C
  O50      1.0000 0.38409  0.34348  0.24330  Biso   1.000  O
  H297     1.0000 0.48242  0.36872  0.09851  Biso   1.000  H
  H298     1.0000 0.57770  0.33699  0.08998  Biso   1.000  H
  N103     1.0000 0.57771  0.43988  0.14213  Biso   1.000  N
  H299     1.0000 0.52861  0.19309  0.12568  Biso   1.000  H
  H300     1.0000 0.59731  0.12929  0.14072  Biso   1.000  H
  C257     1.0000 0.71922  0.42581  0.05247  Biso   1.000  C
  C258     1.0000 0.67179  0.54310  0.14573  Biso   1.000  C
  N104     1.0000 0.71762  0.56028  0.24479  Biso   1.000  N
  O51      1.0000 0.79712  0.49997  0.37807  Biso   1.000  O
  H301     1.0000 0.34018  0.26528  0.38496  Biso   1.000  H
  H302     1.0000 0.39799  0.20012  0.42874  Biso   1.000  H
  N105     1.0000 0.39190  0.28219  0.52936  Biso   1.000  N
  H303     1.0000 0.45728  0.15459  0.25842  Biso   1.000  H
  H304     1.0000 0.52028  0.08670  0.26609  Biso   1.000  H
  C259     1.0000 0.39479  0.28638  0.71503  Biso   1.000  C
  C260     1.0000 0.44229  0.16669  0.62850  Biso   1.000  C
  N106     1.0000 0.46570  0.32952  0.76617  Biso   1.000  N
  O52      1.0000 0.61590  0.34348  0.75669  Biso   1.000  O
  C261     1.0000 0.52531  0.49997  0.13399  Biso   1.000  C
  H305     1.0000 0.72380  0.37319  0.05967  Biso   1.000  H
  C262     1.0000 0.81088  0.45788  0.04542  Biso   1.000  C
  H306     1.0000 0.68438  0.43612  0.98818  Biso   1.000  H
  N107     1.0000 0.57771  0.56012  0.14213  Biso   1.000  N
  C263     1.0000 0.71922  0.57419  0.05247  Biso   1.000  C
  C264     1.0000 0.74269  0.63330  0.28136  Biso   1.000  C
  C265     1.0000 0.32139  0.32292  0.55607  Biso   1.000  C
  N108     1.0000 0.32539  0.32963  0.66351  Biso   1.000  N
  C266     1.0000 0.35776  0.22520  0.78449  Biso   1.000  C
  C267     1.0000 0.48125  0.13959  0.73289  Biso   1.000  C
  H307     1.0000 0.38220  0.14892  0.61832  Biso   1.000  H
  H308     1.0000 0.47610  0.14668  0.57306  Biso   1.000  H
  C268     1.0000 0.45907  0.36611  0.86664  Biso   1.000  C
  O53      1.0000 0.44430  0.49997  0.12099  Biso   1.000  O
  H309     1.0000 0.84850  0.44059  0.10431  Biso   1.000  H
  C269     1.0000 0.81088  0.54212  0.04542  Biso   1.000  C
  H310     1.0000 0.83592  0.44059  0.98183  Biso   1.000  H
  C270     1.0000 0.54093  0.63389  0.13344  Biso   1.000  C
  H311     1.0000 0.72380  0.62681  0.05967  Biso   1.000  H
  H312     1.0000 0.68438  0.56388  0.98818  Biso   1.000  H
  H313     1.0000 0.75723  0.66258  0.22169  Biso   1.000  H
  H314     1.0000 0.79548  0.62959  0.32772  Biso   1.000  H
  N109     1.0000 0.67460  0.67037  0.33649  Biso   1.000  N
  O54      1.0000 0.26358  0.34773  0.49600  Biso   1.000  O
  C271     1.0000 0.25730  0.36670  0.71863  Biso   1.000  C
  H315     1.0000 0.31135  0.19941  0.74448  Biso   1.000  H
  H316     1.0000 0.33188  0.24729  0.84440  Biso   1.000  H
  C272     1.0000 0.43035  0.16942  0.82412  Biso   1.000  C
  H317     1.0000 0.54265  0.15459  0.74158  Biso   1.000  H
  H318     1.0000 0.47965  0.08670  0.73390  Biso   1.000  H
  H319     1.0000 0.51757  0.36872  0.90148  Biso   1.000  H
  H320     1.0000 0.42229  0.33699  0.91002  Biso   1.000  H
  N110     1.0000 0.42228  0.43988  0.85787  Biso   1.000  N
  H321     1.0000 0.84850  0.55941  0.10431  Biso   1.000  H
  H322     1.0000 0.83592  0.55941  0.98183  Biso   1.000  H
  H323     1.0000 0.48242  0.63128  0.09851  Biso   1.000  H
  H324     1.0000 0.57770  0.66301  0.08998  Biso   1.000  H
  N111     1.0000 0.53429  0.67048  0.23383  Biso   1.000  N
  C273     1.0000 0.60520  0.71362  0.28496  Biso   1.000  C
  C274     1.0000 0.67860  0.67708  0.44393  Biso   1.000  C
  H325     1.0000 0.24276  0.33742  0.77831  Biso   1.000  H
  H326     1.0000 0.20445  0.37041  0.67228  Biso   1.000  H
  N112     1.0000 0.28237  0.43972  0.75520  Biso   1.000  N
  H327     1.0000 0.47138  0.19309  0.87431  Biso   1.000  H
  H328     1.0000 0.40268  0.12929  0.85928  Biso   1.000  H
  C275     1.0000 0.32820  0.45690  0.85426  Biso   1.000  C
  C276     1.0000 0.47468  0.49997  0.86601  Biso   1.000  C
  C277     1.0000 0.45512  0.67932  0.27792  Biso   1.000  C
  C278     1.0000 0.55810  0.74911  0.37980  Biso   1.000  C
  C279     1.0000 0.64216  0.77480  0.21550  Biso   1.000  C
  N113     1.0000 0.60809  0.71781  0.47063  Biso   1.000  N
  O55      1.0000 0.73641  0.65227  0.50399  Biso   1.000  O
  C280     1.0000 0.25120  0.49997  0.70297  Biso   1.000  C
  C281     1.0000 0.32820  0.54310  0.85426  Biso   1.000  C
  C282     1.0000 0.28077  0.42581  0.94753  Biso   1.000  C
  N114     1.0000 0.42228  0.56012  0.85787  Biso   1.000  N
  O56      1.0000 0.55569  0.49997  0.87901  Biso   1.000  O
  N115     1.0000 0.46899  0.72092  0.36711  Biso   1.000  N
  O57      1.0000 0.38409  0.65652  0.24330  Biso   1.000  O
  C283     1.0000 0.55770  0.83331  0.37149  Biso   1.000  C
  H329     1.0000 0.68858  0.80059  0.25552  Biso   1.000  H
  H330     1.0000 0.66811  0.75271  0.15560  Biso   1.000  H
  C284     1.0000 0.56957  0.83058  0.17588  Biso   1.000  C
  C285     1.0000 0.60518  0.74721  0.57572  Biso   1.000  C
  N116     1.0000 0.28237  0.56028  0.75520  Biso   1.000  N
  O58      1.0000 0.20287  0.49997  0.62192  Biso   1.000  O
  C286     1.0000 0.28077  0.57419  0.94753  Biso   1.000  C
  H331     1.0000 0.27619  0.37319  0.94033  Biso   1.000  H
  C287     1.0000 0.18905  0.45788  0.95458  Biso   1.000  C
  H332     1.0000 0.31555  0.43612  0.01182  Biso   1.000  H
  C288     1.0000 0.45907  0.63389  0.86664  Biso   1.000  C
  C289     1.0000 0.39481  0.74721  0.42427  Biso   1.000  C
  C290     1.0000 0.51868  0.86041  0.26711  Biso   1.000  C
  H333     1.0000 0.61779  0.85108  0.38167  Biso   1.000  H
  H334     1.0000 0.52389  0.85332  0.42694  Biso   1.000  H
  H335     1.0000 0.52861  0.80691  0.12568  Biso   1.000  H
  H336     1.0000 0.59731  0.87071  0.14072  Biso   1.000  H
  H337     1.0000 0.65981  0.73472  0.61503  Biso   1.000  H
  H338     1.0000 0.60200  0.79988  0.57134  Biso   1.000  H
  N117     1.0000 0.53100  0.72092  0.63289  Biso   1.000  N
  C291     1.0000 0.25730  0.63330  0.71863  Biso   1.000  C
  H339     1.0000 0.27619  0.62681  0.94033  Biso   1.000  H
  C292     1.0000 0.18905  0.54212  0.95458  Biso   1.000  C
  H340     1.0000 0.31555  0.56388  0.01182  Biso   1.000  H
  H341     1.0000 0.15149  0.44059  0.89569  Biso   1.000  H
  H342     1.0000 0.16407  0.44059  0.01816  Biso   1.000  H
  H343     1.0000 0.51757  0.63128  0.90148  Biso   1.000  H
  H344     1.0000 0.42229  0.66301  0.91002  Biso   1.000  H
  N118     1.0000 0.46570  0.67048  0.76617  Biso   1.000  N
  H345     1.0000 0.34018  0.73472  0.38496  Biso   1.000  H
  H346     1.0000 0.39799  0.79988  0.42874  Biso   1.000  H
  N119     1.0000 0.39190  0.71781  0.52936  Biso   1.000  N
  H347     1.0000 0.45728  0.84541  0.25842  Biso   1.000  H
  H348     1.0000 0.52028  0.91330  0.26609  Biso   1.000  H
  C293     1.0000 0.44189  0.74911  0.62020  Biso   1.000  C
  C294     1.0000 0.54487  0.67932  0.72208  Biso   1.000  C
  H349     1.0000 0.24276  0.66258  0.77831  Biso   1.000  H
  H350     1.0000 0.20445  0.62959  0.67228  Biso   1.000  H
  N120     1.0000 0.32539  0.67037  0.66351  Biso   1.000  N
  H351     1.0000 0.15149  0.55941  0.89569  Biso   1.000  H
  H352     1.0000 0.16407  0.55941  0.01816  Biso   1.000  H
  C295     1.0000 0.39479  0.71362  0.71503  Biso   1.000  C
  C296     1.0000 0.32139  0.67708  0.55607  Biso   1.000  C
  C297     1.0000 0.44229  0.83331  0.62850  Biso   1.000  C
  O59      1.0000 0.61590  0.65652  0.75669  Biso   1.000  O
  C298     1.0000 0.35776  0.77480  0.78449  Biso   1.000  C
  O60      1.0000 0.26358  0.65227  0.49600  Biso   1.000  O
  C299     1.0000 0.48125  0.86041  0.73289  Biso   1.000  C
  H353     1.0000 0.38220  0.85108  0.61832  Biso   1.000  H
  H354     1.0000 0.47610  0.85332  0.57306  Biso   1.000  H
  H355     1.0000 0.31135  0.80059  0.74448  Biso   1.000  H
  H356     1.0000 0.33188  0.75271  0.84440  Biso   1.000  H
  C300     1.0000 0.43035  0.83058  0.82412  Biso   1.000  C
  H357     1.0000 0.54265  0.84541  0.74158  Biso   1.000  H
  H358     1.0000 0.47965  0.91330  0.73390  Biso   1.000  H
  H359     1.0000 0.47138  0.80691  0.87431  Biso   1.000  H
  H360     1.0000 0.40268  0.87071  0.85928  Biso   1.000  H
