data_image0
_cell_length_a       38.258
_cell_length_b       18.145
_cell_length_c       20.4
_cell_angle_alpha    90
_cell_angle_beta     116.35
_cell_angle_gamma    90

_symmetry_space_group_name_H-M    "P 1"
_symmetry_int_tables_number       1

loop_
  _symmetry_equiv_pos_as_xyz
  'x, y, z'

loop_
  _atom_site_label
  _atom_site_occupancy
  _atom_site_fract_x
  _atom_site_fract_y
  _atom_site_fract_z
  _atom_site_thermal_displace_type
  _atom_site_B_iso_or_equiv
  _atom_site_type_symbol
  C1       1.0000 0.12065  0.45059  0.42718  Biso   1.000  C
  C2       1.0000 0.08487  0.49882  0.39802  Biso   1.000  C
  H1       1.0000 0.12661  0.43808  0.38599  Biso   1.000  H
  H2       1.0000 0.14282  0.48002  0.46263  Biso   1.000  H
  C3       1.0000 0.11890  0.38060  0.46372  Biso   1.000  C
  C4       1.0000 0.07347  0.52587  0.45623  Biso   1.000  C
  H3       1.0000 0.06281  0.47082  0.36082  Biso   1.000  H
  H4       1.0000 0.08960  0.54202  0.37330  Biso   1.000  H
  H5       1.0000 0.14540  0.35889  0.48768  Biso   1.000  H
  H6       1.0000 0.11070  0.39179  0.50229  Biso   1.000  H
  C5       1.0000 0.09331  0.32880  0.41558  Biso   1.000  C
  C6       1.0000 0.03923  0.57862  0.42619  Biso   1.000  C
  H7       1.0000 0.06671  0.48300  0.47833  Biso   1.000  H
  H8       1.0000 0.09610  0.55090  0.49528  Biso   1.000  H
  H9       1.0000 0.09890  0.32439  0.37280  Biso   1.000  H
  H10      1.0000 0.06631  0.34792  0.39758  Biso   1.000  H
  C7       1.0000 0.09481  0.24921  0.44818  Biso   1.000  C
  C8       1.0000 0.04599  0.65522  0.43309  Biso   1.000  C
  C9       1.0000 0.00085  0.55227  0.38648  Biso   1.000  C
  H11      1.0000 0.12021  0.22667  0.46011  Biso   1.000  H
  H12      1.0000 0.07400  0.21868  0.41208  Biso   1.000  H
  H13      1.0000 0.09110  0.25291  0.49260  Biso   1.000  H
  C10      1.0000 0.08679  0.68261  0.47581  Biso   1.000  C
  C11      1.0000 0.01521  0.70449  0.39868  Biso   1.000  C
  C12      1.0000 0.99357  0.47021  0.37762  Biso   1.000  C
  C13      1.0000 0.96952  0.60171  0.35273  Biso   1.000  C
  C14      1.0000 0.10188  0.70433  0.54851  Biso   1.000  C
  C15      1.0000 0.11144  0.68658  0.44359  Biso   1.000  C
  C16      1.0000 0.02334  0.78727  0.40409  Biso   1.000  C
  C17      1.0000 0.97722  0.67809  0.35732  Biso   1.000  C
  C18      1.0000 0.00042  0.42392  0.43659  Biso   1.000  C
  C19      1.0000 0.97935  0.43792  0.30989  Biso   1.000  C
  C20      1.0000 0.92802  0.57300  0.31279  Biso   1.000  C
  C21      1.0000 0.14008  0.72918  0.58680  Biso   1.000  C
  H14      1.0000 0.08569  0.70201  0.57280  Biso   1.000  H
  C22      1.0000 0.14974  0.71050  0.48128  Biso   1.000  C
  H15      1.0000 0.10201  0.67242  0.39381  Biso   1.000  H
  H16      1.0000 0.04991  0.79548  0.40869  Biso   1.000  H
  H17      1.0000 0.00471  0.81108  0.35831  Biso   1.000  H
  C23      1.0000 0.02025  0.82408  0.46859  Biso   1.000  C
  C24      1.0000 0.94496  0.73072  0.31279  Biso   1.000  C
  C25      1.0000 0.99427  0.34831  0.42762  Biso   1.000  C
  H18      1.0000 0.00949  0.44448  0.48418  Biso   1.000  H
  C26      1.0000 0.97234  0.36252  0.29939  Biso   1.000  C
  H19      1.0000 0.97410  0.46817  0.26848  Biso   1.000  H
  H20      1.0000 0.92719  0.53249  0.27970  Biso   1.000  H
  H21      1.0000 0.91089  0.61301  0.28249  Biso   1.000  H
  C27      1.0000 0.91261  0.54489  0.36553  Biso   1.000  C
  C28      1.0000 0.16446  0.73309  0.55409  Biso   1.000  C
  H22      1.0000 0.14942  0.74379  0.63642  Biso   1.000  H
  H23      1.0000 0.16611  0.71160  0.45732  Biso   1.000  H
  H24      1.0000 0.03951  0.80132  0.51448  Biso   1.000  H
  C29      1.0000 0.02721  0.90807  0.47269  Biso   1.000  C
  H25      1.0000 0.99401  0.81449  0.46492  Biso   1.000  H
  C30      1.0000 0.91856  0.76098  0.33500  Biso   1.000  C
  C31      1.0000 0.94088  0.75222  0.24441  Biso   1.000  C
  C32      1.0000 0.98063  0.31700  0.35858  Biso   1.000  C
  H26      1.0000 0.99940  0.31788  0.46881  Biso   1.000  H
  H27      1.0000 0.96180  0.34241  0.25153  Biso   1.000  H
  H28      1.0000 0.91070  0.58688  0.39479  Biso   1.000  H
  H29      1.0000 0.93160  0.50929  0.39972  Biso   1.000  H
  C33      1.0000 0.87254  0.50741  0.32751  Biso   1.000  C
  N1       1.0000 0.20223  0.76060  0.59271  Biso   1.000  N
  H30      1.0000 0.00701  0.93122  0.42800  Biso   1.000  H
  H31      1.0000 0.02401  0.92791  0.51503  Biso   1.000  H
  C34      1.0000 0.06631  0.92951  0.48030  Biso   1.000  C
  C35      1.0000 0.88958  0.81009  0.29108  Biso   1.000  C
  H32      1.0000 0.92031  0.74792  0.38139  Biso   1.000  H
  C36      1.0000 0.91207  0.80121  0.19978  Biso   1.000  C
  H33      1.0000 0.95839  0.73282  0.22729  Biso   1.000  H
  N2       1.0000 0.97632  0.24029  0.34923  Biso   1.000  N
  H34      1.0000 0.86330  0.49611  0.36471  Biso   1.000  H
  H35      1.0000 0.85381  0.54252  0.29223  Biso   1.000  H
  C37      1.0000 0.87227  0.43681  0.28719  Biso   1.000  C
  C38      1.0000 0.23327  0.74401  0.57181  Biso   1.000  C
  H36      1.0000 0.20850  0.76699  0.63899  Biso   1.000  H
  H37      1.0000 0.06791  0.91601  0.43473  Biso   1.000  H
  H38      1.0000 0.08631  0.90058  0.52061  Biso   1.000  H
  C39      1.0000 0.07600  0.01119  0.49528  Biso   1.000  C
  C40      1.0000 0.88587  0.83097  0.22281  Biso   1.000  C
  H39      1.0000 0.87210  0.82959  0.30820  Biso   1.000  H
  H40      1.0000 0.91029  0.81427  0.15328  Biso   1.000  H
  C41      1.0000 0.94461  0.20970  0.28550  Biso   1.000  C
  H41      1.0000 0.97700  0.22001  0.38101  Biso   1.000  H
  H42      1.0000 0.89161  0.40231  0.32242  Biso   1.000  H
  H43      1.0000 0.88089  0.44850  0.24928  Biso   1.000  H
  C42      1.0000 0.83285  0.39769  0.25071  Biso   1.000  C
  C43      1.0000 0.26378  0.80441  0.59490  Biso   1.000  C
  H44      1.0000 0.22181  0.73772  0.51810  Biso   1.000  H
  H45      1.0000 0.24590  0.69700  0.59479  Biso   1.000  H
  H46      1.0000 0.06301  0.02739  0.52543  Biso   1.000  H
  H47      1.0000 0.10441  0.01339  0.52761  Biso   1.000  H
  C44      1.0000 0.06990  0.05649  0.45262  Biso   1.000  C
  N3       1.0000 0.85634  0.87942  0.17779  Biso   1.000  N
  C45      1.0000 0.94657  0.12560  0.28703  Biso   1.000  C
  H48      1.0000 0.94590  0.22822  0.24091  Biso   1.000  H
  H49      1.0000 0.91951  0.22590  0.28369  Biso   1.000  H
  H50      1.0000 0.82510  0.38292  0.28911  Biso   1.000  H
  H51      1.0000 0.81311  0.43318  0.21821  Biso   1.000  H
  C46      1.0000 0.83203  0.33183  0.20738  Biso   1.000  C
  C47      1.0000 0.25374  0.87550  0.56011  Biso   1.000  C
  C48      1.0000 0.30032  0.79091  0.64670  Biso   1.000  C
  H52      1.0000 0.08919  0.05362  0.43330  Biso   1.000  H
  H53      1.0000 0.07172  0.10482  0.47532  Biso   1.000  H
  H54      1.0000 0.04371  0.04988  0.41252  Biso   1.000  H
  C49      1.0000 0.86143  0.92158  0.12243  Biso   1.000  C
  H55      1.0000 0.84801  0.90802  0.20399  Biso   1.000  H
  C50      1.0000 0.97406  0.08923  0.26930  Biso   1.000  C
  C51      1.0000 0.92260  0.08658  0.30732  Biso   1.000  C
  H56      1.0000 0.83771  0.34621  0.16690  Biso   1.000  H
  H57      1.0000 0.80609  0.30901  0.18791  Biso   1.000  H
  H58      1.0000 0.85169  0.29639  0.23878  Biso   1.000  H
  C52      1.0000 0.21738  0.89259  0.50322  Biso   1.000  C
  C53      1.0000 0.28330  0.93139  0.58429  Biso   1.000  C
  C54      1.0000 0.32953  0.84591  0.66919  Biso   1.000  C
  H59      1.0000 0.30660  0.74351  0.66858  Biso   1.000  H
  C55      1.0000 0.82974  0.97873  0.08939  Biso   1.000  C
  H60      1.0000 0.86070  0.88801  0.08359  Biso   1.000  H
  H61      1.0000 0.88720  0.94621  0.14453  Biso   1.000  H
  C56      1.0000 0.99999  0.12439  0.24999  Biso   1.000  C
  C57      1.0000 0.97451  0.00871  0.27078  Biso   1.000  C
  C58      1.0000 0.92412  0.00678  0.31022  Biso   1.000  C
  H62      1.0000 0.90461  0.11199  0.31969  Biso   1.000  H
  C59      1.0000 0.20782  0.96159  0.46968  Biso   1.000  C
  H63      1.0000 0.19801  0.85511  0.48631  Biso   1.000  H
  C60      1.0000 0.27362  0.00138  0.55223  Biso   1.000  C
  C61      1.0000 0.32109  0.91419  0.63948  Biso   1.000  C
  H64      1.0000 0.35520  0.83489  0.70529  Biso   1.000  H
  C62      1.0000 0.79216  0.96159  0.03031  Biso   1.000  C
  C63      1.0000 0.83701  0.04861  0.11668  Biso   1.000  C
  C64      1.0000 0.02595  0.08923  0.23068  Biso   1.000  C
  H65      1.0000 0.99999  0.17680  0.24999  Biso   1.000  H
  C65      1.0000 0.99999  0.97360  0.24999  Biso   1.000  C
  C66      1.0000 0.94929  0.97162  0.29201  Biso   1.000  C
  H66      1.0000 0.90750  0.97977  0.32483  Biso   1.000  H
  C67      1.0000 0.17026  0.97873  0.41060  Biso   1.000  C
  C68      1.0000 0.23751  0.01780  0.49682  Biso   1.000  C
  H67      1.0000 0.29282  0.03907  0.56952  Biso   1.000  H
  H68      1.0000 0.34081  0.95101  0.65589  Biso   1.000  H
  C69      1.0000 0.78268  0.89259  0.99688  Biso   1.000  C
  C70      1.0000 0.76250  0.01780  0.00317  Biso   1.000  C
  C71      1.0000 0.80767  0.10400  0.08911  Biso   1.000  C
  H69      1.0000 0.86201  0.06051  0.15470  Biso   1.000  H
  C72      1.0000 0.05345  0.12560  0.21301  Biso   1.000  C
  C73      1.0000 0.02549  0.00871  0.22921  Biso   1.000  C
  H70      1.0000 0.99999  0.92119  0.24999  Biso   1.000  H
  H71      1.0000 0.95001  0.91921  0.29359  Biso   1.000  H
  C74      1.0000 0.13859  0.92158  0.37762  Biso   1.000  C
  C75      1.0000 0.16299  0.04861  0.38331  Biso   1.000  C
  C76      1.0000 0.22800  0.08890  0.46481  Biso   1.000  C
  C77      1.0000 0.74631  0.87550  0.93994  Biso   1.000  C
  H72      1.0000 0.80200  0.85511  0.01368  Biso   1.000  H
  C78      1.0000 0.72644  0.00138  0.94787  Biso   1.000  C
  C79      1.0000 0.77198  0.08890  0.03517  Biso   1.000  C
  H73      1.0000 0.81330  0.15238  0.10902  Biso   1.000  H
  C80      1.0000 0.05539  0.20970  0.21449  Biso   1.000  C
  C81      1.0000 0.07742  0.08658  0.19272  Biso   1.000  C
  C82      1.0000 0.05069  0.97162  0.20798  Biso   1.000  C
  N4       1.0000 0.14367  0.87942  0.32220  Biso   1.000  N
  H74      1.0000 0.13930  0.88801  0.41640  Biso   1.000  H
  H75      1.0000 0.11281  0.94621  0.35552  Biso   1.000  H
  C83      1.0000 0.19233  0.10400  0.41088  Biso   1.000  C
  H76      1.0000 0.13800  0.06051  0.34529  Biso   1.000  H
  H77      1.0000 0.24721  0.12670  0.48183  Biso   1.000  H
  C84      1.0000 0.73627  0.80441  0.90514  Biso   1.000  C
  C85      1.0000 0.71674  0.93139  0.91576  Biso   1.000  C
  H78      1.0000 0.70722  0.03907  0.93053  Biso   1.000  H
  H79      1.0000 0.75281  0.12670  0.01822  Biso   1.000  H
  N5       1.0000 0.02370  0.24029  0.15082  Biso   1.000  N
  H80      1.0000 0.05410  0.22822  0.25907  Biso   1.000  H
  H81      1.0000 0.08049  0.22590  0.21630  Biso   1.000  H
  C86      1.0000 0.07590  0.00678  0.18982  Biso   1.000  C
  H82      1.0000 0.09539  0.11199  0.18030  Biso   1.000  H
  H83      1.0000 0.05000  0.91921  0.20640  Biso   1.000  H
  C87      1.0000 0.11414  0.83097  0.27718  Biso   1.000  C
  H84      1.0000 0.15200  0.90802  0.29600  Biso   1.000  H
  H85      1.0000 0.18672  0.15238  0.39102  Biso   1.000  H
  C88      1.0000 0.76677  0.74401  0.92823  Biso   1.000  C
  C89      1.0000 0.69972  0.79091  0.85334  Biso   1.000  C
  C90      1.0000 0.67893  0.91419  0.86056  Biso   1.000  C
  C91      1.0000 0.01935  0.31700  0.14141  Biso   1.000  C
  H86      1.0000 0.02298  0.22001  0.11898  Biso   1.000  H
  H87      1.0000 0.09252  0.97977  0.17521  Biso   1.000  H
  C92      1.0000 0.11042  0.81009  0.20891  Biso   1.000  C
  C93      1.0000 0.08794  0.80121  0.30021  Biso   1.000  C
  N6       1.0000 0.79782  0.76060  0.90733  Biso   1.000  N
  H88      1.0000 0.77823  0.73772  0.98195  Biso   1.000  H
  H89      1.0000 0.75415  0.69700  0.90525  Biso   1.000  H
  C94      1.0000 0.67049  0.84591  0.83086  Biso   1.000  C
  H90      1.0000 0.69345  0.74351  0.83146  Biso   1.000  H
  H91      1.0000 0.65923  0.95101  0.84415  Biso   1.000  H
  C95      1.0000 0.02766  0.36252  0.20060  Biso   1.000  C
  C96      1.0000 0.00575  0.34831  0.07243  Biso   1.000  C
  C97      1.0000 0.08144  0.76098  0.16499  Biso   1.000  C
  H92      1.0000 0.12791  0.82959  0.19179  Biso   1.000  H
  C98      1.0000 0.05914  0.75222  0.25563  Biso   1.000  C
  H93      1.0000 0.08972  0.81427  0.34671  Biso   1.000  H
  C99      1.0000 0.83558  0.73309  0.94595  Biso   1.000  C
  H94      1.0000 0.79154  0.76699  0.86105  Biso   1.000  H
  H95      1.0000 0.64485  0.83489  0.79475  Biso   1.000  H
  C100     1.0000 0.02066  0.43792  0.19009  Biso   1.000  C
  H96      1.0000 0.03819  0.34241  0.24852  Biso   1.000  H
  C101     1.0000 0.99958  0.42392  0.06340  Biso   1.000  C
  H97      1.0000 0.00058  0.31788  0.03118  Biso   1.000  H
  C102     1.0000 0.05505  0.73072  0.18719  Biso   1.000  C
  H98      1.0000 0.07969  0.74792  0.11860  Biso   1.000  H
  H99      1.0000 0.04159  0.73282  0.27270  Biso   1.000  H
  C103     1.0000 0.85996  0.72918  0.91324  Biso   1.000  C
  C104     1.0000 0.85026  0.71050  0.01871  Biso   1.000  C
  C105     1.0000 0.00644  0.47021  0.12243  Biso   1.000  C
  H100     1.0000 0.02591  0.46817  0.23150  Biso   1.000  H
  H101     1.0000 0.99049  0.44448  0.01581  Biso   1.000  H
  C106     1.0000 0.02280  0.67809  0.14272  Biso   1.000  C
  C107     1.0000 0.89814  0.70433  0.95153  Biso   1.000  C
  H102     1.0000 0.85064  0.74379  0.86368  Biso   1.000  H
  C108     1.0000 0.88856  0.68658  0.05640  Biso   1.000  C
  H103     1.0000 0.83391  0.71160  0.04272  Biso   1.000  H
  C109     1.0000 0.99913  0.55227  0.11351  Biso   1.000  C
  C110     1.0000 0.03050  0.60171  0.14732  Biso   1.000  C
  C111     1.0000 0.98480  0.70449  0.10131  Biso   1.000  C
  C112     1.0000 0.91322  0.68261  0.02418  Biso   1.000  C
  H104     1.0000 0.91432  0.70201  0.92724  Biso   1.000  H
  H105     1.0000 0.89799  0.67242  0.10618  Biso   1.000  H
  C113     1.0000 0.96077  0.57862  0.07379  Biso   1.000  C
  C114     1.0000 0.07198  0.57300  0.18719  Biso   1.000  C
  C115     1.0000 0.95399  0.65522  0.06690  Biso   1.000  C
  C116     1.0000 0.97664  0.78727  0.09589  Biso   1.000  C
  C117     1.0000 0.92654  0.52587  0.04382  Biso   1.000  C
  C118     1.0000 0.08741  0.54489  0.13452  Biso   1.000  C
  H106     1.0000 0.07281  0.53249  0.22029  Biso   1.000  H
  H107     1.0000 0.08909  0.61301  0.21750  Biso   1.000  H
  H108     1.0000 0.95009  0.79548  0.09130  Biso   1.000  H
  H109     1.0000 0.99529  0.81108  0.14168  Biso   1.000  H
  C119     1.0000 0.97975  0.82408  0.03140  Biso   1.000  C
  H110     1.0000 0.93331  0.48300  0.02172  Biso   1.000  H
  H111     1.0000 0.90390  0.55090  0.00470  Biso   1.000  H
  C120     1.0000 0.91515  0.49882  0.10202  Biso   1.000  C
  C121     1.0000 0.12747  0.50741  0.17248  Biso   1.000  C
  H112     1.0000 0.08930  0.58688  0.10519  Biso   1.000  H
  H113     1.0000 0.06841  0.50929  0.10033  Biso   1.000  H
  H114     1.0000 0.00601  0.81449  0.03512  Biso   1.000  H
  H115     1.0000 0.96054  0.80132  0.98556  Biso   1.000  H
  C122     1.0000 0.97279  0.90807  0.02730  Biso   1.000  C
  H116     1.0000 0.93720  0.47082  0.13922  Biso   1.000  H
  H117     1.0000 0.91040  0.54202  0.12669  Biso   1.000  H
  C123     1.0000 0.87935  0.45059  0.07281  Biso   1.000  C
  C124     1.0000 0.12773  0.43681  0.21280  Biso   1.000  C
  H118     1.0000 0.13670  0.49611  0.13528  Biso   1.000  H
  H119     1.0000 0.14621  0.54252  0.20782  Biso   1.000  H
  H120     1.0000 0.97605  0.92791  0.98507  Biso   1.000  H
  H121     1.0000 0.99299  0.93122  0.07199  Biso   1.000  H
  C125     1.0000 0.93370  0.92951  0.01969  Biso   1.000  C
  H122     1.0000 0.87339  0.43808  0.11400  Biso   1.000  H
  H123     1.0000 0.85720  0.48002  0.03742  Biso   1.000  H
  C126     1.0000 0.88109  0.38060  0.03632  Biso   1.000  C
  C127     1.0000 0.16716  0.39769  0.24928  Biso   1.000  C
  H124     1.0000 0.10840  0.40231  0.17762  Biso   1.000  H
  H125     1.0000 0.11911  0.44850  0.25071  Biso   1.000  H
  H126     1.0000 0.91374  0.90058  0.97943  Biso   1.000  H
  H127     1.0000 0.93210  0.91601  0.06532  Biso   1.000  H
  C128     1.0000 0.92401  0.01119  0.00470  Biso   1.000  C
  H128     1.0000 0.88935  0.39179  0.99776  Biso   1.000  H
  H129     1.0000 0.85460  0.35889  0.01231  Biso   1.000  H
  C129     1.0000 0.90669  0.32880  0.08441  Biso   1.000  C
  C130     1.0000 0.16798  0.33183  0.29261  Biso   1.000  C
  H130     1.0000 0.17490  0.38292  0.21088  Biso   1.000  H
  H131     1.0000 0.18690  0.43318  0.28178  Biso   1.000  H
  H132     1.0000 0.93705  0.02739  0.97467  Biso   1.000  H
  H133     1.0000 0.89564  0.01339  0.97243  Biso   1.000  H
  C131     1.0000 0.93010  0.05649  0.04737  Biso   1.000  C
  H134     1.0000 0.90111  0.32439  0.12719  Biso   1.000  H
  H135     1.0000 0.93369  0.34792  0.10240  Biso   1.000  H
  C132     1.0000 0.90520  0.24921  0.05180  Biso   1.000  C
  H136     1.0000 0.16229  0.34621  0.33309  Biso   1.000  H
  H137     1.0000 0.19389  0.30901  0.31208  Biso   1.000  H
  H138     1.0000 0.14831  0.29639  0.26121  Biso   1.000  H
  H139     1.0000 0.91078  0.05362  0.06668  Biso   1.000  H
  H140     1.0000 0.92830  0.10482  0.02473  Biso   1.000  H
  H141     1.0000 0.95631  0.04988  0.08753  Biso   1.000  H
  H142     1.0000 0.87979  0.22667  0.03988  Biso   1.000  H
  H143     1.0000 0.92600  0.21868  0.08791  Biso   1.000  H
  H144     1.0000 0.90890  0.25291  0.00738  Biso   1.000  H
  C133     1.0000 0.12065  0.45059  0.42718  Biso   1.000  C
  C134     1.0000 0.08487  0.49882  0.39802  Biso   1.000  C
  H145     1.0000 0.12661  0.43808  0.38599  Biso   1.000  H
  H146     1.0000 0.14282  0.48002  0.46263  Biso   1.000  H
  C135     1.0000 0.11890  0.38060  0.46372  Biso   1.000  C
  C136     1.0000 0.07347  0.52587  0.45623  Biso   1.000  C
  H147     1.0000 0.06281  0.47082  0.36082  Biso   1.000  H
  H148     1.0000 0.08960  0.54202  0.37330  Biso   1.000  H
  H149     1.0000 0.14540  0.35889  0.48768  Biso   1.000  H
  H150     1.0000 0.11070  0.39179  0.50229  Biso   1.000  H
  C137     1.0000 0.09331  0.32880  0.41558  Biso   1.000  C
  C138     1.0000 0.03923  0.57862  0.42619  Biso   1.000  C
  H151     1.0000 0.06671  0.48300  0.47833  Biso   1.000  H
  H152     1.0000 0.09610  0.55090  0.49528  Biso   1.000  H
  H153     1.0000 0.09890  0.32439  0.37280  Biso   1.000  H
  H154     1.0000 0.06631  0.34792  0.39758  Biso   1.000  H
  C139     1.0000 0.09481  0.24921  0.44818  Biso   1.000  C
  C140     1.0000 0.04599  0.65522  0.43309  Biso   1.000  C
  C141     1.0000 0.00085  0.55227  0.38648  Biso   1.000  C
  H155     1.0000 0.12021  0.22667  0.46011  Biso   1.000  H
  H156     1.0000 0.07400  0.21868  0.41208  Biso   1.000  H
  H157     1.0000 0.09110  0.25291  0.49260  Biso   1.000  H
  C142     1.0000 0.08679  0.68261  0.47581  Biso   1.000  C
  C143     1.0000 0.01521  0.70449  0.39868  Biso   1.000  C
  C144     1.0000 0.99357  0.47021  0.37762  Biso   1.000  C
  C145     1.0000 0.96952  0.60171  0.35273  Biso   1.000  C
  C146     1.0000 0.10188  0.70433  0.54851  Biso   1.000  C
  C147     1.0000 0.11144  0.68658  0.44359  Biso   1.000  C
  C148     1.0000 0.02334  0.78727  0.40409  Biso   1.000  C
  C149     1.0000 0.97722  0.67809  0.35732  Biso   1.000  C
  C150     1.0000 0.00042  0.42392  0.43659  Biso   1.000  C
  C151     1.0000 0.97935  0.43792  0.30989  Biso   1.000  C
  C152     1.0000 0.92802  0.57300  0.31279  Biso   1.000  C
  C153     1.0000 0.14008  0.72918  0.58680  Biso   1.000  C
  H158     1.0000 0.08569  0.70201  0.57280  Biso   1.000  H
  C154     1.0000 0.14974  0.71050  0.48128  Biso   1.000  C
  H159     1.0000 0.10201  0.67242  0.39381  Biso   1.000  H
  H160     1.0000 0.04991  0.79548  0.40869  Biso   1.000  H
  H161     1.0000 0.00471  0.81108  0.35831  Biso   1.000  H
  C155     1.0000 0.02025  0.82408  0.46859  Biso   1.000  C
  C156     1.0000 0.94496  0.73072  0.31279  Biso   1.000  C
  C157     1.0000 0.99427  0.34831  0.42762  Biso   1.000  C
  H162     1.0000 0.00949  0.44448  0.48418  Biso   1.000  H
  C158     1.0000 0.97234  0.36252  0.29939  Biso   1.000  C
  H163     1.0000 0.97410  0.46817  0.26848  Biso   1.000  H
  H164     1.0000 0.92719  0.53249  0.27970  Biso   1.000  H
  H165     1.0000 0.91089  0.61301  0.28249  Biso   1.000  H
  C159     1.0000 0.91261  0.54489  0.36553  Biso   1.000  C
  C160     1.0000 0.16446  0.73309  0.55409  Biso   1.000  C
  H166     1.0000 0.14942  0.74379  0.63642  Biso   1.000  H
  H167     1.0000 0.16611  0.71160  0.45732  Biso   1.000  H
  H168     1.0000 0.03951  0.80132  0.51448  Biso   1.000  H
  C161     1.0000 0.02721  0.90807  0.47269  Biso   1.000  C
  H169     1.0000 0.99401  0.81449  0.46492  Biso   1.000  H
  C162     1.0000 0.91856  0.76098  0.33500  Biso   1.000  C
  C163     1.0000 0.94088  0.75222  0.24441  Biso   1.000  C
  C164     1.0000 0.98063  0.31700  0.35858  Biso   1.000  C
  H170     1.0000 0.99940  0.31788  0.46881  Biso   1.000  H
  H171     1.0000 0.96180  0.34241  0.25153  Biso   1.000  H
  H172     1.0000 0.91070  0.58688  0.39479  Biso   1.000  H
  H173     1.0000 0.93160  0.50929  0.39972  Biso   1.000  H
  C165     1.0000 0.87254  0.50741  0.32751  Biso   1.000  C
  N7       1.0000 0.20223  0.76060  0.59271  Biso   1.000  N
  H174     1.0000 0.00701  0.93122  0.42800  Biso   1.000  H
  H175     1.0000 0.02401  0.92791  0.51503  Biso   1.000  H
  C166     1.0000 0.06631  0.92951  0.48030  Biso   1.000  C
  C167     1.0000 0.88958  0.81009  0.29108  Biso   1.000  C
  H176     1.0000 0.92031  0.74792  0.38139  Biso   1.000  H
  C168     1.0000 0.91207  0.80121  0.19978  Biso   1.000  C
  H177     1.0000 0.95839  0.73282  0.22729  Biso   1.000  H
  N8       1.0000 0.97632  0.24029  0.34923  Biso   1.000  N
  H178     1.0000 0.86330  0.49611  0.36471  Biso   1.000  H
  H179     1.0000 0.85381  0.54252  0.29223  Biso   1.000  H
  C169     1.0000 0.87227  0.43681  0.28719  Biso   1.000  C
  C170     1.0000 0.23327  0.74401  0.57181  Biso   1.000  C
  H180     1.0000 0.20850  0.76699  0.63899  Biso   1.000  H
  H181     1.0000 0.06791  0.91601  0.43473  Biso   1.000  H
  H182     1.0000 0.08631  0.90058  0.52061  Biso   1.000  H
  C171     1.0000 0.07600  0.01119  0.49528  Biso   1.000  C
  C172     1.0000 0.88587  0.83097  0.22281  Biso   1.000  C
  H183     1.0000 0.87210  0.82959  0.30820  Biso   1.000  H
  H184     1.0000 0.91029  0.81427  0.15328  Biso   1.000  H
  C173     1.0000 0.94461  0.20970  0.28550  Biso   1.000  C
  H185     1.0000 0.97700  0.22001  0.38101  Biso   1.000  H
  H186     1.0000 0.89161  0.40231  0.32242  Biso   1.000  H
  H187     1.0000 0.88089  0.44850  0.24928  Biso   1.000  H
  C174     1.0000 0.83285  0.39769  0.25071  Biso   1.000  C
  C175     1.0000 0.26378  0.80441  0.59490  Biso   1.000  C
  H188     1.0000 0.22181  0.73772  0.51810  Biso   1.000  H
  H189     1.0000 0.24590  0.69700  0.59479  Biso   1.000  H
  H190     1.0000 0.06301  0.02739  0.52543  Biso   1.000  H
  H191     1.0000 0.10441  0.01339  0.52761  Biso   1.000  H
  C176     1.0000 0.06990  0.05649  0.45262  Biso   1.000  C
  N9       1.0000 0.85634  0.87942  0.17779  Biso   1.000  N
  C177     1.0000 0.94657  0.12560  0.28703  Biso   1.000  C
  H192     1.0000 0.94590  0.22822  0.24091  Biso   1.000  H
  H193     1.0000 0.91951  0.22590  0.28369  Biso   1.000  H
  H194     1.0000 0.82510  0.38292  0.28911  Biso   1.000  H
  H195     1.0000 0.81311  0.43318  0.21821  Biso   1.000  H
  C178     1.0000 0.83203  0.33183  0.20738  Biso   1.000  C
  C179     1.0000 0.25374  0.87550  0.56011  Biso   1.000  C
  C180     1.0000 0.30032  0.79091  0.64670  Biso   1.000  C
  H196     1.0000 0.08919  0.05362  0.43330  Biso   1.000  H
  H197     1.0000 0.07172  0.10482  0.47532  Biso   1.000  H
  H198     1.0000 0.04371  0.04988  0.41252  Biso   1.000  H
  C181     1.0000 0.86143  0.92158  0.12243  Biso   1.000  C
  H199     1.0000 0.84801  0.90802  0.20399  Biso   1.000  H
  C182     1.0000 0.97406  0.08923  0.26930  Biso   1.000  C
  C183     1.0000 0.92260  0.08658  0.30732  Biso   1.000  C
  H200     1.0000 0.83771  0.34621  0.16690  Biso   1.000  H
  H201     1.0000 0.80609  0.30901  0.18791  Biso   1.000  H
  H202     1.0000 0.85169  0.29639  0.23878  Biso   1.000  H
  C184     1.0000 0.21738  0.89259  0.50322  Biso   1.000  C
  C185     1.0000 0.28330  0.93139  0.58429  Biso   1.000  C
  C186     1.0000 0.32953  0.84591  0.66919  Biso   1.000  C
  H203     1.0000 0.30660  0.74351  0.66858  Biso   1.000  H
  C187     1.0000 0.82974  0.97873  0.08939  Biso   1.000  C
  H204     1.0000 0.86070  0.88801  0.08359  Biso   1.000  H
  H205     1.0000 0.88720  0.94621  0.14453  Biso   1.000  H
  C188     1.0000 0.99999  0.12439  0.24999  Biso   1.000  C
  C189     1.0000 0.97451  0.00871  0.27078  Biso   1.000  C
  C190     1.0000 0.92412  0.00678  0.31022  Biso   1.000  C
  H206     1.0000 0.90461  0.11199  0.31969  Biso   1.000  H
  C191     1.0000 0.20782  0.96159  0.46968  Biso   1.000  C
  H207     1.0000 0.19801  0.85511  0.48631  Biso   1.000  H
  C192     1.0000 0.27362  0.00138  0.55223  Biso   1.000  C
  C193     1.0000 0.32109  0.91419  0.63948  Biso   1.000  C
  H208     1.0000 0.35520  0.83489  0.70529  Biso   1.000  H
  C194     1.0000 0.79216  0.96159  0.03031  Biso   1.000  C
  C195     1.0000 0.83701  0.04861  0.11668  Biso   1.000  C
  C196     1.0000 0.02595  0.08923  0.23068  Biso   1.000  C
  H209     1.0000 0.99999  0.17680  0.24999  Biso   1.000  H
  C197     1.0000 0.99999  0.97360  0.24999  Biso   1.000  C
  C198     1.0000 0.94929  0.97162  0.29201  Biso   1.000  C
  H210     1.0000 0.90750  0.97977  0.32483  Biso   1.000  H
  C199     1.0000 0.17026  0.97873  0.41060  Biso   1.000  C
  C200     1.0000 0.23751  0.01780  0.49682  Biso   1.000  C
  H211     1.0000 0.29282  0.03907  0.56952  Biso   1.000  H
  H212     1.0000 0.34081  0.95101  0.65589  Biso   1.000  H
  C201     1.0000 0.78268  0.89259  0.99688  Biso   1.000  C
  C202     1.0000 0.76250  0.01780  0.00317  Biso   1.000  C
  C203     1.0000 0.80767  0.10400  0.08911  Biso   1.000  C
  H213     1.0000 0.86201  0.06051  0.15470  Biso   1.000  H
  C204     1.0000 0.05345  0.12560  0.21301  Biso   1.000  C
  C205     1.0000 0.02549  0.00871  0.22921  Biso   1.000  C
  H214     1.0000 0.99999  0.92119  0.24999  Biso   1.000  H
  H215     1.0000 0.95001  0.91921  0.29359  Biso   1.000  H
  C206     1.0000 0.13859  0.92158  0.37762  Biso   1.000  C
  C207     1.0000 0.16299  0.04861  0.38331  Biso   1.000  C
  C208     1.0000 0.22800  0.08890  0.46481  Biso   1.000  C
  C209     1.0000 0.74631  0.87550  0.93994  Biso   1.000  C
  H216     1.0000 0.80200  0.85511  0.01368  Biso   1.000  H
  C210     1.0000 0.72644  0.00138  0.94787  Biso   1.000  C
  C211     1.0000 0.77198  0.08890  0.03517  Biso   1.000  C
  H217     1.0000 0.81330  0.15238  0.10902  Biso   1.000  H
  C212     1.0000 0.05539  0.20970  0.21449  Biso   1.000  C
  C213     1.0000 0.07742  0.08658  0.19272  Biso   1.000  C
  C214     1.0000 0.05069  0.97162  0.20798  Biso   1.000  C
  N10      1.0000 0.14367  0.87942  0.32220  Biso   1.000  N
  H218     1.0000 0.13930  0.88801  0.41640  Biso   1.000  H
  H219     1.0000 0.11281  0.94621  0.35552  Biso   1.000  H
  C215     1.0000 0.19233  0.10400  0.41088  Biso   1.000  C
  H220     1.0000 0.13800  0.06051  0.34529  Biso   1.000  H
  H221     1.0000 0.24721  0.12670  0.48183  Biso   1.000  H
  C216     1.0000 0.73627  0.80441  0.90514  Biso   1.000  C
  C217     1.0000 0.71674  0.93139  0.91576  Biso   1.000  C
  H222     1.0000 0.70722  0.03907  0.93053  Biso   1.000  H
  H223     1.0000 0.75281  0.12670  0.01822  Biso   1.000  H
  N11      1.0000 0.02370  0.24029  0.15082  Biso   1.000  N
  H224     1.0000 0.05410  0.22822  0.25907  Biso   1.000  H
  H225     1.0000 0.08049  0.22590  0.21630  Biso   1.000  H
  C218     1.0000 0.07590  0.00678  0.18982  Biso   1.000  C
  H226     1.0000 0.09539  0.11199  0.18030  Biso   1.000  H
  H227     1.0000 0.05000  0.91921  0.20640  Biso   1.000  H
  C219     1.0000 0.11414  0.83097  0.27718  Biso   1.000  C
  H228     1.0000 0.15200  0.90802  0.29600  Biso   1.000  H
  H229     1.0000 0.18672  0.15238  0.39102  Biso   1.000  H
  C220     1.0000 0.76677  0.74401  0.92823  Biso   1.000  C
  C221     1.0000 0.69972  0.79091  0.85334  Biso   1.000  C
  C222     1.0000 0.67893  0.91419  0.86056  Biso   1.000  C
  C223     1.0000 0.01935  0.31700  0.14141  Biso   1.000  C
  H230     1.0000 0.02298  0.22001  0.11898  Biso   1.000  H
  H231     1.0000 0.09252  0.97977  0.17521  Biso   1.000  H
  C224     1.0000 0.11042  0.81009  0.20891  Biso   1.000  C
  C225     1.0000 0.08794  0.80121  0.30021  Biso   1.000  C
  N12      1.0000 0.79782  0.76060  0.90733  Biso   1.000  N
  H232     1.0000 0.77823  0.73772  0.98195  Biso   1.000  H
  H233     1.0000 0.75415  0.69700  0.90525  Biso   1.000  H
  C226     1.0000 0.67049  0.84591  0.83086  Biso   1.000  C
  H234     1.0000 0.69345  0.74351  0.83146  Biso   1.000  H
  H235     1.0000 0.65923  0.95101  0.84415  Biso   1.000  H
  C227     1.0000 0.02766  0.36252  0.20060  Biso   1.000  C
  C228     1.0000 0.00575  0.34831  0.07243  Biso   1.000  C
  C229     1.0000 0.08144  0.76098  0.16499  Biso   1.000  C
  H236     1.0000 0.12791  0.82959  0.19179  Biso   1.000  H
  C230     1.0000 0.05914  0.75222  0.25563  Biso   1.000  C
  H237     1.0000 0.08972  0.81427  0.34671  Biso   1.000  H
  C231     1.0000 0.83558  0.73309  0.94595  Biso   1.000  C
  H238     1.0000 0.79154  0.76699  0.86105  Biso   1.000  H
  H239     1.0000 0.64485  0.83489  0.79475  Biso   1.000  H
  C232     1.0000 0.02066  0.43792  0.19009  Biso   1.000  C
  H240     1.0000 0.03819  0.34241  0.24852  Biso   1.000  H
  C233     1.0000 0.99958  0.42392  0.06340  Biso   1.000  C
  H241     1.0000 0.00058  0.31788  0.03118  Biso   1.000  H
  C234     1.0000 0.05505  0.73072  0.18719  Biso   1.000  C
  H242     1.0000 0.07969  0.74792  0.11860  Biso   1.000  H
  H243     1.0000 0.04159  0.73282  0.27270  Biso   1.000  H
  C235     1.0000 0.85996  0.72918  0.91324  Biso   1.000  C
  C236     1.0000 0.85026  0.71050  0.01871  Biso   1.000  C
  C237     1.0000 0.00644  0.47021  0.12243  Biso   1.000  C
  H244     1.0000 0.02591  0.46817  0.23150  Biso   1.000  H
  H245     1.0000 0.99049  0.44448  0.01581  Biso   1.000  H
  C238     1.0000 0.02280  0.67809  0.14272  Biso   1.000  C
  C239     1.0000 0.89814  0.70433  0.95153  Biso   1.000  C
  H246     1.0000 0.85064  0.74379  0.86368  Biso   1.000  H
  C240     1.0000 0.88856  0.68658  0.05640  Biso   1.000  C
  H247     1.0000 0.83391  0.71160  0.04272  Biso   1.000  H
  C241     1.0000 0.99913  0.55227  0.11351  Biso   1.000  C
  C242     1.0000 0.03050  0.60171  0.14732  Biso   1.000  C
  C243     1.0000 0.98480  0.70449  0.10131  Biso   1.000  C
  C244     1.0000 0.91322  0.68261  0.02418  Biso   1.000  C
  H248     1.0000 0.91432  0.70201  0.92724  Biso   1.000  H
  H249     1.0000 0.89799  0.67242  0.10618  Biso   1.000  H
  C245     1.0000 0.96077  0.57862  0.07379  Biso   1.000  C
  C246     1.0000 0.07198  0.57300  0.18719  Biso   1.000  C
  C247     1.0000 0.95399  0.65522  0.06690  Biso   1.000  C
  C248     1.0000 0.97664  0.78727  0.09589  Biso   1.000  C
  C249     1.0000 0.92654  0.52587  0.04382  Biso   1.000  C
  C250     1.0000 0.08741  0.54489  0.13452  Biso   1.000  C
  H250     1.0000 0.07281  0.53249  0.22029  Biso   1.000  H
  H251     1.0000 0.08909  0.61301  0.21750  Biso   1.000  H
  H252     1.0000 0.95009  0.79548  0.09130  Biso   1.000  H
  H253     1.0000 0.99529  0.81108  0.14168  Biso   1.000  H
  C251     1.0000 0.97975  0.82408  0.03140  Biso   1.000  C
  H254     1.0000 0.93331  0.48300  0.02172  Biso   1.000  H
  H255     1.0000 0.90390  0.55090  0.00470  Biso   1.000  H
  C252     1.0000 0.91515  0.49882  0.10202  Biso   1.000  C
  C253     1.0000 0.12747  0.50741  0.17248  Biso   1.000  C
  H256     1.0000 0.08930  0.58688  0.10519  Biso   1.000  H
  H257     1.0000 0.06841  0.50929  0.10033  Biso   1.000  H
  H258     1.0000 0.00601  0.81449  0.03512  Biso   1.000  H
  H259     1.0000 0.96054  0.80132  0.98556  Biso   1.000  H
  C254     1.0000 0.97279  0.90807  0.02730  Biso   1.000  C
  H260     1.0000 0.93720  0.47082  0.13922  Biso   1.000  H
  H261     1.0000 0.91040  0.54202  0.12669  Biso   1.000  H
  C255     1.0000 0.87935  0.45059  0.07281  Biso   1.000  C
  C256     1.0000 0.12773  0.43681  0.21280  Biso   1.000  C
  H262     1.0000 0.13670  0.49611  0.13528  Biso   1.000  H
  H263     1.0000 0.14621  0.54252  0.20782  Biso   1.000  H
  H264     1.0000 0.97605  0.92791  0.98507  Biso   1.000  H
  H265     1.0000 0.99299  0.93122  0.07199  Biso   1.000  H
  C257     1.0000 0.93370  0.92951  0.01969  Biso   1.000  C
  H266     1.0000 0.87339  0.43808  0.11400  Biso   1.000  H
  H267     1.0000 0.85720  0.48002  0.03742  Biso   1.000  H
  C258     1.0000 0.88109  0.38060  0.03632  Biso   1.000  C
  C259     1.0000 0.16716  0.39769  0.24928  Biso   1.000  C
  H268     1.0000 0.10840  0.40231  0.17762  Biso   1.000  H
  H269     1.0000 0.11911  0.44850  0.25071  Biso   1.000  H
  H270     1.0000 0.91374  0.90058  0.97943  Biso   1.000  H
  H271     1.0000 0.93210  0.91601  0.06532  Biso   1.000  H
  C260     1.0000 0.92401  0.01119  0.00470  Biso   1.000  C
  H272     1.0000 0.88935  0.39179  0.99776  Biso   1.000  H
  H273     1.0000 0.85460  0.35889  0.01231  Biso   1.000  H
  C261     1.0000 0.90669  0.32880  0.08441  Biso   1.000  C
  C262     1.0000 0.16798  0.33183  0.29261  Biso   1.000  C
  H274     1.0000 0.17490  0.38292  0.21088  Biso   1.000  H
  H275     1.0000 0.18690  0.43318  0.28178  Biso   1.000  H
  H276     1.0000 0.93705  0.02739  0.97467  Biso   1.000  H
  H277     1.0000 0.89564  0.01339  0.97243  Biso   1.000  H
  C263     1.0000 0.93010  0.05649  0.04737  Biso   1.000  C
  H278     1.0000 0.90111  0.32439  0.12719  Biso   1.000  H
  H279     1.0000 0.93369  0.34792  0.10240  Biso   1.000  H
  C264     1.0000 0.90520  0.24921  0.05180  Biso   1.000  C
  H280     1.0000 0.16229  0.34621  0.33309  Biso   1.000  H
  H281     1.0000 0.19389  0.30901  0.31208  Biso   1.000  H
  H282     1.0000 0.14831  0.29639  0.26121  Biso   1.000  H
  H283     1.0000 0.91078  0.05362  0.06668  Biso   1.000  H
  H284     1.0000 0.92830  0.10482  0.02473  Biso   1.000  H
  H285     1.0000 0.95631  0.04988  0.08753  Biso   1.000  H
  H286     1.0000 0.87979  0.22667  0.03988  Biso   1.000  H
  H287     1.0000 0.92600  0.21868  0.08791  Biso   1.000  H
  H288     1.0000 0.90890  0.25291  0.00738  Biso   1.000  H
  C265     1.0000 0.22640  0.49859  0.44780  Biso   1.000  C
  C266     1.0000 0.26252  0.48223  0.50322  Biso   1.000  C
  H289     1.0000 0.20720  0.46090  0.43052  Biso   1.000  H
  C267     1.0000 0.21671  0.56859  0.41569  Biso   1.000  C
  C268     1.0000 0.27200  0.41108  0.53522  Biso   1.000  C
  C269     1.0000 0.29216  0.53839  0.53029  Biso   1.000  C
  C270     1.0000 0.24626  0.62452  0.43992  Biso   1.000  C
  C271     1.0000 0.17889  0.58578  0.36049  Biso   1.000  C
  H290     1.0000 0.25281  0.37333  0.51820  Biso   1.000  H
  C272     1.0000 0.30768  0.39598  0.58910  Biso   1.000  C
  C273     1.0000 0.32976  0.52130  0.58943  Biso   1.000  C
  C274     1.0000 0.28265  0.60738  0.49682  Biso   1.000  C
  C275     1.0000 0.23623  0.69562  0.40508  Biso   1.000  C
  H291     1.0000 0.15920  0.54902  0.34408  Biso   1.000  H
  C276     1.0000 0.17045  0.65412  0.33079  Biso   1.000  C
  H292     1.0000 0.31330  0.34759  0.60901  Biso   1.000  H
  C277     1.0000 0.33703  0.45142  0.61673  Biso   1.000  C
  C278     1.0000 0.36141  0.57840  0.62241  Biso   1.000  C
  H293     1.0000 0.30202  0.64492  0.51372  Biso   1.000  H
  C279     1.0000 0.26675  0.75602  0.42822  Biso   1.000  C
  C280     1.0000 0.19970  0.70912  0.35333  Biso   1.000  C
  H294     1.0000 0.14479  0.66509  0.29469  Biso   1.000  H
  H295     1.0000 0.36201  0.43952  0.65469  Biso   1.000  H
  N13      1.0000 0.35636  0.62061  0.67783  Biso   1.000  N
  H296     1.0000 0.36072  0.61201  0.58363  Biso   1.000  H
  H297     1.0000 0.38721  0.55382  0.64451  Biso   1.000  H
  N14      1.0000 0.29780  0.73938  0.40732  Biso   1.000  N
  H298     1.0000 0.27820  0.76230  0.48188  Biso   1.000  H
  H299     1.0000 0.25411  0.80298  0.40519  Biso   1.000  H
  H300     1.0000 0.19341  0.75652  0.33139  Biso   1.000  H
  C281     1.0000 0.38584  0.66900  0.72279  Biso   1.000  C
  H301     1.0000 0.34802  0.59201  0.70403  Biso   1.000  H
  C282     1.0000 0.33555  0.76688  0.44589  Biso   1.000  C
  H302     1.0000 0.29151  0.73298  0.36099  Biso   1.000  H
  C283     1.0000 0.38960  0.68989  0.79112  Biso   1.000  C
  C284     1.0000 0.41209  0.69882  0.69982  Biso   1.000  C
  C285     1.0000 0.35994  0.77079  0.41323  Biso   1.000  C
  C286     1.0000 0.35027  0.78947  0.51870  Biso   1.000  C
  C287     1.0000 0.41857  0.73899  0.83499  Biso   1.000  C
  H303     1.0000 0.37210  0.67038  0.80819  Biso   1.000  H
  H304     1.0000 0.41031  0.68570  0.65332  Biso   1.000  H
  C288     1.0000 0.44088  0.74781  0.74440  Biso   1.000  C
  C289     1.0000 0.39812  0.79570  0.45152  Biso   1.000  C
  H305     1.0000 0.35060  0.75619  0.36361  Biso   1.000  H
  H306     1.0000 0.33392  0.78843  0.54271  Biso   1.000  H
  C290     1.0000 0.38857  0.81339  0.55639  Biso   1.000  C
  C291     1.0000 0.44496  0.76930  0.81278  Biso   1.000  C
  H307     1.0000 0.42031  0.75211  0.88143  Biso   1.000  H
  H308     1.0000 0.45839  0.76721  0.72728  Biso   1.000  H
  C292     1.0000 0.41324  0.81742  0.52422  Biso   1.000  C
  H309     1.0000 0.41429  0.79802  0.42718  Biso   1.000  H
  H310     1.0000 0.39801  0.82761  0.60622  Biso   1.000  H
  C293     1.0000 0.47722  0.82188  0.85731  Biso   1.000  C
  C294     1.0000 0.45400  0.84481  0.56689  Biso   1.000  C
  C295     1.0000 0.46952  0.89832  0.85272  Biso   1.000  C
  C296     1.0000 0.51523  0.79548  0.89872  Biso   1.000  C
  C297     1.0000 0.48480  0.79548  0.60130  Biso   1.000  C
  C298     1.0000 0.46078  0.92141  0.57378  Biso   1.000  C
  C299     1.0000 0.50087  0.94770  0.88652  Biso   1.000  C
  C300     1.0000 0.42800  0.92698  0.81278  Biso   1.000  C
  C301     1.0000 0.54601  0.84481  0.93313  Biso   1.000  C
  C302     1.0000 0.52334  0.71276  0.90408  Biso   1.000  C
  C303     1.0000 0.52281  0.82188  0.64271  Biso   1.000  C
  C304     1.0000 0.47665  0.71276  0.59588  Biso   1.000  C
  C305     1.0000 0.49914  0.94770  0.61350  Biso   1.000  C
  C306     1.0000 0.42652  0.97410  0.54381  Biso   1.000  C
  C307     1.0000 0.53921  0.92141  0.92618  Biso   1.000  C
  C308     1.0000 0.49358  0.02982  0.87761  Biso   1.000  C
  H311     1.0000 0.42720  0.96748  0.77969  Biso   1.000  H
  H312     1.0000 0.41091  0.88702  0.78253  Biso   1.000  H
  C309     1.0000 0.41262  0.95508  0.86552  Biso   1.000  C
  C310     1.0000 0.58677  0.81742  0.97580  Biso   1.000  C
  H313     1.0000 0.54990  0.70449  0.90873  Biso   1.000  H
  H314     1.0000 0.50472  0.68890  0.85829  Biso   1.000  H
  C311     1.0000 0.52025  0.67589  0.96863  Biso   1.000  C
  C312     1.0000 0.53051  0.89832  0.64730  Biso   1.000  C
  C313     1.0000 0.55505  0.76930  0.68718  Biso   1.000  C
  H315     1.0000 0.45010  0.70449  0.59129  Biso   1.000  H
  H316     1.0000 0.49531  0.68890  0.64172  Biso   1.000  H
  C314     1.0000 0.47976  0.67589  0.53139  Biso   1.000  C
  C315     1.0000 0.50645  0.02982  0.62241  Biso   1.000  C
  H317     1.0000 0.40391  0.94908  0.50469  Biso   1.000  H
  H318     1.0000 0.43332  0.01697  0.52171  Biso   1.000  H
  C316     1.0000 0.41513  0.00121  0.60201  Biso   1.000  C
  C317     1.0000 0.57348  0.97410  0.95621  Biso   1.000  C
  C318     1.0000 0.50044  0.07611  0.93663  Biso   1.000  C
  C319     1.0000 0.47936  0.06211  0.80988  Biso   1.000  C
  H319     1.0000 0.41071  0.91309  0.89478  Biso   1.000  H
  H320     1.0000 0.43161  0.99069  0.89971  Biso   1.000  H
  C320     1.0000 0.37254  0.99262  0.82750  Biso   1.000  C
  C321     1.0000 0.61143  0.81339  0.94363  Biso   1.000  C
  C322     1.0000 0.60184  0.79570  0.04844  Biso   1.000  C
  H321     1.0000 0.49401  0.68548  0.96491  Biso   1.000  H
  C323     1.0000 0.52723  0.59190  0.97273  Biso   1.000  C
  H322     1.0000 0.53949  0.69870  0.01447  Biso   1.000  H
  C324     1.0000 0.57199  0.92698  0.68718  Biso   1.000  C
  C325     1.0000 0.58146  0.73899  0.66503  Biso   1.000  C
  C326     1.0000 0.55912  0.74781  0.75562  Biso   1.000  C
  H323     1.0000 0.46050  0.69870  0.48549  Biso   1.000  H
  H324     1.0000 0.50602  0.68548  0.53511  Biso   1.000  H
  C327     1.0000 0.47280  0.59190  0.52729  Biso   1.000  C
  C328     1.0000 0.49956  0.07611  0.56339  Biso   1.000  C
  C329     1.0000 0.52066  0.06211  0.69008  Biso   1.000  C
  H325     1.0000 0.41041  0.95800  0.62668  Biso   1.000  H
  H326     1.0000 0.43721  0.02921  0.63921  Biso   1.000  H
  C330     1.0000 0.37936  0.04938  0.57280  Biso   1.000  C
  H327     1.0000 0.59612  0.94908  0.99533  Biso   1.000  H
  H328     1.0000 0.56671  0.01697  0.97831  Biso   1.000  H
  C331     1.0000 0.58487  0.00121  0.89801  Biso   1.000  C
  H329     1.0000 0.50951  0.05550  0.98422  Biso   1.000  H
  C332     1.0000 0.49428  0.15172  0.92760  Biso   1.000  C
  C333     1.0000 0.47236  0.13750  0.79943  Biso   1.000  C
  H330     1.0000 0.47412  0.03180  0.76853  Biso   1.000  H
  H331     1.0000 0.35381  0.95751  0.79221  Biso   1.000  H
  H332     1.0000 0.36331  0.00391  0.86470  Biso   1.000  H
  C334     1.0000 0.37228  0.06321  0.78718  Biso   1.000  C
  C335     1.0000 0.64973  0.78947  0.98132  Biso   1.000  C
  H333     1.0000 0.60202  0.82761  0.89380  Biso   1.000  H
  H334     1.0000 0.58566  0.79802  0.07273  Biso   1.000  H
  C336     1.0000 0.64005  0.77079  0.08674  Biso   1.000  C
  H335     1.0000 0.50699  0.56881  0.92799  Biso   1.000  H
  C337     1.0000 0.56632  0.57052  0.98028  Biso   1.000  C
  H336     1.0000 0.52397  0.57211  0.01497  Biso   1.000  H
  H337     1.0000 0.57280  0.96748  0.72033  Biso   1.000  H
  H338     1.0000 0.58909  0.88702  0.71749  Biso   1.000  H
  C338     1.0000 0.58741  0.95508  0.63450  Biso   1.000  C
  H339     1.0000 0.57970  0.75211  0.61859  Biso   1.000  H
  C339     1.0000 0.61040  0.68989  0.70890  Biso   1.000  C
  C340     1.0000 0.58792  0.69882  0.80020  Biso   1.000  C
  H340     1.0000 0.54160  0.76721  0.77268  Biso   1.000  H
  H341     1.0000 0.49300  0.56881  0.57198  Biso   1.000  H
  H342     1.0000 0.47599  0.57211  0.48500  Biso   1.000  H
  C341     1.0000 0.43370  0.57052  0.51968  Biso   1.000  C
  H343     1.0000 0.49049  0.05550  0.51580  Biso   1.000  H
  C342     1.0000 0.50575  0.15172  0.57242  Biso   1.000  C
  C343     1.0000 0.52767  0.13750  0.70059  Biso   1.000  C
  H344     1.0000 0.52591  0.03180  0.73149  Biso   1.000  H
  H345     1.0000 0.37340  0.06189  0.61399  Biso   1.000  H
  H346     1.0000 0.35721  0.02001  0.53741  Biso   1.000  H
  C344     1.0000 0.38110  0.11943  0.53631  Biso   1.000  C
  H347     1.0000 0.58961  0.95800  0.87328  Biso   1.000  H
  H348     1.0000 0.56282  0.02921  0.86081  Biso   1.000  H
  C345     1.0000 0.62067  0.04938  0.92722  Biso   1.000  C
  H349     1.0000 0.49940  0.18209  0.96880  Biso   1.000  H
  C346     1.0000 0.48064  0.18303  0.85862  Biso   1.000  C
  H350     1.0000 0.46180  0.15762  0.75151  Biso   1.000  H
  H351     1.0000 0.39162  0.09771  0.82241  Biso   1.000  H
  H352     1.0000 0.38091  0.05147  0.74933  Biso   1.000  H
  C347     1.0000 0.33285  0.10229  0.75069  Biso   1.000  C
  H353     1.0000 0.66611  0.78843  0.95731  Biso   1.000  H
  C348     1.0000 0.66442  0.76688  0.05408  Biso   1.000  C
  H354     1.0000 0.64936  0.75619  0.13635  Biso   1.000  H
  H355     1.0000 0.56792  0.58402  0.93472  Biso   1.000  H
  C349     1.0000 0.57602  0.48878  0.99533  Biso   1.000  C
  H356     1.0000 0.58627  0.59939  0.02055  Biso   1.000  H
  H357     1.0000 0.58931  0.91309  0.60518  Biso   1.000  H
  H358     1.0000 0.56842  0.99069  0.60031  Biso   1.000  H
  C350     1.0000 0.62749  0.99262  0.67252  Biso   1.000  C
  H359     1.0000 0.62790  0.67038  0.69183  Biso   1.000  H
  C351     1.0000 0.61416  0.66900  0.77722  Biso   1.000  C
  H360     1.0000 0.58969  0.68570  0.84670  Biso   1.000  H
  H361     1.0000 0.43211  0.58402  0.56530  Biso   1.000  H
  H362     1.0000 0.41372  0.59939  0.47942  Biso   1.000  H
  C352     1.0000 0.42401  0.48878  0.50469  Biso   1.000  C
  H363     1.0000 0.50060  0.18209  0.53122  Biso   1.000  H
  C353     1.0000 0.51936  0.18303  0.64140  Biso   1.000  C
  H364     1.0000 0.53820  0.15762  0.74851  Biso   1.000  H
  H365     1.0000 0.35461  0.14109  0.51230  Biso   1.000  H
  H366     1.0000 0.38931  0.10818  0.49769  Biso   1.000  H
  C354     1.0000 0.40670  0.17118  0.58440  Biso   1.000  C
  H367     1.0000 0.62660  0.06189  0.88603  Biso   1.000  H
  H368     1.0000 0.64282  0.02001  0.96261  Biso   1.000  H
  C355     1.0000 0.61890  0.11943  0.96371  Biso   1.000  C
  N15      1.0000 0.47630  0.25969  0.84921  Biso   1.000  N
  H369     1.0000 0.32511  0.11711  0.78910  Biso   1.000  H
  H370     1.0000 0.31311  0.06680  0.71820  Biso   1.000  H
  C356     1.0000 0.33202  0.16820  0.70742  Biso   1.000  C
  N16      1.0000 0.70219  0.73938  0.09264  Biso   1.000  N
  C357     1.0000 0.56991  0.44348  0.95260  Biso   1.000  C
  H371     1.0000 0.56297  0.47258  0.02536  Biso   1.000  H
  H372     1.0000 0.60437  0.48658  0.02755  Biso   1.000  H
  H373     1.0000 0.64622  0.95751  0.70781  Biso   1.000  H
  H374     1.0000 0.63672  0.00391  0.63532  Biso   1.000  H
  C358     1.0000 0.62771  0.06321  0.71278  Biso   1.000  C
  N17      1.0000 0.64367  0.62061  0.82219  Biso   1.000  N
  H375     1.0000 0.43702  0.47258  0.47461  Biso   1.000  H
  H376     1.0000 0.39562  0.48658  0.47242  Biso   1.000  H
  C359     1.0000 0.43010  0.44348  0.54742  Biso   1.000  C
  N18      1.0000 0.52370  0.25969  0.65081  Biso   1.000  N
  H377     1.0000 0.40110  0.17559  0.62723  Biso   1.000  H
  H378     1.0000 0.43370  0.15211  0.60239  Biso   1.000  H
  C360     1.0000 0.40520  0.25081  0.55179  Biso   1.000  C
  H379     1.0000 0.64542  0.14109  0.98772  Biso   1.000  H
  C361     1.0000 0.59330  0.17118  0.91562  Biso   1.000  C
  H380     1.0000 0.61067  0.10818  0.00227  Biso   1.000  H
  H381     1.0000 0.47700  0.28002  0.88100  Biso   1.000  H
  C362     1.0000 0.44462  0.29027  0.78548  Biso   1.000  C
  H382     1.0000 0.33769  0.15382  0.66689  Biso   1.000  H
  H383     1.0000 0.30610  0.19102  0.68789  Biso   1.000  H
  H384     1.0000 0.35171  0.20358  0.73882  Biso   1.000  H
  H385     1.0000 0.70848  0.73298  0.13898  Biso   1.000  H
  C363     1.0000 0.73324  0.75602  0.07175  Biso   1.000  C
  H386     1.0000 0.58920  0.44640  0.93329  Biso   1.000  H
  H387     1.0000 0.57170  0.39521  0.97531  Biso   1.000  H
  H388     1.0000 0.54371  0.45010  0.91251  Biso   1.000  H
  H389     1.0000 0.60841  0.09771  0.67761  Biso   1.000  H
  H390     1.0000 0.61909  0.05147  0.75069  Biso   1.000  H
  C364     1.0000 0.66718  0.10229  0.74933  Biso   1.000  C
  H391     1.0000 0.65200  0.59201  0.79599  Biso   1.000  H
  C365     1.0000 0.63860  0.57840  0.87761  Biso   1.000  C
  H392     1.0000 0.41080  0.44640  0.56673  Biso   1.000  H
  H393     1.0000 0.42830  0.39521  0.52471  Biso   1.000  H
  H394     1.0000 0.45632  0.45010  0.58751  Biso   1.000  H
  H395     1.0000 0.52300  0.28002  0.61902  Biso   1.000  H
  C366     1.0000 0.55540  0.29027  0.71448  Biso   1.000  C
  H396     1.0000 0.37981  0.27330  0.53992  Biso   1.000  H
  H397     1.0000 0.42601  0.28129  0.58790  Biso   1.000  H
  H398     1.0000 0.40892  0.24712  0.50743  Biso   1.000  H
  H399     1.0000 0.59890  0.17559  0.87279  Biso   1.000  H
  H400     1.0000 0.56630  0.15211  0.89763  Biso   1.000  H
  C367     1.0000 0.59483  0.25081  0.94823  Biso   1.000  C
  H401     1.0000 0.44591  0.27181  0.74090  Biso   1.000  H
  H402     1.0000 0.41949  0.27413  0.78368  Biso   1.000  H
  C368     1.0000 0.44655  0.37437  0.78702  Biso   1.000  C
  H403     1.0000 0.72175  0.76230  0.01803  Biso   1.000  H
  H404     1.0000 0.74588  0.80298  0.09478  Biso   1.000  H
  C369     1.0000 0.76374  0.69562  0.09483  Biso   1.000  C
  H405     1.0000 0.67492  0.11711  0.71092  Biso   1.000  H
  H406     1.0000 0.68692  0.06680  0.78182  Biso   1.000  H
  C370     1.0000 0.66798  0.16820  0.79260  Biso   1.000  C
  H407     1.0000 0.63931  0.61201  0.91639  Biso   1.000  H
  H408     1.0000 0.61282  0.55382  0.85551  Biso   1.000  H
  C371     1.0000 0.67027  0.52130  0.91059  Biso   1.000  C
  H409     1.0000 0.55412  0.27181  0.75912  Biso   1.000  H
  H410     1.0000 0.58050  0.27413  0.71629  Biso   1.000  H
  C372     1.0000 0.55345  0.37437  0.71300  Biso   1.000  C
  H411     1.0000 0.62022  0.27330  0.96010  Biso   1.000  H
  H412     1.0000 0.57402  0.28129  0.91212  Biso   1.000  H
  H413     1.0000 0.59111  0.24712  0.99259  Biso   1.000  H
  C373     1.0000 0.47406  0.41080  0.76929  Biso   1.000  C
  C374     1.0000 0.42260  0.41339  0.80731  Biso   1.000  C
  C375     1.0000 0.75371  0.62452  0.06004  Biso   1.000  C
  C376     1.0000 0.80029  0.70912  0.14664  Biso   1.000  C
  H414     1.0000 0.66231  0.15382  0.83313  Biso   1.000  H
  H415     1.0000 0.69391  0.19102  0.81213  Biso   1.000  H
  H416     1.0000 0.64832  0.20358  0.76120  Biso   1.000  H
  C377     1.0000 0.70784  0.53839  0.96973  Biso   1.000  C
  C378     1.0000 0.66300  0.45142  0.88329  Biso   1.000  C
  C379     1.0000 0.52597  0.41080  0.73073  Biso   1.000  C
  C380     1.0000 0.57743  0.41339  0.69271  Biso   1.000  C
  C381     1.0000 0.47450  0.49132  0.77082  Biso   1.000  C
  C382     1.0000 0.49999  0.37559  0.74998  Biso   1.000  C
  C383     1.0000 0.42412  0.49319  0.81021  Biso   1.000  C
  H417     1.0000 0.40460  0.38799  0.81973  Biso   1.000  H
  C384     1.0000 0.78328  0.56859  0.08427  Biso   1.000  C
  C385     1.0000 0.71732  0.60738  0.00315  Biso   1.000  C
  C386     1.0000 0.82951  0.65412  0.16917  Biso   1.000  C
  H418     1.0000 0.80658  0.75652  0.16857  Biso   1.000  H
  C387     1.0000 0.73751  0.48223  0.99680  Biso   1.000  C
  C388     1.0000 0.69235  0.39598  0.91092  Biso   1.000  C
  H419     1.0000 0.63801  0.43952  0.84533  Biso   1.000  H
  C389     1.0000 0.52550  0.49132  0.72920  Biso   1.000  C
  C390     1.0000 0.57590  0.49319  0.68981  Biso   1.000  C
  H420     1.0000 0.59540  0.38799  0.68029  Biso   1.000  H
  C391     1.0000 0.44930  0.52841  0.79199  Biso   1.000  C
  C392     1.0000 0.49999  0.52643  0.74998  Biso   1.000  C
  H421     1.0000 0.49999  0.32317  0.74998  Biso   1.000  H
  H422     1.0000 0.40751  0.52020  0.82482  Biso   1.000  H
  C393     1.0000 0.82107  0.58578  0.13947  Biso   1.000  C
  C394     1.0000 0.77359  0.49859  0.05216  Biso   1.000  C
  H423     1.0000 0.69801  0.64492  0.98630  Biso   1.000  H
  H424     1.0000 0.85518  0.66509  0.20528  Biso   1.000  H
  C395     1.0000 0.72800  0.41108  0.96480  Biso   1.000  C
  H425     1.0000 0.68670  0.34759  0.89101  Biso   1.000  H
  C396     1.0000 0.55071  0.52841  0.70802  Biso   1.000  C
  H426     1.0000 0.59250  0.52020  0.67520  Biso   1.000  H
  H427     1.0000 0.45001  0.58082  0.79358  Biso   1.000  H
  H428     1.0000 0.49999  0.57878  0.74998  Biso   1.000  H
  H429     1.0000 0.84077  0.54902  0.15588  Biso   1.000  H
  H430     1.0000 0.79276  0.46090  0.06945  Biso   1.000  H
  H431     1.0000 0.74721  0.37333  0.98182  Biso   1.000  H
  H432     1.0000 0.55000  0.58082  0.70638  Biso   1.000  H
  C397     1.0000 0.12749  0.49259  0.67252  Biso   1.000  C
  C398     1.0000 0.08741  0.45511  0.63450  Biso   1.000  C
  H433     1.0000 0.13672  0.50389  0.63532  Biso   1.000  H
  H434     1.0000 0.14622  0.45748  0.70781  Biso   1.000  H
  C399     1.0000 0.12771  0.56319  0.71278  Biso   1.000  C
  C400     1.0000 0.07199  0.42700  0.68718  Biso   1.000  C
  H435     1.0000 0.08931  0.41312  0.60518  Biso   1.000  H
  H436     1.0000 0.06842  0.49071  0.60031  Biso   1.000  H
  H437     1.0000 0.10841  0.59769  0.67761  Biso   1.000  H
  H438     1.0000 0.11909  0.55150  0.75069  Biso   1.000  H
  C401     1.0000 0.16718  0.60231  0.74933  Biso   1.000  C
  C402     1.0000 0.03051  0.39829  0.64730  Biso   1.000  C
  H439     1.0000 0.07280  0.46751  0.72033  Biso   1.000  H
  H440     1.0000 0.08909  0.38699  0.71749  Biso   1.000  H
  H441     1.0000 0.17492  0.61708  0.71092  Biso   1.000  H
  H442     1.0000 0.18692  0.56682  0.78182  Biso   1.000  H
  C403     1.0000 0.16798  0.66817  0.79260  Biso   1.000  C
  C404     1.0000 0.02281  0.32191  0.64271  Biso   1.000  C
  C405     1.0000 0.99914  0.44773  0.61350  Biso   1.000  C
  H443     1.0000 0.16231  0.65379  0.83313  Biso   1.000  H
  H444     1.0000 0.19391  0.69099  0.81213  Biso   1.000  H
  H445     1.0000 0.14832  0.70361  0.76120  Biso   1.000  H
  C406     1.0000 0.05505  0.26928  0.68718  Biso   1.000  C
  C407     1.0000 0.98480  0.29551  0.60130  Biso   1.000  C
  C408     1.0000 0.00645  0.52979  0.62241  Biso   1.000  C
  C409     1.0000 0.96078  0.42138  0.57378  Biso   1.000  C
  C410     1.0000 0.08146  0.23902  0.66503  Biso   1.000  C
  C411     1.0000 0.05912  0.24778  0.75562  Biso   1.000  C
  C412     1.0000 0.95400  0.34478  0.56689  Biso   1.000  C
  C413     1.0000 0.97665  0.21273  0.59588  Biso   1.000  C
  C414     1.0000 0.02066  0.56208  0.69008  Biso   1.000  C
  C415     1.0000 0.99956  0.57608  0.56339  Biso   1.000  C
  C416     1.0000 0.92652  0.47413  0.54381  Biso   1.000  C
  H446     1.0000 0.07970  0.25208  0.61859  Biso   1.000  H
  C417     1.0000 0.11040  0.18991  0.70890  Biso   1.000  C
  C418     1.0000 0.08792  0.19879  0.80020  Biso   1.000  C
  H447     1.0000 0.04160  0.26718  0.77268  Biso   1.000  H
  C419     1.0000 0.91324  0.31739  0.52422  Biso   1.000  C
  H448     1.0000 0.95010  0.20452  0.59129  Biso   1.000  H
  H449     1.0000 0.99531  0.18892  0.64172  Biso   1.000  H
  C420     1.0000 0.97976  0.17592  0.53139  Biso   1.000  C
  C421     1.0000 0.02767  0.63748  0.70059  Biso   1.000  C
  H450     1.0000 0.02591  0.53183  0.73149  Biso   1.000  H
  C422     1.0000 0.00575  0.65169  0.57242  Biso   1.000  C
  H451     1.0000 0.99049  0.55552  0.51580  Biso   1.000  H
  H452     1.0000 0.93332  0.51700  0.52171  Biso   1.000  H
  H453     1.0000 0.90391  0.44910  0.50469  Biso   1.000  H
  C423     1.0000 0.91513  0.50118  0.60201  Biso   1.000  C
  H454     1.0000 0.12790  0.17041  0.69183  Biso   1.000  H
  C424     1.0000 0.11416  0.16903  0.77722  Biso   1.000  C
  H455     1.0000 0.08969  0.18573  0.84670  Biso   1.000  H
  C425     1.0000 0.89812  0.29567  0.45152  Biso   1.000  C
  C426     1.0000 0.88857  0.31342  0.55639  Biso   1.000  C
  H456     1.0000 0.00602  0.18551  0.53511  Biso   1.000  H
  H457     1.0000 0.96050  0.19868  0.48549  Biso   1.000  H
  C427     1.0000 0.97280  0.09193  0.52729  Biso   1.000  C
  C428     1.0000 0.01936  0.68300  0.64140  Biso   1.000  C
  H458     1.0000 0.03820  0.65759  0.74851  Biso   1.000  H
  H459     1.0000 0.00060  0.68212  0.53122  Biso   1.000  H
  H460     1.0000 0.93721  0.52918  0.63921  Biso   1.000  H
  H461     1.0000 0.91041  0.45798  0.62668  Biso   1.000  H
  C429     1.0000 0.87936  0.54941  0.57280  Biso   1.000  C
  N19      1.0000 0.14367  0.12058  0.82219  Biso   1.000  N
  H462     1.0000 0.91429  0.29799  0.42718  Biso   1.000  H
  C430     1.0000 0.85994  0.27082  0.41323  Biso   1.000  C
  C431     1.0000 0.85027  0.28950  0.51870  Biso   1.000  C
  H463     1.0000 0.89801  0.32758  0.60622  Biso   1.000  H
  H464     1.0000 0.99300  0.06878  0.57198  Biso   1.000  H
  H465     1.0000 0.97599  0.07209  0.48500  Biso   1.000  H
  C432     1.0000 0.93370  0.07049  0.51968  Biso   1.000  C
  N20      1.0000 0.02370  0.75971  0.65081  Biso   1.000  N
  H466     1.0000 0.87340  0.56192  0.61399  Biso   1.000  H
  H467     1.0000 0.85721  0.51998  0.53741  Biso   1.000  H
  C433     1.0000 0.88110  0.61940  0.53631  Biso   1.000  C
  H468     1.0000 0.15200  0.09198  0.79599  Biso   1.000  H
  C434     1.0000 0.13860  0.07842  0.87761  Biso   1.000  C
  H469     1.0000 0.85060  0.25621  0.36361  Biso   1.000  H
  C435     1.0000 0.83555  0.26691  0.44589  Biso   1.000  C
  H470     1.0000 0.83392  0.28840  0.54271  Biso   1.000  H
  C436     1.0000 0.92401  0.98881  0.50469  Biso   1.000  C
  H471     1.0000 0.93211  0.08399  0.56530  Biso   1.000  H
  H472     1.0000 0.91372  0.09942  0.47942  Biso   1.000  H
  H473     1.0000 0.02300  0.77999  0.61902  Biso   1.000  H
  C437     1.0000 0.05540  0.79030  0.71448  Biso   1.000  C
  H474     1.0000 0.85461  0.64111  0.51230  Biso   1.000  H
  H475     1.0000 0.88931  0.60821  0.49769  Biso   1.000  H
  C438     1.0000 0.90670  0.67120  0.58440  Biso   1.000  C
  H476     1.0000 0.13931  0.11199  0.91639  Biso   1.000  H
  H477     1.0000 0.11282  0.05379  0.85551  Biso   1.000  H
  C439     1.0000 0.17027  0.02127  0.91059  Biso   1.000  C
  N21      1.0000 0.79780  0.23940  0.40732  Biso   1.000  N
  H478     1.0000 0.93702  0.97261  0.47461  Biso   1.000  H
  H479     1.0000 0.89562  0.98661  0.47242  Biso   1.000  H
  C440     1.0000 0.93010  0.94351  0.54742  Biso   1.000  C
  H480     1.0000 0.05412  0.77178  0.75912  Biso   1.000  H
  H481     1.0000 0.08050  0.77410  0.71629  Biso   1.000  H
  C441     1.0000 0.05345  0.87440  0.71300  Biso   1.000  C
  H482     1.0000 0.90110  0.67561  0.62723  Biso   1.000  H
  H483     1.0000 0.93370  0.65208  0.60239  Biso   1.000  H
  C442     1.0000 0.90520  0.75079  0.55179  Biso   1.000  C
  C443     1.0000 0.20784  0.03841  0.96973  Biso   1.000  C
  C444     1.0000 0.16300  0.95139  0.88329  Biso   1.000  C
  H484     1.0000 0.79151  0.23301  0.36099  Biso   1.000  H
  C445     1.0000 0.76675  0.25599  0.42822  Biso   1.000  C
  H485     1.0000 0.91080  0.94638  0.56673  Biso   1.000  H
  H486     1.0000 0.92830  0.89518  0.52471  Biso   1.000  H
  H487     1.0000 0.95632  0.95012  0.58751  Biso   1.000  H
  C446     1.0000 0.02597  0.91077  0.73073  Biso   1.000  C
  C447     1.0000 0.07743  0.91342  0.69271  Biso   1.000  C
  H488     1.0000 0.87981  0.77333  0.53992  Biso   1.000  H
  H489     1.0000 0.92601  0.78132  0.58790  Biso   1.000  H
  H490     1.0000 0.90892  0.74709  0.50743  Biso   1.000  H
  C448     1.0000 0.23751  0.98220  0.99680  Biso   1.000  C
  C449     1.0000 0.21732  0.10741  0.00315  Biso   1.000  C
  C450     1.0000 0.19235  0.89600  0.91092  Biso   1.000  C
  H491     1.0000 0.13801  0.93949  0.84533  Biso   1.000  H
  H492     1.0000 0.77820  0.26228  0.48188  Biso   1.000  H
  H493     1.0000 0.75411  0.30300  0.40519  Biso   1.000  H
  C451     1.0000 0.73623  0.19559  0.40508  Biso   1.000  C
  C452     1.0000 0.02550  0.99129  0.72920  Biso   1.000  C
  C453     1.0000 0.99999  0.87561  0.74998  Biso   1.000  C
  C454     1.0000 0.07590  0.99322  0.68981  Biso   1.000  C
  H494     1.0000 0.09540  0.88801  0.68029  Biso   1.000  H
  C455     1.0000 0.22800  0.91110  0.96480  Biso   1.000  C
  C456     1.0000 0.27359  0.99862  0.05216  Biso   1.000  C
  H495     1.0000 0.19801  0.14489  0.98630  Biso   1.000  H
  C457     1.0000 0.25371  0.12450  0.06004  Biso   1.000  C
  H496     1.0000 0.18670  0.84762  0.89101  Biso   1.000  H
  C458     1.0000 0.74626  0.12450  0.43992  Biso   1.000  C
  C459     1.0000 0.69970  0.20909  0.35333  Biso   1.000  C
  C460     1.0000 0.99999  0.02640  0.74998  Biso   1.000  C
  C461     1.0000 0.05071  0.02838  0.70802  Biso   1.000  C
  C462     1.0000 0.97406  0.91077  0.76929  Biso   1.000  C
  H497     1.0000 0.99999  0.82320  0.74998  Biso   1.000  H
  H498     1.0000 0.09250  0.02023  0.67520  Biso   1.000  H
  H499     1.0000 0.24721  0.87330  0.98182  Biso   1.000  H
  H500     1.0000 0.29276  0.96093  0.06945  Biso   1.000  H
  C463     1.0000 0.28328  0.06861  0.08427  Biso   1.000  C
  C464     1.0000 0.26374  0.19559  0.09483  Biso   1.000  C
  C465     1.0000 0.78265  0.10741  0.49682  Biso   1.000  C
  C466     1.0000 0.71671  0.06861  0.41569  Biso   1.000  C
  C467     1.0000 0.67045  0.15409  0.33079  Biso   1.000  C
  H501     1.0000 0.69341  0.25649  0.33139  Biso   1.000  H
  C468     1.0000 0.97450  0.99129  0.77082  Biso   1.000  C
  H502     1.0000 0.99999  0.07881  0.74998  Biso   1.000  H
  H503     1.0000 0.05000  0.08079  0.70638  Biso   1.000  H
  C469     1.0000 0.94655  0.87440  0.78702  Biso   1.000  C
  C470     1.0000 0.32107  0.08581  0.13947  Biso   1.000  C
  C471     1.0000 0.23324  0.25599  0.07175  Biso   1.000  C
  C472     1.0000 0.30029  0.20909  0.14664  Biso   1.000  C
  C473     1.0000 0.79216  0.03841  0.53029  Biso   1.000  C
  H504     1.0000 0.80202  0.14489  0.51372  Biso   1.000  H
  C474     1.0000 0.72640  0.99862  0.44780  Biso   1.000  C
  C475     1.0000 0.67889  0.08581  0.36049  Biso   1.000  C
  H505     1.0000 0.64479  0.16511  0.29469  Biso   1.000  H
  C476     1.0000 0.94930  0.02838  0.79199  Biso   1.000  C
  C477     1.0000 0.94462  0.79030  0.78548  Biso   1.000  C
  C478     1.0000 0.92260  0.91342  0.80731  Biso   1.000  C
  H506     1.0000 0.34077  0.04899  0.15588  Biso   1.000  H
  C479     1.0000 0.32951  0.15409  0.16917  Biso   1.000  C
  N22      1.0000 0.20219  0.23940  0.09264  Biso   1.000  N
  H507     1.0000 0.22175  0.26228  0.01803  Biso   1.000  H
  H508     1.0000 0.24588  0.30300  0.09478  Biso   1.000  H
  H509     1.0000 0.30658  0.25649  0.16857  Biso   1.000  H
  C480     1.0000 0.76252  0.98220  0.50322  Biso   1.000  C
  C481     1.0000 0.82976  0.02127  0.58943  Biso   1.000  C
  H510     1.0000 0.70720  0.96093  0.43052  Biso   1.000  H
  H511     1.0000 0.65920  0.04899  0.34408  Biso   1.000  H
  C482     1.0000 0.92412  0.99322  0.81021  Biso   1.000  C
  H512     1.0000 0.95001  0.08079  0.79358  Biso   1.000  H
  N23      1.0000 0.97630  0.75971  0.84921  Biso   1.000  N
  H513     1.0000 0.94591  0.77178  0.74090  Biso   1.000  H
  H514     1.0000 0.91949  0.77410  0.78368  Biso   1.000  H
  H515     1.0000 0.90460  0.88801  0.81973  Biso   1.000  H
  H516     1.0000 0.35518  0.16511  0.20528  Biso   1.000  H
  C483     1.0000 0.16442  0.26691  0.05408  Biso   1.000  C
  H517     1.0000 0.20848  0.23301  0.13898  Biso   1.000  H
  C484     1.0000 0.77200  0.91110  0.53522  Biso   1.000  C
  C485     1.0000 0.83703  0.95139  0.61673  Biso   1.000  C
  C486     1.0000 0.86141  0.07842  0.62241  Biso   1.000  C
  H518     1.0000 0.90751  0.02023  0.82482  Biso   1.000  H
  C487     1.0000 0.98064  0.68300  0.85862  Biso   1.000  C
  H519     1.0000 0.97700  0.77999  0.88100  Biso   1.000  H
  C488     1.0000 0.14973  0.28950  0.98132  Biso   1.000  C
  C489     1.0000 0.14005  0.27082  0.08674  Biso   1.000  C
  H520     1.0000 0.75281  0.87330  0.51820  Biso   1.000  H
  C490     1.0000 0.80768  0.89600  0.58910  Biso   1.000  C
  H521     1.0000 0.86201  0.93949  0.65469  Biso   1.000  H
  N24      1.0000 0.85636  0.12058  0.67783  Biso   1.000  N
  H522     1.0000 0.86072  0.11199  0.58363  Biso   1.000  H
  H523     1.0000 0.88721  0.05379  0.64451  Biso   1.000  H
  C491     1.0000 0.99428  0.65169  0.92760  Biso   1.000  C
  C492     1.0000 0.97236  0.63748  0.79943  Biso   1.000  C
  H524     1.0000 0.16611  0.28840  0.95731  Biso   1.000  H
  C493     1.0000 0.11143  0.31342  0.94363  Biso   1.000  C
  C494     1.0000 0.10184  0.29567  0.04844  Biso   1.000  C
  H525     1.0000 0.14936  0.25621  0.13635  Biso   1.000  H
  H526     1.0000 0.81330  0.84762  0.60901  Biso   1.000  H
  C495     1.0000 0.88584  0.16903  0.72279  Biso   1.000  C
  H527     1.0000 0.84802  0.09198  0.70403  Biso   1.000  H
  C496     1.0000 0.00044  0.57608  0.93663  Biso   1.000  C
  H528     1.0000 0.99940  0.68212  0.96880  Biso   1.000  H
  H529     1.0000 0.96180  0.65759  0.75151  Biso   1.000  H
  C497     1.0000 0.97936  0.56208  0.80988  Biso   1.000  C
  C498     1.0000 0.08677  0.31739  0.97580  Biso   1.000  C
  H530     1.0000 0.10202  0.32758  0.89380  Biso   1.000  H
  H531     1.0000 0.08566  0.29799  0.07273  Biso   1.000  H
  C499     1.0000 0.88960  0.18991  0.79112  Biso   1.000  C
  C500     1.0000 0.91209  0.19879  0.69982  Biso   1.000  C
  H532     1.0000 0.00951  0.55552  0.98422  Biso   1.000  H
  C501     1.0000 0.99358  0.52979  0.87761  Biso   1.000  C
  H533     1.0000 0.97412  0.53183  0.76853  Biso   1.000  H
  C502     1.0000 0.04601  0.34478  0.93313  Biso   1.000  C
  C503     1.0000 0.91857  0.23902  0.83499  Biso   1.000  C
  H534     1.0000 0.87210  0.17041  0.80819  Biso   1.000  H
  H535     1.0000 0.91031  0.18573  0.65332  Biso   1.000  H
  C504     1.0000 0.94088  0.24778  0.74440  Biso   1.000  C
  C505     1.0000 0.00087  0.44773  0.88652  Biso   1.000  C
  C506     1.0000 0.01523  0.29551  0.89872  Biso   1.000  C
  C507     1.0000 0.03921  0.42138  0.92618  Biso   1.000  C
  C508     1.0000 0.94496  0.26928  0.81278  Biso   1.000  C
  H536     1.0000 0.92031  0.25208  0.88143  Biso   1.000  H
  H537     1.0000 0.95839  0.26718  0.72728  Biso   1.000  H
  C509     1.0000 0.96952  0.39829  0.85272  Biso   1.000  C
  C510     1.0000 0.02334  0.21273  0.90408  Biso   1.000  C
  C511     1.0000 0.97722  0.32191  0.85731  Biso   1.000  C
  C512     1.0000 0.07348  0.47413  0.95621  Biso   1.000  C
  C513     1.0000 0.92800  0.42700  0.81278  Biso   1.000  C
  H538     1.0000 0.04990  0.20452  0.90873  Biso   1.000  H
  H539     1.0000 0.00472  0.18892  0.85829  Biso   1.000  H
  C514     1.0000 0.02025  0.17592  0.96863  Biso   1.000  C
  H540     1.0000 0.06671  0.51700  0.97831  Biso   1.000  H
  H541     1.0000 0.09612  0.44910  0.99533  Biso   1.000  H
  C515     1.0000 0.08487  0.50118  0.89801  Biso   1.000  C
  H542     1.0000 0.92720  0.46751  0.77969  Biso   1.000  H
  H543     1.0000 0.91091  0.38699  0.78253  Biso   1.000  H
  C516     1.0000 0.91262  0.45511  0.86552  Biso   1.000  C
  C517     1.0000 0.02723  0.09193  0.97273  Biso   1.000  C
  H544     1.0000 0.99401  0.18551  0.96491  Biso   1.000  H
  H545     1.0000 0.03949  0.19868  0.01447  Biso   1.000  H
  H546     1.0000 0.06282  0.52918  0.86081  Biso   1.000  H
  H547     1.0000 0.08961  0.45798  0.87328  Biso   1.000  H
  C518     1.0000 0.12067  0.54941  0.92722  Biso   1.000  C
  H548     1.0000 0.91071  0.41312  0.89478  Biso   1.000  H
  H549     1.0000 0.93161  0.49071  0.89971  Biso   1.000  H
  C519     1.0000 0.87254  0.49259  0.82750  Biso   1.000  C
  H550     1.0000 0.00699  0.06878  0.92799  Biso   1.000  H
  C520     1.0000 0.06632  0.07049  0.98028  Biso   1.000  C
  H551     1.0000 0.02397  0.07209  0.01497  Biso   1.000  H
  H552     1.0000 0.12660  0.56192  0.88603  Biso   1.000  H
  H553     1.0000 0.14282  0.51998  0.96261  Biso   1.000  H
  C521     1.0000 0.11890  0.61940  0.96371  Biso   1.000  C
  H554     1.0000 0.86331  0.50389  0.86470  Biso   1.000  H
  H555     1.0000 0.85381  0.45748  0.79221  Biso   1.000  H
  C522     1.0000 0.87228  0.56319  0.78718  Biso   1.000  C
  H556     1.0000 0.06792  0.08399  0.93472  Biso   1.000  H
  C523     1.0000 0.07602  0.98881  0.99533  Biso   1.000  C
  H557     1.0000 0.08627  0.09942  0.02055  Biso   1.000  H
  H558     1.0000 0.14542  0.64111  0.98772  Biso   1.000  H
  C524     1.0000 0.09330  0.67120  0.91562  Biso   1.000  C
  H559     1.0000 0.11067  0.60821  0.00227  Biso   1.000  H
  H560     1.0000 0.89162  0.59769  0.82241  Biso   1.000  H
  H561     1.0000 0.88091  0.55150  0.74933  Biso   1.000  H
  C525     1.0000 0.83285  0.60231  0.75069  Biso   1.000  C
  C526     1.0000 0.06991  0.94351  0.95260  Biso   1.000  C
  H562     1.0000 0.06297  0.97261  0.02536  Biso   1.000  H
  H563     1.0000 0.10437  0.98661  0.02755  Biso   1.000  H
  H564     1.0000 0.09890  0.67561  0.87279  Biso   1.000  H
  H565     1.0000 0.06630  0.65208  0.89763  Biso   1.000  H
  C527     1.0000 0.09483  0.75079  0.94823  Biso   1.000  C
  H566     1.0000 0.82511  0.61708  0.78910  Biso   1.000  H
  H567     1.0000 0.81311  0.56682  0.71820  Biso   1.000  H
  C528     1.0000 0.83202  0.66817  0.70742  Biso   1.000  C
  H568     1.0000 0.08920  0.94638  0.93329  Biso   1.000  H
  H569     1.0000 0.07170  0.89518  0.97531  Biso   1.000  H
  H570     1.0000 0.04371  0.95012  0.91251  Biso   1.000  H
  H571     1.0000 0.12022  0.77333  0.96010  Biso   1.000  H
  H572     1.0000 0.07402  0.78132  0.91212  Biso   1.000  H
  H573     1.0000 0.09111  0.74709  0.99259  Biso   1.000  H
  H574     1.0000 0.83769  0.65379  0.66689  Biso   1.000  H
  H575     1.0000 0.80610  0.69099  0.68789  Biso   1.000  H
  H576     1.0000 0.85171  0.70361  0.73882  Biso   1.000  H
  C529     1.0000 0.12749  0.49259  0.67252  Biso   1.000  C
  C530     1.0000 0.08741  0.45511  0.63450  Biso   1.000  C
  H577     1.0000 0.13672  0.50389  0.63532  Biso   1.000  H
  H578     1.0000 0.14622  0.45748  0.70781  Biso   1.000  H
  C531     1.0000 0.12771  0.56319  0.71278  Biso   1.000  C
  C532     1.0000 0.07199  0.42700  0.68718  Biso   1.000  C
  H579     1.0000 0.08931  0.41312  0.60518  Biso   1.000  H
  H580     1.0000 0.06842  0.49071  0.60031  Biso   1.000  H
  H581     1.0000 0.10841  0.59769  0.67761  Biso   1.000  H
  H582     1.0000 0.11909  0.55150  0.75069  Biso   1.000  H
  C533     1.0000 0.16718  0.60231  0.74933  Biso   1.000  C
  C534     1.0000 0.03051  0.39829  0.64730  Biso   1.000  C
  H583     1.0000 0.07280  0.46751  0.72033  Biso   1.000  H
  H584     1.0000 0.08909  0.38699  0.71749  Biso   1.000  H
  H585     1.0000 0.17492  0.61708  0.71092  Biso   1.000  H
  H586     1.0000 0.18692  0.56682  0.78182  Biso   1.000  H
  C535     1.0000 0.16798  0.66817  0.79260  Biso   1.000  C
  C536     1.0000 0.02281  0.32191  0.64271  Biso   1.000  C
  C537     1.0000 0.99914  0.44773  0.61350  Biso   1.000  C
  H587     1.0000 0.16231  0.65379  0.83313  Biso   1.000  H
  H588     1.0000 0.19391  0.69099  0.81213  Biso   1.000  H
  H589     1.0000 0.14832  0.70361  0.76120  Biso   1.000  H
  C538     1.0000 0.05505  0.26928  0.68718  Biso   1.000  C
  C539     1.0000 0.98480  0.29551  0.60130  Biso   1.000  C
  C540     1.0000 0.00645  0.52979  0.62241  Biso   1.000  C
  C541     1.0000 0.96078  0.42138  0.57378  Biso   1.000  C
  C542     1.0000 0.08146  0.23902  0.66503  Biso   1.000  C
  C543     1.0000 0.05912  0.24778  0.75562  Biso   1.000  C
  C544     1.0000 0.95400  0.34478  0.56689  Biso   1.000  C
  C545     1.0000 0.97665  0.21273  0.59588  Biso   1.000  C
  C546     1.0000 0.02066  0.56208  0.69008  Biso   1.000  C
  C547     1.0000 0.99956  0.57608  0.56339  Biso   1.000  C
  C548     1.0000 0.92652  0.47413  0.54381  Biso   1.000  C
  H590     1.0000 0.07970  0.25208  0.61859  Biso   1.000  H
  C549     1.0000 0.11040  0.18991  0.70890  Biso   1.000  C
  C550     1.0000 0.08792  0.19879  0.80020  Biso   1.000  C
  H591     1.0000 0.04160  0.26718  0.77268  Biso   1.000  H
  C551     1.0000 0.91324  0.31739  0.52422  Biso   1.000  C
  H592     1.0000 0.95010  0.20452  0.59129  Biso   1.000  H
  H593     1.0000 0.99531  0.18892  0.64172  Biso   1.000  H
  C552     1.0000 0.97976  0.17592  0.53139  Biso   1.000  C
  C553     1.0000 0.02767  0.63748  0.70059  Biso   1.000  C
  H594     1.0000 0.02591  0.53183  0.73149  Biso   1.000  H
  C554     1.0000 0.00575  0.65169  0.57242  Biso   1.000  C
  H595     1.0000 0.99049  0.55552  0.51580  Biso   1.000  H
  H596     1.0000 0.93332  0.51700  0.52171  Biso   1.000  H
  H597     1.0000 0.90391  0.44910  0.50469  Biso   1.000  H
  C555     1.0000 0.91513  0.50118  0.60201  Biso   1.000  C
  H598     1.0000 0.12790  0.17041  0.69183  Biso   1.000  H
  C556     1.0000 0.11416  0.16903  0.77722  Biso   1.000  C
  H599     1.0000 0.08969  0.18573  0.84670  Biso   1.000  H
  C557     1.0000 0.89812  0.29567  0.45152  Biso   1.000  C
  C558     1.0000 0.88857  0.31342  0.55639  Biso   1.000  C
  H600     1.0000 0.00602  0.18551  0.53511  Biso   1.000  H
  H601     1.0000 0.96050  0.19868  0.48549  Biso   1.000  H
  C559     1.0000 0.97280  0.09193  0.52729  Biso   1.000  C
  C560     1.0000 0.01936  0.68300  0.64140  Biso   1.000  C
  H602     1.0000 0.03820  0.65759  0.74851  Biso   1.000  H
  H603     1.0000 0.00060  0.68212  0.53122  Biso   1.000  H
  H604     1.0000 0.93721  0.52918  0.63921  Biso   1.000  H
  H605     1.0000 0.91041  0.45798  0.62668  Biso   1.000  H
  C561     1.0000 0.87936  0.54941  0.57280  Biso   1.000  C
  N25      1.0000 0.14367  0.12058  0.82219  Biso   1.000  N
  H606     1.0000 0.91429  0.29799  0.42718  Biso   1.000  H
  C562     1.0000 0.85994  0.27082  0.41323  Biso   1.000  C
  C563     1.0000 0.85027  0.28950  0.51870  Biso   1.000  C
  H607     1.0000 0.89801  0.32758  0.60622  Biso   1.000  H
  H608     1.0000 0.99300  0.06878  0.57198  Biso   1.000  H
  H609     1.0000 0.97599  0.07209  0.48500  Biso   1.000  H
  C564     1.0000 0.93370  0.07049  0.51968  Biso   1.000  C
  N26      1.0000 0.02370  0.75971  0.65081  Biso   1.000  N
  H610     1.0000 0.87340  0.56192  0.61399  Biso   1.000  H
  H611     1.0000 0.85721  0.51998  0.53741  Biso   1.000  H
  C565     1.0000 0.88110  0.61940  0.53631  Biso   1.000  C
  H612     1.0000 0.15200  0.09198  0.79599  Biso   1.000  H
  C566     1.0000 0.13860  0.07842  0.87761  Biso   1.000  C
  H613     1.0000 0.85060  0.25621  0.36361  Biso   1.000  H
  C567     1.0000 0.83555  0.26691  0.44589  Biso   1.000  C
  H614     1.0000 0.83392  0.28840  0.54271  Biso   1.000  H
  C568     1.0000 0.92401  0.98881  0.50469  Biso   1.000  C
  H615     1.0000 0.93211  0.08399  0.56530  Biso   1.000  H
  H616     1.0000 0.91372  0.09942  0.47942  Biso   1.000  H
  H617     1.0000 0.02300  0.77999  0.61902  Biso   1.000  H
  C569     1.0000 0.05540  0.79030  0.71448  Biso   1.000  C
  H618     1.0000 0.85461  0.64111  0.51230  Biso   1.000  H
  H619     1.0000 0.88931  0.60821  0.49769  Biso   1.000  H
  C570     1.0000 0.90670  0.67120  0.58440  Biso   1.000  C
  H620     1.0000 0.13931  0.11199  0.91639  Biso   1.000  H
  H621     1.0000 0.11282  0.05379  0.85551  Biso   1.000  H
  C571     1.0000 0.17027  0.02127  0.91059  Biso   1.000  C
  N27      1.0000 0.79780  0.23940  0.40732  Biso   1.000  N
  H622     1.0000 0.93702  0.97261  0.47461  Biso   1.000  H
  H623     1.0000 0.89562  0.98661  0.47242  Biso   1.000  H
  C572     1.0000 0.93010  0.94351  0.54742  Biso   1.000  C
  H624     1.0000 0.05412  0.77178  0.75912  Biso   1.000  H
  H625     1.0000 0.08050  0.77410  0.71629  Biso   1.000  H
  C573     1.0000 0.05345  0.87440  0.71300  Biso   1.000  C
  H626     1.0000 0.90110  0.67561  0.62723  Biso   1.000  H
  H627     1.0000 0.93370  0.65208  0.60239  Biso   1.000  H
  C574     1.0000 0.90520  0.75079  0.55179  Biso   1.000  C
  C575     1.0000 0.20784  0.03841  0.96973  Biso   1.000  C
  C576     1.0000 0.16300  0.95139  0.88329  Biso   1.000  C
  H628     1.0000 0.79151  0.23301  0.36099  Biso   1.000  H
  C577     1.0000 0.76675  0.25599  0.42822  Biso   1.000  C
  H629     1.0000 0.91080  0.94638  0.56673  Biso   1.000  H
  H630     1.0000 0.92830  0.89518  0.52471  Biso   1.000  H
  H631     1.0000 0.95632  0.95012  0.58751  Biso   1.000  H
  C578     1.0000 0.02597  0.91077  0.73073  Biso   1.000  C
  C579     1.0000 0.07743  0.91342  0.69271  Biso   1.000  C
  H632     1.0000 0.87981  0.77333  0.53992  Biso   1.000  H
  H633     1.0000 0.92601  0.78132  0.58790  Biso   1.000  H
  H634     1.0000 0.90892  0.74709  0.50743  Biso   1.000  H
  C580     1.0000 0.23751  0.98220  0.99680  Biso   1.000  C
  C581     1.0000 0.21732  0.10741  0.00315  Biso   1.000  C
  C582     1.0000 0.19235  0.89600  0.91092  Biso   1.000  C
  H635     1.0000 0.13801  0.93949  0.84533  Biso   1.000  H
  H636     1.0000 0.77820  0.26228  0.48188  Biso   1.000  H
  H637     1.0000 0.75411  0.30300  0.40519  Biso   1.000  H
  C583     1.0000 0.73623  0.19559  0.40508  Biso   1.000  C
  C584     1.0000 0.02550  0.99129  0.72920  Biso   1.000  C
  C585     1.0000 0.99999  0.87561  0.74998  Biso   1.000  C
  C586     1.0000 0.07590  0.99322  0.68981  Biso   1.000  C
  H638     1.0000 0.09540  0.88801  0.68029  Biso   1.000  H
  C587     1.0000 0.22800  0.91110  0.96480  Biso   1.000  C
  C588     1.0000 0.27359  0.99862  0.05216  Biso   1.000  C
  H639     1.0000 0.19801  0.14489  0.98630  Biso   1.000  H
  C589     1.0000 0.25371  0.12450  0.06004  Biso   1.000  C
  H640     1.0000 0.18670  0.84762  0.89101  Biso   1.000  H
  C590     1.0000 0.74626  0.12450  0.43992  Biso   1.000  C
  C591     1.0000 0.69970  0.20909  0.35333  Biso   1.000  C
  C592     1.0000 0.99999  0.02640  0.74998  Biso   1.000  C
  C593     1.0000 0.05071  0.02838  0.70802  Biso   1.000  C
  C594     1.0000 0.97406  0.91077  0.76929  Biso   1.000  C
  H641     1.0000 0.99999  0.82320  0.74998  Biso   1.000  H
  H642     1.0000 0.09250  0.02023  0.67520  Biso   1.000  H
  H643     1.0000 0.24721  0.87330  0.98182  Biso   1.000  H
  H644     1.0000 0.29276  0.96093  0.06945  Biso   1.000  H
  C595     1.0000 0.28328  0.06861  0.08427  Biso   1.000  C
  C596     1.0000 0.26374  0.19559  0.09483  Biso   1.000  C
  C597     1.0000 0.78265  0.10741  0.49682  Biso   1.000  C
  C598     1.0000 0.71671  0.06861  0.41569  Biso   1.000  C
  C599     1.0000 0.67045  0.15409  0.33079  Biso   1.000  C
  H645     1.0000 0.69341  0.25649  0.33139  Biso   1.000  H
  C600     1.0000 0.97450  0.99129  0.77082  Biso   1.000  C
  H646     1.0000 0.99999  0.07881  0.74998  Biso   1.000  H
  H647     1.0000 0.05000  0.08079  0.70638  Biso   1.000  H
  C601     1.0000 0.94655  0.87440  0.78702  Biso   1.000  C
  C602     1.0000 0.32107  0.08581  0.13947  Biso   1.000  C
  C603     1.0000 0.23324  0.25599  0.07175  Biso   1.000  C
  C604     1.0000 0.30029  0.20909  0.14664  Biso   1.000  C
  C605     1.0000 0.79216  0.03841  0.53029  Biso   1.000  C
  H648     1.0000 0.80202  0.14489  0.51372  Biso   1.000  H
  C606     1.0000 0.72640  0.99862  0.44780  Biso   1.000  C
  C607     1.0000 0.67889  0.08581  0.36049  Biso   1.000  C
  H649     1.0000 0.64479  0.16511  0.29469  Biso   1.000  H
  C608     1.0000 0.94930  0.02838  0.79199  Biso   1.000  C
  C609     1.0000 0.94462  0.79030  0.78548  Biso   1.000  C
  C610     1.0000 0.92260  0.91342  0.80731  Biso   1.000  C
  H650     1.0000 0.34077  0.04899  0.15588  Biso   1.000  H
  C611     1.0000 0.32951  0.15409  0.16917  Biso   1.000  C
  N28      1.0000 0.20219  0.23940  0.09264  Biso   1.000  N
  H651     1.0000 0.22175  0.26228  0.01803  Biso   1.000  H
  H652     1.0000 0.24588  0.30300  0.09478  Biso   1.000  H
  H653     1.0000 0.30658  0.25649  0.16857  Biso   1.000  H
  C612     1.0000 0.76252  0.98220  0.50322  Biso   1.000  C
  C613     1.0000 0.82976  0.02127  0.58943  Biso   1.000  C
  H654     1.0000 0.70720  0.96093  0.43052  Biso   1.000  H
  H655     1.0000 0.65920  0.04899  0.34408  Biso   1.000  H
  C614     1.0000 0.92412  0.99322  0.81021  Biso   1.000  C
  H656     1.0000 0.95001  0.08079  0.79358  Biso   1.000  H
  N29      1.0000 0.97630  0.75971  0.84921  Biso   1.000  N
  H657     1.0000 0.94591  0.77178  0.74090  Biso   1.000  H
  H658     1.0000 0.91949  0.77410  0.78368  Biso   1.000  H
  H659     1.0000 0.90460  0.88801  0.81973  Biso   1.000  H
  H660     1.0000 0.35518  0.16511  0.20528  Biso   1.000  H
  C615     1.0000 0.16442  0.26691  0.05408  Biso   1.000  C
  H661     1.0000 0.20848  0.23301  0.13898  Biso   1.000  H
  C616     1.0000 0.77200  0.91110  0.53522  Biso   1.000  C
  C617     1.0000 0.83703  0.95139  0.61673  Biso   1.000  C
  C618     1.0000 0.86141  0.07842  0.62241  Biso   1.000  C
  H662     1.0000 0.90751  0.02023  0.82482  Biso   1.000  H
  C619     1.0000 0.98064  0.68300  0.85862  Biso   1.000  C
  H663     1.0000 0.97700  0.77999  0.88100  Biso   1.000  H
  C620     1.0000 0.14973  0.28950  0.98132  Biso   1.000  C
  C621     1.0000 0.14005  0.27082  0.08674  Biso   1.000  C
  H664     1.0000 0.75281  0.87330  0.51820  Biso   1.000  H
  C622     1.0000 0.80768  0.89600  0.58910  Biso   1.000  C
  H665     1.0000 0.86201  0.93949  0.65469  Biso   1.000  H
  N30      1.0000 0.85636  0.12058  0.67783  Biso   1.000  N
  H666     1.0000 0.86072  0.11199  0.58363  Biso   1.000  H
  H667     1.0000 0.88721  0.05379  0.64451  Biso   1.000  H
  C623     1.0000 0.99428  0.65169  0.92760  Biso   1.000  C
  C624     1.0000 0.97236  0.63748  0.79943  Biso   1.000  C
  H668     1.0000 0.16611  0.28840  0.95731  Biso   1.000  H
  C625     1.0000 0.11143  0.31342  0.94363  Biso   1.000  C
  C626     1.0000 0.10184  0.29567  0.04844  Biso   1.000  C
  H669     1.0000 0.14936  0.25621  0.13635  Biso   1.000  H
  H670     1.0000 0.81330  0.84762  0.60901  Biso   1.000  H
  C627     1.0000 0.88584  0.16903  0.72279  Biso   1.000  C
  H671     1.0000 0.84802  0.09198  0.70403  Biso   1.000  H
  C628     1.0000 0.00044  0.57608  0.93663  Biso   1.000  C
  H672     1.0000 0.99940  0.68212  0.96880  Biso   1.000  H
  H673     1.0000 0.96180  0.65759  0.75151  Biso   1.000  H
  C629     1.0000 0.97936  0.56208  0.80988  Biso   1.000  C
  C630     1.0000 0.08677  0.31739  0.97580  Biso   1.000  C
  H674     1.0000 0.10202  0.32758  0.89380  Biso   1.000  H
  H675     1.0000 0.08566  0.29799  0.07273  Biso   1.000  H
  C631     1.0000 0.88960  0.18991  0.79112  Biso   1.000  C
  C632     1.0000 0.91209  0.19879  0.69982  Biso   1.000  C
  H676     1.0000 0.00951  0.55552  0.98422  Biso   1.000  H
  C633     1.0000 0.99358  0.52979  0.87761  Biso   1.000  C
  H677     1.0000 0.97412  0.53183  0.76853  Biso   1.000  H
  C634     1.0000 0.04601  0.34478  0.93313  Biso   1.000  C
  C635     1.0000 0.91857  0.23902  0.83499  Biso   1.000  C
  H678     1.0000 0.87210  0.17041  0.80819  Biso   1.000  H
  H679     1.0000 0.91031  0.18573  0.65332  Biso   1.000  H
  C636     1.0000 0.94088  0.24778  0.74440  Biso   1.000  C
  C637     1.0000 0.00087  0.44773  0.88652  Biso   1.000  C
  C638     1.0000 0.01523  0.29551  0.89872  Biso   1.000  C
  C639     1.0000 0.03921  0.42138  0.92618  Biso   1.000  C
  C640     1.0000 0.94496  0.26928  0.81278  Biso   1.000  C
  H680     1.0000 0.92031  0.25208  0.88143  Biso   1.000  H
  H681     1.0000 0.95839  0.26718  0.72728  Biso   1.000  H
  C641     1.0000 0.96952  0.39829  0.85272  Biso   1.000  C
  C642     1.0000 0.02334  0.21273  0.90408  Biso   1.000  C
  C643     1.0000 0.97722  0.32191  0.85731  Biso   1.000  C
  C644     1.0000 0.07348  0.47413  0.95621  Biso   1.000  C
  C645     1.0000 0.92800  0.42700  0.81278  Biso   1.000  C
  H682     1.0000 0.04990  0.20452  0.90873  Biso   1.000  H
  H683     1.0000 0.00472  0.18892  0.85829  Biso   1.000  H
  C646     1.0000 0.02025  0.17592  0.96863  Biso   1.000  C
  H684     1.0000 0.06671  0.51700  0.97831  Biso   1.000  H
  H685     1.0000 0.09612  0.44910  0.99533  Biso   1.000  H
  C647     1.0000 0.08487  0.50118  0.89801  Biso   1.000  C
  H686     1.0000 0.92720  0.46751  0.77969  Biso   1.000  H
  H687     1.0000 0.91091  0.38699  0.78253  Biso   1.000  H
  C648     1.0000 0.91262  0.45511  0.86552  Biso   1.000  C
  C649     1.0000 0.02723  0.09193  0.97273  Biso   1.000  C
  H688     1.0000 0.99401  0.18551  0.96491  Biso   1.000  H
  H689     1.0000 0.03949  0.19868  0.01447  Biso   1.000  H
  H690     1.0000 0.06282  0.52918  0.86081  Biso   1.000  H
  H691     1.0000 0.08961  0.45798  0.87328  Biso   1.000  H
  C650     1.0000 0.12067  0.54941  0.92722  Biso   1.000  C
  H692     1.0000 0.91071  0.41312  0.89478  Biso   1.000  H
  H693     1.0000 0.93161  0.49071  0.89971  Biso   1.000  H
  C651     1.0000 0.87254  0.49259  0.82750  Biso   1.000  C
  H694     1.0000 0.00699  0.06878  0.92799  Biso   1.000  H
  C652     1.0000 0.06632  0.07049  0.98028  Biso   1.000  C
  H695     1.0000 0.02397  0.07209  0.01497  Biso   1.000  H
  H696     1.0000 0.12660  0.56192  0.88603  Biso   1.000  H
  H697     1.0000 0.14282  0.51998  0.96261  Biso   1.000  H
  C653     1.0000 0.11890  0.61940  0.96371  Biso   1.000  C
  H698     1.0000 0.86331  0.50389  0.86470  Biso   1.000  H
  H699     1.0000 0.85381  0.45748  0.79221  Biso   1.000  H
  C654     1.0000 0.87228  0.56319  0.78718  Biso   1.000  C
  H700     1.0000 0.06792  0.08399  0.93472  Biso   1.000  H
  C655     1.0000 0.07602  0.98881  0.99533  Biso   1.000  C
  H701     1.0000 0.08627  0.09942  0.02055  Biso   1.000  H
  H702     1.0000 0.14542  0.64111  0.98772  Biso   1.000  H
  C656     1.0000 0.09330  0.67120  0.91562  Biso   1.000  C
  H703     1.0000 0.11067  0.60821  0.00227  Biso   1.000  H
  H704     1.0000 0.89162  0.59769  0.82241  Biso   1.000  H
  H705     1.0000 0.88091  0.55150  0.74933  Biso   1.000  H
  C657     1.0000 0.83285  0.60231  0.75069  Biso   1.000  C
  C658     1.0000 0.06991  0.94351  0.95260  Biso   1.000  C
  H706     1.0000 0.06297  0.97261  0.02536  Biso   1.000  H
  H707     1.0000 0.10437  0.98661  0.02755  Biso   1.000  H
  H708     1.0000 0.09890  0.67561  0.87279  Biso   1.000  H
  H709     1.0000 0.06630  0.65208  0.89763  Biso   1.000  H
  C659     1.0000 0.09483  0.75079  0.94823  Biso   1.000  C
  H710     1.0000 0.82511  0.61708  0.78910  Biso   1.000  H
  H711     1.0000 0.81311  0.56682  0.71820  Biso   1.000  H
  C660     1.0000 0.83202  0.66817  0.70742  Biso   1.000  C
  H712     1.0000 0.08920  0.94638  0.93329  Biso   1.000  H
  H713     1.0000 0.07170  0.89518  0.97531  Biso   1.000  H
  H714     1.0000 0.04371  0.95012  0.91251  Biso   1.000  H
  H715     1.0000 0.12022  0.77333  0.96010  Biso   1.000  H
  H716     1.0000 0.07402  0.78132  0.91212  Biso   1.000  H
  H717     1.0000 0.09111  0.74709  0.99259  Biso   1.000  H
  H718     1.0000 0.83769  0.65379  0.66689  Biso   1.000  H
  H719     1.0000 0.80610  0.69099  0.68789  Biso   1.000  H
  H720     1.0000 0.85171  0.70361  0.73882  Biso   1.000  H
  C661     1.0000 0.38958  0.31011  0.29108  Biso   1.000  C
  C662     1.0000 0.41856  0.26101  0.33500  Biso   1.000  C
  H721     1.0000 0.37210  0.32962  0.30820  Biso   1.000  H
  C663     1.0000 0.38587  0.33100  0.22281  Biso   1.000  C
  C664     1.0000 0.44496  0.23070  0.31279  Biso   1.000  C
  H722     1.0000 0.42031  0.24789  0.38139  Biso   1.000  H
  C665     1.0000 0.41207  0.30118  0.19978  Biso   1.000  C
  N31      1.0000 0.35634  0.37939  0.17779  Biso   1.000  N
  C666     1.0000 0.47722  0.17812  0.35732  Biso   1.000  C
  C667     1.0000 0.44088  0.25219  0.24441  Biso   1.000  C
  H723     1.0000 0.41029  0.31430  0.15328  Biso   1.000  H
  H724     1.0000 0.34801  0.40799  0.20399  Biso   1.000  H
  C668     1.0000 0.36143  0.42160  0.12243  Biso   1.000  C
  C669     1.0000 0.46952  0.10168  0.35273  Biso   1.000  C
  C670     1.0000 0.51521  0.20452  0.39868  Biso   1.000  C
  H725     1.0000 0.45839  0.23279  0.22729  Biso   1.000  H
  H726     1.0000 0.36070  0.38799  0.08359  Biso   1.000  H
  H727     1.0000 0.38720  0.44618  0.14453  Biso   1.000  H
  C671     1.0000 0.32974  0.47870  0.08939  Biso   1.000  C
  C672     1.0000 0.50085  0.05230  0.38648  Biso   1.000  C
  C673     1.0000 0.42802  0.07302  0.31279  Biso   1.000  C
  C674     1.0000 0.54599  0.15519  0.43309  Biso   1.000  C
  C675     1.0000 0.52334  0.28724  0.40409  Biso   1.000  C
  C676     1.0000 0.29216  0.46161  0.03031  Biso   1.000  C
  C677     1.0000 0.33701  0.54858  0.11668  Biso   1.000  C
  C678     1.0000 0.53923  0.07859  0.42619  Biso   1.000  C
  C679     1.0000 0.49357  0.97018  0.37762  Biso   1.000  C
  H728     1.0000 0.42719  0.03252  0.27970  Biso   1.000  H
  H729     1.0000 0.41089  0.11298  0.28249  Biso   1.000  H
  C680     1.0000 0.41261  0.04492  0.36553  Biso   1.000  C
  C681     1.0000 0.58679  0.18258  0.47581  Biso   1.000  C
  H730     1.0000 0.54991  0.29551  0.40869  Biso   1.000  H
  H731     1.0000 0.50471  0.31110  0.35831  Biso   1.000  H
  C682     1.0000 0.52025  0.32411  0.46859  Biso   1.000  C
  C683     1.0000 0.26250  0.51777  0.00317  Biso   1.000  C
  C684     1.0000 0.28268  0.39262  0.99688  Biso   1.000  C
  C685     1.0000 0.30767  0.60402  0.08911  Biso   1.000  C
  H732     1.0000 0.36201  0.56048  0.15470  Biso   1.000  H
  C686     1.0000 0.57347  0.02590  0.45623  Biso   1.000  C
  C687     1.0000 0.50042  0.92389  0.43659  Biso   1.000  C
  C688     1.0000 0.47935  0.93789  0.30989  Biso   1.000  C
  H733     1.0000 0.41070  0.08691  0.39479  Biso   1.000  H
  H734     1.0000 0.43160  0.00931  0.39972  Biso   1.000  H
  C689     1.0000 0.37254  0.00738  0.32751  Biso   1.000  C
  C690     1.0000 0.60188  0.20430  0.54851  Biso   1.000  C
  C691     1.0000 0.61144  0.18661  0.44359  Biso   1.000  C
  H735     1.0000 0.53951  0.30130  0.51448  Biso   1.000  H
  H736     1.0000 0.49401  0.31452  0.46492  Biso   1.000  H
  C692     1.0000 0.52721  0.40810  0.47269  Biso   1.000  C
  C693     1.0000 0.27198  0.58892  0.03517  Biso   1.000  C
  C694     1.0000 0.22644  0.50141  0.94787  Biso   1.000  C
  H737     1.0000 0.30200  0.35508  0.01368  Biso   1.000  H
  C695     1.0000 0.24631  0.37548  0.93994  Biso   1.000  C
  H738     1.0000 0.31330  0.65241  0.10902  Biso   1.000  H
  H739     1.0000 0.59610  0.05092  0.49528  Biso   1.000  H
  H740     1.0000 0.56671  0.98303  0.47833  Biso   1.000  H
  C696     1.0000 0.58487  0.99879  0.39802  Biso   1.000  C
  H741     1.0000 0.50949  0.94450  0.48418  Biso   1.000  H
  C697     1.0000 0.49427  0.84828  0.42762  Biso   1.000  C
  C698     1.0000 0.47234  0.86250  0.29939  Biso   1.000  C
  H742     1.0000 0.47410  0.96820  0.26848  Biso   1.000  H
  H743     1.0000 0.35381  0.04249  0.29223  Biso   1.000  H
  H744     1.0000 0.36330  0.99609  0.36471  Biso   1.000  H
  C699     1.0000 0.37227  0.93679  0.28719  Biso   1.000  C
  H745     1.0000 0.58569  0.20198  0.57280  Biso   1.000  H
  C700     1.0000 0.64008  0.22921  0.58680  Biso   1.000  C
  C701     1.0000 0.64974  0.21053  0.48128  Biso   1.000  C
  H746     1.0000 0.60201  0.17239  0.39381  Biso   1.000  H
  H747     1.0000 0.50701  0.43119  0.42800  Biso   1.000  H
  H748     1.0000 0.52401  0.42789  0.51503  Biso   1.000  H
  C702     1.0000 0.56631  0.42948  0.48030  Biso   1.000  C
  H749     1.0000 0.25281  0.62667  0.01822  Biso   1.000  H
  C703     1.0000 0.21674  0.43141  0.91576  Biso   1.000  C
  H750     1.0000 0.20722  0.53910  0.93053  Biso   1.000  H
  C704     1.0000 0.23627  0.30438  0.90514  Biso   1.000  C
  H751     1.0000 0.58960  0.04200  0.37330  Biso   1.000  H
  H752     1.0000 0.56281  0.97079  0.36082  Biso   1.000  H
  C705     1.0000 0.62065  0.95062  0.42718  Biso   1.000  C
  H753     1.0000 0.49940  0.81791  0.46881  Biso   1.000  H
  C706     1.0000 0.48063  0.81697  0.35858  Biso   1.000  C
  H754     1.0000 0.46180  0.84238  0.25153  Biso   1.000  H
  H755     1.0000 0.39161  0.90229  0.32242  Biso   1.000  H
  H756     1.0000 0.38089  0.94853  0.24928  Biso   1.000  H
  C707     1.0000 0.33285  0.89771  0.25071  Biso   1.000  C
  H757     1.0000 0.64942  0.24381  0.63642  Biso   1.000  H
  C708     1.0000 0.66446  0.23312  0.55409  Biso   1.000  C
  H758     1.0000 0.66611  0.21157  0.45732  Biso   1.000  H
  H759     1.0000 0.56791  0.41598  0.43473  Biso   1.000  H
  H760     1.0000 0.58631  0.40061  0.52061  Biso   1.000  H
  C709     1.0000 0.57600  0.51122  0.49528  Biso   1.000  C
  C710     1.0000 0.17893  0.41422  0.86056  Biso   1.000  C
  C711     1.0000 0.26677  0.24398  0.92823  Biso   1.000  C
  C712     1.0000 0.19972  0.29088  0.85334  Biso   1.000  C
  H761     1.0000 0.62661  0.93811  0.38599  Biso   1.000  H
  H762     1.0000 0.64282  0.97999  0.46263  Biso   1.000  H
  C713     1.0000 0.61890  0.88057  0.46372  Biso   1.000  C
  N32      1.0000 0.47632  0.74031  0.34923  Biso   1.000  N
  H763     1.0000 0.32510  0.88289  0.28911  Biso   1.000  H
  H764     1.0000 0.31311  0.93320  0.21821  Biso   1.000  H
  C714     1.0000 0.33203  0.83180  0.20738  Biso   1.000  C
  N33      1.0000 0.70223  0.26062  0.59271  Biso   1.000  N
  H765     1.0000 0.56301  0.52742  0.52543  Biso   1.000  H
  H766     1.0000 0.60441  0.51342  0.52761  Biso   1.000  H
  C715     1.0000 0.56990  0.55652  0.45262  Biso   1.000  C
  H767     1.0000 0.15923  0.45098  0.84415  Biso   1.000  H
  C716     1.0000 0.17049  0.34588  0.83086  Biso   1.000  C
  N34      1.0000 0.29782  0.26062  0.90733  Biso   1.000  N
  H768     1.0000 0.27823  0.23770  0.98195  Biso   1.000  H
  H769     1.0000 0.25415  0.19702  0.90525  Biso   1.000  H
  H770     1.0000 0.19345  0.24348  0.83146  Biso   1.000  H
  H771     1.0000 0.64540  0.85891  0.48768  Biso   1.000  H
  H772     1.0000 0.61070  0.89182  0.50229  Biso   1.000  H
  C717     1.0000 0.59331  0.82882  0.41558  Biso   1.000  C
  H773     1.0000 0.47700  0.71998  0.38101  Biso   1.000  H
  C718     1.0000 0.44461  0.70973  0.28550  Biso   1.000  C
  H774     1.0000 0.33771  0.84618  0.16690  Biso   1.000  H
  H775     1.0000 0.30609  0.80898  0.18791  Biso   1.000  H
  H776     1.0000 0.35169  0.79642  0.23878  Biso   1.000  H
  H777     1.0000 0.70850  0.26702  0.63899  Biso   1.000  H
  C719     1.0000 0.73327  0.24398  0.57181  Biso   1.000  C
  H778     1.0000 0.58919  0.55360  0.43330  Biso   1.000  H
  H779     1.0000 0.57172  0.60479  0.47532  Biso   1.000  H
  H780     1.0000 0.54371  0.54990  0.41252  Biso   1.000  H
  H781     1.0000 0.14485  0.33491  0.79475  Biso   1.000  H
  C720     1.0000 0.33558  0.23312  0.94595  Biso   1.000  C
  H782     1.0000 0.29154  0.26702  0.86105  Biso   1.000  H
  H783     1.0000 0.59890  0.82441  0.37280  Biso   1.000  H
  H784     1.0000 0.56631  0.84789  0.39758  Biso   1.000  H
  C721     1.0000 0.59481  0.74919  0.44818  Biso   1.000  C
  H785     1.0000 0.44590  0.72819  0.24091  Biso   1.000  H
  H786     1.0000 0.41951  0.72587  0.28369  Biso   1.000  H
  C722     1.0000 0.44657  0.62563  0.28703  Biso   1.000  C
  H787     1.0000 0.72181  0.23770  0.51810  Biso   1.000  H
  H788     1.0000 0.74590  0.19702  0.59479  Biso   1.000  H
  C723     1.0000 0.76378  0.30438  0.59490  Biso   1.000  C
  C724     1.0000 0.35026  0.21053  0.01871  Biso   1.000  C
  C725     1.0000 0.35996  0.22921  0.91324  Biso   1.000  C
  H789     1.0000 0.62021  0.72670  0.46011  Biso   1.000  H
  H790     1.0000 0.57400  0.71871  0.41208  Biso   1.000  H
  H791     1.0000 0.59110  0.75288  0.49260  Biso   1.000  H
  C726     1.0000 0.47406  0.58920  0.26930  Biso   1.000  C
  C727     1.0000 0.42260  0.58661  0.30732  Biso   1.000  C
  C728     1.0000 0.75374  0.37548  0.56011  Biso   1.000  C
  C729     1.0000 0.80032  0.29088  0.64670  Biso   1.000  C
  H792     1.0000 0.33391  0.21157  0.04272  Biso   1.000  H
  C730     1.0000 0.38856  0.18661  0.05640  Biso   1.000  C
  C731     1.0000 0.39814  0.20430  0.95153  Biso   1.000  C
  H793     1.0000 0.35064  0.24381  0.86368  Biso   1.000  H
  C732     1.0000 0.49999  0.62441  0.24999  Biso   1.000  C
  C733     1.0000 0.47451  0.50868  0.27078  Biso   1.000  C
  C734     1.0000 0.42412  0.50681  0.31022  Biso   1.000  C
  H794     1.0000 0.40461  0.61201  0.31969  Biso   1.000  H
  C735     1.0000 0.71738  0.39262  0.50322  Biso   1.000  C
  C736     1.0000 0.78330  0.43141  0.58429  Biso   1.000  C
  C737     1.0000 0.82953  0.34588  0.66919  Biso   1.000  C
  H795     1.0000 0.80660  0.24348  0.66858  Biso   1.000  H
  C738     1.0000 0.41322  0.18258  0.02418  Biso   1.000  C
  H796     1.0000 0.39799  0.17239  0.10618  Biso   1.000  H
  H797     1.0000 0.41432  0.20198  0.92724  Biso   1.000  H
  C739     1.0000 0.52595  0.58920  0.23068  Biso   1.000  C
  H798     1.0000 0.49999  0.67683  0.24999  Biso   1.000  H
  C740     1.0000 0.49999  0.47357  0.24999  Biso   1.000  C
  C741     1.0000 0.44929  0.47159  0.29201  Biso   1.000  C
  H799     1.0000 0.40750  0.47980  0.32483  Biso   1.000  H
  C742     1.0000 0.70782  0.46161  0.46968  Biso   1.000  C
  H800     1.0000 0.69801  0.35508  0.48631  Biso   1.000  H
  C743     1.0000 0.77362  0.50141  0.55223  Biso   1.000  C
  C744     1.0000 0.82109  0.41422  0.63948  Biso   1.000  C
  H801     1.0000 0.85520  0.33491  0.70529  Biso   1.000  H
  C745     1.0000 0.45399  0.15519  0.06690  Biso   1.000  C
  C746     1.0000 0.55345  0.62563  0.21301  Biso   1.000  C
  C747     1.0000 0.52549  0.50868  0.22921  Biso   1.000  C
  H802     1.0000 0.49999  0.42122  0.24999  Biso   1.000  H
  H803     1.0000 0.45001  0.41918  0.29359  Biso   1.000  H
  C748     1.0000 0.67026  0.47870  0.41060  Biso   1.000  C
  C749     1.0000 0.73751  0.51777  0.49682  Biso   1.000  C
  H804     1.0000 0.79282  0.53910  0.56952  Biso   1.000  H
  H805     1.0000 0.84081  0.45098  0.65589  Biso   1.000  H
  C750     1.0000 0.48480  0.20452  0.10131  Biso   1.000  C
  C751     1.0000 0.46077  0.07859  0.07379  Biso   1.000  C
  C752     1.0000 0.55539  0.70973  0.21449  Biso   1.000  C
  C753     1.0000 0.57742  0.58661  0.19272  Biso   1.000  C
  C754     1.0000 0.55069  0.47159  0.20798  Biso   1.000  C
  C755     1.0000 0.63859  0.42160  0.37762  Biso   1.000  C
  C756     1.0000 0.66299  0.54858  0.38331  Biso   1.000  C
  C757     1.0000 0.72800  0.58892  0.46481  Biso   1.000  C
  C758     1.0000 0.52280  0.17812  0.14272  Biso   1.000  C
  C759     1.0000 0.47664  0.28724  0.09589  Biso   1.000  C
  C760     1.0000 0.49913  0.05230  0.11351  Biso   1.000  C
  C761     1.0000 0.42654  0.02590  0.04382  Biso   1.000  C
  N35      1.0000 0.52370  0.74031  0.15082  Biso   1.000  N
  H806     1.0000 0.55410  0.72819  0.25907  Biso   1.000  H
  H807     1.0000 0.58049  0.72587  0.21630  Biso   1.000  H
  C762     1.0000 0.57590  0.50681  0.18982  Biso   1.000  C
  H808     1.0000 0.59539  0.61201  0.18030  Biso   1.000  H
  H809     1.0000 0.55000  0.41918  0.20640  Biso   1.000  H
  N36      1.0000 0.64367  0.37939  0.32220  Biso   1.000  N
  H810     1.0000 0.63930  0.38799  0.41640  Biso   1.000  H
  H811     1.0000 0.61281  0.44618  0.35552  Biso   1.000  H
  C763     1.0000 0.69233  0.60402  0.41088  Biso   1.000  C
  H812     1.0000 0.63800  0.56048  0.34529  Biso   1.000  H
  H813     1.0000 0.74721  0.62667  0.48183  Biso   1.000  H
  C764     1.0000 0.53050  0.10168  0.14732  Biso   1.000  C
  C765     1.0000 0.55505  0.23070  0.18719  Biso   1.000  C
  H814     1.0000 0.45009  0.29551  0.09130  Biso   1.000  H
  H815     1.0000 0.49529  0.31110  0.14168  Biso   1.000  H
  C766     1.0000 0.47975  0.32411  0.03140  Biso   1.000  C
  C767     1.0000 0.50644  0.97018  0.12243  Biso   1.000  C
  H816     1.0000 0.40390  0.05092  0.00470  Biso   1.000  H
  H817     1.0000 0.43331  0.98303  0.02172  Biso   1.000  H
  C768     1.0000 0.41515  0.99879  0.10202  Biso   1.000  C
  C769     1.0000 0.51935  0.81697  0.14141  Biso   1.000  C
  H818     1.0000 0.52298  0.71998  0.11898  Biso   1.000  H
  H819     1.0000 0.59252  0.47980  0.17521  Biso   1.000  H
  C770     1.0000 0.61414  0.33100  0.27718  Biso   1.000  C
  H820     1.0000 0.65200  0.40799  0.29600  Biso   1.000  H
  H821     1.0000 0.68672  0.65241  0.39102  Biso   1.000  H
  C771     1.0000 0.57198  0.07302  0.18719  Biso   1.000  C
  C772     1.0000 0.58144  0.26101  0.16499  Biso   1.000  C
  C773     1.0000 0.55914  0.25219  0.25563  Biso   1.000  C
  H822     1.0000 0.50601  0.31452  0.03512  Biso   1.000  H
  C774     1.0000 0.47279  0.40810  0.02730  Biso   1.000  C
  H823     1.0000 0.46054  0.30130  0.98556  Biso   1.000  H
  C775     1.0000 0.49958  0.92389  0.06340  Biso   1.000  C
  C776     1.0000 0.52066  0.93789  0.19009  Biso   1.000  C
  H824     1.0000 0.41040  0.04200  0.12669  Biso   1.000  H
  H825     1.0000 0.43720  0.97079  0.13922  Biso   1.000  H
  C777     1.0000 0.37935  0.95062  0.07281  Biso   1.000  C
  C778     1.0000 0.50575  0.84828  0.07243  Biso   1.000  C
  C779     1.0000 0.52766  0.86250  0.20060  Biso   1.000  C
  C780     1.0000 0.61042  0.31011  0.20891  Biso   1.000  C
  C781     1.0000 0.58794  0.30118  0.30021  Biso   1.000  C
  H826     1.0000 0.57281  0.03252  0.22029  Biso   1.000  H
  H827     1.0000 0.58909  0.11298  0.21750  Biso   1.000  H
  C782     1.0000 0.58741  0.04492  0.13452  Biso   1.000  C
  H828     1.0000 0.57969  0.24789  0.11860  Biso   1.000  H
  H829     1.0000 0.54159  0.23279  0.27270  Biso   1.000  H
  H830     1.0000 0.49299  0.43119  0.07199  Biso   1.000  H
  C783     1.0000 0.43370  0.42948  0.01969  Biso   1.000  C
  H831     1.0000 0.47605  0.42789  0.98507  Biso   1.000  H
  H832     1.0000 0.49049  0.94450  0.01581  Biso   1.000  H
  H833     1.0000 0.52591  0.96820  0.23150  Biso   1.000  H
  H834     1.0000 0.37339  0.93811  0.11400  Biso   1.000  H
  H835     1.0000 0.35720  0.97999  0.03742  Biso   1.000  H
  C784     1.0000 0.38109  0.88057  0.03632  Biso   1.000  C
  H836     1.0000 0.50058  0.81791  0.03118  Biso   1.000  H
  H837     1.0000 0.53819  0.84238  0.24852  Biso   1.000  H
  H838     1.0000 0.62791  0.32962  0.19179  Biso   1.000  H
  H839     1.0000 0.58972  0.31430  0.34671  Biso   1.000  H
  H840     1.0000 0.58930  0.08691  0.10519  Biso   1.000  H
  H841     1.0000 0.56841  0.00931  0.10033  Biso   1.000  H
  C785     1.0000 0.62747  0.00738  0.17248  Biso   1.000  C
  H842     1.0000 0.43210  0.41598  0.06532  Biso   1.000  H
  C786     1.0000 0.42401  0.51122  0.00470  Biso   1.000  C
  H843     1.0000 0.41374  0.40061  0.97943  Biso   1.000  H
  H844     1.0000 0.38935  0.89182  0.99776  Biso   1.000  H
  H845     1.0000 0.35460  0.85891  0.01231  Biso   1.000  H
  C787     1.0000 0.40669  0.82882  0.08441  Biso   1.000  C
  H846     1.0000 0.64621  0.04249  0.20782  Biso   1.000  H
  H847     1.0000 0.63670  0.99609  0.13528  Biso   1.000  H
  C788     1.0000 0.62773  0.93679  0.21280  Biso   1.000  C
  C789     1.0000 0.43010  0.55652  0.04737  Biso   1.000  C
  H848     1.0000 0.43705  0.52742  0.97467  Biso   1.000  H
  H849     1.0000 0.39564  0.51342  0.97243  Biso   1.000  H
  H850     1.0000 0.40111  0.82441  0.12719  Biso   1.000  H
  H851     1.0000 0.43369  0.84789  0.10240  Biso   1.000  H
  C790     1.0000 0.40520  0.74919  0.05180  Biso   1.000  C
  H852     1.0000 0.60840  0.90229  0.17762  Biso   1.000  H
  H853     1.0000 0.61911  0.94853  0.25071  Biso   1.000  H
  C791     1.0000 0.66716  0.89771  0.24928  Biso   1.000  C
  H854     1.0000 0.41078  0.55360  0.06668  Biso   1.000  H
  H855     1.0000 0.42830  0.60479  0.02473  Biso   1.000  H
  H856     1.0000 0.45631  0.54990  0.08753  Biso   1.000  H
  H857     1.0000 0.37979  0.72670  0.03988  Biso   1.000  H
  H858     1.0000 0.42600  0.71871  0.08791  Biso   1.000  H
  H859     1.0000 0.40890  0.75288  0.00738  Biso   1.000  H
  H860     1.0000 0.67490  0.88289  0.21088  Biso   1.000  H
  H861     1.0000 0.68690  0.93320  0.28178  Biso   1.000  H
  C792     1.0000 0.66798  0.83180  0.29261  Biso   1.000  C
  H862     1.0000 0.66229  0.84618  0.33309  Biso   1.000  H
  H863     1.0000 0.69389  0.80898  0.31208  Biso   1.000  H
  H864     1.0000 0.64831  0.79642  0.26121  Biso   1.000  H
