data_image0
_cell_length_a       14.686
_cell_length_b       20.098
_cell_length_c       14.503
_cell_angle_alpha    90
_cell_angle_beta     111.06
_cell_angle_gamma    90

_symmetry_space_group_name_H-M    "P 1"
_symmetry_int_tables_number       1

loop_
  _symmetry_equiv_pos_as_xyz
  'x, y, z'

loop_
  _atom_site_label
  _atom_site_occupancy
  _atom_site_fract_x
  _atom_site_fract_y
  _atom_site_fract_z
  _atom_site_thermal_displace_type
  _atom_site_B_iso_or_equiv
  _atom_site_type_symbol
  O1       1.0000 0.77004  0.35969  0.83521  Biso   1.000  O
  C1       1.0000 0.80534  0.33770  0.91915  Biso   1.000  C
  C2       1.0000 0.80537  0.33770  0.91922  Biso   1.000  C
  N1       1.0000 0.88549  0.29829  0.95506  Biso   1.000  N
  N2       1.0000 0.77025  0.34954  0.99429  Biso   1.000  N
  N3       1.0000 0.88552  0.29829  0.95513  Biso   1.000  N
  C3       1.0000 0.92778  0.26590  0.88945  Biso   1.000  C
  C4       1.0000 0.92781  0.26590  0.88952  Biso   1.000  C
  C5       1.0000 0.90196  0.27490  0.05288  Biso   1.000  C
  C6       1.0000 0.67362  0.37541  0.97567  Biso   1.000  C
  C7       1.0000 0.67365  0.37541  0.97575  Biso   1.000  C
  C8       1.0000 0.82008  0.30849  0.07985  Biso   1.000  C
  C9       1.0000 0.82011  0.30849  0.07993  Biso   1.000  C
  H1       1.0000 0.93499  0.21878  0.90496  Biso   1.000  H
  H2       1.0000 0.88271  0.27038  0.82191  Biso   1.000  H
  H3       1.0000 0.93502  0.21878  0.90504  Biso   1.000  H
  N4       1.0000 0.02136  0.29242  0.89639  Biso   1.000  N
  H4       1.0000 0.89746  0.22619  0.05458  Biso   1.000  H
  N5       1.0000 0.99134  0.29918  0.12958  Biso   1.000  N
  N6       1.0000 0.99137  0.29918  0.12965  Biso   1.000  N
  H5       1.0000 0.63721  0.37461  0.90511  Biso   1.000  H
  H6       1.0000 0.64026  0.34640  0.00678  Biso   1.000  H
  N7       1.0000 0.67305  0.44308  0.01188  Biso   1.000  N
  N8       1.0000 0.67308  0.44308  0.01195  Biso   1.000  N
  H7       1.0000 0.77610  0.27560  0.09138  Biso   1.000  H
  N9       1.0000 0.87295  0.34541  0.16896  Biso   1.000  N
  H8       1.0000 0.77603  0.27560  0.09138  Biso   1.000  H
  N10      1.0000 0.87298  0.34541  0.16903  Biso   1.000  N
  C10      1.0000 0.11284  0.27500  0.97708  Biso   1.000  C
  C11      1.0000 0.03672  0.32809  0.82206  Biso   1.000  C
  C12      1.0000 0.11286  0.27500  0.97715  Biso   1.000  C
  C13      1.0000 0.03674  0.32809  0.82214  Biso   1.000  C
  C14      1.0000 0.97283  0.33700  0.19925  Biso   1.000  C
  C15      1.0000 0.97286  0.33700  0.19933  Biso   1.000  C
  C16      1.0000 0.08644  0.27540  0.14140  Biso   1.000  C
  C17      1.0000 0.66505  0.49721  0.95247  Biso   1.000  C
  C18      1.0000 0.66507  0.49721  0.95255  Biso   1.000  C
  C19      1.0000 0.68931  0.46129  0.11391  Biso   1.000  C
  C20      1.0000 0.68925  0.46129  0.11391  Biso   1.000  C
  C21      1.0000 0.82521  0.38292  0.22400  Biso   1.000  C
  C22      1.0000 0.82514  0.38292  0.22400  Biso   1.000  C
  C23      1.0000 0.19144  0.30849  0.94471  Biso   1.000  C
  H9       1.0000 0.12216  0.22669  0.98321  Biso   1.000  H
  N11      1.0000 0.12627  0.30491  0.07076  Biso   1.000  N
  N12      1.0000 0.12629  0.30491  0.07084  Biso   1.000  N
  O2       1.0000 0.97513  0.34421  0.74367  Biso   1.000  O
  O3       1.0000 0.97515  0.34421  0.74374  Biso   1.000  O
  N13      1.0000 0.13462  0.33998  0.84984  Biso   1.000  N
  N14      1.0000 0.13465  0.33998  0.84992  Biso   1.000  N
  O4       1.0000 0.03341  0.35800  0.27632  Biso   1.000  O
  H10      1.0000 0.08390  0.22739  0.13327  Biso   1.000  H
  H11      1.0000 0.13041  0.28510  0.20812  Biso   1.000  H
  H12      1.0000 0.08386  0.22739  0.13335  Biso   1.000  H
  O5       1.0000 0.65184  0.49393  0.86307  Biso   1.000  O
  O6       1.0000 0.65187  0.49393  0.86314  Biso   1.000  O
  N15      1.0000 0.66995  0.55304  0.00486  Biso   1.000  N
  N16      1.0000 0.66998  0.55304  0.00493  Biso   1.000  N
  C24      1.0000 0.68726  0.54100  0.10889  Biso   1.000  C
  C25      1.0000 0.61243  0.42920  0.14805  Biso   1.000  C
  N17      1.0000 0.78879  0.44781  0.18241  Biso   1.000  N
  C26      1.0000 0.61246  0.42920  0.14812  Biso   1.000  C
  H13      1.0000 0.87086  0.38899  0.29087  Biso   1.000  H
  H14      1.0000 0.77088  0.35680  0.22748  Biso   1.000  H
  H15      1.0000 0.87089  0.38899  0.29095  Biso   1.000  H
  H16      1.0000 0.77090  0.35680  0.22755  Biso   1.000  H
  H17      1.0000 0.23809  0.27600  0.93725  Biso   1.000  H
  H18      1.0000 0.23811  0.27600  0.93732  Biso   1.000  H
  N18      1.0000 0.23780  0.35486  0.02451  Biso   1.000  N
  C27      1.0000 0.20296  0.34740  0.10076  Biso   1.000  C
  C28      1.0000 0.20299  0.34740  0.10084  Biso   1.000  C
  C29      1.0000 0.18033  0.37511  0.79081  Biso   1.000  C
  C30      1.0000 0.66661  0.61742  0.95956  Biso   1.000  C
  C31      1.0000 0.66664  0.61742  0.95964  Biso   1.000  C
  C32      1.0000 0.60995  0.57359  0.14029  Biso   1.000  C
  N19      1.0000 0.78677  0.55777  0.17420  Biso   1.000  N
  H19      1.0000 0.62421  0.44179  0.21521  Biso   1.000  H
  H20      1.0000 0.61627  0.38168  0.14391  Biso   1.000  H
  H21      1.0000 0.54876  0.44402  0.10660  Biso   1.000  H
  H22      1.0000 0.62414  0.44179  0.21521  Biso   1.000  H
  C33      1.0000 0.84145  0.50398  0.21950  Biso   1.000  C
  C34      1.0000 0.33339  0.38258  0.04040  Biso   1.000  C
  O7       1.0000 0.23596  0.37501  0.18108  Biso   1.000  O
  O8       1.0000 0.23598  0.37501  0.18115  Biso   1.000  O
  H23      1.0000 0.23580  0.34939  0.78977  Biso   1.000  H
  H24      1.0000 0.13420  0.37790  0.72335  Biso   1.000  H
  N20      1.0000 0.21323  0.44223  0.82576  Biso   1.000  N
  H25      1.0000 0.23583  0.34939  0.78985  Biso   1.000  H
  H26      1.0000 0.13422  0.37790  0.72342  Biso   1.000  H
  N21      1.0000 0.21326  0.44223  0.82583  Biso   1.000  N
  H27      1.0000 0.63091  0.64788  0.98579  Biso   1.000  H
  H28      1.0000 0.63104  0.61339  0.88908  Biso   1.000  H
  N22      1.0000 0.76220  0.64514  0.97545  Biso   1.000  N
  N23      1.0000 0.76222  0.64514  0.97552  Biso   1.000  N
  H29      1.0000 0.62346  0.56468  0.20886  Biso   1.000  H
  H30      1.0000 0.54705  0.55598  0.10157  Biso   1.000  H
  H31      1.0000 0.61049  0.62081  0.13009  Biso   1.000  H
  H32      1.0000 0.62348  0.56468  0.20893  Biso   1.000  H
  H33      1.0000 0.54707  0.55598  0.10165  Biso   1.000  H
  C35      1.0000 0.81967  0.62489  0.20915  Biso   1.000  C
  C36      1.0000 0.81969  0.62489  0.20923  Biso   1.000  C
  O9       1.0000 0.92373  0.50582  0.28156  Biso   1.000  O
  O10      1.0000 0.92376  0.50582  0.28164  Biso   1.000  O
  N24      1.0000 0.33005  0.44696  0.99510  Biso   1.000  N
  H34      1.0000 0.36909  0.35212  0.01417  Biso   1.000  H
  H35      1.0000 0.36895  0.38661  0.11088  Biso   1.000  H
  H36      1.0000 0.36905  0.35212  0.01424  Biso   1.000  H
  C37      1.0000 0.31274  0.45900  0.89107  Biso   1.000  C
  C38      1.0000 0.15855  0.49602  0.78046  Biso   1.000  C
  C39      1.0000 0.31277  0.45900  0.89115  Biso   1.000  C
  C40      1.0000 0.15851  0.49602  0.78054  Biso   1.000  C
  C41      1.0000 0.79703  0.65260  0.89920  Biso   1.000  C
  C42      1.0000 0.80856  0.69151  0.05525  Biso   1.000  C
  C43      1.0000 0.80859  0.69151  0.05532  Biso   1.000  C
  H37      1.0000 0.76420  0.65061  0.21019  Biso   1.000  H
  H38      1.0000 0.86580  0.62210  0.27661  Biso   1.000  H
  N25      1.0000 0.86538  0.66002  0.15012  Biso   1.000  N
  C44      1.0000 0.33495  0.50279  0.04749  Biso   1.000  C
  C45      1.0000 0.31068  0.53871  0.88605  Biso   1.000  C
  C46      1.0000 0.39005  0.42641  0.85967  Biso   1.000  C
  C47      1.0000 0.31071  0.53871  0.88612  Biso   1.000  C
  C48      1.0000 0.39007  0.42641  0.85974  Biso   1.000  C
  N26      1.0000 0.21120  0.55219  0.81755  Biso   1.000  N
  O11      1.0000 0.07626  0.49418  0.71840  Biso   1.000  O
  N27      1.0000 0.21123  0.55219  0.81763  Biso   1.000  N
  O12      1.0000 0.07619  0.49418  0.71840  Biso   1.000  O
  O13      1.0000 0.76404  0.62499  0.81888  Biso   1.000  O
  N28      1.0000 0.87373  0.69509  0.92920  Biso   1.000  N
  H39      1.0000 0.76191  0.72400  0.06271  Biso   1.000  H
  C49      1.0000 0.88716  0.72500  0.02289  Biso   1.000  C
  H40      1.0000 0.76184  0.72400  0.06271  Biso   1.000  H
  C50      1.0000 0.96328  0.67191  0.17790  Biso   1.000  C
  N29      1.0000 0.32694  0.55692  0.98808  Biso   1.000  N
  O14      1.0000 0.34816  0.50607  0.13689  Biso   1.000  O
  C51      1.0000 0.38757  0.57080  0.85191  Biso   1.000  C
  C52      1.0000 0.38750  0.57080  0.85191  Biso   1.000  C
  H41      1.0000 0.37654  0.43532  0.79110  Biso   1.000  H
  H42      1.0000 0.45295  0.44402  0.89839  Biso   1.000  H
  H43      1.0000 0.38951  0.37919  0.86987  Biso   1.000  H
  H44      1.0000 0.38954  0.37919  0.86994  Biso   1.000  H
  C53      1.0000 0.17479  0.61708  0.77596  Biso   1.000  C
  C54      1.0000 0.17482  0.61708  0.77603  Biso   1.000  C
  C55      1.0000 0.91355  0.72460  0.85856  Biso   1.000  C
  C56      1.0000 0.91351  0.72460  0.85864  Biso   1.000  C
  H45      1.0000 0.87784  0.77331  0.01675  Biso   1.000  H
  N30      1.0000 0.97864  0.70758  0.10357  Biso   1.000  N
  H46      1.0000 0.87786  0.77331  0.01683  Biso   1.000  H
  N31      1.0000 0.97867  0.70758  0.10364  Biso   1.000  N
  O15      1.0000 0.02487  0.65579  0.25629  Biso   1.000  O
  C57      1.0000 0.32638  0.62459  0.02429  Biso   1.000  C
  H47      1.0000 0.37579  0.55821  0.78475  Biso   1.000  H
  H48      1.0000 0.38372  0.61832  0.85605  Biso   1.000  H
  H49      1.0000 0.45123  0.55598  0.89336  Biso   1.000  H
  H50      1.0000 0.37581  0.55821  0.78482  Biso   1.000  H
  H51      1.0000 0.38375  0.61832  0.85612  Biso   1.000  H
  H52      1.0000 0.45126  0.55598  0.89344  Biso   1.000  H
  H53      1.0000 0.12914  0.61101  0.70909  Biso   1.000  H
  H54      1.0000 0.22912  0.64320  0.77248  Biso   1.000  H
  N32      1.0000 0.12705  0.65459  0.83100  Biso   1.000  N
  H55      1.0000 0.91610  0.77261  0.86669  Biso   1.000  H
  H56      1.0000 0.86959  0.71490  0.79184  Biso   1.000  H
  H57      1.0000 0.86961  0.71490  0.79192  Biso   1.000  H
  N33      1.0000 0.00865  0.70082  0.87038  Biso   1.000  N
  C58      1.0000 0.07221  0.73410  0.11051  Biso   1.000  C
  C59      1.0000 0.07215  0.73410  0.11051  Biso   1.000  C
  H58      1.0000 0.35973  0.65360  0.99318  Biso   1.000  H
  H59      1.0000 0.36279  0.62539  0.09485  Biso   1.000  H
  N34      1.0000 0.22975  0.65046  0.00567  Biso   1.000  N
  H60      1.0000 0.36275  0.62539  0.09492  Biso   1.000  H
  N35      1.0000 0.22978  0.65046  0.00574  Biso   1.000  N
  C60      1.0000 0.17991  0.69151  0.92011  Biso   1.000  C
  C61      1.0000 0.02717  0.66300  0.80071  Biso   1.000  C
  C62      1.0000 0.02710  0.66300  0.80071  Biso   1.000  C
  C63      1.0000 0.09804  0.72510  0.94708  Biso   1.000  C
  H61      1.0000 0.06501  0.78122  0.09500  Biso   1.000  H
  H62      1.0000 0.11729  0.72962  0.17805  Biso   1.000  H
  N36      1.0000 0.11450  0.70171  0.04490  Biso   1.000  N
  H63      1.0000 0.06494  0.78122  0.09500  Biso   1.000  H
  H64      1.0000 0.11725  0.72962  0.17812  Biso   1.000  H
  N37      1.0000 0.11444  0.70171  0.04490  Biso   1.000  N
  C64      1.0000 0.19466  0.66230  0.08081  Biso   1.000  C
  H65      1.0000 0.22390  0.72440  0.90858  Biso   1.000  H
  O16      1.0000 0.96659  0.64200  0.72364  Biso   1.000  O
  O17      1.0000 0.96662  0.64200  0.72372  Biso   1.000  O
  H66      1.0000 0.10254  0.77381  0.94538  Biso   1.000  H
  O18      1.0000 0.22996  0.64031  0.16475  Biso   1.000  O
  O19      1.0000 0.22999  0.64031  0.16482  Biso   1.000  O
  O20      1.0000 0.77004  0.35969  0.83521  Biso   1.000  O
  C65      1.0000 0.80534  0.33770  0.91915  Biso   1.000  C
  C66      1.0000 0.80537  0.33770  0.91922  Biso   1.000  C
  N38      1.0000 0.77025  0.34954  0.99429  Biso   1.000  N
  N39      1.0000 0.88549  0.29829  0.95506  Biso   1.000  N
  N40      1.0000 0.88552  0.29829  0.95513  Biso   1.000  N
  C67      1.0000 0.67362  0.37541  0.97567  Biso   1.000  C
  C68      1.0000 0.67365  0.37541  0.97575  Biso   1.000  C
  C69      1.0000 0.82008  0.30849  0.07985  Biso   1.000  C
  C70      1.0000 0.82011  0.30849  0.07993  Biso   1.000  C
  C71      1.0000 0.92778  0.26590  0.88945  Biso   1.000  C
  C72      1.0000 0.92781  0.26590  0.88952  Biso   1.000  C
  C73      1.0000 0.90196  0.27490  0.05288  Biso   1.000  C
  H67      1.0000 0.63721  0.37461  0.90511  Biso   1.000  H
  H68      1.0000 0.64026  0.34640  0.00678  Biso   1.000  H
  N41      1.0000 0.67305  0.44308  0.01188  Biso   1.000  N
  N42      1.0000 0.67308  0.44308  0.01195  Biso   1.000  N
  H69      1.0000 0.77610  0.27560  0.09138  Biso   1.000  H
  N43      1.0000 0.87295  0.34541  0.16896  Biso   1.000  N
  H70      1.0000 0.77603  0.27560  0.09138  Biso   1.000  H
  N44      1.0000 0.87298  0.34541  0.16903  Biso   1.000  N
  H71      1.0000 0.88271  0.27038  0.82191  Biso   1.000  H
  H72      1.0000 0.93499  0.21878  0.90496  Biso   1.000  H
  H73      1.0000 0.93502  0.21878  0.90504  Biso   1.000  H
  N45      1.0000 0.02136  0.29242  0.89639  Biso   1.000  N
  H74      1.0000 0.89746  0.22619  0.05458  Biso   1.000  H
  N46      1.0000 0.99134  0.29918  0.12958  Biso   1.000  N
  N47      1.0000 0.99137  0.29918  0.12965  Biso   1.000  N
  C74      1.0000 0.66505  0.49721  0.95247  Biso   1.000  C
  C75      1.0000 0.66507  0.49721  0.95255  Biso   1.000  C
  C76      1.0000 0.68931  0.46129  0.11391  Biso   1.000  C
  C77      1.0000 0.68925  0.46129  0.11391  Biso   1.000  C
  C78      1.0000 0.97283  0.33700  0.19925  Biso   1.000  C
  C79      1.0000 0.82521  0.38292  0.22400  Biso   1.000  C
  C80      1.0000 0.97286  0.33700  0.19933  Biso   1.000  C
  C81      1.0000 0.82514  0.38292  0.22400  Biso   1.000  C
  C82      1.0000 0.11284  0.27500  0.97708  Biso   1.000  C
  C83      1.0000 0.03672  0.32809  0.82206  Biso   1.000  C
  C84      1.0000 0.11286  0.27500  0.97715  Biso   1.000  C
  C85      1.0000 0.03674  0.32809  0.82214  Biso   1.000  C
  C86      1.0000 0.08644  0.27540  0.14140  Biso   1.000  C
  O21      1.0000 0.65184  0.49393  0.86307  Biso   1.000  O
  O22      1.0000 0.65187  0.49393  0.86314  Biso   1.000  O
  N48      1.0000 0.66995  0.55304  0.00486  Biso   1.000  N
  N49      1.0000 0.66998  0.55304  0.00493  Biso   1.000  N
  C87      1.0000 0.68726  0.54100  0.10889  Biso   1.000  C
  C88      1.0000 0.61243  0.42920  0.14805  Biso   1.000  C
  N50      1.0000 0.78879  0.44781  0.18241  Biso   1.000  N
  C89      1.0000 0.61246  0.42920  0.14812  Biso   1.000  C
  O23      1.0000 0.03341  0.35800  0.27632  Biso   1.000  O
  H75      1.0000 0.87086  0.38899  0.29087  Biso   1.000  H
  H76      1.0000 0.77088  0.35680  0.22748  Biso   1.000  H
  H77      1.0000 0.87089  0.38899  0.29095  Biso   1.000  H
  H78      1.0000 0.77090  0.35680  0.22755  Biso   1.000  H
  C90      1.0000 0.19144  0.30849  0.94471  Biso   1.000  C
  H79      1.0000 0.12216  0.22669  0.98321  Biso   1.000  H
  N51      1.0000 0.12627  0.30491  0.07076  Biso   1.000  N
  N52      1.0000 0.12629  0.30491  0.07084  Biso   1.000  N
  O24      1.0000 0.97513  0.34421  0.74367  Biso   1.000  O
  O25      1.0000 0.97515  0.34421  0.74374  Biso   1.000  O
  N53      1.0000 0.13462  0.33998  0.84984  Biso   1.000  N
  N54      1.0000 0.13465  0.33998  0.84992  Biso   1.000  N
  H80      1.0000 0.08390  0.22739  0.13327  Biso   1.000  H
  H81      1.0000 0.13041  0.28510  0.20812  Biso   1.000  H
  H82      1.0000 0.08386  0.22739  0.13335  Biso   1.000  H
  C91      1.0000 0.66661  0.61742  0.95956  Biso   1.000  C
  C92      1.0000 0.66664  0.61742  0.95964  Biso   1.000  C
  C93      1.0000 0.60995  0.57359  0.14029  Biso   1.000  C
  N55      1.0000 0.78677  0.55777  0.17420  Biso   1.000  N
  H83      1.0000 0.62421  0.44179  0.21521  Biso   1.000  H
  H84      1.0000 0.61627  0.38168  0.14391  Biso   1.000  H
  H85      1.0000 0.54876  0.44402  0.10660  Biso   1.000  H
  H86      1.0000 0.62414  0.44179  0.21521  Biso   1.000  H
  C94      1.0000 0.84145  0.50398  0.21950  Biso   1.000  C
  H87      1.0000 0.23809  0.27600  0.93725  Biso   1.000  H
  H88      1.0000 0.23811  0.27600  0.93732  Biso   1.000  H
  N56      1.0000 0.23780  0.35486  0.02451  Biso   1.000  N
  C95      1.0000 0.20296  0.34740  0.10076  Biso   1.000  C
  C96      1.0000 0.20299  0.34740  0.10084  Biso   1.000  C
  C97      1.0000 0.18033  0.37511  0.79081  Biso   1.000  C
  H89      1.0000 0.63091  0.64788  0.98579  Biso   1.000  H
  H90      1.0000 0.63104  0.61339  0.88908  Biso   1.000  H
  N57      1.0000 0.76220  0.64514  0.97545  Biso   1.000  N
  N58      1.0000 0.76222  0.64514  0.97552  Biso   1.000  N
  H91      1.0000 0.62346  0.56468  0.20886  Biso   1.000  H
  H92      1.0000 0.54705  0.55598  0.10157  Biso   1.000  H
  H93      1.0000 0.61049  0.62081  0.13009  Biso   1.000  H
  H94      1.0000 0.62348  0.56468  0.20893  Biso   1.000  H
  H95      1.0000 0.54707  0.55598  0.10165  Biso   1.000  H
  C98      1.0000 0.81967  0.62489  0.20915  Biso   1.000  C
  C99      1.0000 0.81969  0.62489  0.20923  Biso   1.000  C
  O26      1.0000 0.92373  0.50582  0.28156  Biso   1.000  O
  O27      1.0000 0.92376  0.50582  0.28164  Biso   1.000  O
  C100     1.0000 0.33339  0.38258  0.04040  Biso   1.000  C
  O28      1.0000 0.23596  0.37501  0.18108  Biso   1.000  O
  O29      1.0000 0.23598  0.37501  0.18115  Biso   1.000  O
  H96      1.0000 0.23580  0.34939  0.78977  Biso   1.000  H
  H97      1.0000 0.13420  0.37790  0.72335  Biso   1.000  H
  N59      1.0000 0.21323  0.44223  0.82576  Biso   1.000  N
  H98      1.0000 0.23583  0.34939  0.78985  Biso   1.000  H
  H99      1.0000 0.13422  0.37790  0.72342  Biso   1.000  H
  N60      1.0000 0.21326  0.44223  0.82583  Biso   1.000  N
  C101     1.0000 0.79703  0.65260  0.89920  Biso   1.000  C
  C102     1.0000 0.80856  0.69151  0.05525  Biso   1.000  C
  C103     1.0000 0.80859  0.69151  0.05532  Biso   1.000  C
  H100     1.0000 0.76420  0.65061  0.21019  Biso   1.000  H
  H101     1.0000 0.86580  0.62210  0.27661  Biso   1.000  H
  N61      1.0000 0.86538  0.66002  0.15012  Biso   1.000  N
  N62      1.0000 0.33005  0.44696  0.99510  Biso   1.000  N
  H102     1.0000 0.36909  0.35212  0.01417  Biso   1.000  H
  H103     1.0000 0.36895  0.38661  0.11088  Biso   1.000  H
  H104     1.0000 0.36905  0.35212  0.01424  Biso   1.000  H
  C104     1.0000 0.31274  0.45900  0.89107  Biso   1.000  C
  C105     1.0000 0.15855  0.49602  0.78046  Biso   1.000  C
  C106     1.0000 0.31277  0.45900  0.89115  Biso   1.000  C
  C107     1.0000 0.15851  0.49602  0.78054  Biso   1.000  C
  O30      1.0000 0.76404  0.62499  0.81888  Biso   1.000  O
  N63      1.0000 0.87373  0.69509  0.92920  Biso   1.000  N
  H105     1.0000 0.76191  0.72400  0.06271  Biso   1.000  H
  C108     1.0000 0.88716  0.72500  0.02289  Biso   1.000  C
  H106     1.0000 0.76184  0.72400  0.06271  Biso   1.000  H
  C109     1.0000 0.96328  0.67191  0.17790  Biso   1.000  C
  C110     1.0000 0.33495  0.50279  0.04749  Biso   1.000  C
  C111     1.0000 0.31068  0.53871  0.88605  Biso   1.000  C
  C112     1.0000 0.39005  0.42641  0.85967  Biso   1.000  C
  C113     1.0000 0.31071  0.53871  0.88612  Biso   1.000  C
  C114     1.0000 0.39007  0.42641  0.85974  Biso   1.000  C
  N64      1.0000 0.21120  0.55219  0.81755  Biso   1.000  N
  O31      1.0000 0.07626  0.49418  0.71840  Biso   1.000  O
  N65      1.0000 0.21123  0.55219  0.81763  Biso   1.000  N
  O32      1.0000 0.07619  0.49418  0.71840  Biso   1.000  O
  C115     1.0000 0.91355  0.72460  0.85856  Biso   1.000  C
  C116     1.0000 0.91351  0.72460  0.85864  Biso   1.000  C
  H107     1.0000 0.87784  0.77331  0.01675  Biso   1.000  H
  N66      1.0000 0.97864  0.70758  0.10357  Biso   1.000  N
  H108     1.0000 0.87786  0.77331  0.01683  Biso   1.000  H
  N67      1.0000 0.97867  0.70758  0.10364  Biso   1.000  N
  O33      1.0000 0.02487  0.65579  0.25629  Biso   1.000  O
  N68      1.0000 0.32694  0.55692  0.98808  Biso   1.000  N
  O34      1.0000 0.34816  0.50607  0.13689  Biso   1.000  O
  C117     1.0000 0.38757  0.57080  0.85191  Biso   1.000  C
  C118     1.0000 0.38750  0.57080  0.85191  Biso   1.000  C
  H109     1.0000 0.37654  0.43532  0.79110  Biso   1.000  H
  H110     1.0000 0.45295  0.44402  0.89839  Biso   1.000  H
  H111     1.0000 0.38951  0.37919  0.86987  Biso   1.000  H
  H112     1.0000 0.38954  0.37919  0.86994  Biso   1.000  H
  C119     1.0000 0.17479  0.61708  0.77596  Biso   1.000  C
  C120     1.0000 0.17482  0.61708  0.77603  Biso   1.000  C
  H113     1.0000 0.91610  0.77261  0.86669  Biso   1.000  H
  H114     1.0000 0.86959  0.71490  0.79184  Biso   1.000  H
  H115     1.0000 0.86961  0.71490  0.79192  Biso   1.000  H
  N69      1.0000 0.00865  0.70082  0.87038  Biso   1.000  N
  C121     1.0000 0.07221  0.73410  0.11051  Biso   1.000  C
  C122     1.0000 0.07215  0.73410  0.11051  Biso   1.000  C
  C123     1.0000 0.32638  0.62459  0.02429  Biso   1.000  C
  H116     1.0000 0.37579  0.55821  0.78475  Biso   1.000  H
  H117     1.0000 0.38372  0.61832  0.85605  Biso   1.000  H
  H118     1.0000 0.45123  0.55598  0.89336  Biso   1.000  H
  H119     1.0000 0.37581  0.55821  0.78482  Biso   1.000  H
  H120     1.0000 0.38375  0.61832  0.85612  Biso   1.000  H
  H121     1.0000 0.45126  0.55598  0.89344  Biso   1.000  H
  H122     1.0000 0.12914  0.61101  0.70909  Biso   1.000  H
  H123     1.0000 0.22912  0.64320  0.77248  Biso   1.000  H
  N70      1.0000 0.12705  0.65459  0.83100  Biso   1.000  N
  C124     1.0000 0.09804  0.72510  0.94708  Biso   1.000  C
  C125     1.0000 0.02717  0.66300  0.80071  Biso   1.000  C
  C126     1.0000 0.02710  0.66300  0.80071  Biso   1.000  C
  H124     1.0000 0.06501  0.78122  0.09500  Biso   1.000  H
  H125     1.0000 0.11729  0.72962  0.17805  Biso   1.000  H
  N71      1.0000 0.11450  0.70171  0.04490  Biso   1.000  N
  H126     1.0000 0.06494  0.78122  0.09500  Biso   1.000  H
  H127     1.0000 0.11725  0.72962  0.17812  Biso   1.000  H
  N72      1.0000 0.11444  0.70171  0.04490  Biso   1.000  N
  H128     1.0000 0.35973  0.65360  0.99318  Biso   1.000  H
  H129     1.0000 0.36279  0.62539  0.09485  Biso   1.000  H
  N73      1.0000 0.22975  0.65046  0.00567  Biso   1.000  N
  H130     1.0000 0.36275  0.62539  0.09492  Biso   1.000  H
  N74      1.0000 0.22978  0.65046  0.00574  Biso   1.000  N
  C127     1.0000 0.17991  0.69151  0.92011  Biso   1.000  C
  H131     1.0000 0.10254  0.77381  0.94538  Biso   1.000  H
  O35      1.0000 0.96659  0.64200  0.72364  Biso   1.000  O
  O36      1.0000 0.96662  0.64200  0.72372  Biso   1.000  O
  C128     1.0000 0.19466  0.66230  0.08081  Biso   1.000  C
  H132     1.0000 0.22390  0.72440  0.90858  Biso   1.000  H
  O37      1.0000 0.22996  0.64031  0.16475  Biso   1.000  O
  O38      1.0000 0.22999  0.64031  0.16482  Biso   1.000  O
  O39      1.0000 0.77004  0.35969  0.83521  Biso   1.000  O
  C129     1.0000 0.80534  0.33770  0.91915  Biso   1.000  C
  C130     1.0000 0.80537  0.33770  0.91922  Biso   1.000  C
  N75      1.0000 0.77025  0.34954  0.99429  Biso   1.000  N
  N76      1.0000 0.88549  0.29829  0.95506  Biso   1.000  N
  N77      1.0000 0.88552  0.29829  0.95513  Biso   1.000  N
  C131     1.0000 0.67362  0.37541  0.97567  Biso   1.000  C
  C132     1.0000 0.67365  0.37541  0.97575  Biso   1.000  C
  C133     1.0000 0.82008  0.30849  0.07985  Biso   1.000  C
  C134     1.0000 0.82011  0.30849  0.07993  Biso   1.000  C
  C135     1.0000 0.92778  0.26590  0.88945  Biso   1.000  C
  C136     1.0000 0.92781  0.26590  0.88952  Biso   1.000  C
  C137     1.0000 0.90196  0.27490  0.05288  Biso   1.000  C
  H133     1.0000 0.63721  0.37461  0.90511  Biso   1.000  H
  H134     1.0000 0.64026  0.34640  0.00678  Biso   1.000  H
  N78      1.0000 0.67305  0.44308  0.01188  Biso   1.000  N
  N79      1.0000 0.67308  0.44308  0.01195  Biso   1.000  N
  H135     1.0000 0.77610  0.27560  0.09138  Biso   1.000  H
  N80      1.0000 0.87295  0.34541  0.16896  Biso   1.000  N
  H136     1.0000 0.77603  0.27560  0.09138  Biso   1.000  H
  N81      1.0000 0.87298  0.34541  0.16903  Biso   1.000  N
  H137     1.0000 0.88271  0.27038  0.82191  Biso   1.000  H
  H138     1.0000 0.93499  0.21878  0.90496  Biso   1.000  H
  H139     1.0000 0.93502  0.21878  0.90504  Biso   1.000  H
  N82      1.0000 0.02136  0.29242  0.89639  Biso   1.000  N
  H140     1.0000 0.89746  0.22619  0.05458  Biso   1.000  H
  N83      1.0000 0.99134  0.29918  0.12958  Biso   1.000  N
  N84      1.0000 0.99137  0.29918  0.12965  Biso   1.000  N
  C138     1.0000 0.66505  0.49721  0.95247  Biso   1.000  C
  C139     1.0000 0.66507  0.49721  0.95255  Biso   1.000  C
  C140     1.0000 0.68931  0.46129  0.11391  Biso   1.000  C
  C141     1.0000 0.68925  0.46129  0.11391  Biso   1.000  C
  C142     1.0000 0.97283  0.33700  0.19925  Biso   1.000  C
  C143     1.0000 0.82521  0.38292  0.22400  Biso   1.000  C
  C144     1.0000 0.97286  0.33700  0.19933  Biso   1.000  C
  C145     1.0000 0.82514  0.38292  0.22400  Biso   1.000  C
  C146     1.0000 0.11284  0.27500  0.97708  Biso   1.000  C
  C147     1.0000 0.03672  0.32809  0.82206  Biso   1.000  C
  C148     1.0000 0.11286  0.27500  0.97715  Biso   1.000  C
  C149     1.0000 0.03674  0.32809  0.82214  Biso   1.000  C
  C150     1.0000 0.08644  0.27540  0.14140  Biso   1.000  C
  O40      1.0000 0.65184  0.49393  0.86307  Biso   1.000  O
  O41      1.0000 0.65187  0.49393  0.86314  Biso   1.000  O
  N85      1.0000 0.66995  0.55304  0.00486  Biso   1.000  N
  N86      1.0000 0.66998  0.55304  0.00493  Biso   1.000  N
  C151     1.0000 0.68726  0.54100  0.10889  Biso   1.000  C
  C152     1.0000 0.61243  0.42920  0.14805  Biso   1.000  C
  N87      1.0000 0.78879  0.44781  0.18241  Biso   1.000  N
  C153     1.0000 0.61246  0.42920  0.14812  Biso   1.000  C
  O42      1.0000 0.03341  0.35800  0.27632  Biso   1.000  O
  H141     1.0000 0.87086  0.38899  0.29087  Biso   1.000  H
  H142     1.0000 0.77088  0.35680  0.22748  Biso   1.000  H
  H143     1.0000 0.87089  0.38899  0.29095  Biso   1.000  H
  H144     1.0000 0.77090  0.35680  0.22755  Biso   1.000  H
  C154     1.0000 0.19144  0.30849  0.94471  Biso   1.000  C
  H145     1.0000 0.12216  0.22669  0.98321  Biso   1.000  H
  N88      1.0000 0.12627  0.30491  0.07076  Biso   1.000  N
  N89      1.0000 0.12629  0.30491  0.07084  Biso   1.000  N
  O43      1.0000 0.97513  0.34421  0.74367  Biso   1.000  O
  O44      1.0000 0.97515  0.34421  0.74374  Biso   1.000  O
  N90      1.0000 0.13462  0.33998  0.84984  Biso   1.000  N
  N91      1.0000 0.13465  0.33998  0.84992  Biso   1.000  N
  H146     1.0000 0.08390  0.22739  0.13327  Biso   1.000  H
  H147     1.0000 0.13041  0.28510  0.20812  Biso   1.000  H
  H148     1.0000 0.08386  0.22739  0.13335  Biso   1.000  H
  C155     1.0000 0.66661  0.61742  0.95956  Biso   1.000  C
  C156     1.0000 0.66664  0.61742  0.95964  Biso   1.000  C
  C157     1.0000 0.60995  0.57359  0.14029  Biso   1.000  C
  N92      1.0000 0.78677  0.55777  0.17420  Biso   1.000  N
  H149     1.0000 0.62421  0.44179  0.21521  Biso   1.000  H
  H150     1.0000 0.61627  0.38168  0.14391  Biso   1.000  H
  H151     1.0000 0.54876  0.44402  0.10660  Biso   1.000  H
  H152     1.0000 0.62414  0.44179  0.21521  Biso   1.000  H
  C158     1.0000 0.84145  0.50398  0.21950  Biso   1.000  C
  H153     1.0000 0.23809  0.27600  0.93725  Biso   1.000  H
  H154     1.0000 0.23811  0.27600  0.93732  Biso   1.000  H
  N93      1.0000 0.23780  0.35486  0.02451  Biso   1.000  N
  C159     1.0000 0.20296  0.34740  0.10076  Biso   1.000  C
  C160     1.0000 0.20299  0.34740  0.10084  Biso   1.000  C
  C161     1.0000 0.18033  0.37511  0.79081  Biso   1.000  C
  H155     1.0000 0.63091  0.64788  0.98579  Biso   1.000  H
  H156     1.0000 0.63104  0.61339  0.88908  Biso   1.000  H
  N94      1.0000 0.76220  0.64514  0.97545  Biso   1.000  N
  N95      1.0000 0.76222  0.64514  0.97552  Biso   1.000  N
  H157     1.0000 0.62346  0.56468  0.20886  Biso   1.000  H
  H158     1.0000 0.54705  0.55598  0.10157  Biso   1.000  H
  H159     1.0000 0.61049  0.62081  0.13009  Biso   1.000  H
  H160     1.0000 0.62348  0.56468  0.20893  Biso   1.000  H
  H161     1.0000 0.54707  0.55598  0.10165  Biso   1.000  H
  C162     1.0000 0.81967  0.62489  0.20915  Biso   1.000  C
  C163     1.0000 0.81969  0.62489  0.20923  Biso   1.000  C
  O45      1.0000 0.92373  0.50582  0.28156  Biso   1.000  O
  O46      1.0000 0.92376  0.50582  0.28164  Biso   1.000  O
  C164     1.0000 0.33339  0.38258  0.04040  Biso   1.000  C
  O47      1.0000 0.23596  0.37501  0.18108  Biso   1.000  O
  O48      1.0000 0.23598  0.37501  0.18115  Biso   1.000  O
  H162     1.0000 0.23580  0.34939  0.78977  Biso   1.000  H
  H163     1.0000 0.13420  0.37790  0.72335  Biso   1.000  H
  N96      1.0000 0.21323  0.44223  0.82576  Biso   1.000  N
  H164     1.0000 0.23583  0.34939  0.78985  Biso   1.000  H
  H165     1.0000 0.13422  0.37790  0.72342  Biso   1.000  H
  N97      1.0000 0.21326  0.44223  0.82583  Biso   1.000  N
  C165     1.0000 0.79703  0.65260  0.89920  Biso   1.000  C
  C166     1.0000 0.80856  0.69151  0.05525  Biso   1.000  C
  C167     1.0000 0.80859  0.69151  0.05532  Biso   1.000  C
  H166     1.0000 0.76420  0.65061  0.21019  Biso   1.000  H
  H167     1.0000 0.86580  0.62210  0.27661  Biso   1.000  H
  N98      1.0000 0.86538  0.66002  0.15012  Biso   1.000  N
  N99      1.0000 0.33005  0.44696  0.99510  Biso   1.000  N
  H168     1.0000 0.36909  0.35212  0.01417  Biso   1.000  H
  H169     1.0000 0.36895  0.38661  0.11088  Biso   1.000  H
  H170     1.0000 0.36905  0.35212  0.01424  Biso   1.000  H
  C168     1.0000 0.31274  0.45900  0.89107  Biso   1.000  C
  C169     1.0000 0.15855  0.49602  0.78046  Biso   1.000  C
  C170     1.0000 0.31277  0.45900  0.89115  Biso   1.000  C
  C171     1.0000 0.15851  0.49602  0.78054  Biso   1.000  C
  O49      1.0000 0.76404  0.62499  0.81888  Biso   1.000  O
  N100     1.0000 0.87373  0.69509  0.92920  Biso   1.000  N
  H171     1.0000 0.76191  0.72400  0.06271  Biso   1.000  H
  C172     1.0000 0.88716  0.72500  0.02289  Biso   1.000  C
  H172     1.0000 0.76184  0.72400  0.06271  Biso   1.000  H
  C173     1.0000 0.96328  0.67191  0.17790  Biso   1.000  C
  C174     1.0000 0.33495  0.50279  0.04749  Biso   1.000  C
  C175     1.0000 0.31068  0.53871  0.88605  Biso   1.000  C
  C176     1.0000 0.39005  0.42641  0.85967  Biso   1.000  C
  C177     1.0000 0.31071  0.53871  0.88612  Biso   1.000  C
  C178     1.0000 0.39007  0.42641  0.85974  Biso   1.000  C
  N101     1.0000 0.21120  0.55219  0.81755  Biso   1.000  N
  O50      1.0000 0.07626  0.49418  0.71840  Biso   1.000  O
  N102     1.0000 0.21123  0.55219  0.81763  Biso   1.000  N
  O51      1.0000 0.07619  0.49418  0.71840  Biso   1.000  O
  C179     1.0000 0.91355  0.72460  0.85856  Biso   1.000  C
  C180     1.0000 0.91351  0.72460  0.85864  Biso   1.000  C
  H173     1.0000 0.87784  0.77331  0.01675  Biso   1.000  H
  N103     1.0000 0.97864  0.70758  0.10357  Biso   1.000  N
  H174     1.0000 0.87786  0.77331  0.01683  Biso   1.000  H
  N104     1.0000 0.97867  0.70758  0.10364  Biso   1.000  N
  O52      1.0000 0.02487  0.65579  0.25629  Biso   1.000  O
  N105     1.0000 0.32694  0.55692  0.98808  Biso   1.000  N
  O53      1.0000 0.34816  0.50607  0.13689  Biso   1.000  O
  C181     1.0000 0.38757  0.57080  0.85191  Biso   1.000  C
  C182     1.0000 0.38750  0.57080  0.85191  Biso   1.000  C
  H175     1.0000 0.37654  0.43532  0.79110  Biso   1.000  H
  H176     1.0000 0.45295  0.44402  0.89839  Biso   1.000  H
  H177     1.0000 0.38951  0.37919  0.86987  Biso   1.000  H
  H178     1.0000 0.38954  0.37919  0.86994  Biso   1.000  H
  C183     1.0000 0.17479  0.61708  0.77596  Biso   1.000  C
  C184     1.0000 0.17482  0.61708  0.77603  Biso   1.000  C
  H179     1.0000 0.91610  0.77261  0.86669  Biso   1.000  H
  H180     1.0000 0.86959  0.71490  0.79184  Biso   1.000  H
  H181     1.0000 0.86961  0.71490  0.79192  Biso   1.000  H
  N106     1.0000 0.00865  0.70082  0.87038  Biso   1.000  N
  C185     1.0000 0.07221  0.73410  0.11051  Biso   1.000  C
  C186     1.0000 0.07215  0.73410  0.11051  Biso   1.000  C
  C187     1.0000 0.32638  0.62459  0.02429  Biso   1.000  C
  H182     1.0000 0.37579  0.55821  0.78475  Biso   1.000  H
  H183     1.0000 0.38372  0.61832  0.85605  Biso   1.000  H
  H184     1.0000 0.45123  0.55598  0.89336  Biso   1.000  H
  H185     1.0000 0.37581  0.55821  0.78482  Biso   1.000  H
  H186     1.0000 0.38375  0.61832  0.85612  Biso   1.000  H
  H187     1.0000 0.45126  0.55598  0.89344  Biso   1.000  H
  H188     1.0000 0.12914  0.61101  0.70909  Biso   1.000  H
  H189     1.0000 0.22912  0.64320  0.77248  Biso   1.000  H
  N107     1.0000 0.12705  0.65459  0.83100  Biso   1.000  N
  C188     1.0000 0.09804  0.72510  0.94708  Biso   1.000  C
  C189     1.0000 0.02717  0.66300  0.80071  Biso   1.000  C
  C190     1.0000 0.02710  0.66300  0.80071  Biso   1.000  C
  H190     1.0000 0.06501  0.78122  0.09500  Biso   1.000  H
  H191     1.0000 0.11729  0.72962  0.17805  Biso   1.000  H
  N108     1.0000 0.11450  0.70171  0.04490  Biso   1.000  N
  H192     1.0000 0.06494  0.78122  0.09500  Biso   1.000  H
  H193     1.0000 0.11725  0.72962  0.17812  Biso   1.000  H
  N109     1.0000 0.11444  0.70171  0.04490  Biso   1.000  N
  H194     1.0000 0.35973  0.65360  0.99318  Biso   1.000  H
  H195     1.0000 0.36279  0.62539  0.09485  Biso   1.000  H
  N110     1.0000 0.22975  0.65046  0.00567  Biso   1.000  N
  H196     1.0000 0.36275  0.62539  0.09492  Biso   1.000  H
  N111     1.0000 0.22978  0.65046  0.00574  Biso   1.000  N
  C191     1.0000 0.17991  0.69151  0.92011  Biso   1.000  C
  H197     1.0000 0.10254  0.77381  0.94538  Biso   1.000  H
  O54      1.0000 0.96659  0.64200  0.72364  Biso   1.000  O
  O55      1.0000 0.96662  0.64200  0.72372  Biso   1.000  O
  C192     1.0000 0.19466  0.66230  0.08081  Biso   1.000  C
  H198     1.0000 0.22390  0.72440  0.90858  Biso   1.000  H
  O56      1.0000 0.22996  0.64031  0.16475  Biso   1.000  O
  O57      1.0000 0.22999  0.64031  0.16482  Biso   1.000  O
  O58      1.0000 0.77004  0.35969  0.83521  Biso   1.000  O
  C193     1.0000 0.80534  0.33770  0.91915  Biso   1.000  C
  C194     1.0000 0.80537  0.33770  0.91922  Biso   1.000  C
  N112     1.0000 0.77025  0.34954  0.99429  Biso   1.000  N
  N113     1.0000 0.88549  0.29829  0.95506  Biso   1.000  N
  N114     1.0000 0.88552  0.29829  0.95513  Biso   1.000  N
  C195     1.0000 0.67362  0.37541  0.97567  Biso   1.000  C
  C196     1.0000 0.67365  0.37541  0.97575  Biso   1.000  C
  C197     1.0000 0.82008  0.30849  0.07985  Biso   1.000  C
  C198     1.0000 0.82011  0.30849  0.07993  Biso   1.000  C
  C199     1.0000 0.92778  0.26590  0.88945  Biso   1.000  C
  C200     1.0000 0.92781  0.26590  0.88952  Biso   1.000  C
  C201     1.0000 0.90196  0.27490  0.05288  Biso   1.000  C
  H199     1.0000 0.63721  0.37461  0.90511  Biso   1.000  H
  H200     1.0000 0.64026  0.34640  0.00678  Biso   1.000  H
  N115     1.0000 0.67305  0.44308  0.01188  Biso   1.000  N
  N116     1.0000 0.67308  0.44308  0.01195  Biso   1.000  N
  H201     1.0000 0.77610  0.27560  0.09138  Biso   1.000  H
  N117     1.0000 0.87295  0.34541  0.16896  Biso   1.000  N
  H202     1.0000 0.77603  0.27560  0.09138  Biso   1.000  H
  N118     1.0000 0.87298  0.34541  0.16903  Biso   1.000  N
  H203     1.0000 0.88271  0.27038  0.82191  Biso   1.000  H
  H204     1.0000 0.93499  0.21878  0.90496  Biso   1.000  H
  H205     1.0000 0.93502  0.21878  0.90504  Biso   1.000  H
  N119     1.0000 0.02136  0.29242  0.89639  Biso   1.000  N
  H206     1.0000 0.89746  0.22619  0.05458  Biso   1.000  H
  N120     1.0000 0.99134  0.29918  0.12958  Biso   1.000  N
  N121     1.0000 0.99137  0.29918  0.12965  Biso   1.000  N
  C202     1.0000 0.66505  0.49721  0.95247  Biso   1.000  C
  C203     1.0000 0.66507  0.49721  0.95255  Biso   1.000  C
  C204     1.0000 0.68931  0.46129  0.11391  Biso   1.000  C
  C205     1.0000 0.68925  0.46129  0.11391  Biso   1.000  C
  C206     1.0000 0.97283  0.33700  0.19925  Biso   1.000  C
  C207     1.0000 0.82521  0.38292  0.22400  Biso   1.000  C
  C208     1.0000 0.97286  0.33700  0.19933  Biso   1.000  C
  C209     1.0000 0.82514  0.38292  0.22400  Biso   1.000  C
  C210     1.0000 0.11284  0.27500  0.97708  Biso   1.000  C
  C211     1.0000 0.03672  0.32809  0.82206  Biso   1.000  C
  C212     1.0000 0.11286  0.27500  0.97715  Biso   1.000  C
  C213     1.0000 0.03674  0.32809  0.82214  Biso   1.000  C
  C214     1.0000 0.08644  0.27540  0.14140  Biso   1.000  C
  O59      1.0000 0.65184  0.49393  0.86307  Biso   1.000  O
  O60      1.0000 0.65187  0.49393  0.86314  Biso   1.000  O
  N122     1.0000 0.66995  0.55304  0.00486  Biso   1.000  N
  N123     1.0000 0.66998  0.55304  0.00493  Biso   1.000  N
  C215     1.0000 0.68726  0.54100  0.10889  Biso   1.000  C
  C216     1.0000 0.61243  0.42920  0.14805  Biso   1.000  C
  N124     1.0000 0.78879  0.44781  0.18241  Biso   1.000  N
  C217     1.0000 0.61246  0.42920  0.14812  Biso   1.000  C
  O61      1.0000 0.03341  0.35800  0.27632  Biso   1.000  O
  H207     1.0000 0.87086  0.38899  0.29087  Biso   1.000  H
  H208     1.0000 0.77088  0.35680  0.22748  Biso   1.000  H
  H209     1.0000 0.87089  0.38899  0.29095  Biso   1.000  H
  H210     1.0000 0.77090  0.35680  0.22755  Biso   1.000  H
  C218     1.0000 0.19144  0.30849  0.94471  Biso   1.000  C
  H211     1.0000 0.12216  0.22669  0.98321  Biso   1.000  H
  N125     1.0000 0.12627  0.30491  0.07076  Biso   1.000  N
  N126     1.0000 0.12629  0.30491  0.07084  Biso   1.000  N
  O62      1.0000 0.97513  0.34421  0.74367  Biso   1.000  O
  O63      1.0000 0.97515  0.34421  0.74374  Biso   1.000  O
  N127     1.0000 0.13462  0.33998  0.84984  Biso   1.000  N
  N128     1.0000 0.13465  0.33998  0.84992  Biso   1.000  N
  H212     1.0000 0.08390  0.22739  0.13327  Biso   1.000  H
  H213     1.0000 0.13041  0.28510  0.20812  Biso   1.000  H
  H214     1.0000 0.08386  0.22739  0.13335  Biso   1.000  H
  C219     1.0000 0.66661  0.61742  0.95956  Biso   1.000  C
  C220     1.0000 0.66664  0.61742  0.95964  Biso   1.000  C
  C221     1.0000 0.60995  0.57359  0.14029  Biso   1.000  C
  N129     1.0000 0.78677  0.55777  0.17420  Biso   1.000  N
  H215     1.0000 0.62421  0.44179  0.21521  Biso   1.000  H
  H216     1.0000 0.61627  0.38168  0.14391  Biso   1.000  H
  H217     1.0000 0.54876  0.44402  0.10660  Biso   1.000  H
  H218     1.0000 0.62414  0.44179  0.21521  Biso   1.000  H
  C222     1.0000 0.84145  0.50398  0.21950  Biso   1.000  C
  H219     1.0000 0.23809  0.27600  0.93725  Biso   1.000  H
  H220     1.0000 0.23811  0.27600  0.93732  Biso   1.000  H
  N130     1.0000 0.23780  0.35486  0.02451  Biso   1.000  N
  C223     1.0000 0.20296  0.34740  0.10076  Biso   1.000  C
  C224     1.0000 0.20299  0.34740  0.10084  Biso   1.000  C
  C225     1.0000 0.18033  0.37511  0.79081  Biso   1.000  C
  H221     1.0000 0.63091  0.64788  0.98579  Biso   1.000  H
  H222     1.0000 0.63104  0.61339  0.88908  Biso   1.000  H
  N131     1.0000 0.76220  0.64514  0.97545  Biso   1.000  N
  N132     1.0000 0.76222  0.64514  0.97552  Biso   1.000  N
  H223     1.0000 0.62346  0.56468  0.20886  Biso   1.000  H
  H224     1.0000 0.54705  0.55598  0.10157  Biso   1.000  H
  H225     1.0000 0.61049  0.62081  0.13009  Biso   1.000  H
  H226     1.0000 0.62348  0.56468  0.20893  Biso   1.000  H
  H227     1.0000 0.54707  0.55598  0.10165  Biso   1.000  H
  C226     1.0000 0.81967  0.62489  0.20915  Biso   1.000  C
  C227     1.0000 0.81969  0.62489  0.20923  Biso   1.000  C
  O64      1.0000 0.92373  0.50582  0.28156  Biso   1.000  O
  O65      1.0000 0.92376  0.50582  0.28164  Biso   1.000  O
  C228     1.0000 0.33339  0.38258  0.04040  Biso   1.000  C
  O66      1.0000 0.23596  0.37501  0.18108  Biso   1.000  O
  O67      1.0000 0.23598  0.37501  0.18115  Biso   1.000  O
  H228     1.0000 0.23580  0.34939  0.78977  Biso   1.000  H
  H229     1.0000 0.13420  0.37790  0.72335  Biso   1.000  H
  N133     1.0000 0.21323  0.44223  0.82576  Biso   1.000  N
  H230     1.0000 0.23583  0.34939  0.78985  Biso   1.000  H
  H231     1.0000 0.13422  0.37790  0.72342  Biso   1.000  H
  N134     1.0000 0.21326  0.44223  0.82583  Biso   1.000  N
  C229     1.0000 0.79703  0.65260  0.89920  Biso   1.000  C
  C230     1.0000 0.80856  0.69151  0.05525  Biso   1.000  C
  C231     1.0000 0.80859  0.69151  0.05532  Biso   1.000  C
  H232     1.0000 0.76420  0.65061  0.21019  Biso   1.000  H
  H233     1.0000 0.86580  0.62210  0.27661  Biso   1.000  H
  N135     1.0000 0.86538  0.66002  0.15012  Biso   1.000  N
  N136     1.0000 0.33005  0.44696  0.99510  Biso   1.000  N
  H234     1.0000 0.36909  0.35212  0.01417  Biso   1.000  H
  H235     1.0000 0.36895  0.38661  0.11088  Biso   1.000  H
  H236     1.0000 0.36905  0.35212  0.01424  Biso   1.000  H
  C232     1.0000 0.31274  0.45900  0.89107  Biso   1.000  C
  C233     1.0000 0.15855  0.49602  0.78046  Biso   1.000  C
  C234     1.0000 0.31277  0.45900  0.89115  Biso   1.000  C
  C235     1.0000 0.15851  0.49602  0.78054  Biso   1.000  C
  O68      1.0000 0.76404  0.62499  0.81888  Biso   1.000  O
  N137     1.0000 0.87373  0.69509  0.92920  Biso   1.000  N
  H237     1.0000 0.76191  0.72400  0.06271  Biso   1.000  H
  C236     1.0000 0.88716  0.72500  0.02289  Biso   1.000  C
  H238     1.0000 0.76184  0.72400  0.06271  Biso   1.000  H
  C237     1.0000 0.96328  0.67191  0.17790  Biso   1.000  C
  C238     1.0000 0.33495  0.50279  0.04749  Biso   1.000  C
  C239     1.0000 0.31068  0.53871  0.88605  Biso   1.000  C
  C240     1.0000 0.39005  0.42641  0.85967  Biso   1.000  C
  C241     1.0000 0.31071  0.53871  0.88612  Biso   1.000  C
  C242     1.0000 0.39007  0.42641  0.85974  Biso   1.000  C
  N138     1.0000 0.21120  0.55219  0.81755  Biso   1.000  N
  O69      1.0000 0.07626  0.49418  0.71840  Biso   1.000  O
  N139     1.0000 0.21123  0.55219  0.81763  Biso   1.000  N
  O70      1.0000 0.07619  0.49418  0.71840  Biso   1.000  O
  C243     1.0000 0.91355  0.72460  0.85856  Biso   1.000  C
  C244     1.0000 0.91351  0.72460  0.85864  Biso   1.000  C
  H239     1.0000 0.87784  0.77331  0.01675  Biso   1.000  H
  N140     1.0000 0.97864  0.70758  0.10357  Biso   1.000  N
  H240     1.0000 0.87786  0.77331  0.01683  Biso   1.000  H
  N141     1.0000 0.97867  0.70758  0.10364  Biso   1.000  N
  O71      1.0000 0.02487  0.65579  0.25629  Biso   1.000  O
  N142     1.0000 0.32694  0.55692  0.98808  Biso   1.000  N
  O72      1.0000 0.34816  0.50607  0.13689  Biso   1.000  O
  C245     1.0000 0.38757  0.57080  0.85191  Biso   1.000  C
  C246     1.0000 0.38750  0.57080  0.85191  Biso   1.000  C
  H241     1.0000 0.37654  0.43532  0.79110  Biso   1.000  H
  H242     1.0000 0.45295  0.44402  0.89839  Biso   1.000  H
  H243     1.0000 0.38951  0.37919  0.86987  Biso   1.000  H
  H244     1.0000 0.38954  0.37919  0.86994  Biso   1.000  H
  C247     1.0000 0.17479  0.61708  0.77596  Biso   1.000  C
  C248     1.0000 0.17482  0.61708  0.77603  Biso   1.000  C
  H245     1.0000 0.91610  0.77261  0.86669  Biso   1.000  H
  H246     1.0000 0.86959  0.71490  0.79184  Biso   1.000  H
  H247     1.0000 0.86961  0.71490  0.79192  Biso   1.000  H
  N143     1.0000 0.00865  0.70082  0.87038  Biso   1.000  N
  C249     1.0000 0.07221  0.73410  0.11051  Biso   1.000  C
  C250     1.0000 0.07215  0.73410  0.11051  Biso   1.000  C
  C251     1.0000 0.32638  0.62459  0.02429  Biso   1.000  C
  H248     1.0000 0.37579  0.55821  0.78475  Biso   1.000  H
  H249     1.0000 0.38372  0.61832  0.85605  Biso   1.000  H
  H250     1.0000 0.45123  0.55598  0.89336  Biso   1.000  H
  H251     1.0000 0.37581  0.55821  0.78482  Biso   1.000  H
  H252     1.0000 0.38375  0.61832  0.85612  Biso   1.000  H
  H253     1.0000 0.45126  0.55598  0.89344  Biso   1.000  H
  H254     1.0000 0.12914  0.61101  0.70909  Biso   1.000  H
  H255     1.0000 0.22912  0.64320  0.77248  Biso   1.000  H
  N144     1.0000 0.12705  0.65459  0.83100  Biso   1.000  N
  C252     1.0000 0.09804  0.72510  0.94708  Biso   1.000  C
  C253     1.0000 0.02717  0.66300  0.80071  Biso   1.000  C
  C254     1.0000 0.02710  0.66300  0.80071  Biso   1.000  C
  H256     1.0000 0.06501  0.78122  0.09500  Biso   1.000  H
  H257     1.0000 0.11729  0.72962  0.17805  Biso   1.000  H
  N145     1.0000 0.11450  0.70171  0.04490  Biso   1.000  N
  H258     1.0000 0.06494  0.78122  0.09500  Biso   1.000  H
  H259     1.0000 0.11725  0.72962  0.17812  Biso   1.000  H
  N146     1.0000 0.11444  0.70171  0.04490  Biso   1.000  N
  H260     1.0000 0.35973  0.65360  0.99318  Biso   1.000  H
  H261     1.0000 0.36279  0.62539  0.09485  Biso   1.000  H
  N147     1.0000 0.22975  0.65046  0.00567  Biso   1.000  N
  H262     1.0000 0.36275  0.62539  0.09492  Biso   1.000  H
  N148     1.0000 0.22978  0.65046  0.00574  Biso   1.000  N
  C255     1.0000 0.17991  0.69151  0.92011  Biso   1.000  C
  H263     1.0000 0.10254  0.77381  0.94538  Biso   1.000  H
  O73      1.0000 0.96659  0.64200  0.72364  Biso   1.000  O
  O74      1.0000 0.96662  0.64200  0.72372  Biso   1.000  O
  C256     1.0000 0.19466  0.66230  0.08081  Biso   1.000  C
  H264     1.0000 0.22390  0.72440  0.90858  Biso   1.000  H
  O75      1.0000 0.22996  0.64031  0.16475  Biso   1.000  O
  O76      1.0000 0.22999  0.64031  0.16482  Biso   1.000  O
  C257     1.0000 0.33340  0.11742  0.54041  Biso   1.000  C
  N149     1.0000 0.33000  0.05304  0.49511  Biso   1.000  N
  N150     1.0000 0.23782  0.14514  0.52452  Biso   1.000  N
  H265     1.0000 0.36910  0.14788  0.51418  Biso   1.000  H
  H266     1.0000 0.36904  0.11339  0.61089  Biso   1.000  H
  C258     1.0000 0.31269  0.04100  0.39108  Biso   1.000  C
  C259     1.0000 0.33504  0.99721  0.54750  Biso   1.000  C
  C260     1.0000 0.19146  0.19151  0.44472  Biso   1.000  C
  C261     1.0000 0.20298  0.15260  0.60077  Biso   1.000  C
  N151     1.0000 0.21321  0.05777  0.32584  Biso   1.000  N
  C262     1.0000 0.39000  0.07359  0.35968  Biso   1.000  C
  C263     1.0000 0.31073  0.96129  0.38613  Biso   1.000  C
  N152     1.0000 0.32689  0.94308  0.48809  Biso   1.000  N
  O77      1.0000 0.34824  0.99393  0.63690  Biso   1.000  O
  N153     1.0000 0.13460  0.16002  0.34993  Biso   1.000  N
  H267     1.0000 0.23813  0.22400  0.43733  Biso   1.000  H
  C264     1.0000 0.11279  0.22500  0.47709  Biso   1.000  C
  N154     1.0000 0.12629  0.19509  0.57077  Biso   1.000  N
  O78      1.0000 0.23604  0.12499  0.68109  Biso   1.000  O
  C265     1.0000 0.18028  0.12489  0.29082  Biso   1.000  C
  C266     1.0000 0.15850  0.00398  0.28047  Biso   1.000  C
  H268     1.0000 0.37649  0.06468  0.29111  Biso   1.000  H
  H269     1.0000 0.45290  0.05598  0.39840  Biso   1.000  H
  H270     1.0000 0.38953  0.12081  0.36988  Biso   1.000  H
  N155     1.0000 0.21125  0.94781  0.31764  Biso   1.000  N
  C267     1.0000 0.38752  0.92920  0.35192  Biso   1.000  C
  C268     1.0000 0.32639  0.87541  0.52430  Biso   1.000  C
  C269     1.0000 0.03667  0.17191  0.32207  Biso   1.000  C
  N156     1.0000 0.02130  0.20758  0.39640  Biso   1.000  N
  H271     1.0000 0.12211  0.27331  0.48322  Biso   1.000  H
  C270     1.0000 0.08653  0.22460  0.64141  Biso   1.000  C
  H272     1.0000 0.23582  0.15061  0.28978  Biso   1.000  H
  H273     1.0000 0.13424  0.12210  0.22343  Biso   1.000  H
  O79      1.0000 0.07621  0.00582  0.21841  Biso   1.000  O
  C271     1.0000 0.17483  0.88292  0.27604  Biso   1.000  C
  H274     1.0000 0.37583  0.94179  0.28483  Biso   1.000  H
  H275     1.0000 0.38370  0.88168  0.35613  Biso   1.000  H
  H276     1.0000 0.45118  0.94402  0.39337  Biso   1.000  H
  H277     1.0000 0.35968  0.84640  0.49319  Biso   1.000  H
  H278     1.0000 0.36283  0.87461  0.59493  Biso   1.000  H
  N157     1.0000 0.22984  0.84954  0.50568  Biso   1.000  N
  O80      1.0000 0.97507  0.15579  0.24368  Biso   1.000  O
  C272     1.0000 0.92783  0.23410  0.38953  Biso   1.000  C
  H279     1.0000 0.08392  0.27261  0.63328  Biso   1.000  H
  H280     1.0000 0.13043  0.21490  0.70813  Biso   1.000  H
  N158     1.0000 0.99143  0.20082  0.62959  Biso   1.000  N
  H281     1.0000 0.12908  0.88899  0.20910  Biso   1.000  H
  H282     1.0000 0.22914  0.85680  0.27249  Biso   1.000  H
  N159     1.0000 0.12700  0.84541  0.33101  Biso   1.000  N
  C273     1.0000 0.17993  0.80849  0.42012  Biso   1.000  C
  C274     1.0000 0.19474  0.83770  0.58082  Biso   1.000  C
  H283     1.0000 0.93501  0.28122  0.40497  Biso   1.000  H
  H284     1.0000 0.88273  0.22962  0.32192  Biso   1.000  H
  N160     1.0000 0.88554  0.20171  0.45514  Biso   1.000  N
  C275     1.0000 0.90205  0.22510  0.55289  Biso   1.000  C
  C276     1.0000 0.97294  0.16300  0.69934  Biso   1.000  C
  C277     1.0000 0.02712  0.83700  0.30072  Biso   1.000  C
  C278     1.0000 0.09799  0.77490  0.44709  Biso   1.000  C
  H285     1.0000 0.22391  0.77560  0.40859  Biso   1.000  H
  N161     1.0000 0.11452  0.79829  0.54491  Biso   1.000  N
  O81      1.0000 0.23000  0.85969  0.66483  Biso   1.000  O
  C279     1.0000 0.80532  0.16230  0.41923  Biso   1.000  C
  H286     1.0000 0.89754  0.27381  0.55459  Biso   1.000  H
  C280     1.0000 0.82013  0.19151  0.57994  Biso   1.000  C
  O82      1.0000 0.03343  0.14200  0.77633  Biso   1.000  O
  N162     1.0000 0.87306  0.15459  0.66904  Biso   1.000  N
  O83      1.0000 0.96663  0.85800  0.22373  Biso   1.000  O
  N163     1.0000 0.00860  0.79918  0.37039  Biso   1.000  N
  H287     1.0000 0.10249  0.72619  0.44539  Biso   1.000  H
  C281     1.0000 0.07223  0.76590  0.61052  Biso   1.000  C
  N164     1.0000 0.77020  0.15046  0.49430  Biso   1.000  N
  O84      1.0000 0.76999  0.14031  0.33522  Biso   1.000  O
  H288     1.0000 0.77612  0.22440  0.59139  Biso   1.000  H
  C282     1.0000 0.82523  0.11708  0.72401  Biso   1.000  C
  C283     1.0000 0.91350  0.77540  0.35857  Biso   1.000  C
  N165     1.0000 0.97873  0.79242  0.60358  Biso   1.000  N
  H289     1.0000 0.06502  0.71878  0.59501  Biso   1.000  H
  H290     1.0000 0.11733  0.77038  0.67813  Biso   1.000  H
  C284     1.0000 0.67364  0.12459  0.47568  Biso   1.000  C
  H291     1.0000 0.87095  0.11101  0.79088  Biso   1.000  H
  H292     1.0000 0.77089  0.14320  0.72749  Biso   1.000  H
  N166     1.0000 0.78881  0.05219  0.68242  Biso   1.000  N
  H293     1.0000 0.91612  0.72739  0.36670  Biso   1.000  H
  H294     1.0000 0.86963  0.78510  0.29193  Biso   1.000  H
  N167     1.0000 0.87375  0.80491  0.42921  Biso   1.000  N
  C285     1.0000 0.88725  0.77500  0.52289  Biso   1.000  C
  C286     1.0000 0.96330  0.82809  0.67791  Biso   1.000  C
  H295     1.0000 0.64028  0.15360  0.50679  Biso   1.000  H
  H296     1.0000 0.63723  0.12539  0.40512  Biso   1.000  H
  N168     1.0000 0.67314  0.05692  0.51189  Biso   1.000  N
  C287     1.0000 0.68933  0.03871  0.61392  Biso   1.000  C
  C288     1.0000 0.84153  0.99602  0.71951  Biso   1.000  C
  C289     1.0000 0.79698  0.84740  0.39921  Biso   1.000  C
  C290     1.0000 0.80860  0.80849  0.55533  Biso   1.000  C
  H297     1.0000 0.87795  0.72669  0.51684  Biso   1.000  H
  N169     1.0000 0.86546  0.83998  0.65013  Biso   1.000  N
  O85      1.0000 0.02496  0.84421  0.75630  Biso   1.000  O
  C291     1.0000 0.66500  0.00279  0.45248  Biso   1.000  C
  C292     1.0000 0.68734  0.95900  0.60890  Biso   1.000  C
  C293     1.0000 0.61254  0.07080  0.64813  Biso   1.000  C
  N170     1.0000 0.78685  0.94223  0.67421  Biso   1.000  N
  O86      1.0000 0.92385  0.99418  0.78165  Biso   1.000  O
  N171     1.0000 0.76224  0.85486  0.47553  Biso   1.000  N
  O87      1.0000 0.76399  0.87501  0.31889  Biso   1.000  O
  H298     1.0000 0.76193  0.77600  0.56272  Biso   1.000  H
  C294     1.0000 0.81971  0.87511  0.70924  Biso   1.000  C
  N172     1.0000 0.67006  0.94696  0.50494  Biso   1.000  N
  O88      1.0000 0.65179  0.00607  0.36308  Biso   1.000  O
  C295     1.0000 0.61004  0.92641  0.64030  Biso   1.000  C
  H299     1.0000 0.62423  0.05821  0.71522  Biso   1.000  H
  H300     1.0000 0.61636  0.11832  0.64392  Biso   1.000  H
  H301     1.0000 0.54885  0.05598  0.60661  Biso   1.000  H
  C296     1.0000 0.66663  0.88258  0.45957  Biso   1.000  C
  H302     1.0000 0.76421  0.84939  0.71020  Biso   1.000  H
  H303     1.0000 0.86582  0.87790  0.77662  Biso   1.000  H
  H304     1.0000 0.62357  0.93532  0.70894  Biso   1.000  H
  H305     1.0000 0.54713  0.94402  0.60158  Biso   1.000  H
  H306     1.0000 0.61050  0.87919  0.63010  Biso   1.000  H
  H307     1.0000 0.63093  0.85212  0.48580  Biso   1.000  H
  H308     1.0000 0.63099  0.88661  0.38909  Biso   1.000  H
  C297     1.0000 0.33340  0.11742  0.54041  Biso   1.000  C
  N173     1.0000 0.33000  0.05304  0.49511  Biso   1.000  N
  N174     1.0000 0.23782  0.14514  0.52452  Biso   1.000  N
  H309     1.0000 0.36910  0.14788  0.51418  Biso   1.000  H
  H310     1.0000 0.36904  0.11339  0.61089  Biso   1.000  H
  C298     1.0000 0.31269  0.04100  0.39108  Biso   1.000  C
  C299     1.0000 0.33504  0.99721  0.54750  Biso   1.000  C
  C300     1.0000 0.19146  0.19151  0.44472  Biso   1.000  C
  C301     1.0000 0.20298  0.15260  0.60077  Biso   1.000  C
  N175     1.0000 0.21321  0.05777  0.32584  Biso   1.000  N
  C302     1.0000 0.39000  0.07359  0.35968  Biso   1.000  C
  C303     1.0000 0.31073  0.96129  0.38613  Biso   1.000  C
  N176     1.0000 0.32689  0.94308  0.48809  Biso   1.000  N
  O89      1.0000 0.34824  0.99393  0.63690  Biso   1.000  O
  N177     1.0000 0.13460  0.16002  0.34993  Biso   1.000  N
  H311     1.0000 0.23813  0.22400  0.43733  Biso   1.000  H
  C304     1.0000 0.11279  0.22500  0.47709  Biso   1.000  C
  N178     1.0000 0.12629  0.19509  0.57077  Biso   1.000  N
  O90      1.0000 0.23604  0.12499  0.68109  Biso   1.000  O
  C305     1.0000 0.18028  0.12489  0.29082  Biso   1.000  C
  C306     1.0000 0.15850  0.00398  0.28047  Biso   1.000  C
  H312     1.0000 0.37649  0.06468  0.29111  Biso   1.000  H
  H313     1.0000 0.45290  0.05598  0.39840  Biso   1.000  H
  H314     1.0000 0.38953  0.12081  0.36988  Biso   1.000  H
  N179     1.0000 0.21125  0.94781  0.31764  Biso   1.000  N
  C307     1.0000 0.38752  0.92920  0.35192  Biso   1.000  C
  C308     1.0000 0.32639  0.87541  0.52430  Biso   1.000  C
  C309     1.0000 0.03667  0.17191  0.32207  Biso   1.000  C
  N180     1.0000 0.02130  0.20758  0.39640  Biso   1.000  N
  H315     1.0000 0.12211  0.27331  0.48322  Biso   1.000  H
  C310     1.0000 0.08653  0.22460  0.64141  Biso   1.000  C
  H316     1.0000 0.23582  0.15061  0.28978  Biso   1.000  H
  H317     1.0000 0.13424  0.12210  0.22343  Biso   1.000  H
  O91      1.0000 0.07621  0.00582  0.21841  Biso   1.000  O
  C311     1.0000 0.17483  0.88292  0.27604  Biso   1.000  C
  H318     1.0000 0.37583  0.94179  0.28483  Biso   1.000  H
  H319     1.0000 0.38370  0.88168  0.35613  Biso   1.000  H
  H320     1.0000 0.45118  0.94402  0.39337  Biso   1.000  H
  H321     1.0000 0.35968  0.84640  0.49319  Biso   1.000  H
  H322     1.0000 0.36283  0.87461  0.59493  Biso   1.000  H
  N181     1.0000 0.22984  0.84954  0.50568  Biso   1.000  N
  O92      1.0000 0.97507  0.15579  0.24368  Biso   1.000  O
  C312     1.0000 0.92783  0.23410  0.38953  Biso   1.000  C
  H323     1.0000 0.08392  0.27261  0.63328  Biso   1.000  H
  H324     1.0000 0.13043  0.21490  0.70813  Biso   1.000  H
  N182     1.0000 0.99143  0.20082  0.62959  Biso   1.000  N
  H325     1.0000 0.12908  0.88899  0.20910  Biso   1.000  H
  H326     1.0000 0.22914  0.85680  0.27249  Biso   1.000  H
  N183     1.0000 0.12700  0.84541  0.33101  Biso   1.000  N
  C313     1.0000 0.17993  0.80849  0.42012  Biso   1.000  C
  C314     1.0000 0.19474  0.83770  0.58082  Biso   1.000  C
  H327     1.0000 0.93501  0.28122  0.40497  Biso   1.000  H
  H328     1.0000 0.88273  0.22962  0.32192  Biso   1.000  H
  N184     1.0000 0.88554  0.20171  0.45514  Biso   1.000  N
  C315     1.0000 0.90205  0.22510  0.55289  Biso   1.000  C
  C316     1.0000 0.97294  0.16300  0.69934  Biso   1.000  C
  C317     1.0000 0.02712  0.83700  0.30072  Biso   1.000  C
  C318     1.0000 0.09799  0.77490  0.44709  Biso   1.000  C
  H329     1.0000 0.22391  0.77560  0.40859  Biso   1.000  H
  N185     1.0000 0.11452  0.79829  0.54491  Biso   1.000  N
  O93      1.0000 0.23000  0.85969  0.66483  Biso   1.000  O
  C319     1.0000 0.80532  0.16230  0.41923  Biso   1.000  C
  H330     1.0000 0.89754  0.27381  0.55459  Biso   1.000  H
  C320     1.0000 0.82013  0.19151  0.57994  Biso   1.000  C
  O94      1.0000 0.03343  0.14200  0.77633  Biso   1.000  O
  N186     1.0000 0.87306  0.15459  0.66904  Biso   1.000  N
  O95      1.0000 0.96663  0.85800  0.22373  Biso   1.000  O
  N187     1.0000 0.00860  0.79918  0.37039  Biso   1.000  N
  H331     1.0000 0.10249  0.72619  0.44539  Biso   1.000  H
  C321     1.0000 0.07223  0.76590  0.61052  Biso   1.000  C
  N188     1.0000 0.77020  0.15046  0.49430  Biso   1.000  N
  O96      1.0000 0.76999  0.14031  0.33522  Biso   1.000  O
  H332     1.0000 0.77612  0.22440  0.59139  Biso   1.000  H
  C322     1.0000 0.82523  0.11708  0.72401  Biso   1.000  C
  C323     1.0000 0.91350  0.77540  0.35857  Biso   1.000  C
  N189     1.0000 0.97873  0.79242  0.60358  Biso   1.000  N
  H333     1.0000 0.06502  0.71878  0.59501  Biso   1.000  H
  H334     1.0000 0.11733  0.77038  0.67813  Biso   1.000  H
  C324     1.0000 0.67364  0.12459  0.47568  Biso   1.000  C
  H335     1.0000 0.87095  0.11101  0.79088  Biso   1.000  H
  H336     1.0000 0.77089  0.14320  0.72749  Biso   1.000  H
  N190     1.0000 0.78881  0.05219  0.68242  Biso   1.000  N
  H337     1.0000 0.91612  0.72739  0.36670  Biso   1.000  H
  H338     1.0000 0.86963  0.78510  0.29193  Biso   1.000  H
  N191     1.0000 0.87375  0.80491  0.42921  Biso   1.000  N
  C325     1.0000 0.88725  0.77500  0.52289  Biso   1.000  C
  C326     1.0000 0.96330  0.82809  0.67791  Biso   1.000  C
  H339     1.0000 0.64028  0.15360  0.50679  Biso   1.000  H
  H340     1.0000 0.63723  0.12539  0.40512  Biso   1.000  H
  N192     1.0000 0.67314  0.05692  0.51189  Biso   1.000  N
  C327     1.0000 0.68933  0.03871  0.61392  Biso   1.000  C
  C328     1.0000 0.84153  0.99602  0.71951  Biso   1.000  C
  C329     1.0000 0.79698  0.84740  0.39921  Biso   1.000  C
  C330     1.0000 0.80860  0.80849  0.55533  Biso   1.000  C
  H341     1.0000 0.87795  0.72669  0.51684  Biso   1.000  H
  N193     1.0000 0.86546  0.83998  0.65013  Biso   1.000  N
  O97      1.0000 0.02496  0.84421  0.75630  Biso   1.000  O
  C331     1.0000 0.66500  0.00279  0.45248  Biso   1.000  C
  C332     1.0000 0.68734  0.95900  0.60890  Biso   1.000  C
  C333     1.0000 0.61254  0.07080  0.64813  Biso   1.000  C
  N194     1.0000 0.78685  0.94223  0.67421  Biso   1.000  N
  O98      1.0000 0.92385  0.99418  0.78165  Biso   1.000  O
  N195     1.0000 0.76224  0.85486  0.47553  Biso   1.000  N
  O99      1.0000 0.76399  0.87501  0.31889  Biso   1.000  O
  H342     1.0000 0.76193  0.77600  0.56272  Biso   1.000  H
  C334     1.0000 0.81971  0.87511  0.70924  Biso   1.000  C
  N196     1.0000 0.67006  0.94696  0.50494  Biso   1.000  N
  O100     1.0000 0.65179  0.00607  0.36308  Biso   1.000  O
  C335     1.0000 0.61004  0.92641  0.64030  Biso   1.000  C
  H343     1.0000 0.62423  0.05821  0.71522  Biso   1.000  H
  H344     1.0000 0.61636  0.11832  0.64392  Biso   1.000  H
  H345     1.0000 0.54885  0.05598  0.60661  Biso   1.000  H
  C336     1.0000 0.66663  0.88258  0.45957  Biso   1.000  C
  H346     1.0000 0.76421  0.84939  0.71020  Biso   1.000  H
  H347     1.0000 0.86582  0.87790  0.77662  Biso   1.000  H
  H348     1.0000 0.62357  0.93532  0.70894  Biso   1.000  H
  H349     1.0000 0.54713  0.94402  0.60158  Biso   1.000  H
  H350     1.0000 0.61050  0.87919  0.63010  Biso   1.000  H
  H351     1.0000 0.63093  0.85212  0.48580  Biso   1.000  H
  H352     1.0000 0.63099  0.88661  0.38909  Biso   1.000  H
  C337     1.0000 0.33340  0.11742  0.54041  Biso   1.000  C
  N197     1.0000 0.33000  0.05304  0.49511  Biso   1.000  N
  N198     1.0000 0.23782  0.14514  0.52452  Biso   1.000  N
  H353     1.0000 0.36910  0.14788  0.51418  Biso   1.000  H
  H354     1.0000 0.36904  0.11339  0.61089  Biso   1.000  H
  C338     1.0000 0.31269  0.04100  0.39108  Biso   1.000  C
  C339     1.0000 0.33504  0.99721  0.54750  Biso   1.000  C
  C340     1.0000 0.19146  0.19151  0.44472  Biso   1.000  C
  C341     1.0000 0.20298  0.15260  0.60077  Biso   1.000  C
  N199     1.0000 0.21321  0.05777  0.32584  Biso   1.000  N
  C342     1.0000 0.39000  0.07359  0.35968  Biso   1.000  C
  C343     1.0000 0.31073  0.96129  0.38613  Biso   1.000  C
  N200     1.0000 0.32689  0.94308  0.48809  Biso   1.000  N
  O101     1.0000 0.34824  0.99393  0.63690  Biso   1.000  O
  N201     1.0000 0.13460  0.16002  0.34993  Biso   1.000  N
  H355     1.0000 0.23813  0.22400  0.43733  Biso   1.000  H
  C344     1.0000 0.11279  0.22500  0.47709  Biso   1.000  C
  N202     1.0000 0.12629  0.19509  0.57077  Biso   1.000  N
  O102     1.0000 0.23604  0.12499  0.68109  Biso   1.000  O
  C345     1.0000 0.18028  0.12489  0.29082  Biso   1.000  C
  C346     1.0000 0.15850  0.00398  0.28047  Biso   1.000  C
  H356     1.0000 0.37649  0.06468  0.29111  Biso   1.000  H
  H357     1.0000 0.45290  0.05598  0.39840  Biso   1.000  H
  H358     1.0000 0.38953  0.12081  0.36988  Biso   1.000  H
  N203     1.0000 0.21125  0.94781  0.31764  Biso   1.000  N
  C347     1.0000 0.38752  0.92920  0.35192  Biso   1.000  C
  C348     1.0000 0.32639  0.87541  0.52430  Biso   1.000  C
  C349     1.0000 0.03667  0.17191  0.32207  Biso   1.000  C
  N204     1.0000 0.02130  0.20758  0.39640  Biso   1.000  N
  H359     1.0000 0.12211  0.27331  0.48322  Biso   1.000  H
  C350     1.0000 0.08653  0.22460  0.64141  Biso   1.000  C
  H360     1.0000 0.23582  0.15061  0.28978  Biso   1.000  H
  H361     1.0000 0.13424  0.12210  0.22343  Biso   1.000  H
  O103     1.0000 0.07621  0.00582  0.21841  Biso   1.000  O
  C351     1.0000 0.17483  0.88292  0.27604  Biso   1.000  C
  H362     1.0000 0.37583  0.94179  0.28483  Biso   1.000  H
  H363     1.0000 0.38370  0.88168  0.35613  Biso   1.000  H
  H364     1.0000 0.45118  0.94402  0.39337  Biso   1.000  H
  H365     1.0000 0.35968  0.84640  0.49319  Biso   1.000  H
  H366     1.0000 0.36283  0.87461  0.59493  Biso   1.000  H
  N205     1.0000 0.22984  0.84954  0.50568  Biso   1.000  N
  O104     1.0000 0.97507  0.15579  0.24368  Biso   1.000  O
  C352     1.0000 0.92783  0.23410  0.38953  Biso   1.000  C
  H367     1.0000 0.08392  0.27261  0.63328  Biso   1.000  H
  H368     1.0000 0.13043  0.21490  0.70813  Biso   1.000  H
  N206     1.0000 0.99143  0.20082  0.62959  Biso   1.000  N
  H369     1.0000 0.12908  0.88899  0.20910  Biso   1.000  H
  H370     1.0000 0.22914  0.85680  0.27249  Biso   1.000  H
  N207     1.0000 0.12700  0.84541  0.33101  Biso   1.000  N
  C353     1.0000 0.17993  0.80849  0.42012  Biso   1.000  C
  C354     1.0000 0.19474  0.83770  0.58082  Biso   1.000  C
  H371     1.0000 0.93501  0.28122  0.40497  Biso   1.000  H
  H372     1.0000 0.88273  0.22962  0.32192  Biso   1.000  H
  N208     1.0000 0.88554  0.20171  0.45514  Biso   1.000  N
  C355     1.0000 0.90205  0.22510  0.55289  Biso   1.000  C
  C356     1.0000 0.97294  0.16300  0.69934  Biso   1.000  C
  C357     1.0000 0.02712  0.83700  0.30072  Biso   1.000  C
  C358     1.0000 0.09799  0.77490  0.44709  Biso   1.000  C
  H373     1.0000 0.22391  0.77560  0.40859  Biso   1.000  H
  N209     1.0000 0.11452  0.79829  0.54491  Biso   1.000  N
  O105     1.0000 0.23000  0.85969  0.66483  Biso   1.000  O
  C359     1.0000 0.80532  0.16230  0.41923  Biso   1.000  C
  H374     1.0000 0.89754  0.27381  0.55459  Biso   1.000  H
  C360     1.0000 0.82013  0.19151  0.57994  Biso   1.000  C
  O106     1.0000 0.03343  0.14200  0.77633  Biso   1.000  O
  N210     1.0000 0.87306  0.15459  0.66904  Biso   1.000  N
  O107     1.0000 0.96663  0.85800  0.22373  Biso   1.000  O
  N211     1.0000 0.00860  0.79918  0.37039  Biso   1.000  N
  H375     1.0000 0.10249  0.72619  0.44539  Biso   1.000  H
  C361     1.0000 0.07223  0.76590  0.61052  Biso   1.000  C
  N212     1.0000 0.77020  0.15046  0.49430  Biso   1.000  N
  O108     1.0000 0.76999  0.14031  0.33522  Biso   1.000  O
  H376     1.0000 0.77612  0.22440  0.59139  Biso   1.000  H
  C362     1.0000 0.82523  0.11708  0.72401  Biso   1.000  C
  C363     1.0000 0.91350  0.77540  0.35857  Biso   1.000  C
  N213     1.0000 0.97873  0.79242  0.60358  Biso   1.000  N
  H377     1.0000 0.06502  0.71878  0.59501  Biso   1.000  H
  H378     1.0000 0.11733  0.77038  0.67813  Biso   1.000  H
  C364     1.0000 0.67364  0.12459  0.47568  Biso   1.000  C
  H379     1.0000 0.87095  0.11101  0.79088  Biso   1.000  H
  H380     1.0000 0.77089  0.14320  0.72749  Biso   1.000  H
  N214     1.0000 0.78881  0.05219  0.68242  Biso   1.000  N
  H381     1.0000 0.91612  0.72739  0.36670  Biso   1.000  H
  H382     1.0000 0.86963  0.78510  0.29193  Biso   1.000  H
  N215     1.0000 0.87375  0.80491  0.42921  Biso   1.000  N
  C365     1.0000 0.88725  0.77500  0.52289  Biso   1.000  C
  C366     1.0000 0.96330  0.82809  0.67791  Biso   1.000  C
  H383     1.0000 0.64028  0.15360  0.50679  Biso   1.000  H
  H384     1.0000 0.63723  0.12539  0.40512  Biso   1.000  H
  N216     1.0000 0.67314  0.05692  0.51189  Biso   1.000  N
  C367     1.0000 0.68933  0.03871  0.61392  Biso   1.000  C
  C368     1.0000 0.84153  0.99602  0.71951  Biso   1.000  C
  C369     1.0000 0.79698  0.84740  0.39921  Biso   1.000  C
  C370     1.0000 0.80860  0.80849  0.55533  Biso   1.000  C
  H385     1.0000 0.87795  0.72669  0.51684  Biso   1.000  H
  N217     1.0000 0.86546  0.83998  0.65013  Biso   1.000  N
  O109     1.0000 0.02496  0.84421  0.75630  Biso   1.000  O
  C371     1.0000 0.66500  0.00279  0.45248  Biso   1.000  C
  C372     1.0000 0.68734  0.95900  0.60890  Biso   1.000  C
  C373     1.0000 0.61254  0.07080  0.64813  Biso   1.000  C
  N218     1.0000 0.78685  0.94223  0.67421  Biso   1.000  N
  O110     1.0000 0.92385  0.99418  0.78165  Biso   1.000  O
  N219     1.0000 0.76224  0.85486  0.47553  Biso   1.000  N
  O111     1.0000 0.76399  0.87501  0.31889  Biso   1.000  O
  H386     1.0000 0.76193  0.77600  0.56272  Biso   1.000  H
  C374     1.0000 0.81971  0.87511  0.70924  Biso   1.000  C
  N220     1.0000 0.67006  0.94696  0.50494  Biso   1.000  N
  O112     1.0000 0.65179  0.00607  0.36308  Biso   1.000  O
  C375     1.0000 0.61004  0.92641  0.64030  Biso   1.000  C
  H387     1.0000 0.62423  0.05821  0.71522  Biso   1.000  H
  H388     1.0000 0.61636  0.11832  0.64392  Biso   1.000  H
  H389     1.0000 0.54885  0.05598  0.60661  Biso   1.000  H
  C376     1.0000 0.66663  0.88258  0.45957  Biso   1.000  C
  H390     1.0000 0.76421  0.84939  0.71020  Biso   1.000  H
  H391     1.0000 0.86582  0.87790  0.77662  Biso   1.000  H
  H392     1.0000 0.62357  0.93532  0.70894  Biso   1.000  H
  H393     1.0000 0.54713  0.94402  0.60158  Biso   1.000  H
  H394     1.0000 0.61050  0.87919  0.63010  Biso   1.000  H
  H395     1.0000 0.63093  0.85212  0.48580  Biso   1.000  H
  H396     1.0000 0.63099  0.88661  0.38909  Biso   1.000  H
  C377     1.0000 0.33340  0.11742  0.54041  Biso   1.000  C
  N221     1.0000 0.33000  0.05304  0.49511  Biso   1.000  N
  N222     1.0000 0.23782  0.14514  0.52452  Biso   1.000  N
  H397     1.0000 0.36910  0.14788  0.51418  Biso   1.000  H
  H398     1.0000 0.36904  0.11339  0.61089  Biso   1.000  H
  C378     1.0000 0.31269  0.04100  0.39108  Biso   1.000  C
  C379     1.0000 0.33504  0.99721  0.54750  Biso   1.000  C
  C380     1.0000 0.19146  0.19151  0.44472  Biso   1.000  C
  C381     1.0000 0.20298  0.15260  0.60077  Biso   1.000  C
  N223     1.0000 0.21321  0.05777  0.32584  Biso   1.000  N
  C382     1.0000 0.39000  0.07359  0.35968  Biso   1.000  C
  C383     1.0000 0.31073  0.96129  0.38613  Biso   1.000  C
  N224     1.0000 0.32689  0.94308  0.48809  Biso   1.000  N
  O113     1.0000 0.34824  0.99393  0.63690  Biso   1.000  O
  N225     1.0000 0.13460  0.16002  0.34993  Biso   1.000  N
  H399     1.0000 0.23813  0.22400  0.43733  Biso   1.000  H
  C384     1.0000 0.11279  0.22500  0.47709  Biso   1.000  C
  N226     1.0000 0.12629  0.19509  0.57077  Biso   1.000  N
  O114     1.0000 0.23604  0.12499  0.68109  Biso   1.000  O
  C385     1.0000 0.18028  0.12489  0.29082  Biso   1.000  C
  C386     1.0000 0.15850  0.00398  0.28047  Biso   1.000  C
  H400     1.0000 0.37649  0.06468  0.29111  Biso   1.000  H
  H401     1.0000 0.45290  0.05598  0.39840  Biso   1.000  H
  H402     1.0000 0.38953  0.12081  0.36988  Biso   1.000  H
  N227     1.0000 0.21125  0.94781  0.31764  Biso   1.000  N
  C387     1.0000 0.38752  0.92920  0.35192  Biso   1.000  C
  C388     1.0000 0.32639  0.87541  0.52430  Biso   1.000  C
  C389     1.0000 0.03667  0.17191  0.32207  Biso   1.000  C
  N228     1.0000 0.02130  0.20758  0.39640  Biso   1.000  N
  H403     1.0000 0.12211  0.27331  0.48322  Biso   1.000  H
  C390     1.0000 0.08653  0.22460  0.64141  Biso   1.000  C
  H404     1.0000 0.23582  0.15061  0.28978  Biso   1.000  H
  H405     1.0000 0.13424  0.12210  0.22343  Biso   1.000  H
  O115     1.0000 0.07621  0.00582  0.21841  Biso   1.000  O
  C391     1.0000 0.17483  0.88292  0.27604  Biso   1.000  C
  H406     1.0000 0.37583  0.94179  0.28483  Biso   1.000  H
  H407     1.0000 0.38370  0.88168  0.35613  Biso   1.000  H
  H408     1.0000 0.45118  0.94402  0.39337  Biso   1.000  H
  H409     1.0000 0.35968  0.84640  0.49319  Biso   1.000  H
  H410     1.0000 0.36283  0.87461  0.59493  Biso   1.000  H
  N229     1.0000 0.22984  0.84954  0.50568  Biso   1.000  N
  O116     1.0000 0.97507  0.15579  0.24368  Biso   1.000  O
  C392     1.0000 0.92783  0.23410  0.38953  Biso   1.000  C
  H411     1.0000 0.08392  0.27261  0.63328  Biso   1.000  H
  H412     1.0000 0.13043  0.21490  0.70813  Biso   1.000  H
  N230     1.0000 0.99143  0.20082  0.62959  Biso   1.000  N
  H413     1.0000 0.12908  0.88899  0.20910  Biso   1.000  H
  H414     1.0000 0.22914  0.85680  0.27249  Biso   1.000  H
  N231     1.0000 0.12700  0.84541  0.33101  Biso   1.000  N
  C393     1.0000 0.17993  0.80849  0.42012  Biso   1.000  C
  C394     1.0000 0.19474  0.83770  0.58082  Biso   1.000  C
  H415     1.0000 0.93501  0.28122  0.40497  Biso   1.000  H
  H416     1.0000 0.88273  0.22962  0.32192  Biso   1.000  H
  N232     1.0000 0.88554  0.20171  0.45514  Biso   1.000  N
  C395     1.0000 0.90205  0.22510  0.55289  Biso   1.000  C
  C396     1.0000 0.97294  0.16300  0.69934  Biso   1.000  C
  C397     1.0000 0.02712  0.83700  0.30072  Biso   1.000  C
  C398     1.0000 0.09799  0.77490  0.44709  Biso   1.000  C
  H417     1.0000 0.22391  0.77560  0.40859  Biso   1.000  H
  N233     1.0000 0.11452  0.79829  0.54491  Biso   1.000  N
  O117     1.0000 0.23000  0.85969  0.66483  Biso   1.000  O
  C399     1.0000 0.80532  0.16230  0.41923  Biso   1.000  C
  H418     1.0000 0.89754  0.27381  0.55459  Biso   1.000  H
  C400     1.0000 0.82013  0.19151  0.57994  Biso   1.000  C
  O118     1.0000 0.03343  0.14200  0.77633  Biso   1.000  O
  N234     1.0000 0.87306  0.15459  0.66904  Biso   1.000  N
  O119     1.0000 0.96663  0.85800  0.22373  Biso   1.000  O
  N235     1.0000 0.00860  0.79918  0.37039  Biso   1.000  N
  H419     1.0000 0.10249  0.72619  0.44539  Biso   1.000  H
  C401     1.0000 0.07223  0.76590  0.61052  Biso   1.000  C
  N236     1.0000 0.77020  0.15046  0.49430  Biso   1.000  N
  O120     1.0000 0.76999  0.14031  0.33522  Biso   1.000  O
  H420     1.0000 0.77612  0.22440  0.59139  Biso   1.000  H
  C402     1.0000 0.82523  0.11708  0.72401  Biso   1.000  C
  C403     1.0000 0.91350  0.77540  0.35857  Biso   1.000  C
  N237     1.0000 0.97873  0.79242  0.60358  Biso   1.000  N
  H421     1.0000 0.06502  0.71878  0.59501  Biso   1.000  H
  H422     1.0000 0.11733  0.77038  0.67813  Biso   1.000  H
  C404     1.0000 0.67364  0.12459  0.47568  Biso   1.000  C
  H423     1.0000 0.87095  0.11101  0.79088  Biso   1.000  H
  H424     1.0000 0.77089  0.14320  0.72749  Biso   1.000  H
  N238     1.0000 0.78881  0.05219  0.68242  Biso   1.000  N
  H425     1.0000 0.91612  0.72739  0.36670  Biso   1.000  H
  H426     1.0000 0.86963  0.78510  0.29193  Biso   1.000  H
  N239     1.0000 0.87375  0.80491  0.42921  Biso   1.000  N
  C405     1.0000 0.88725  0.77500  0.52289  Biso   1.000  C
  C406     1.0000 0.96330  0.82809  0.67791  Biso   1.000  C
  H427     1.0000 0.64028  0.15360  0.50679  Biso   1.000  H
  H428     1.0000 0.63723  0.12539  0.40512  Biso   1.000  H
  N240     1.0000 0.67314  0.05692  0.51189  Biso   1.000  N
  C407     1.0000 0.68933  0.03871  0.61392  Biso   1.000  C
  C408     1.0000 0.84153  0.99602  0.71951  Biso   1.000  C
  C409     1.0000 0.79698  0.84740  0.39921  Biso   1.000  C
  C410     1.0000 0.80860  0.80849  0.55533  Biso   1.000  C
  H429     1.0000 0.87795  0.72669  0.51684  Biso   1.000  H
  N241     1.0000 0.86546  0.83998  0.65013  Biso   1.000  N
  O121     1.0000 0.02496  0.84421  0.75630  Biso   1.000  O
  C411     1.0000 0.66500  0.00279  0.45248  Biso   1.000  C
  C412     1.0000 0.68734  0.95900  0.60890  Biso   1.000  C
  C413     1.0000 0.61254  0.07080  0.64813  Biso   1.000  C
  N242     1.0000 0.78685  0.94223  0.67421  Biso   1.000  N
  O122     1.0000 0.92385  0.99418  0.78165  Biso   1.000  O
  N243     1.0000 0.76224  0.85486  0.47553  Biso   1.000  N
  O123     1.0000 0.76399  0.87501  0.31889  Biso   1.000  O
  H430     1.0000 0.76193  0.77600  0.56272  Biso   1.000  H
  C414     1.0000 0.81971  0.87511  0.70924  Biso   1.000  C
  N244     1.0000 0.67006  0.94696  0.50494  Biso   1.000  N
  O124     1.0000 0.65179  0.00607  0.36308  Biso   1.000  O
  C415     1.0000 0.61004  0.92641  0.64030  Biso   1.000  C
  H431     1.0000 0.62423  0.05821  0.71522  Biso   1.000  H
  H432     1.0000 0.61636  0.11832  0.64392  Biso   1.000  H
  H433     1.0000 0.54885  0.05598  0.60661  Biso   1.000  H
  C416     1.0000 0.66663  0.88258  0.45957  Biso   1.000  C
  H434     1.0000 0.76421  0.84939  0.71020  Biso   1.000  H
  H435     1.0000 0.86582  0.87790  0.77662  Biso   1.000  H
  H436     1.0000 0.62357  0.93532  0.70894  Biso   1.000  H
  H437     1.0000 0.54713  0.94402  0.60158  Biso   1.000  H
  H438     1.0000 0.61050  0.87919  0.63010  Biso   1.000  H
  H439     1.0000 0.63093  0.85212  0.48580  Biso   1.000  H
  H440     1.0000 0.63099  0.88661  0.38909  Biso   1.000  H
