data_image0
_cell_length_a       17.269
_cell_length_b       17.269
_cell_length_c       50.312
_cell_angle_alpha    90
_cell_angle_beta     90
_cell_angle_gamma    120

_symmetry_space_group_name_H-M    "P 1"
_symmetry_int_tables_number       1

loop_
  _symmetry_equiv_pos_as_xyz
  'x, y, z'

loop_
  _atom_site_label
  _atom_site_occupancy
  _atom_site_fract_x
  _atom_site_fract_y
  _atom_site_fract_z
  _atom_site_thermal_displace_type
  _atom_site_B_iso_or_equiv
  _atom_site_type_symbol
  C1       1.0000 0.24799  0.22173  0.48960  Biso   1.000  C
  C2       1.0000 0.24097  0.19170  0.46420  Biso   1.000  C
  C3       1.0000 0.26047  0.30471  0.49527  Biso   1.000  C
  H1       1.0000 0.24403  0.18381  0.50384  Biso   1.000  H
  C4       1.0000 0.24787  0.24800  0.44361  Biso   1.000  C
  H2       1.0000 0.23154  0.13360  0.46073  Biso   1.000  H
  C5       1.0000 0.26796  0.36301  0.47480  Biso   1.000  C
  H3       1.0000 0.26406  0.32289  0.51334  Biso   1.000  H
  C6       1.0000 0.26086  0.33225  0.44876  Biso   1.000  C
  H4       1.0000 0.24358  0.22855  0.42572  Biso   1.000  H
  N1       1.0000 0.28322  0.44693  0.47993  Biso   1.000  N
  S1       1.0000 0.26713  0.40166  0.42193  Biso   1.000  S
  C7       1.0000 0.29009  0.48116  0.50704  Biso   1.000  C
  H5       1.0000 0.28937  0.48203  0.46643  Biso   1.000  H
  S2       1.0000 0.39949  0.46786  0.41139  Biso   1.000  S
  H6       1.0000 0.33725  0.47622  0.51683  Biso   1.000  H
  H7       1.0000 0.23274  0.44452  0.51644  Biso   1.000  H
  C8       1.0000 0.31231  0.57725  0.50670  Biso   1.000  C
  C9       1.0000 0.40576  0.40467  0.38456  Biso   1.000  C
  C10      1.0000 0.40232  0.64552  0.50646  Biso   1.000  C
  C11      1.0000 0.24323  0.59764  0.50646  Biso   1.000  C
  C12      1.0000 0.39870  0.42841  0.35852  Biso   1.000  C
  C13      1.0000 0.41883  0.33353  0.38971  Biso   1.000  C
  C14      1.0000 0.42277  0.73505  0.50670  Biso   1.000  C
  C15      1.0000 0.47613  0.62265  0.50586  Biso   1.000  C
  C16      1.0000 0.26489  0.68764  0.50670  Biso   1.000  C
  C17      1.0000 0.14654  0.52389  0.50586  Biso   1.000  C
  C18      1.0000 0.40618  0.37759  0.33805  Biso   1.000  C
  N2       1.0000 0.38343  0.49701  0.35341  Biso   1.000  N
  C19      1.0000 0.42569  0.28411  0.36914  Biso   1.000  C
  H8       1.0000 0.42308  0.31828  0.40760  Biso   1.000  H
  C20      1.0000 0.51884  0.80894  0.50704  Biso   1.000  C
  C21      1.0000 0.35442  0.75678  0.50646  Biso   1.000  C
  H9       1.0000 0.52813  0.66979  0.49612  Biso   1.000  H
  H10      1.0000 0.45499  0.56555  0.49622  Biso   1.000  H
  C22      1.0000 0.50524  0.61383  0.53359  Biso   1.000  C
  C23      1.0000 0.19104  0.70984  0.50704  Biso   1.000  C
  H11      1.0000 0.14163  0.47180  0.49612  Biso   1.000  H
  H12      1.0000 0.11054  0.54502  0.49622  Biso   1.000  H
  C24      1.0000 0.10857  0.49474  0.53359  Biso   1.000  C
  C25      1.0000 0.41871  0.30711  0.34372  Biso   1.000  C
  H13      1.0000 0.40258  0.39217  0.32000  Biso   1.000  H
  C26      1.0000 0.37655  0.52436  0.32628  Biso   1.000  C
  H14      1.0000 0.37729  0.52596  0.36689  Biso   1.000  H
  H15      1.0000 0.43507  0.23537  0.37260  Biso   1.000  H
  H16      1.0000 0.52374  0.86103  0.51683  Biso   1.000  H
  H17      1.0000 0.55543  0.78821  0.51644  Biso   1.000  H
  N3       1.0000 0.55307  0.83629  0.47993  Biso   1.000  N
  C27      1.0000 0.37734  0.85347  0.50586  Biso   1.000  C
  H18      1.0000 0.55346  0.59965  0.53244  Biso   1.000  H
  H19      1.0000 0.45437  0.56582  0.54313  Biso   1.000  H
  H20      1.0000 0.52678  0.67033  0.54323  Biso   1.000  H
  H21      1.0000 0.13898  0.66270  0.51683  Biso   1.000  H
  H22      1.0000 0.21174  0.76721  0.51644  Biso   1.000  H
  N4       1.0000 0.16368  0.71673  0.47993  Biso   1.000  N
  H23      1.0000 0.04618  0.44653  0.53244  Biso   1.000  H
  H24      1.0000 0.11148  0.54562  0.54313  Biso   1.000  H
  H25      1.0000 0.14355  0.47321  0.54323  Biso   1.000  H
  H26      1.0000 0.42260  0.27308  0.32950  Biso   1.000  H
  H27      1.0000 0.32937  0.47227  0.31651  Biso   1.000  H
  H28      1.0000 0.43387  0.54509  0.31690  Biso   1.000  H
  C28      1.0000 0.35437  0.59825  0.32664  Biso   1.000  C
  C29      1.0000 0.63694  0.90489  0.47480  Biso   1.000  C
  H29      1.0000 0.51798  0.80733  0.46643  Biso   1.000  H
  H30      1.0000 0.33012  0.85829  0.49612  Biso   1.000  H
  H31      1.0000 0.43447  0.88945  0.49622  Biso   1.000  H
  C30      1.0000 0.38616  0.89138  0.53359  Biso   1.000  C
  C31      1.0000 0.09504  0.73198  0.47480  Biso   1.000  C
  H32      1.0000 0.19266  0.71065  0.46643  Biso   1.000  H
  C32      1.0000 0.42345  0.68778  0.32686  Biso   1.000  C
  C33      1.0000 0.26428  0.57651  0.32686  Biso   1.000  C
  C34      1.0000 0.66774  0.92863  0.44876  Biso   1.000  C
  C35      1.0000 0.69524  0.95571  0.49527  Biso   1.000  C
  H33      1.0000 0.40036  0.95384  0.53244  Biso   1.000  H
  H34      1.0000 0.43418  0.88851  0.54313  Biso   1.000  H
  H35      1.0000 0.32965  0.85641  0.54323  Biso   1.000  H
  C36      1.0000 0.07140  0.73913  0.44876  Biso   1.000  C
  C37      1.0000 0.04427  0.73953  0.49527  Biso   1.000  C
  C38      1.0000 0.40174  0.75612  0.32664  Biso   1.000  C
  C39      1.0000 0.52016  0.71071  0.32748  Biso   1.000  C
  C40      1.0000 0.24390  0.64565  0.32664  Biso   1.000  C
  C41      1.0000 0.19052  0.47983  0.32748  Biso   1.000  C
  S3       1.0000 0.59828  0.86544  0.42193  Biso   1.000  S
  C42      1.0000 0.75199  0.99984  0.44361  Biso   1.000  C
  H36      1.0000 0.67706  0.94113  0.51334  Biso   1.000  H
  C43      1.0000 0.77825  0.02619  0.48960  Biso   1.000  C
  S4       1.0000 0.13450  0.73285  0.42193  Biso   1.000  S
  C44      1.0000 0.00018  0.75210  0.44361  Biso   1.000  C
  H37      1.0000 0.05885  0.73592  0.51334  Biso   1.000  H
  C45      1.0000 0.97379  0.75204  0.48960  Biso   1.000  C
  C46      1.0000 0.47558  0.85213  0.32628  Biso   1.000  C
  C47      1.0000 0.31224  0.73565  0.32686  Biso   1.000  C
  H38      1.0000 0.52499  0.66351  0.33720  Biso   1.000  H
  H39      1.0000 0.55609  0.76775  0.33710  Biso   1.000  H
  C48      1.0000 0.55807  0.71947  0.29973  Biso   1.000  C
  C49      1.0000 0.14785  0.62345  0.32628  Biso   1.000  C
  H40      1.0000 0.13848  0.47501  0.33720  Biso   1.000  H
  H41      1.0000 0.21171  0.44392  0.33710  Biso   1.000  H
  C50      1.0000 0.16143  0.44191  0.29973  Biso   1.000  C
  S5       1.0000 0.53212  0.93164  0.41139  Biso   1.000  S
  H42      1.0000 0.77145  0.01502  0.42572  Biso   1.000  H
  C51      1.0000 0.80817  0.04919  0.46420  Biso   1.000  C
  H43      1.0000 0.81611  0.06022  0.50384  Biso   1.000  H
  S6       1.0000 0.06834  0.60052  0.41139  Biso   1.000  S
  H44      1.0000 0.98494  0.75638  0.42572  Biso   1.000  H
  C52      1.0000 0.95075  0.75899  0.46420  Biso   1.000  C
  H45      1.0000 0.93977  0.75591  0.50384  Biso   1.000  H
  H46      1.0000 0.52768  0.85708  0.31651  Biso   1.000  H
  H47      1.0000 0.45487  0.88878  0.31690  Biso   1.000  H
  N5       1.0000 0.50294  0.88637  0.35341  Biso   1.000  N
  C53      1.0000 0.28933  0.80947  0.32748  Biso   1.000  C
  H48      1.0000 0.62049  0.73372  0.30090  Biso   1.000  H
  H49      1.0000 0.55520  0.76748  0.29019  Biso   1.000  H
  H50      1.0000 0.52310  0.66297  0.29009  Biso   1.000  H
  H51      1.0000 0.14293  0.67059  0.31651  Biso   1.000  H
  H52      1.0000 0.11117  0.56608  0.31690  Biso   1.000  H
  N6       1.0000 0.11360  0.61657  0.35341  Biso   1.000  N
  H53      1.0000 0.11318  0.37946  0.30090  Biso   1.000  H
  H54      1.0000 0.21232  0.44479  0.29019  Biso   1.000  H
  H55      1.0000 0.13988  0.47688  0.29009  Biso   1.000  H
  C54      1.0000 0.59520  0.00104  0.38456  Biso   1.000  C
  H56      1.0000 0.86636  0.09793  0.46073  Biso   1.000  H
  C55      1.0000 0.99892  0.59417  0.38456  Biso   1.000  C
  H57      1.0000 0.90207  0.76842  0.46073  Biso   1.000  H
  C56      1.0000 0.57160  0.97029  0.35852  Biso   1.000  C
  H58      1.0000 0.47398  0.85126  0.36689  Biso   1.000  H
  H59      1.0000 0.33647  0.86150  0.33720  Biso   1.000  H
  H60      1.0000 0.23217  0.78828  0.33710  Biso   1.000  H
  C57      1.0000 0.28048  0.83856  0.29973  Biso   1.000  C
  C58      1.0000 0.02971  0.60132  0.35852  Biso   1.000  C
  H61      1.0000 0.14870  0.62272  0.36689  Biso   1.000  H
  C59      1.0000 0.66651  0.08529  0.38971  Biso   1.000  C
  C60      1.0000 0.91472  0.58120  0.38971  Biso   1.000  C
  C61      1.0000 0.62241  0.02859  0.33805  Biso   1.000  C
  H62      1.0000 0.26630  0.88677  0.30090  Biso   1.000  H
  H63      1.0000 0.23251  0.78768  0.29019  Biso   1.000  H
  H64      1.0000 0.33699  0.86009  0.29009  Biso   1.000  H
  C62      1.0000 0.97139  0.59377  0.33805  Biso   1.000  C
  H65      1.0000 0.68162  0.10475  0.40760  Biso   1.000  H
  C63      1.0000 0.71591  0.14159  0.36914  Biso   1.000  C
  H66      1.0000 0.89521  0.57692  0.40760  Biso   1.000  H
  C64      1.0000 0.85841  0.57431  0.36914  Biso   1.000  C
  C65      1.0000 0.69291  0.11157  0.34372  Biso   1.000  C
  H67      1.0000 0.60781  0.01040  0.32000  Biso   1.000  H
  C66      1.0000 0.88841  0.58126  0.34372  Biso   1.000  C
  H68      1.0000 0.98958  0.59738  0.32000  Biso   1.000  H
  H69      1.0000 0.76460  0.19970  0.37260  Biso   1.000  H
  H70      1.0000 0.80030  0.56488  0.37260  Biso   1.000  H
  H71      1.0000 0.72686  0.14949  0.32950  Biso   1.000  H
  H72      1.0000 0.85051  0.57738  0.32950  Biso   1.000  H
  C67      1.0000 0.30472  0.04426  0.50471  Biso   1.000  C
  C68      1.0000 0.36302  0.09508  0.52518  Biso   1.000  C
  H73      1.0000 0.32289  0.05884  0.48666  Biso   1.000  H
  C69      1.0000 0.22177  0.97379  0.51038  Biso   1.000  C
  N7       1.0000 0.44695  0.16369  0.52007  Biso   1.000  N
  C70      1.0000 0.33222  0.07135  0.55124  Biso   1.000  C
  C71      1.0000 0.19173  0.95079  0.53580  Biso   1.000  C
  H74      1.0000 0.18390  0.93975  0.49616  Biso   1.000  H
  C72      1.0000 0.48112  0.19103  0.49294  Biso   1.000  C
  H75      1.0000 0.48198  0.19264  0.53357  Biso   1.000  H
  C73      1.0000 0.24803  0.00013  0.55639  Biso   1.000  C
  S7       1.0000 0.40168  0.13453  0.57807  Biso   1.000  S
  H76      1.0000 0.13366  0.90204  0.53926  Biso   1.000  H
  C74      1.0000 0.57725  0.26492  0.49330  Biso   1.000  C
  H77      1.0000 0.47621  0.13895  0.48317  Biso   1.000  H
  H78      1.0000 0.44452  0.21176  0.48356  Biso   1.000  H
  H79      1.0000 0.22857  0.98496  0.57426  Biso   1.000  H
  S8       1.0000 0.46784  0.06834  0.58859  Biso   1.000  S
  C75      1.0000 0.59763  0.35445  0.49352  Biso   1.000  C
  C76      1.0000 0.64554  0.24319  0.49352  Biso   1.000  C
  C77      1.0000 0.40470  0.99893  0.61542  Biso   1.000  C
  C78      1.0000 0.52386  0.37739  0.49414  Biso   1.000  C
  C79      1.0000 0.68765  0.42272  0.49330  Biso   1.000  C
  C80      1.0000 0.73506  0.31233  0.49330  Biso   1.000  C
  C81      1.0000 0.62262  0.14650  0.49414  Biso   1.000  C
  C82      1.0000 0.42836  0.02969  0.64146  Biso   1.000  C
  C83      1.0000 0.33356  0.91468  0.61027  Biso   1.000  C
  C84      1.0000 0.49471  0.38615  0.46639  Biso   1.000  C
  H80      1.0000 0.47183  0.33018  0.50386  Biso   1.000  H
  H81      1.0000 0.54503  0.43443  0.50376  Biso   1.000  H
  C85      1.0000 0.70987  0.51881  0.49294  Biso   1.000  C
  C86      1.0000 0.75678  0.40233  0.49352  Biso   1.000  C
  C87      1.0000 0.80897  0.29013  0.49294  Biso   1.000  C
  H82      1.0000 0.66984  0.14169  0.50386  Biso   1.000  H
  H83      1.0000 0.56552  0.11060  0.50376  Biso   1.000  H
  C88      1.0000 0.61385  0.10859  0.46639  Biso   1.000  C
  N8       1.0000 0.49701  0.11360  0.64659  Biso   1.000  N
  C89      1.0000 0.37766  0.97138  0.66195  Biso   1.000  C
  H84      1.0000 0.31833  0.89522  0.59240  Biso   1.000  H
  C90      1.0000 0.28416  0.85838  0.63086  Biso   1.000  C
  H85      1.0000 0.44653  0.40039  0.46756  Biso   1.000  H
  H86      1.0000 0.54564  0.43416  0.45687  Biso   1.000  H
  H87      1.0000 0.47324  0.32965  0.45677  Biso   1.000  H
  H88      1.0000 0.66271  0.52376  0.48317  Biso   1.000  H
  H89      1.0000 0.76722  0.55545  0.48356  Biso   1.000  H
  N9       1.0000 0.71673  0.55304  0.52007  Biso   1.000  N
  C91      1.0000 0.85348  0.47608  0.49414  Biso   1.000  C
  H90      1.0000 0.86103  0.33727  0.48317  Biso   1.000  H
  H91      1.0000 0.78822  0.23276  0.48356  Biso   1.000  H
  N10      1.0000 0.83628  0.28324  0.52007  Biso   1.000  N
  H92      1.0000 0.59959  0.04614  0.46756  Biso   1.000  H
  H93      1.0000 0.56584  0.11146  0.45687  Biso   1.000  H
  H94      1.0000 0.67031  0.14356  0.45677  Biso   1.000  H
  C92      1.0000 0.52438  0.14784  0.67370  Biso   1.000  C
  H95      1.0000 0.52597  0.14871  0.63309  Biso   1.000  H
  C93      1.0000 0.30716  0.88840  0.65626  Biso   1.000  C
  H96      1.0000 0.39226  0.98957  0.68000  Biso   1.000  H
  H97      1.0000 0.23542  0.80027  0.62739  Biso   1.000  H
  C94      1.0000 0.73200  0.63696  0.52518  Biso   1.000  C
  H98      1.0000 0.71059  0.51794  0.53357  Biso   1.000  H
  H99      1.0000 0.85833  0.52817  0.50386  Biso   1.000  H
  H100     1.0000 0.88941  0.45495  0.50376  Biso   1.000  H
  C95      1.0000 0.89139  0.50524  0.46639  Biso   1.000  C
  C96      1.0000 0.90492  0.26800  0.52518  Biso   1.000  C
  H101     1.0000 0.80730  0.28933  0.53357  Biso   1.000  H
  H102     1.0000 0.47228  0.14289  0.68349  Biso   1.000  H
  H103     1.0000 0.54509  0.11120  0.68310  Biso   1.000  H
  C97      1.0000 0.59825  0.24393  0.67336  Biso   1.000  C
  H104     1.0000 0.27315  0.85049  0.67050  Biso   1.000  H
  C98      1.0000 0.73909  0.66772  0.55124  Biso   1.000  C
  C99      1.0000 0.73955  0.69527  0.50471  Biso   1.000  C
  H105     1.0000 0.95383  0.55345  0.46756  Biso   1.000  H
  H106     1.0000 0.88853  0.45435  0.45687  Biso   1.000  H
  H107     1.0000 0.85641  0.52677  0.45677  Biso   1.000  H
  C100     1.0000 0.92861  0.26084  0.55124  Biso   1.000  C
  C101     1.0000 0.95569  0.26044  0.50471  Biso   1.000  C
  C102     1.0000 0.57650  0.31220  0.67314  Biso   1.000  C
  C103     1.0000 0.68778  0.26432  0.67314  Biso   1.000  C
  C104     1.0000 0.75215  0.75197  0.55639  Biso   1.000  C
  S9       1.0000 0.73282  0.59831  0.57807  Biso   1.000  S
  C105     1.0000 0.75203  0.77825  0.51038  Biso   1.000  C
  H108     1.0000 0.73596  0.67708  0.48666  Biso   1.000  H
  C106     1.0000 0.99984  0.24787  0.55639  Biso   1.000  C
  S10      1.0000 0.86545  0.26713  0.57807  Biso   1.000  S
  H109     1.0000 0.94111  0.26405  0.48666  Biso   1.000  H
  C107     1.0000 0.02622  0.24794  0.51038  Biso   1.000  C
  C108     1.0000 0.64565  0.40173  0.67336  Biso   1.000  C
  C109     1.0000 0.47980  0.28926  0.67252  Biso   1.000  C
  C110     1.0000 0.75606  0.35432  0.67336  Biso   1.000  C
  C111     1.0000 0.71072  0.19057  0.67252  Biso   1.000  C
  H110     1.0000 0.75638  0.77143  0.57426  Biso   1.000  H
  C112     1.0000 0.75905  0.80827  0.53580  Biso   1.000  C
  S11      1.0000 0.60047  0.53212  0.58859  Biso   1.000  S
  H111     1.0000 0.75593  0.81616  0.49616  Biso   1.000  H
  H112     1.0000 0.01501  0.24359  0.57426  Biso   1.000  H
  C113     1.0000 0.04921  0.24098  0.53580  Biso   1.000  C
  S12      1.0000 0.93165  0.39952  0.58859  Biso   1.000  S
  H113     1.0000 0.06018  0.24406  0.49616  Biso   1.000  H
  C114     1.0000 0.62341  0.47561  0.67370  Biso   1.000  C
  C115     1.0000 0.73567  0.42346  0.67314  Biso   1.000  C
  H114     1.0000 0.47497  0.33647  0.66280  Biso   1.000  H
  H115     1.0000 0.44392  0.23222  0.66290  Biso   1.000  H
  C116     1.0000 0.44189  0.28050  0.70027  Biso   1.000  C
  C117     1.0000 0.85217  0.37652  0.67370  Biso   1.000  C
  H116     1.0000 0.66348  0.13848  0.66280  Biso   1.000  H
  H117     1.0000 0.76779  0.21170  0.66290  Biso   1.000  H
  C118     1.0000 0.71948  0.16141  0.70027  Biso   1.000  C
  H118     1.0000 0.76841  0.86638  0.53926  Biso   1.000  H
  C119     1.0000 0.59419  0.59530  0.61542  Biso   1.000  C
  H119     1.0000 0.09788  0.23156  0.53926  Biso   1.000  H
  C120     1.0000 0.00110  0.40581  0.61542  Biso   1.000  C
  N11      1.0000 0.61659  0.50296  0.64659  Biso   1.000  N
  H120     1.0000 0.67059  0.52770  0.68349  Biso   1.000  H
  H121     1.0000 0.56608  0.45489  0.68310  Biso   1.000  H
  C121     1.0000 0.80944  0.52015  0.67252  Biso   1.000  C
  H122     1.0000 0.37950  0.26633  0.69910  Biso   1.000  H
  H123     1.0000 0.44481  0.23249  0.70979  Biso   1.000  H
  H124     1.0000 0.47692  0.33700  0.70989  Biso   1.000  H
  N12      1.0000 0.88636  0.38341  0.64659  Biso   1.000  N
  H125     1.0000 0.85709  0.32938  0.68349  Biso   1.000  H
  H126     1.0000 0.88878  0.43389  0.68310  Biso   1.000  H
  H127     1.0000 0.73371  0.11320  0.69910  Biso   1.000  H
  H128     1.0000 0.76751  0.21230  0.70979  Biso   1.000  H
  H129     1.0000 0.66297  0.13988  0.70989  Biso   1.000  H
  C122     1.0000 0.58122  0.66652  0.61027  Biso   1.000  C
  C123     1.0000 0.60126  0.57157  0.64146  Biso   1.000  C
  C124     1.0000 0.97025  0.39865  0.64146  Biso   1.000  C
  C125     1.0000 0.08529  0.41878  0.61027  Biso   1.000  C
  H130     1.0000 0.62267  0.47401  0.63309  Biso   1.000  H
  H131     1.0000 0.86147  0.52496  0.66280  Biso   1.000  H
  H132     1.0000 0.78828  0.55612  0.66290  Biso   1.000  H
  C126     1.0000 0.83859  0.55806  0.70027  Biso   1.000  C
  H133     1.0000 0.85129  0.37732  0.63309  Biso   1.000  H
  H134     1.0000 0.57688  0.68169  0.59240  Biso   1.000  H
  C127     1.0000 0.57427  0.71586  0.63086  Biso   1.000  C
  C128     1.0000 0.59378  0.62238  0.66195  Biso   1.000  C
  C129     1.0000 0.02857  0.40621  0.66195  Biso   1.000  C
  H135     1.0000 0.10475  0.42306  0.59240  Biso   1.000  H
  C130     1.0000 0.14155  0.42567  0.63086  Biso   1.000  C
  H136     1.0000 0.88678  0.62051  0.69910  Biso   1.000  H
  H137     1.0000 0.78770  0.55518  0.70979  Biso   1.000  H
  H138     1.0000 0.86007  0.52309  0.70989  Biso   1.000  H
  H139     1.0000 0.56489  0.76461  0.62739  Biso   1.000  H
  C131     1.0000 0.58130  0.69286  0.65626  Biso   1.000  C
  H140     1.0000 0.59738  0.60781  0.68000  Biso   1.000  H
  C132     1.0000 0.11161  0.41871  0.65626  Biso   1.000  C
  H141     1.0000 0.01038  0.40260  0.68000  Biso   1.000  H
  H142     1.0000 0.19965  0.43509  0.62739  Biso   1.000  H
  H143     1.0000 0.57741  0.72689  0.67050  Biso   1.000  H
  H144     1.0000 0.14945  0.42259  0.67050  Biso   1.000  H
  C133     1.0000 0.17195  0.22473  0.36693  Biso   1.000  C
  C134     1.0000 0.14281  0.18682  0.33920  Biso   1.000  C
  C135     1.0000 0.14275  0.18682  0.33920  Biso   1.000  C
  H145     1.0000 0.22015  0.28719  0.36576  Biso   1.000  H
  H146     1.0000 0.12101  0.22186  0.37647  Biso   1.000  H
  H147     1.0000 0.19344  0.18976  0.37657  Biso   1.000  H
  H148     1.0000 0.19338  0.18976  0.37657  Biso   1.000  H
  H149     1.0000 0.12106  0.22186  0.37647  Biso   1.000  H
  C136     1.0000 0.06904  0.09013  0.33980  Biso   1.000  C
  C137     1.0000 0.06898  0.09013  0.33980  Biso   1.000  C
  H150     1.0000 0.19484  0.19164  0.32946  Biso   1.000  H
  H151     1.0000 0.12161  0.22273  0.32956  Biso   1.000  H
  C138     1.0000 0.17190  0.22473  0.36693  Biso   1.000  C
  H152     1.0000 0.19478  0.19164  0.32946  Biso   1.000  H
  H153     1.0000 0.12165  0.22280  0.32956  Biso   1.000  H
  C139     1.0000 0.08943  0.02100  0.34002  Biso   1.000  C
  C140     1.0000 0.08946  0.02106  0.34002  Biso   1.000  C
  C141     1.0000 0.08937  0.02100  0.34002  Biso   1.000  C
  C142     1.0000 0.97896  0.06840  0.34002  Biso   1.000  C
  C143     1.0000 0.18548  0.04320  0.34038  Biso   1.000  C
  C144     1.0000 0.18551  0.04326  0.34038  Biso   1.000  C
  C145     1.0000 0.18557  0.04326  0.34038  Biso   1.000  C
  C146     1.0000 0.02115  0.93099  0.33980  Biso   1.000  C
  C147     1.0000 0.90981  0.97887  0.33980  Biso   1.000  C
  C148     1.0000 0.90993  0.97887  0.33980  Biso   1.000  C
  C149     1.0000 0.95678  0.14229  0.34038  Biso   1.000  C
  C150     1.0000 0.95672  0.14229  0.34038  Biso   1.000  C
  N13      1.0000 0.21973  0.05008  0.31325  Biso   1.000  N
  H154     1.0000 0.22215  0.10057  0.34976  Biso   1.000  H
  H155     1.0000 0.22209  0.10057  0.34976  Biso   1.000  H
  H156     1.0000 0.19040  0.99605  0.35016  Biso   1.000  H
  C151     1.0000 0.93162  0.91060  0.34002  Biso   1.000  C
  C152     1.0000 0.93167  0.91060  0.34002  Biso   1.000  C
  C153     1.0000 0.04409  0.85724  0.33920  Biso   1.000  C
  C154     1.0000 0.81316  0.95594  0.33920  Biso   1.000  C
  C155     1.0000 0.81326  0.95600  0.33920  Biso   1.000  C
  C156     1.0000 0.81322  0.95594  0.33920  Biso   1.000  C
  C157     1.0000 0.81320  0.95600  0.33920  Biso   1.000  C
  H157     1.0000 0.00396  0.19438  0.35016  Biso   1.000  H
  H158     1.0000 0.00390  0.19438  0.35016  Biso   1.000  H
  H159     1.0000 0.89945  0.12156  0.34976  Biso   1.000  H
  N14      1.0000 0.94990  0.16964  0.31325  Biso   1.000  N
  H160     1.0000 0.89939  0.12156  0.34976  Biso   1.000  H
  C158     1.0000 0.30361  0.06533  0.30814  Biso   1.000  C
  H161     1.0000 0.18466  0.04400  0.29977  Biso   1.000  H
  H162     1.0000 0.18460  0.04400  0.29977  Biso   1.000  H
  C159     1.0000 0.85769  0.81452  0.34038  Biso   1.000  C
  H163     1.0000 0.99679  0.80515  0.32946  Biso   1.000  H
  H164     1.0000 0.10115  0.87837  0.32956  Biso   1.000  H
  C160     1.0000 0.05285  0.82809  0.36693  Biso   1.000  C
  H165     1.0000 0.10109  0.87837  0.32956  Biso   1.000  H
  H166     1.0000 0.77723  0.89890  0.32956  Biso   1.000  H
  C161     1.0000 0.77526  0.94718  0.36693  Biso   1.000  C
  H167     1.0000 0.80833  0.00314  0.32946  Biso   1.000  H
  H168     1.0000 0.80828  0.00314  0.32946  Biso   1.000  H
  C162     1.0000 0.93463  0.23824  0.30814  Biso   1.000  C
  H169     1.0000 0.95603  0.14069  0.29977  Biso   1.000  H
  C163     1.0000 0.93457  0.23824  0.30814  Biso   1.000  C
  H170     1.0000 0.95598  0.14069  0.29977  Biso   1.000  H
  C164     1.0000 0.33441  0.07248  0.28210  Biso   1.000  C
  C165     1.0000 0.33446  0.07248  0.28210  Biso   1.000  C
  C166     1.0000 0.36194  0.07288  0.32861  Biso   1.000  C
  H171     1.0000 0.80565  0.80957  0.35016  Biso   1.000  H
  H172     1.0000 0.87846  0.77787  0.34976  Biso   1.000  H
  N15      1.0000 0.83038  0.78028  0.31325  Biso   1.000  N
  H173     1.0000 0.99634  0.80656  0.37657  Biso   1.000  H
  H174     1.0000 0.06702  0.77988  0.36576  Biso   1.000  H
  H175     1.0000 0.10087  0.87897  0.37647  Biso   1.000  H
  H176     1.0000 0.71287  0.93300  0.36576  Biso   1.000  H
  H177     1.0000 0.77806  0.89917  0.37647  Biso   1.000  H
  H178     1.0000 0.77812  0.89917  0.37647  Biso   1.000  H
  H179     1.0000 0.81022  0.00368  0.37657  Biso   1.000  H
  C167     1.0000 0.92756  0.26198  0.28210  Biso   1.000  C
  C168     1.0000 0.92715  0.28906  0.32861  Biso   1.000  C
  C169     1.0000 0.92750  0.26198  0.28210  Biso   1.000  C
  C170     1.0000 0.92709  0.28906  0.32861  Biso   1.000  C
  S13      1.0000 0.26496  0.06620  0.25527  Biso   1.000  S
  C171     1.0000 0.41860  0.08545  0.27695  Biso   1.000  C
  S14      1.0000 0.26502  0.06620  0.25527  Biso   1.000  S
  C172     1.0000 0.41866  0.08545  0.27695  Biso   1.000  C
  C173     1.0000 0.44492  0.08539  0.32294  Biso   1.000  C
  C174     1.0000 0.44498  0.08539  0.32294  Biso   1.000  C
  H180     1.0000 0.34375  0.06927  0.34666  Biso   1.000  H
  H181     1.0000 0.34369  0.06927  0.34666  Biso   1.000  H
  C175     1.0000 0.76167  0.69636  0.30814  Biso   1.000  C
  H182     1.0000 0.85928  0.81538  0.29977  Biso   1.000  H
  C176     1.0000 0.76178  0.69636  0.30814  Biso   1.000  C
  H183     1.0000 0.85934  0.81538  0.29977  Biso   1.000  H
  C177     1.0000 0.91453  0.33319  0.27695  Biso   1.000  C
  S15      1.0000 0.93384  0.19879  0.25527  Biso   1.000  S
  S16      1.0000 0.93378  0.19879  0.25527  Biso   1.000  S
  C178     1.0000 0.91461  0.35954  0.32294  Biso   1.000  C
  H184     1.0000 0.93074  0.27448  0.34666  Biso   1.000  H
  H185     1.0000 0.93069  0.27448  0.34666  Biso   1.000  H
  S17      1.0000 0.19882  0.93380  0.24473  Biso   1.000  S
  S18      1.0000 0.19885  0.93387  0.24473  Biso   1.000  S
  H186     1.0000 0.43811  0.08973  0.25906  Biso   1.000  H
  C179     1.0000 0.47492  0.09234  0.29754  Biso   1.000  C
  H187     1.0000 0.43815  0.08980  0.25906  Biso   1.000  H
  H188     1.0000 0.43806  0.08973  0.25906  Biso   1.000  H
  H189     1.0000 0.48282  0.08927  0.33716  Biso   1.000  H
  C180     1.0000 0.73801  0.66561  0.28210  Biso   1.000  C
  C181     1.0000 0.71092  0.63806  0.32861  Biso   1.000  C
  C182     1.0000 0.73812  0.66561  0.28210  Biso   1.000  C
  H190     1.0000 0.91024  0.34837  0.25906  Biso   1.000  H
  C183     1.0000 0.90764  0.38254  0.29754  Biso   1.000  C
  C184     1.0000 0.90758  0.38254  0.29754  Biso   1.000  C
  H191     1.0000 0.91019  0.34837  0.25906  Biso   1.000  H
  S19      1.0000 0.06619  0.26499  0.24473  Biso   1.000  S
  S20      1.0000 0.06613  0.26499  0.24473  Biso   1.000  S
  H192     1.0000 0.91072  0.39357  0.33716  Biso   1.000  H
  C185     1.0000 0.26192  0.92752  0.21790  Biso   1.000  C
  H193     1.0000 0.53302  0.10177  0.29407  Biso   1.000  H
  C186     1.0000 0.66681  0.58136  0.27695  Biso   1.000  C
  S21      1.0000 0.80120  0.73501  0.25527  Biso   1.000  S
  C187     1.0000 0.64036  0.55508  0.32294  Biso   1.000  C
  H194     1.0000 0.72551  0.65624  0.34666  Biso   1.000  H
  C188     1.0000 0.64041  0.55508  0.32294  Biso   1.000  C
  H195     1.0000 0.89825  0.43128  0.29407  Biso   1.000  H
  H196     1.0000 0.89819  0.43128  0.29407  Biso   1.000  H
  C189     1.0000 0.07246  0.33439  0.21790  Biso   1.000  C
  C190     1.0000 0.07249  0.33446  0.21790  Biso   1.000  C
  C191     1.0000 0.07240  0.33439  0.21790  Biso   1.000  C
  C192     1.0000 0.33321  0.91455  0.22305  Biso   1.000  C
  C193     1.0000 0.23828  0.93467  0.19186  Biso   1.000  C
  C194     1.0000 0.23823  0.93467  0.19186  Biso   1.000  C
  H197     1.0000 0.65164  0.56190  0.25906  Biso   1.000  H
  C195     1.0000 0.61741  0.52505  0.29754  Biso   1.000  C
  H198     1.0000 0.65170  0.56190  0.25906  Biso   1.000  H
  S22      1.0000 0.73499  0.80121  0.24473  Biso   1.000  S
  H199     1.0000 0.60646  0.51716  0.33716  Biso   1.000  H
  C196     1.0000 0.06536  0.30364  0.19186  Biso   1.000  C
  C197     1.0000 0.08546  0.41864  0.22305  Biso   1.000  C
  C198     1.0000 0.08552  0.41864  0.22305  Biso   1.000  C
  H200     1.0000 0.34844  0.91027  0.24094  Biso   1.000  H
  C199     1.0000 0.38257  0.90766  0.20246  Biso   1.000  C
  H201     1.0000 0.34832  0.91027  0.24094  Biso   1.000  H
  C200     1.0000 0.28911  0.92712  0.17139  Biso   1.000  C
  N16      1.0000 0.16964  0.94992  0.18673  Biso   1.000  N
  C201     1.0000 0.28900  0.92712  0.17139  Biso   1.000  C
  N17      1.0000 0.16959  0.94992  0.18673  Biso   1.000  N
  H202     1.0000 0.56873  0.46695  0.29407  Biso   1.000  H
  H203     1.0000 0.56876  0.46701  0.29407  Biso   1.000  H
  C202     1.0000 0.66552  0.73802  0.21790  Biso   1.000  C
  N18      1.0000 0.05010  0.21972  0.18673  Biso   1.000  N
  N19      1.0000 0.05004  0.21972  0.18673  Biso   1.000  N
  C203     1.0000 0.07286  0.36194  0.17139  Biso   1.000  C
  C204     1.0000 0.07292  0.36194  0.17139  Biso   1.000  C
  H204     1.0000 0.08974  0.43810  0.24094  Biso   1.000  H
  C205     1.0000 0.09236  0.47495  0.20246  Biso   1.000  C
  C206     1.0000 0.09242  0.47495  0.20246  Biso   1.000  C
  H205     1.0000 0.43125  0.89823  0.20593  Biso   1.000  H
  C207     1.0000 0.35959  0.91461  0.17706  Biso   1.000  C
  H206     1.0000 0.43119  0.89823  0.20593  Biso   1.000  H
  H207     1.0000 0.27447  0.93073  0.15332  Biso   1.000  H
  C208     1.0000 0.14228  0.95680  0.15962  Biso   1.000  C
  H208     1.0000 0.14066  0.95600  0.20023  Biso   1.000  H
  H209     1.0000 0.14064  0.95607  0.20023  Biso   1.000  H
  H210     1.0000 0.14060  0.95600  0.20023  Biso   1.000  H
  C209     1.0000 0.69633  0.76176  0.19186  Biso   1.000  C
  C210     1.0000 0.69639  0.76176  0.19186  Biso   1.000  C
  C211     1.0000 0.58128  0.66681  0.22305  Biso   1.000  C
  C212     1.0000 0.58137  0.66688  0.22305  Biso   1.000  C
  C213     1.0000 0.58133  0.66681  0.22305  Biso   1.000  C
  C214     1.0000 0.04323  0.18548  0.15962  Biso   1.000  C
  C215     1.0000 0.04317  0.18548  0.15962  Biso   1.000  C
  H211     1.0000 0.04396  0.18462  0.20023  Biso   1.000  H
  C216     1.0000 0.08534  0.44492  0.17706  Biso   1.000  C
  H212     1.0000 0.06927  0.34376  0.15332  Biso   1.000  H
  C217     1.0000 0.08540  0.44492  0.17706  Biso   1.000  C
  H213     1.0000 0.06932  0.34376  0.15332  Biso   1.000  H
  H214     1.0000 0.10178  0.53305  0.20593  Biso   1.000  H
  H215     1.0000 0.39355  0.91073  0.16282  Biso   1.000  H
  H216     1.0000 0.39349  0.91073  0.16282  Biso   1.000  H
  H217     1.0000 0.19434  0.00395  0.14983  Biso   1.000  H
  H218     1.0000 0.19440  0.00395  0.14983  Biso   1.000  H
  H219     1.0000 0.12164  0.89943  0.15022  Biso   1.000  H
  C218     1.0000 0.06843  0.97900  0.15998  Biso   1.000  C
  H220     1.0000 0.12153  0.89943  0.15022  Biso   1.000  H
  N20      1.0000 0.78026  0.83036  0.18673  Biso   1.000  N
  N21      1.0000 0.78032  0.83036  0.18673  Biso   1.000  N
  C219     1.0000 0.63803  0.71094  0.17139  Biso   1.000  C
  C220     1.0000 0.63814  0.71094  0.17139  Biso   1.000  C
  H221     1.0000 0.56182  0.65163  0.24094  Biso   1.000  H
  C221     1.0000 0.52504  0.61746  0.20246  Biso   1.000  C
  H222     1.0000 0.56187  0.65163  0.24094  Biso   1.000  H
  C222     1.0000 0.02102  0.08940  0.15998  Biso   1.000  C
  C223     1.0000 0.02105  0.08947  0.15998  Biso   1.000  C
  H223     1.0000 0.10058  0.22213  0.15022  Biso   1.000  H
  H224     1.0000 0.10052  0.22213  0.15022  Biso   1.000  H
  H225     1.0000 0.99608  0.19043  0.14983  Biso   1.000  H
  H226     1.0000 0.99602  0.19043  0.14983  Biso   1.000  H
  H227     1.0000 0.08930  0.48284  0.16282  Biso   1.000  H
  H228     1.0000 0.08924  0.48284  0.16282  Biso   1.000  H
  C224     1.0000 0.09009  0.06901  0.16020  Biso   1.000  C
  C225     1.0000 0.09015  0.06901  0.16020  Biso   1.000  C
  C226     1.0000 0.97885  0.90987  0.16020  Biso   1.000  C
  C227     1.0000 0.81443  0.85771  0.15962  Biso   1.000  C
  C228     1.0000 0.81455  0.85771  0.15962  Biso   1.000  C
  H229     1.0000 0.81535  0.85931  0.20023  Biso   1.000  H
  C229     1.0000 0.55502  0.64046  0.17706  Biso   1.000  C
  H230     1.0000 0.65620  0.72552  0.15332  Biso   1.000  H
  C230     1.0000 0.55507  0.64046  0.17706  Biso   1.000  C
  H231     1.0000 0.65626  0.72552  0.15332  Biso   1.000  H
  H232     1.0000 0.46697  0.56872  0.20593  Biso   1.000  H
  C231     1.0000 0.93100  0.02113  0.16020  Biso   1.000  C
  C232     1.0000 0.93094  0.02113  0.16020  Biso   1.000  C
  C233     1.0000 0.18679  0.14276  0.16080  Biso   1.000  C
  C234     1.0000 0.18682  0.14282  0.16080  Biso   1.000  C
  C235     1.0000 0.18688  0.14282  0.16080  Biso   1.000  C
  C236     1.0000 0.91050  0.93160  0.15998  Biso   1.000  C
  C237     1.0000 0.95598  0.81318  0.16080  Biso   1.000  C
  C238     1.0000 0.91055  0.93160  0.15998  Biso   1.000  C
  H233     1.0000 0.80952  0.80562  0.14983  Biso   1.000  H
  H234     1.0000 0.77783  0.87844  0.15022  Biso   1.000  H
  H235     1.0000 0.51710  0.60643  0.16282  Biso   1.000  H
  H236     1.0000 0.51721  0.60643  0.16282  Biso   1.000  H
  C239     1.0000 0.85723  0.04406  0.16080  Biso   1.000  C
  C240     1.0000 0.85717  0.04406  0.16080  Biso   1.000  C
  H237     1.0000 0.19170  0.19485  0.17054  Biso   1.000  H
  H238     1.0000 0.22278  0.12163  0.17044  Biso   1.000  H
  C241     1.0000 0.22476  0.17191  0.13307  Biso   1.000  C
  H239     1.0000 0.19164  0.19485  0.17054  Biso   1.000  H
  H240     1.0000 0.22272  0.12163  0.17044  Biso   1.000  H
  C242     1.0000 0.22470  0.17191  0.13307  Biso   1.000  C
  H241     1.0000 0.89883  0.77727  0.17044  Biso   1.000  H
  C243     1.0000 0.94716  0.77527  0.13307  Biso   1.000  C
  H242     1.0000 0.89889  0.77727  0.17044  Biso   1.000  H
  H243     1.0000 0.00320  0.80836  0.17054  Biso   1.000  H
  H244     1.0000 0.80519  0.99686  0.17054  Biso   1.000  H
  H245     1.0000 0.87833  0.10110  0.17044  Biso   1.000  H
  C244     1.0000 0.82808  0.05282  0.13307  Biso   1.000  C
  C245     1.0000 0.82802  0.05282  0.13307  Biso   1.000  C
  H246     1.0000 0.28714  0.22012  0.13422  Biso   1.000  H
  H247     1.0000 0.22184  0.12103  0.12353  Biso   1.000  H
  H248     1.0000 0.18978  0.19344  0.12343  Biso   1.000  H
  H249     1.0000 0.18972  0.19344  0.12343  Biso   1.000  H
  H250     1.0000 0.28720  0.22012  0.13422  Biso   1.000  H
  H251     1.0000 0.22190  0.12103  0.12353  Biso   1.000  H
  H252     1.0000 0.93290  0.71281  0.13422  Biso   1.000  H
  H253     1.0000 0.89909  0.77814  0.12353  Biso   1.000  H
  H254     1.0000 0.93302  0.71281  0.13422  Biso   1.000  H
  H255     1.0000 0.89915  0.77814  0.12353  Biso   1.000  H
  H256     1.0000 0.00368  0.81024  0.12343  Biso   1.000  H
  H257     1.0000 0.80655  0.99632  0.12343  Biso   1.000  H
  H258     1.0000 0.80660  0.99632  0.12343  Biso   1.000  H
  H259     1.0000 0.77987  0.06700  0.13422  Biso   1.000  H
  H260     1.0000 0.87895  0.10083  0.12353  Biso   1.000  H
  H261     1.0000 0.77990  0.06707  0.13422  Biso   1.000  H
  H262     1.0000 0.77981  0.06700  0.13422  Biso   1.000  H
  H263     1.0000 0.77984  0.06707  0.13422  Biso   1.000  H
  C246     1.0000 0.17195  0.22473  0.36693  Biso   1.000  C
  C247     1.0000 0.14275  0.18682  0.33920  Biso   1.000  C
  C248     1.0000 0.14281  0.18682  0.33920  Biso   1.000  C
  H264     1.0000 0.22015  0.28719  0.36576  Biso   1.000  H
  H265     1.0000 0.12101  0.22186  0.37647  Biso   1.000  H
  H266     1.0000 0.19344  0.18976  0.37657  Biso   1.000  H
  H267     1.0000 0.19338  0.18976  0.37657  Biso   1.000  H
  H268     1.0000 0.12106  0.22186  0.37647  Biso   1.000  H
  C249     1.0000 0.06898  0.09013  0.33980  Biso   1.000  C
  C250     1.0000 0.06904  0.09013  0.33980  Biso   1.000  C
  C251     1.0000 0.17190  0.22473  0.36693  Biso   1.000  C
  H269     1.0000 0.19478  0.19164  0.32946  Biso   1.000  H
  H270     1.0000 0.12161  0.22273  0.32956  Biso   1.000  H
  H271     1.0000 0.19484  0.19164  0.32946  Biso   1.000  H
  H272     1.0000 0.12165  0.22280  0.32956  Biso   1.000  H
  C252     1.0000 0.08946  0.02106  0.34002  Biso   1.000  C
  C253     1.0000 0.08943  0.02100  0.34002  Biso   1.000  C
  C254     1.0000 0.08937  0.02100  0.34002  Biso   1.000  C
  C255     1.0000 0.97896  0.06840  0.34002  Biso   1.000  C
  C256     1.0000 0.18548  0.04320  0.34038  Biso   1.000  C
  C257     1.0000 0.18551  0.04326  0.34038  Biso   1.000  C
  C258     1.0000 0.18557  0.04326  0.34038  Biso   1.000  C
  C259     1.0000 0.02115  0.93099  0.33980  Biso   1.000  C
  C260     1.0000 0.90981  0.97887  0.33980  Biso   1.000  C
  C261     1.0000 0.90993  0.97887  0.33980  Biso   1.000  C
  C262     1.0000 0.95678  0.14229  0.34038  Biso   1.000  C
  C263     1.0000 0.95672  0.14229  0.34038  Biso   1.000  C
  N22      1.0000 0.21973  0.05008  0.31325  Biso   1.000  N
  H273     1.0000 0.22209  0.10057  0.34976  Biso   1.000  H
  H274     1.0000 0.22215  0.10057  0.34976  Biso   1.000  H
  H275     1.0000 0.19040  0.99605  0.35016  Biso   1.000  H
  C264     1.0000 0.93162  0.91060  0.34002  Biso   1.000  C
  C265     1.0000 0.93167  0.91060  0.34002  Biso   1.000  C
  C266     1.0000 0.04409  0.85724  0.33920  Biso   1.000  C
  C267     1.0000 0.81316  0.95594  0.33920  Biso   1.000  C
  C268     1.0000 0.81326  0.95600  0.33920  Biso   1.000  C
  C269     1.0000 0.81322  0.95594  0.33920  Biso   1.000  C
  C270     1.0000 0.81320  0.95600  0.33920  Biso   1.000  C
  H276     1.0000 0.00390  0.19438  0.35016  Biso   1.000  H
  H277     1.0000 0.00396  0.19438  0.35016  Biso   1.000  H
  H278     1.0000 0.89945  0.12156  0.34976  Biso   1.000  H
  N23      1.0000 0.94990  0.16964  0.31325  Biso   1.000  N
  H279     1.0000 0.89939  0.12156  0.34976  Biso   1.000  H
  C271     1.0000 0.30361  0.06533  0.30814  Biso   1.000  C
  H280     1.0000 0.18460  0.04400  0.29977  Biso   1.000  H
  H281     1.0000 0.18466  0.04400  0.29977  Biso   1.000  H
  C272     1.0000 0.85769  0.81452  0.34038  Biso   1.000  C
  C273     1.0000 0.05285  0.82809  0.36693  Biso   1.000  C
  H282     1.0000 0.99679  0.80515  0.32946  Biso   1.000  H
  H283     1.0000 0.10115  0.87837  0.32956  Biso   1.000  H
  H284     1.0000 0.10109  0.87837  0.32956  Biso   1.000  H
  H285     1.0000 0.77723  0.89890  0.32956  Biso   1.000  H
  C274     1.0000 0.77526  0.94718  0.36693  Biso   1.000  C
  H286     1.0000 0.80833  0.00314  0.32946  Biso   1.000  H
  H287     1.0000 0.80828  0.00314  0.32946  Biso   1.000  H
  C275     1.0000 0.93463  0.23824  0.30814  Biso   1.000  C
  H288     1.0000 0.95603  0.14069  0.29977  Biso   1.000  H
  C276     1.0000 0.93457  0.23824  0.30814  Biso   1.000  C
  H289     1.0000 0.95598  0.14069  0.29977  Biso   1.000  H
  C277     1.0000 0.33441  0.07248  0.28210  Biso   1.000  C
  C278     1.0000 0.33446  0.07248  0.28210  Biso   1.000  C
  C279     1.0000 0.36194  0.07288  0.32861  Biso   1.000  C
  H290     1.0000 0.80565  0.80957  0.35016  Biso   1.000  H
  H291     1.0000 0.87846  0.77787  0.34976  Biso   1.000  H
  N24      1.0000 0.83038  0.78028  0.31325  Biso   1.000  N
  H292     1.0000 0.99634  0.80656  0.37657  Biso   1.000  H
  H293     1.0000 0.06702  0.77988  0.36576  Biso   1.000  H
  H294     1.0000 0.10087  0.87897  0.37647  Biso   1.000  H
  H295     1.0000 0.71287  0.93300  0.36576  Biso   1.000  H
  H296     1.0000 0.77806  0.89917  0.37647  Biso   1.000  H
  H297     1.0000 0.77812  0.89917  0.37647  Biso   1.000  H
  H298     1.0000 0.81022  0.00368  0.37657  Biso   1.000  H
  C280     1.0000 0.92756  0.26198  0.28210  Biso   1.000  C
  C281     1.0000 0.92715  0.28906  0.32861  Biso   1.000  C
  C282     1.0000 0.92750  0.26198  0.28210  Biso   1.000  C
  C283     1.0000 0.92709  0.28906  0.32861  Biso   1.000  C
  S23      1.0000 0.26496  0.06620  0.25527  Biso   1.000  S
  C284     1.0000 0.41860  0.08545  0.27695  Biso   1.000  C
  S24      1.0000 0.26502  0.06620  0.25527  Biso   1.000  S
  C285     1.0000 0.41866  0.08545  0.27695  Biso   1.000  C
  C286     1.0000 0.44492  0.08539  0.32294  Biso   1.000  C
  C287     1.0000 0.44498  0.08539  0.32294  Biso   1.000  C
  H299     1.0000 0.34369  0.06927  0.34666  Biso   1.000  H
  H300     1.0000 0.34375  0.06927  0.34666  Biso   1.000  H
  C288     1.0000 0.76167  0.69636  0.30814  Biso   1.000  C
  H301     1.0000 0.85928  0.81538  0.29977  Biso   1.000  H
  C289     1.0000 0.76178  0.69636  0.30814  Biso   1.000  C
  H302     1.0000 0.85934  0.81538  0.29977  Biso   1.000  H
  C290     1.0000 0.91453  0.33319  0.27695  Biso   1.000  C
  S25      1.0000 0.93384  0.19879  0.25527  Biso   1.000  S
  S26      1.0000 0.93378  0.19879  0.25527  Biso   1.000  S
  C291     1.0000 0.91461  0.35954  0.32294  Biso   1.000  C
  H303     1.0000 0.93074  0.27448  0.34666  Biso   1.000  H
  H304     1.0000 0.93069  0.27448  0.34666  Biso   1.000  H
  S27      1.0000 0.19882  0.93380  0.24473  Biso   1.000  S
  S28      1.0000 0.19885  0.93387  0.24473  Biso   1.000  S
  C292     1.0000 0.47492  0.09234  0.29754  Biso   1.000  C
  H305     1.0000 0.43815  0.08980  0.25906  Biso   1.000  H
  H306     1.0000 0.43811  0.08973  0.25906  Biso   1.000  H
  H307     1.0000 0.43806  0.08973  0.25906  Biso   1.000  H
  H308     1.0000 0.48282  0.08927  0.33716  Biso   1.000  H
  C293     1.0000 0.71092  0.63806  0.32861  Biso   1.000  C
  C294     1.0000 0.73801  0.66561  0.28210  Biso   1.000  C
  C295     1.0000 0.73812  0.66561  0.28210  Biso   1.000  C
  H309     1.0000 0.91024  0.34837  0.25906  Biso   1.000  H
  C296     1.0000 0.90764  0.38254  0.29754  Biso   1.000  C
  C297     1.0000 0.90758  0.38254  0.29754  Biso   1.000  C
  H310     1.0000 0.91019  0.34837  0.25906  Biso   1.000  H
  S29      1.0000 0.06613  0.26499  0.24473  Biso   1.000  S
  S30      1.0000 0.06619  0.26499  0.24473  Biso   1.000  S
  H311     1.0000 0.91072  0.39357  0.33716  Biso   1.000  H
  C298     1.0000 0.26192  0.92752  0.21790  Biso   1.000  C
  H312     1.0000 0.53302  0.10177  0.29407  Biso   1.000  H
  H313     1.0000 0.72551  0.65624  0.34666  Biso   1.000  H
  C299     1.0000 0.64036  0.55508  0.32294  Biso   1.000  C
  C300     1.0000 0.64041  0.55508  0.32294  Biso   1.000  C
  C301     1.0000 0.66681  0.58136  0.27695  Biso   1.000  C
  S31      1.0000 0.80120  0.73501  0.25527  Biso   1.000  S
  H314     1.0000 0.89825  0.43128  0.29407  Biso   1.000  H
  H315     1.0000 0.89819  0.43128  0.29407  Biso   1.000  H
  C302     1.0000 0.07249  0.33446  0.21790  Biso   1.000  C
  C303     1.0000 0.07246  0.33439  0.21790  Biso   1.000  C
  C304     1.0000 0.07240  0.33439  0.21790  Biso   1.000  C
  C305     1.0000 0.33321  0.91455  0.22305  Biso   1.000  C
  C306     1.0000 0.23828  0.93467  0.19186  Biso   1.000  C
  C307     1.0000 0.23823  0.93467  0.19186  Biso   1.000  C
  C308     1.0000 0.61741  0.52505  0.29754  Biso   1.000  C
  H316     1.0000 0.60646  0.51716  0.33716  Biso   1.000  H
  H317     1.0000 0.65164  0.56190  0.25906  Biso   1.000  H
  H318     1.0000 0.65170  0.56190  0.25906  Biso   1.000  H
  S32      1.0000 0.73499  0.80121  0.24473  Biso   1.000  S
  C309     1.0000 0.06536  0.30364  0.19186  Biso   1.000  C
  C310     1.0000 0.08546  0.41864  0.22305  Biso   1.000  C
  C311     1.0000 0.08552  0.41864  0.22305  Biso   1.000  C
  C312     1.0000 0.38257  0.90766  0.20246  Biso   1.000  C
  H319     1.0000 0.34844  0.91027  0.24094  Biso   1.000  H
  H320     1.0000 0.34832  0.91027  0.24094  Biso   1.000  H
  C313     1.0000 0.28911  0.92712  0.17139  Biso   1.000  C
  N25      1.0000 0.16964  0.94992  0.18673  Biso   1.000  N
  C314     1.0000 0.28900  0.92712  0.17139  Biso   1.000  C
  N26      1.0000 0.16959  0.94992  0.18673  Biso   1.000  N
  H321     1.0000 0.56873  0.46695  0.29407  Biso   1.000  H
  H322     1.0000 0.56876  0.46701  0.29407  Biso   1.000  H
  C315     1.0000 0.66552  0.73802  0.21790  Biso   1.000  C
  N27      1.0000 0.05004  0.21972  0.18673  Biso   1.000  N
  N28      1.0000 0.05010  0.21972  0.18673  Biso   1.000  N
  C316     1.0000 0.07286  0.36194  0.17139  Biso   1.000  C
  C317     1.0000 0.07292  0.36194  0.17139  Biso   1.000  C
  C318     1.0000 0.09236  0.47495  0.20246  Biso   1.000  C
  C319     1.0000 0.09242  0.47495  0.20246  Biso   1.000  C
  H323     1.0000 0.08974  0.43810  0.24094  Biso   1.000  H
  H324     1.0000 0.43125  0.89823  0.20593  Biso   1.000  H
  C320     1.0000 0.35959  0.91461  0.17706  Biso   1.000  C
  H325     1.0000 0.43119  0.89823  0.20593  Biso   1.000  H
  H326     1.0000 0.27447  0.93073  0.15332  Biso   1.000  H
  C321     1.0000 0.14228  0.95680  0.15962  Biso   1.000  C
  H327     1.0000 0.14066  0.95600  0.20023  Biso   1.000  H
  H328     1.0000 0.14064  0.95607  0.20023  Biso   1.000  H
  H329     1.0000 0.14060  0.95600  0.20023  Biso   1.000  H
  C322     1.0000 0.69633  0.76176  0.19186  Biso   1.000  C
  C323     1.0000 0.69639  0.76176  0.19186  Biso   1.000  C
  C324     1.0000 0.58128  0.66681  0.22305  Biso   1.000  C
  C325     1.0000 0.58137  0.66688  0.22305  Biso   1.000  C
  C326     1.0000 0.58133  0.66681  0.22305  Biso   1.000  C
  C327     1.0000 0.04317  0.18548  0.15962  Biso   1.000  C
  C328     1.0000 0.04323  0.18548  0.15962  Biso   1.000  C
  H330     1.0000 0.04396  0.18462  0.20023  Biso   1.000  H
  C329     1.0000 0.08534  0.44492  0.17706  Biso   1.000  C
  H331     1.0000 0.06927  0.34376  0.15332  Biso   1.000  H
  C330     1.0000 0.08540  0.44492  0.17706  Biso   1.000  C
  H332     1.0000 0.06932  0.34376  0.15332  Biso   1.000  H
  H333     1.0000 0.10178  0.53305  0.20593  Biso   1.000  H
  H334     1.0000 0.39355  0.91073  0.16282  Biso   1.000  H
  H335     1.0000 0.39349  0.91073  0.16282  Biso   1.000  H
  C331     1.0000 0.06843  0.97900  0.15998  Biso   1.000  C
  H336     1.0000 0.19434  0.00395  0.14983  Biso   1.000  H
  H337     1.0000 0.12164  0.89943  0.15022  Biso   1.000  H
  H338     1.0000 0.12153  0.89943  0.15022  Biso   1.000  H
  H339     1.0000 0.19440  0.00395  0.14983  Biso   1.000  H
  N29      1.0000 0.78026  0.83036  0.18673  Biso   1.000  N
  N30      1.0000 0.78032  0.83036  0.18673  Biso   1.000  N
  C332     1.0000 0.63803  0.71094  0.17139  Biso   1.000  C
  C333     1.0000 0.63814  0.71094  0.17139  Biso   1.000  C
  H340     1.0000 0.56182  0.65163  0.24094  Biso   1.000  H
  C334     1.0000 0.52504  0.61746  0.20246  Biso   1.000  C
  H341     1.0000 0.56187  0.65163  0.24094  Biso   1.000  H
  C335     1.0000 0.02102  0.08940  0.15998  Biso   1.000  C
  C336     1.0000 0.02105  0.08947  0.15998  Biso   1.000  C
  H342     1.0000 0.10052  0.22213  0.15022  Biso   1.000  H
  H343     1.0000 0.10058  0.22213  0.15022  Biso   1.000  H
  H344     1.0000 0.99608  0.19043  0.14983  Biso   1.000  H
  H345     1.0000 0.99602  0.19043  0.14983  Biso   1.000  H
  H346     1.0000 0.08924  0.48284  0.16282  Biso   1.000  H
  H347     1.0000 0.08930  0.48284  0.16282  Biso   1.000  H
  C337     1.0000 0.09009  0.06901  0.16020  Biso   1.000  C
  C338     1.0000 0.97885  0.90987  0.16020  Biso   1.000  C
  C339     1.0000 0.09015  0.06901  0.16020  Biso   1.000  C
  H348     1.0000 0.81535  0.85931  0.20023  Biso   1.000  H
  C340     1.0000 0.81443  0.85771  0.15962  Biso   1.000  C
  C341     1.0000 0.81455  0.85771  0.15962  Biso   1.000  C
  C342     1.0000 0.55502  0.64046  0.17706  Biso   1.000  C
  H349     1.0000 0.65620  0.72552  0.15332  Biso   1.000  H
  C343     1.0000 0.55507  0.64046  0.17706  Biso   1.000  C
  H350     1.0000 0.65626  0.72552  0.15332  Biso   1.000  H
  H351     1.0000 0.46697  0.56872  0.20593  Biso   1.000  H
  C344     1.0000 0.93100  0.02113  0.16020  Biso   1.000  C
  C345     1.0000 0.93094  0.02113  0.16020  Biso   1.000  C
  C346     1.0000 0.18679  0.14276  0.16080  Biso   1.000  C
  C347     1.0000 0.18682  0.14282  0.16080  Biso   1.000  C
  C348     1.0000 0.18688  0.14282  0.16080  Biso   1.000  C
  C349     1.0000 0.91050  0.93160  0.15998  Biso   1.000  C
  C350     1.0000 0.95598  0.81318  0.16080  Biso   1.000  C
  C351     1.0000 0.91055  0.93160  0.15998  Biso   1.000  C
  H352     1.0000 0.80952  0.80562  0.14983  Biso   1.000  H
  H353     1.0000 0.77783  0.87844  0.15022  Biso   1.000  H
  H354     1.0000 0.51710  0.60643  0.16282  Biso   1.000  H
  H355     1.0000 0.51721  0.60643  0.16282  Biso   1.000  H
  C352     1.0000 0.85723  0.04406  0.16080  Biso   1.000  C
  C353     1.0000 0.85717  0.04406  0.16080  Biso   1.000  C
  C354     1.0000 0.22476  0.17191  0.13307  Biso   1.000  C
  H356     1.0000 0.19164  0.19485  0.17054  Biso   1.000  H
  H357     1.0000 0.22272  0.12163  0.17044  Biso   1.000  H
  H358     1.0000 0.19170  0.19485  0.17054  Biso   1.000  H
  H359     1.0000 0.22278  0.12163  0.17044  Biso   1.000  H
  C355     1.0000 0.22470  0.17191  0.13307  Biso   1.000  C
  C356     1.0000 0.94716  0.77527  0.13307  Biso   1.000  C
  H360     1.0000 0.00320  0.80836  0.17054  Biso   1.000  H
  H361     1.0000 0.89883  0.77727  0.17044  Biso   1.000  H
  H362     1.0000 0.89889  0.77727  0.17044  Biso   1.000  H
  H363     1.0000 0.80519  0.99686  0.17054  Biso   1.000  H
  H364     1.0000 0.87833  0.10110  0.17044  Biso   1.000  H
  C357     1.0000 0.82808  0.05282  0.13307  Biso   1.000  C
  C358     1.0000 0.82802  0.05282  0.13307  Biso   1.000  C
  H365     1.0000 0.28714  0.22012  0.13422  Biso   1.000  H
  H366     1.0000 0.22184  0.12103  0.12353  Biso   1.000  H
  H367     1.0000 0.18978  0.19344  0.12343  Biso   1.000  H
  H368     1.0000 0.18972  0.19344  0.12343  Biso   1.000  H
  H369     1.0000 0.28720  0.22012  0.13422  Biso   1.000  H
  H370     1.0000 0.22190  0.12103  0.12353  Biso   1.000  H
  H371     1.0000 0.00368  0.81024  0.12343  Biso   1.000  H
  H372     1.0000 0.93290  0.71281  0.13422  Biso   1.000  H
  H373     1.0000 0.89909  0.77814  0.12353  Biso   1.000  H
  H374     1.0000 0.93302  0.71281  0.13422  Biso   1.000  H
  H375     1.0000 0.89915  0.77814  0.12353  Biso   1.000  H
  H376     1.0000 0.80655  0.99632  0.12343  Biso   1.000  H
  H377     1.0000 0.80660  0.99632  0.12343  Biso   1.000  H
  H378     1.0000 0.77987  0.06700  0.13422  Biso   1.000  H
  H379     1.0000 0.87895  0.10083  0.12353  Biso   1.000  H
  H380     1.0000 0.77990  0.06707  0.13422  Biso   1.000  H
  H381     1.0000 0.77981  0.06700  0.13422  Biso   1.000  H
  H382     1.0000 0.77984  0.06707  0.13422  Biso   1.000  H
  C359     1.0000 0.17195  0.22473  0.36693  Biso   1.000  C
  C360     1.0000 0.14281  0.18682  0.33920  Biso   1.000  C
  C361     1.0000 0.14275  0.18682  0.33920  Biso   1.000  C
  H383     1.0000 0.22015  0.28719  0.36576  Biso   1.000  H
  H384     1.0000 0.12101  0.22186  0.37647  Biso   1.000  H
  H385     1.0000 0.19344  0.18976  0.37657  Biso   1.000  H
  H386     1.0000 0.19338  0.18976  0.37657  Biso   1.000  H
  H387     1.0000 0.12106  0.22186  0.37647  Biso   1.000  H
  C362     1.0000 0.06904  0.09013  0.33980  Biso   1.000  C
  C363     1.0000 0.06898  0.09013  0.33980  Biso   1.000  C
  C364     1.0000 0.17190  0.22473  0.36693  Biso   1.000  C
  H388     1.0000 0.19484  0.19164  0.32946  Biso   1.000  H
  H389     1.0000 0.12161  0.22273  0.32956  Biso   1.000  H
  H390     1.0000 0.19478  0.19164  0.32946  Biso   1.000  H
  H391     1.0000 0.12165  0.22280  0.32956  Biso   1.000  H
  C365     1.0000 0.08943  0.02100  0.34002  Biso   1.000  C
  C366     1.0000 0.08946  0.02106  0.34002  Biso   1.000  C
  C367     1.0000 0.08937  0.02100  0.34002  Biso   1.000  C
  C368     1.0000 0.97896  0.06840  0.34002  Biso   1.000  C
  C369     1.0000 0.18548  0.04320  0.34038  Biso   1.000  C
  C370     1.0000 0.18551  0.04326  0.34038  Biso   1.000  C
  C371     1.0000 0.18557  0.04326  0.34038  Biso   1.000  C
  C372     1.0000 0.02115  0.93099  0.33980  Biso   1.000  C
  C373     1.0000 0.90981  0.97887  0.33980  Biso   1.000  C
  C374     1.0000 0.90993  0.97887  0.33980  Biso   1.000  C
  C375     1.0000 0.95678  0.14229  0.34038  Biso   1.000  C
  C376     1.0000 0.95672  0.14229  0.34038  Biso   1.000  C
  N31      1.0000 0.21973  0.05008  0.31325  Biso   1.000  N
  H392     1.0000 0.19040  0.99605  0.35016  Biso   1.000  H
  H393     1.0000 0.22215  0.10057  0.34976  Biso   1.000  H
  H394     1.0000 0.22209  0.10057  0.34976  Biso   1.000  H
  C377     1.0000 0.93162  0.91060  0.34002  Biso   1.000  C
  C378     1.0000 0.93167  0.91060  0.34002  Biso   1.000  C
  C379     1.0000 0.04409  0.85724  0.33920  Biso   1.000  C
  C380     1.0000 0.81316  0.95594  0.33920  Biso   1.000  C
  C381     1.0000 0.81326  0.95600  0.33920  Biso   1.000  C
  C382     1.0000 0.81322  0.95594  0.33920  Biso   1.000  C
  C383     1.0000 0.81320  0.95600  0.33920  Biso   1.000  C
  H395     1.0000 0.89945  0.12156  0.34976  Biso   1.000  H
  N32      1.0000 0.94990  0.16964  0.31325  Biso   1.000  N
  H396     1.0000 0.89939  0.12156  0.34976  Biso   1.000  H
  H397     1.0000 0.00396  0.19438  0.35016  Biso   1.000  H
  H398     1.0000 0.00390  0.19438  0.35016  Biso   1.000  H
  C384     1.0000 0.30361  0.06533  0.30814  Biso   1.000  C
  H399     1.0000 0.18466  0.04400  0.29977  Biso   1.000  H
  H400     1.0000 0.18460  0.04400  0.29977  Biso   1.000  H
  C385     1.0000 0.85769  0.81452  0.34038  Biso   1.000  C
  C386     1.0000 0.05285  0.82809  0.36693  Biso   1.000  C
  H401     1.0000 0.99679  0.80515  0.32946  Biso   1.000  H
  H402     1.0000 0.10115  0.87837  0.32956  Biso   1.000  H
  H403     1.0000 0.10109  0.87837  0.32956  Biso   1.000  H
  H404     1.0000 0.77723  0.89890  0.32956  Biso   1.000  H
  C387     1.0000 0.77526  0.94718  0.36693  Biso   1.000  C
  H405     1.0000 0.80833  0.00314  0.32946  Biso   1.000  H
  H406     1.0000 0.80828  0.00314  0.32946  Biso   1.000  H
  C388     1.0000 0.93463  0.23824  0.30814  Biso   1.000  C
  H407     1.0000 0.95603  0.14069  0.29977  Biso   1.000  H
  C389     1.0000 0.93457  0.23824  0.30814  Biso   1.000  C
  H408     1.0000 0.95598  0.14069  0.29977  Biso   1.000  H
  C390     1.0000 0.33441  0.07248  0.28210  Biso   1.000  C
  C391     1.0000 0.33446  0.07248  0.28210  Biso   1.000  C
  C392     1.0000 0.36194  0.07288  0.32861  Biso   1.000  C
  H409     1.0000 0.80565  0.80957  0.35016  Biso   1.000  H
  H410     1.0000 0.87846  0.77787  0.34976  Biso   1.000  H
  N33      1.0000 0.83038  0.78028  0.31325  Biso   1.000  N
  H411     1.0000 0.99634  0.80656  0.37657  Biso   1.000  H
  H412     1.0000 0.06702  0.77988  0.36576  Biso   1.000  H
  H413     1.0000 0.10087  0.87897  0.37647  Biso   1.000  H
  H414     1.0000 0.71287  0.93300  0.36576  Biso   1.000  H
  H415     1.0000 0.77806  0.89917  0.37647  Biso   1.000  H
  H416     1.0000 0.77812  0.89917  0.37647  Biso   1.000  H
  H417     1.0000 0.81022  0.00368  0.37657  Biso   1.000  H
  C393     1.0000 0.92756  0.26198  0.28210  Biso   1.000  C
  C394     1.0000 0.92715  0.28906  0.32861  Biso   1.000  C
  C395     1.0000 0.92750  0.26198  0.28210  Biso   1.000  C
  C396     1.0000 0.92709  0.28906  0.32861  Biso   1.000  C
  C397     1.0000 0.41860  0.08545  0.27695  Biso   1.000  C
  S33      1.0000 0.26502  0.06620  0.25527  Biso   1.000  S
  S34      1.0000 0.26496  0.06620  0.25527  Biso   1.000  S
  C398     1.0000 0.41866  0.08545  0.27695  Biso   1.000  C
  C399     1.0000 0.44492  0.08539  0.32294  Biso   1.000  C
  C400     1.0000 0.44498  0.08539  0.32294  Biso   1.000  C
  H418     1.0000 0.34375  0.06927  0.34666  Biso   1.000  H
  H419     1.0000 0.34369  0.06927  0.34666  Biso   1.000  H
  C401     1.0000 0.76167  0.69636  0.30814  Biso   1.000  C
  H420     1.0000 0.85928  0.81538  0.29977  Biso   1.000  H
  C402     1.0000 0.76178  0.69636  0.30814  Biso   1.000  C
  H421     1.0000 0.85934  0.81538  0.29977  Biso   1.000  H
  C403     1.0000 0.91453  0.33319  0.27695  Biso   1.000  C
  S35      1.0000 0.93384  0.19879  0.25527  Biso   1.000  S
  S36      1.0000 0.93378  0.19879  0.25527  Biso   1.000  S
  C404     1.0000 0.91461  0.35954  0.32294  Biso   1.000  C
  H422     1.0000 0.93074  0.27448  0.34666  Biso   1.000  H
  H423     1.0000 0.93069  0.27448  0.34666  Biso   1.000  H
  C405     1.0000 0.47492  0.09234  0.29754  Biso   1.000  C
  H424     1.0000 0.43811  0.08973  0.25906  Biso   1.000  H
  H425     1.0000 0.43815  0.08980  0.25906  Biso   1.000  H
  H426     1.0000 0.43806  0.08973  0.25906  Biso   1.000  H
  S37      1.0000 0.19882  0.93380  0.24473  Biso   1.000  S
  S38      1.0000 0.19885  0.93387  0.24473  Biso   1.000  S
  H427     1.0000 0.48282  0.08927  0.33716  Biso   1.000  H
  C406     1.0000 0.71092  0.63806  0.32861  Biso   1.000  C
  C407     1.0000 0.73801  0.66561  0.28210  Biso   1.000  C
  C408     1.0000 0.73812  0.66561  0.28210  Biso   1.000  C
  H428     1.0000 0.91024  0.34837  0.25906  Biso   1.000  H
  C409     1.0000 0.90764  0.38254  0.29754  Biso   1.000  C
  C410     1.0000 0.90758  0.38254  0.29754  Biso   1.000  C
  H429     1.0000 0.91019  0.34837  0.25906  Biso   1.000  H
  S39      1.0000 0.06619  0.26499  0.24473  Biso   1.000  S
  S40      1.0000 0.06613  0.26499  0.24473  Biso   1.000  S
  H430     1.0000 0.91072  0.39357  0.33716  Biso   1.000  H
  H431     1.0000 0.53302  0.10177  0.29407  Biso   1.000  H
  C411     1.0000 0.26192  0.92752  0.21790  Biso   1.000  C
  H432     1.0000 0.72551  0.65624  0.34666  Biso   1.000  H
  C412     1.0000 0.64036  0.55508  0.32294  Biso   1.000  C
  C413     1.0000 0.64041  0.55508  0.32294  Biso   1.000  C
  C414     1.0000 0.66681  0.58136  0.27695  Biso   1.000  C
  S41      1.0000 0.80120  0.73501  0.25527  Biso   1.000  S
  H433     1.0000 0.89825  0.43128  0.29407  Biso   1.000  H
  H434     1.0000 0.89819  0.43128  0.29407  Biso   1.000  H
  C415     1.0000 0.07246  0.33439  0.21790  Biso   1.000  C
  C416     1.0000 0.07249  0.33446  0.21790  Biso   1.000  C
  C417     1.0000 0.07240  0.33439  0.21790  Biso   1.000  C
  C418     1.0000 0.33321  0.91455  0.22305  Biso   1.000  C
  C419     1.0000 0.23828  0.93467  0.19186  Biso   1.000  C
  C420     1.0000 0.23823  0.93467  0.19186  Biso   1.000  C
  C421     1.0000 0.61741  0.52505  0.29754  Biso   1.000  C
  H435     1.0000 0.60646  0.51716  0.33716  Biso   1.000  H
  H436     1.0000 0.65164  0.56190  0.25906  Biso   1.000  H
  H437     1.0000 0.65170  0.56190  0.25906  Biso   1.000  H
  S42      1.0000 0.73499  0.80121  0.24473  Biso   1.000  S
  C422     1.0000 0.06536  0.30364  0.19186  Biso   1.000  C
  C423     1.0000 0.08546  0.41864  0.22305  Biso   1.000  C
  C424     1.0000 0.08552  0.41864  0.22305  Biso   1.000  C
  C425     1.0000 0.38257  0.90766  0.20246  Biso   1.000  C
  H438     1.0000 0.34844  0.91027  0.24094  Biso   1.000  H
  H439     1.0000 0.34832  0.91027  0.24094  Biso   1.000  H
  C426     1.0000 0.28911  0.92712  0.17139  Biso   1.000  C
  N34      1.0000 0.16964  0.94992  0.18673  Biso   1.000  N
  C427     1.0000 0.28900  0.92712  0.17139  Biso   1.000  C
  N35      1.0000 0.16959  0.94992  0.18673  Biso   1.000  N
  H440     1.0000 0.56873  0.46695  0.29407  Biso   1.000  H
  H441     1.0000 0.56876  0.46701  0.29407  Biso   1.000  H
  C428     1.0000 0.66552  0.73802  0.21790  Biso   1.000  C
  N36      1.0000 0.05010  0.21972  0.18673  Biso   1.000  N
  N37      1.0000 0.05004  0.21972  0.18673  Biso   1.000  N
  C429     1.0000 0.07286  0.36194  0.17139  Biso   1.000  C
  C430     1.0000 0.07292  0.36194  0.17139  Biso   1.000  C
  H442     1.0000 0.08974  0.43810  0.24094  Biso   1.000  H
  C431     1.0000 0.09236  0.47495  0.20246  Biso   1.000  C
  C432     1.0000 0.09242  0.47495  0.20246  Biso   1.000  C
  H443     1.0000 0.43125  0.89823  0.20593  Biso   1.000  H
  C433     1.0000 0.35959  0.91461  0.17706  Biso   1.000  C
  H444     1.0000 0.43119  0.89823  0.20593  Biso   1.000  H
  H445     1.0000 0.27447  0.93073  0.15332  Biso   1.000  H
  C434     1.0000 0.14228  0.95680  0.15962  Biso   1.000  C
  H446     1.0000 0.14066  0.95600  0.20023  Biso   1.000  H
  H447     1.0000 0.14064  0.95607  0.20023  Biso   1.000  H
  H448     1.0000 0.14060  0.95600  0.20023  Biso   1.000  H
  C435     1.0000 0.69633  0.76176  0.19186  Biso   1.000  C
  C436     1.0000 0.69639  0.76176  0.19186  Biso   1.000  C
  C437     1.0000 0.58128  0.66681  0.22305  Biso   1.000  C
  C438     1.0000 0.58137  0.66688  0.22305  Biso   1.000  C
  C439     1.0000 0.58133  0.66681  0.22305  Biso   1.000  C
  C440     1.0000 0.04323  0.18548  0.15962  Biso   1.000  C
  C441     1.0000 0.04317  0.18548  0.15962  Biso   1.000  C
  H449     1.0000 0.04396  0.18462  0.20023  Biso   1.000  H
  C442     1.0000 0.08534  0.44492  0.17706  Biso   1.000  C
  H450     1.0000 0.06927  0.34376  0.15332  Biso   1.000  H
  C443     1.0000 0.08540  0.44492  0.17706  Biso   1.000  C
  H451     1.0000 0.06932  0.34376  0.15332  Biso   1.000  H
  H452     1.0000 0.10178  0.53305  0.20593  Biso   1.000  H
  H453     1.0000 0.39355  0.91073  0.16282  Biso   1.000  H
  H454     1.0000 0.39349  0.91073  0.16282  Biso   1.000  H
  C444     1.0000 0.06843  0.97900  0.15998  Biso   1.000  C
  H455     1.0000 0.19434  0.00395  0.14983  Biso   1.000  H
  H456     1.0000 0.12164  0.89943  0.15022  Biso   1.000  H
  H457     1.0000 0.12153  0.89943  0.15022  Biso   1.000  H
  H458     1.0000 0.19440  0.00395  0.14983  Biso   1.000  H
  N38      1.0000 0.78026  0.83036  0.18673  Biso   1.000  N
  N39      1.0000 0.78032  0.83036  0.18673  Biso   1.000  N
  C445     1.0000 0.63803  0.71094  0.17139  Biso   1.000  C
  C446     1.0000 0.63814  0.71094  0.17139  Biso   1.000  C
  H459     1.0000 0.56182  0.65163  0.24094  Biso   1.000  H
  C447     1.0000 0.52504  0.61746  0.20246  Biso   1.000  C
  H460     1.0000 0.56187  0.65163  0.24094  Biso   1.000  H
  C448     1.0000 0.02102  0.08940  0.15998  Biso   1.000  C
  C449     1.0000 0.02105  0.08947  0.15998  Biso   1.000  C
  H461     1.0000 0.99608  0.19043  0.14983  Biso   1.000  H
  H462     1.0000 0.99602  0.19043  0.14983  Biso   1.000  H
  H463     1.0000 0.10058  0.22213  0.15022  Biso   1.000  H
  H464     1.0000 0.10052  0.22213  0.15022  Biso   1.000  H
  H465     1.0000 0.08930  0.48284  0.16282  Biso   1.000  H
  H466     1.0000 0.08924  0.48284  0.16282  Biso   1.000  H
  C450     1.0000 0.09009  0.06901  0.16020  Biso   1.000  C
  C451     1.0000 0.97885  0.90987  0.16020  Biso   1.000  C
  C452     1.0000 0.09015  0.06901  0.16020  Biso   1.000  C
  H467     1.0000 0.81535  0.85931  0.20023  Biso   1.000  H
  C453     1.0000 0.81443  0.85771  0.15962  Biso   1.000  C
  C454     1.0000 0.81455  0.85771  0.15962  Biso   1.000  C
  C455     1.0000 0.55502  0.64046  0.17706  Biso   1.000  C
  H468     1.0000 0.65620  0.72552  0.15332  Biso   1.000  H
  C456     1.0000 0.55507  0.64046  0.17706  Biso   1.000  C
  H469     1.0000 0.65626  0.72552  0.15332  Biso   1.000  H
  H470     1.0000 0.46697  0.56872  0.20593  Biso   1.000  H
  C457     1.0000 0.93100  0.02113  0.16020  Biso   1.000  C
  C458     1.0000 0.93094  0.02113  0.16020  Biso   1.000  C
  C459     1.0000 0.18679  0.14276  0.16080  Biso   1.000  C
  C460     1.0000 0.18682  0.14282  0.16080  Biso   1.000  C
  C461     1.0000 0.18688  0.14282  0.16080  Biso   1.000  C
  C462     1.0000 0.91050  0.93160  0.15998  Biso   1.000  C
  C463     1.0000 0.95598  0.81318  0.16080  Biso   1.000  C
  C464     1.0000 0.91055  0.93160  0.15998  Biso   1.000  C
  H471     1.0000 0.80952  0.80562  0.14983  Biso   1.000  H
  H472     1.0000 0.77783  0.87844  0.15022  Biso   1.000  H
  H473     1.0000 0.51710  0.60643  0.16282  Biso   1.000  H
  H474     1.0000 0.51721  0.60643  0.16282  Biso   1.000  H
  C465     1.0000 0.85723  0.04406  0.16080  Biso   1.000  C
  C466     1.0000 0.85717  0.04406  0.16080  Biso   1.000  C
  C467     1.0000 0.22476  0.17191  0.13307  Biso   1.000  C
  H475     1.0000 0.19170  0.19485  0.17054  Biso   1.000  H
  H476     1.0000 0.22278  0.12163  0.17044  Biso   1.000  H
  H477     1.0000 0.19164  0.19485  0.17054  Biso   1.000  H
  H478     1.0000 0.22272  0.12163  0.17044  Biso   1.000  H
  C468     1.0000 0.22470  0.17191  0.13307  Biso   1.000  C
  C469     1.0000 0.94716  0.77527  0.13307  Biso   1.000  C
  H479     1.0000 0.00320  0.80836  0.17054  Biso   1.000  H
  H480     1.0000 0.89883  0.77727  0.17044  Biso   1.000  H
  H481     1.0000 0.89889  0.77727  0.17044  Biso   1.000  H
  H482     1.0000 0.80519  0.99686  0.17054  Biso   1.000  H
  H483     1.0000 0.87833  0.10110  0.17044  Biso   1.000  H
  C470     1.0000 0.82808  0.05282  0.13307  Biso   1.000  C
  C471     1.0000 0.82802  0.05282  0.13307  Biso   1.000  C
  H484     1.0000 0.28714  0.22012  0.13422  Biso   1.000  H
  H485     1.0000 0.22184  0.12103  0.12353  Biso   1.000  H
  H486     1.0000 0.18978  0.19344  0.12343  Biso   1.000  H
  H487     1.0000 0.18972  0.19344  0.12343  Biso   1.000  H
  H488     1.0000 0.28720  0.22012  0.13422  Biso   1.000  H
  H489     1.0000 0.22190  0.12103  0.12353  Biso   1.000  H
  H490     1.0000 0.00368  0.81024  0.12343  Biso   1.000  H
  H491     1.0000 0.93290  0.71281  0.13422  Biso   1.000  H
  H492     1.0000 0.89909  0.77814  0.12353  Biso   1.000  H
  H493     1.0000 0.93302  0.71281  0.13422  Biso   1.000  H
  H494     1.0000 0.89915  0.77814  0.12353  Biso   1.000  H
  H495     1.0000 0.80655  0.99632  0.12343  Biso   1.000  H
  H496     1.0000 0.80660  0.99632  0.12343  Biso   1.000  H
  H497     1.0000 0.77987  0.06700  0.13422  Biso   1.000  H
  H498     1.0000 0.87895  0.10083  0.12353  Biso   1.000  H
  H499     1.0000 0.77990  0.06707  0.13422  Biso   1.000  H
  H500     1.0000 0.77981  0.06700  0.13422  Biso   1.000  H
  H501     1.0000 0.77984  0.06707  0.13422  Biso   1.000  H
  C472     1.0000 0.17195  0.22473  0.36693  Biso   1.000  C
  C473     1.0000 0.14281  0.18682  0.33920  Biso   1.000  C
  C474     1.0000 0.14275  0.18682  0.33920  Biso   1.000  C
  H502     1.0000 0.22015  0.28719  0.36576  Biso   1.000  H
  H503     1.0000 0.12101  0.22186  0.37647  Biso   1.000  H
  H504     1.0000 0.19344  0.18976  0.37657  Biso   1.000  H
  H505     1.0000 0.19338  0.18976  0.37657  Biso   1.000  H
  H506     1.0000 0.12106  0.22186  0.37647  Biso   1.000  H
  C475     1.0000 0.06904  0.09013  0.33980  Biso   1.000  C
  C476     1.0000 0.06898  0.09013  0.33980  Biso   1.000  C
  H507     1.0000 0.19484  0.19164  0.32946  Biso   1.000  H
  H508     1.0000 0.12161  0.22273  0.32956  Biso   1.000  H
  C477     1.0000 0.17190  0.22473  0.36693  Biso   1.000  C
  H509     1.0000 0.19478  0.19164  0.32946  Biso   1.000  H
  H510     1.0000 0.12165  0.22280  0.32956  Biso   1.000  H
  C478     1.0000 0.08943  0.02100  0.34002  Biso   1.000  C
  C479     1.0000 0.08946  0.02106  0.34002  Biso   1.000  C
  C480     1.0000 0.08937  0.02100  0.34002  Biso   1.000  C
  C481     1.0000 0.97896  0.06840  0.34002  Biso   1.000  C
  C482     1.0000 0.18548  0.04320  0.34038  Biso   1.000  C
  C483     1.0000 0.18551  0.04326  0.34038  Biso   1.000  C
  C484     1.0000 0.18557  0.04326  0.34038  Biso   1.000  C
  C485     1.0000 0.02115  0.93099  0.33980  Biso   1.000  C
  C486     1.0000 0.90981  0.97887  0.33980  Biso   1.000  C
  C487     1.0000 0.90993  0.97887  0.33980  Biso   1.000  C
  C488     1.0000 0.95678  0.14229  0.34038  Biso   1.000  C
  C489     1.0000 0.95672  0.14229  0.34038  Biso   1.000  C
  N40      1.0000 0.21973  0.05008  0.31325  Biso   1.000  N
  H511     1.0000 0.19040  0.99605  0.35016  Biso   1.000  H
  H512     1.0000 0.22215  0.10057  0.34976  Biso   1.000  H
  H513     1.0000 0.22209  0.10057  0.34976  Biso   1.000  H
  C490     1.0000 0.93162  0.91060  0.34002  Biso   1.000  C
  C491     1.0000 0.93167  0.91060  0.34002  Biso   1.000  C
  C492     1.0000 0.04409  0.85724  0.33920  Biso   1.000  C
  C493     1.0000 0.81316  0.95594  0.33920  Biso   1.000  C
  C494     1.0000 0.81326  0.95600  0.33920  Biso   1.000  C
  C495     1.0000 0.81322  0.95594  0.33920  Biso   1.000  C
  C496     1.0000 0.81320  0.95600  0.33920  Biso   1.000  C
  H514     1.0000 0.89945  0.12156  0.34976  Biso   1.000  H
  N41      1.0000 0.94990  0.16964  0.31325  Biso   1.000  N
  H515     1.0000 0.89939  0.12156  0.34976  Biso   1.000  H
  H516     1.0000 0.00396  0.19438  0.35016  Biso   1.000  H
  H517     1.0000 0.00390  0.19438  0.35016  Biso   1.000  H
  C497     1.0000 0.30361  0.06533  0.30814  Biso   1.000  C
  H518     1.0000 0.18466  0.04400  0.29977  Biso   1.000  H
  H519     1.0000 0.18460  0.04400  0.29977  Biso   1.000  H
  C498     1.0000 0.85769  0.81452  0.34038  Biso   1.000  C
  C499     1.0000 0.05285  0.82809  0.36693  Biso   1.000  C
  H520     1.0000 0.99679  0.80515  0.32946  Biso   1.000  H
  H521     1.0000 0.10115  0.87837  0.32956  Biso   1.000  H
  H522     1.0000 0.10109  0.87837  0.32956  Biso   1.000  H
  H523     1.0000 0.77723  0.89890  0.32956  Biso   1.000  H
  C500     1.0000 0.77526  0.94718  0.36693  Biso   1.000  C
  H524     1.0000 0.80833  0.00314  0.32946  Biso   1.000  H
  H525     1.0000 0.80828  0.00314  0.32946  Biso   1.000  H
  C501     1.0000 0.93463  0.23824  0.30814  Biso   1.000  C
  H526     1.0000 0.95603  0.14069  0.29977  Biso   1.000  H
  C502     1.0000 0.93457  0.23824  0.30814  Biso   1.000  C
  H527     1.0000 0.95598  0.14069  0.29977  Biso   1.000  H
  C503     1.0000 0.36194  0.07288  0.32861  Biso   1.000  C
  C504     1.0000 0.33441  0.07248  0.28210  Biso   1.000  C
  C505     1.0000 0.33446  0.07248  0.28210  Biso   1.000  C
  H528     1.0000 0.80565  0.80957  0.35016  Biso   1.000  H
  H529     1.0000 0.87846  0.77787  0.34976  Biso   1.000  H
  N42      1.0000 0.83038  0.78028  0.31325  Biso   1.000  N
  H530     1.0000 0.99634  0.80656  0.37657  Biso   1.000  H
  H531     1.0000 0.06702  0.77988  0.36576  Biso   1.000  H
  H532     1.0000 0.10087  0.87897  0.37647  Biso   1.000  H
  H533     1.0000 0.71287  0.93300  0.36576  Biso   1.000  H
  H534     1.0000 0.77806  0.89917  0.37647  Biso   1.000  H
  H535     1.0000 0.77812  0.89917  0.37647  Biso   1.000  H
  H536     1.0000 0.81022  0.00368  0.37657  Biso   1.000  H
  C506     1.0000 0.92756  0.26198  0.28210  Biso   1.000  C
  C507     1.0000 0.92715  0.28906  0.32861  Biso   1.000  C
  C508     1.0000 0.92750  0.26198  0.28210  Biso   1.000  C
  C509     1.0000 0.92709  0.28906  0.32861  Biso   1.000  C
  C510     1.0000 0.44492  0.08539  0.32294  Biso   1.000  C
  H537     1.0000 0.34375  0.06927  0.34666  Biso   1.000  H
  H538     1.0000 0.34369  0.06927  0.34666  Biso   1.000  H
  C511     1.0000 0.44498  0.08539  0.32294  Biso   1.000  C
  C512     1.0000 0.41860  0.08545  0.27695  Biso   1.000  C
  S43      1.0000 0.26502  0.06620  0.25527  Biso   1.000  S
  S44      1.0000 0.26496  0.06620  0.25527  Biso   1.000  S
  C513     1.0000 0.41866  0.08545  0.27695  Biso   1.000  C
  C514     1.0000 0.76167  0.69636  0.30814  Biso   1.000  C
  H539     1.0000 0.85928  0.81538  0.29977  Biso   1.000  H
  C515     1.0000 0.76178  0.69636  0.30814  Biso   1.000  C
  H540     1.0000 0.85934  0.81538  0.29977  Biso   1.000  H
  C516     1.0000 0.91453  0.33319  0.27695  Biso   1.000  C
  S45      1.0000 0.93384  0.19879  0.25527  Biso   1.000  S
  S46      1.0000 0.93378  0.19879  0.25527  Biso   1.000  S
  C517     1.0000 0.91461  0.35954  0.32294  Biso   1.000  C
  H541     1.0000 0.93074  0.27448  0.34666  Biso   1.000  H
  H542     1.0000 0.93069  0.27448  0.34666  Biso   1.000  H
  C518     1.0000 0.47492  0.09234  0.29754  Biso   1.000  C
  H543     1.0000 0.48282  0.08927  0.33716  Biso   1.000  H
  H544     1.0000 0.43811  0.08973  0.25906  Biso   1.000  H
  H545     1.0000 0.43815  0.08980  0.25906  Biso   1.000  H
  H546     1.0000 0.43806  0.08973  0.25906  Biso   1.000  H
  S47      1.0000 0.19882  0.93380  0.24473  Biso   1.000  S
  S48      1.0000 0.19885  0.93387  0.24473  Biso   1.000  S
  C519     1.0000 0.71092  0.63806  0.32861  Biso   1.000  C
  C520     1.0000 0.73801  0.66561  0.28210  Biso   1.000  C
  C521     1.0000 0.73812  0.66561  0.28210  Biso   1.000  C
  H547     1.0000 0.91024  0.34837  0.25906  Biso   1.000  H
  C522     1.0000 0.90764  0.38254  0.29754  Biso   1.000  C
  C523     1.0000 0.90758  0.38254  0.29754  Biso   1.000  C
  H548     1.0000 0.91019  0.34837  0.25906  Biso   1.000  H
  S49      1.0000 0.06619  0.26499  0.24473  Biso   1.000  S
  S50      1.0000 0.06613  0.26499  0.24473  Biso   1.000  S
  H549     1.0000 0.91072  0.39357  0.33716  Biso   1.000  H
  H550     1.0000 0.53302  0.10177  0.29407  Biso   1.000  H
  C524     1.0000 0.26192  0.92752  0.21790  Biso   1.000  C
  H551     1.0000 0.72551  0.65624  0.34666  Biso   1.000  H
  C525     1.0000 0.64036  0.55508  0.32294  Biso   1.000  C
  C526     1.0000 0.64041  0.55508  0.32294  Biso   1.000  C
  C527     1.0000 0.66681  0.58136  0.27695  Biso   1.000  C
  S51      1.0000 0.80120  0.73501  0.25527  Biso   1.000  S
  H552     1.0000 0.89825  0.43128  0.29407  Biso   1.000  H
  H553     1.0000 0.89819  0.43128  0.29407  Biso   1.000  H
  C528     1.0000 0.07246  0.33439  0.21790  Biso   1.000  C
  C529     1.0000 0.07249  0.33446  0.21790  Biso   1.000  C
  C530     1.0000 0.07240  0.33439  0.21790  Biso   1.000  C
  C531     1.0000 0.33321  0.91455  0.22305  Biso   1.000  C
  C532     1.0000 0.23828  0.93467  0.19186  Biso   1.000  C
  C533     1.0000 0.23823  0.93467  0.19186  Biso   1.000  C
  C534     1.0000 0.61741  0.52505  0.29754  Biso   1.000  C
  H554     1.0000 0.60646  0.51716  0.33716  Biso   1.000  H
  H555     1.0000 0.65164  0.56190  0.25906  Biso   1.000  H
  H556     1.0000 0.65170  0.56190  0.25906  Biso   1.000  H
  S52      1.0000 0.73499  0.80121  0.24473  Biso   1.000  S
  C535     1.0000 0.06536  0.30364  0.19186  Biso   1.000  C
  C536     1.0000 0.08546  0.41864  0.22305  Biso   1.000  C
  C537     1.0000 0.08552  0.41864  0.22305  Biso   1.000  C
  C538     1.0000 0.38257  0.90766  0.20246  Biso   1.000  C
  H557     1.0000 0.34844  0.91027  0.24094  Biso   1.000  H
  H558     1.0000 0.34832  0.91027  0.24094  Biso   1.000  H
  C539     1.0000 0.28911  0.92712  0.17139  Biso   1.000  C
  N43      1.0000 0.16964  0.94992  0.18673  Biso   1.000  N
  C540     1.0000 0.28900  0.92712  0.17139  Biso   1.000  C
  N44      1.0000 0.16959  0.94992  0.18673  Biso   1.000  N
  H559     1.0000 0.56873  0.46695  0.29407  Biso   1.000  H
  H560     1.0000 0.56876  0.46701  0.29407  Biso   1.000  H
  C541     1.0000 0.66552  0.73802  0.21790  Biso   1.000  C
  N45      1.0000 0.05010  0.21972  0.18673  Biso   1.000  N
  N46      1.0000 0.05004  0.21972  0.18673  Biso   1.000  N
  C542     1.0000 0.07286  0.36194  0.17139  Biso   1.000  C
  C543     1.0000 0.07292  0.36194  0.17139  Biso   1.000  C
  H561     1.0000 0.08974  0.43810  0.24094  Biso   1.000  H
  C544     1.0000 0.09236  0.47495  0.20246  Biso   1.000  C
  C545     1.0000 0.09242  0.47495  0.20246  Biso   1.000  C
  H562     1.0000 0.43125  0.89823  0.20593  Biso   1.000  H
  C546     1.0000 0.35959  0.91461  0.17706  Biso   1.000  C
  H563     1.0000 0.43119  0.89823  0.20593  Biso   1.000  H
  H564     1.0000 0.27447  0.93073  0.15332  Biso   1.000  H
  C547     1.0000 0.14228  0.95680  0.15962  Biso   1.000  C
  H565     1.0000 0.14066  0.95600  0.20023  Biso   1.000  H
  H566     1.0000 0.14064  0.95607  0.20023  Biso   1.000  H
  H567     1.0000 0.14060  0.95600  0.20023  Biso   1.000  H
  C548     1.0000 0.58128  0.66681  0.22305  Biso   1.000  C
  C549     1.0000 0.69633  0.76176  0.19186  Biso   1.000  C
  C550     1.0000 0.58137  0.66688  0.22305  Biso   1.000  C
  C551     1.0000 0.69639  0.76176  0.19186  Biso   1.000  C
  C552     1.0000 0.58133  0.66681  0.22305  Biso   1.000  C
  C553     1.0000 0.04323  0.18548  0.15962  Biso   1.000  C
  C554     1.0000 0.04317  0.18548  0.15962  Biso   1.000  C
  H568     1.0000 0.04396  0.18462  0.20023  Biso   1.000  H
  C555     1.0000 0.08534  0.44492  0.17706  Biso   1.000  C
  H569     1.0000 0.06927  0.34376  0.15332  Biso   1.000  H
  C556     1.0000 0.08540  0.44492  0.17706  Biso   1.000  C
  H570     1.0000 0.06932  0.34376  0.15332  Biso   1.000  H
  H571     1.0000 0.10178  0.53305  0.20593  Biso   1.000  H
  H572     1.0000 0.39355  0.91073  0.16282  Biso   1.000  H
  H573     1.0000 0.39349  0.91073  0.16282  Biso   1.000  H
  C557     1.0000 0.06843  0.97900  0.15998  Biso   1.000  C
  H574     1.0000 0.12164  0.89943  0.15022  Biso   1.000  H
  H575     1.0000 0.12153  0.89943  0.15022  Biso   1.000  H
  H576     1.0000 0.19434  0.00395  0.14983  Biso   1.000  H
  H577     1.0000 0.19440  0.00395  0.14983  Biso   1.000  H
  H578     1.0000 0.56182  0.65163  0.24094  Biso   1.000  H
  C558     1.0000 0.52504  0.61746  0.20246  Biso   1.000  C
  H579     1.0000 0.56187  0.65163  0.24094  Biso   1.000  H
  N47      1.0000 0.78026  0.83036  0.18673  Biso   1.000  N
  N48      1.0000 0.78032  0.83036  0.18673  Biso   1.000  N
  C559     1.0000 0.63803  0.71094  0.17139  Biso   1.000  C
  C560     1.0000 0.63814  0.71094  0.17139  Biso   1.000  C
  C561     1.0000 0.02102  0.08940  0.15998  Biso   1.000  C
  C562     1.0000 0.02105  0.08947  0.15998  Biso   1.000  C
  H580     1.0000 0.99608  0.19043  0.14983  Biso   1.000  H
  H581     1.0000 0.99602  0.19043  0.14983  Biso   1.000  H
  H582     1.0000 0.10058  0.22213  0.15022  Biso   1.000  H
  H583     1.0000 0.10052  0.22213  0.15022  Biso   1.000  H
  H584     1.0000 0.08930  0.48284  0.16282  Biso   1.000  H
  H585     1.0000 0.08924  0.48284  0.16282  Biso   1.000  H
  C563     1.0000 0.97885  0.90987  0.16020  Biso   1.000  C
  C564     1.0000 0.09009  0.06901  0.16020  Biso   1.000  C
  C565     1.0000 0.09015  0.06901  0.16020  Biso   1.000  C
  H586     1.0000 0.46697  0.56872  0.20593  Biso   1.000  H
  C566     1.0000 0.55502  0.64046  0.17706  Biso   1.000  C
  C567     1.0000 0.55507  0.64046  0.17706  Biso   1.000  C
  H587     1.0000 0.81535  0.85931  0.20023  Biso   1.000  H
  C568     1.0000 0.81443  0.85771  0.15962  Biso   1.000  C
  C569     1.0000 0.81455  0.85771  0.15962  Biso   1.000  C
  H588     1.0000 0.65620  0.72552  0.15332  Biso   1.000  H
  H589     1.0000 0.65626  0.72552  0.15332  Biso   1.000  H
  C570     1.0000 0.93100  0.02113  0.16020  Biso   1.000  C
  C571     1.0000 0.93094  0.02113  0.16020  Biso   1.000  C
  C572     1.0000 0.91050  0.93160  0.15998  Biso   1.000  C
  C573     1.0000 0.95598  0.81318  0.16080  Biso   1.000  C
  C574     1.0000 0.91055  0.93160  0.15998  Biso   1.000  C
  C575     1.0000 0.18679  0.14276  0.16080  Biso   1.000  C
  C576     1.0000 0.18682  0.14282  0.16080  Biso   1.000  C
  C577     1.0000 0.18688  0.14282  0.16080  Biso   1.000  C
  H590     1.0000 0.51710  0.60643  0.16282  Biso   1.000  H
  H591     1.0000 0.51721  0.60643  0.16282  Biso   1.000  H
  H592     1.0000 0.80952  0.80562  0.14983  Biso   1.000  H
  H593     1.0000 0.77783  0.87844  0.15022  Biso   1.000  H
  C578     1.0000 0.85723  0.04406  0.16080  Biso   1.000  C
  C579     1.0000 0.85717  0.04406  0.16080  Biso   1.000  C
  C580     1.0000 0.94716  0.77527  0.13307  Biso   1.000  C
  H594     1.0000 0.00320  0.80836  0.17054  Biso   1.000  H
  H595     1.0000 0.89883  0.77727  0.17044  Biso   1.000  H
  H596     1.0000 0.89889  0.77727  0.17044  Biso   1.000  H
  H597     1.0000 0.19170  0.19485  0.17054  Biso   1.000  H
  H598     1.0000 0.22278  0.12163  0.17044  Biso   1.000  H
  C581     1.0000 0.22476  0.17191  0.13307  Biso   1.000  C
  H599     1.0000 0.19164  0.19485  0.17054  Biso   1.000  H
  H600     1.0000 0.22272  0.12163  0.17044  Biso   1.000  H
  C582     1.0000 0.22470  0.17191  0.13307  Biso   1.000  C
  H601     1.0000 0.80519  0.99686  0.17054  Biso   1.000  H
  H602     1.0000 0.87833  0.10110  0.17044  Biso   1.000  H
  C583     1.0000 0.82808  0.05282  0.13307  Biso   1.000  C
  C584     1.0000 0.82802  0.05282  0.13307  Biso   1.000  C
  H603     1.0000 0.00368  0.81024  0.12343  Biso   1.000  H
  H604     1.0000 0.93290  0.71281  0.13422  Biso   1.000  H
  H605     1.0000 0.89909  0.77814  0.12353  Biso   1.000  H
  H606     1.0000 0.93302  0.71281  0.13422  Biso   1.000  H
  H607     1.0000 0.89915  0.77814  0.12353  Biso   1.000  H
  H608     1.0000 0.28714  0.22012  0.13422  Biso   1.000  H
  H609     1.0000 0.22184  0.12103  0.12353  Biso   1.000  H
  H610     1.0000 0.18978  0.19344  0.12343  Biso   1.000  H
  H611     1.0000 0.18972  0.19344  0.12343  Biso   1.000  H
  H612     1.0000 0.28720  0.22012  0.13422  Biso   1.000  H
  H613     1.0000 0.22190  0.12103  0.12353  Biso   1.000  H
  H614     1.0000 0.80655  0.99632  0.12343  Biso   1.000  H
  H615     1.0000 0.80660  0.99632  0.12343  Biso   1.000  H
  H616     1.0000 0.77987  0.06700  0.13422  Biso   1.000  H
  H617     1.0000 0.87895  0.10083  0.12353  Biso   1.000  H
  H618     1.0000 0.77990  0.06707  0.13422  Biso   1.000  H
  H619     1.0000 0.77981  0.06700  0.13422  Biso   1.000  H
  H620     1.0000 0.77984  0.06707  0.13422  Biso   1.000  H
  C585     1.0000 0.22474  0.05282  0.63305  Biso   1.000  C
  C586     1.0000 0.18684  0.04406  0.66080  Biso   1.000  C
  H621     1.0000 0.28713  0.06700  0.63422  Biso   1.000  H
  H622     1.0000 0.22188  0.10083  0.62353  Biso   1.000  H
  H623     1.0000 0.28717  0.06707  0.63422  Biso   1.000  H
  H624     1.0000 0.22182  0.10083  0.62353  Biso   1.000  H
  H625     1.0000 0.18978  0.99632  0.62343  Biso   1.000  H
  H626     1.0000 0.18972  0.99632  0.62343  Biso   1.000  H
  C587     1.0000 0.09013  0.02113  0.66018  Biso   1.000  C
  H627     1.0000 0.22277  0.10110  0.67044  Biso   1.000  H
  H628     1.0000 0.22271  0.10110  0.67044  Biso   1.000  H
  C588     1.0000 0.09007  0.02113  0.66018  Biso   1.000  C
  C589     1.0000 0.22480  0.05282  0.63305  Biso   1.000  C
  H629     1.0000 0.19167  0.99686  0.67054  Biso   1.000  H
  C590     1.0000 0.06838  0.08940  0.65996  Biso   1.000  C
  C591     1.0000 0.06842  0.08947  0.65996  Biso   1.000  C
  C592     1.0000 0.02110  0.93160  0.65996  Biso   1.000  C
  C593     1.0000 0.02104  0.93160  0.65996  Biso   1.000  C
  C594     1.0000 0.14225  0.18548  0.65962  Biso   1.000  C
  C595     1.0000 0.14231  0.18548  0.65962  Biso   1.000  C
  C596     1.0000 0.97891  0.06901  0.66018  Biso   1.000  C
  C597     1.0000 0.97885  0.06901  0.66018  Biso   1.000  C
  C598     1.0000 0.93096  0.90987  0.66018  Biso   1.000  C
  C599     1.0000 0.93102  0.90987  0.66018  Biso   1.000  C
  C600     1.0000 0.04328  0.85771  0.65962  Biso   1.000  C
  C601     1.0000 0.04316  0.85771  0.65962  Biso   1.000  C
  H630     1.0000 0.19435  0.19043  0.64983  Biso   1.000  H
  H631     1.0000 0.12154  0.22213  0.65022  Biso   1.000  H
  N49      1.0000 0.16962  0.21972  0.68673  Biso   1.000  N
  H632     1.0000 0.12160  0.22213  0.65022  Biso   1.000  H
  N50      1.0000 0.16968  0.21972  0.68673  Biso   1.000  N
  C602     1.0000 0.91057  0.97900  0.65996  Biso   1.000  C
  C603     1.0000 0.95597  0.14276  0.66080  Biso   1.000  C
  C604     1.0000 0.95595  0.14282  0.66080  Biso   1.000  C
  C605     1.0000 0.95591  0.14276  0.66080  Biso   1.000  C
  C606     1.0000 0.85714  0.81318  0.66080  Biso   1.000  C
  C607     1.0000 0.85719  0.81318  0.66080  Biso   1.000  C
  H633     1.0000 0.99598  0.80562  0.64983  Biso   1.000  H
  H634     1.0000 0.99610  0.80562  0.64983  Biso   1.000  H
  H635     1.0000 0.10061  0.87844  0.65022  Biso   1.000  H
  N51      1.0000 0.05010  0.83036  0.68673  Biso   1.000  N
  N52      1.0000 0.05005  0.83036  0.68673  Biso   1.000  N
  C608     1.0000 0.23827  0.30364  0.69186  Biso   1.000  C
  H636     1.0000 0.14066  0.18462  0.70023  Biso   1.000  H
  C609     1.0000 0.81452  0.95680  0.65962  Biso   1.000  C
  H637     1.0000 0.00315  0.19485  0.67054  Biso   1.000  H
  H638     1.0000 0.00321  0.19485  0.67054  Biso   1.000  H
  H639     1.0000 0.89885  0.12163  0.67044  Biso   1.000  H
  C610     1.0000 0.94715  0.17191  0.63305  Biso   1.000  C
  C611     1.0000 0.94709  0.17191  0.63305  Biso   1.000  C
  H640     1.0000 0.80516  0.80836  0.67054  Biso   1.000  H
  H641     1.0000 0.87839  0.77727  0.67044  Biso   1.000  H
  C612     1.0000 0.82810  0.77527  0.63305  Biso   1.000  C
  H642     1.0000 0.87844  0.77727  0.67044  Biso   1.000  H
  C613     1.0000 0.06543  0.76176  0.69186  Biso   1.000  C
  H643     1.0000 0.04397  0.85931  0.70023  Biso   1.000  H
  C614     1.0000 0.06537  0.76176  0.69186  Biso   1.000  C
  C615     1.0000 0.26193  0.33439  0.71790  Biso   1.000  C
  C616     1.0000 0.28908  0.36194  0.67137  Biso   1.000  C
  C617     1.0000 0.26197  0.33446  0.71790  Biso   1.000  C
  C618     1.0000 0.28903  0.36194  0.67137  Biso   1.000  C
  H644     1.0000 0.77779  0.89943  0.65022  Biso   1.000  H
  N53      1.0000 0.78027  0.94992  0.68673  Biso   1.000  N
  H645     1.0000 0.77791  0.89943  0.65022  Biso   1.000  H
  N54      1.0000 0.78033  0.94992  0.68673  Biso   1.000  N
  H646     1.0000 0.80960  0.00395  0.64983  Biso   1.000  H
  H647     1.0000 0.80955  0.00395  0.64983  Biso   1.000  H
  H648     1.0000 0.00366  0.19344  0.62343  Biso   1.000  H
  H649     1.0000 0.93298  0.22012  0.63422  Biso   1.000  H
  H650     1.0000 0.89918  0.12103  0.62353  Biso   1.000  H
  H651     1.0000 0.93292  0.22012  0.63422  Biso   1.000  H
  H652     1.0000 0.89913  0.12103  0.62353  Biso   1.000  H
  H653     1.0000 0.77980  0.71281  0.63422  Biso   1.000  H
  H654     1.0000 0.87899  0.77814  0.62353  Biso   1.000  H
  H655     1.0000 0.80656  0.81024  0.62343  Biso   1.000  H
  H656     1.0000 0.77991  0.71281  0.63422  Biso   1.000  H
  C619     1.0000 0.07250  0.73802  0.71790  Biso   1.000  C
  C620     1.0000 0.07291  0.71094  0.67137  Biso   1.000  C
  C621     1.0000 0.07280  0.71094  0.67137  Biso   1.000  C
  C622     1.0000 0.33319  0.41864  0.72305  Biso   1.000  C
  S53      1.0000 0.19880  0.26499  0.74473  Biso   1.000  S
  C623     1.0000 0.33313  0.41864  0.72305  Biso   1.000  C
  S54      1.0000 0.19886  0.26499  0.74473  Biso   1.000  S
  C624     1.0000 0.35959  0.44492  0.67706  Biso   1.000  C
  H657     1.0000 0.27449  0.34376  0.65332  Biso   1.000  H
  C625     1.0000 0.35953  0.44492  0.67706  Biso   1.000  C
  H658     1.0000 0.27443  0.34376  0.65332  Biso   1.000  H
  C626     1.0000 0.69639  0.93467  0.69186  Biso   1.000  C
  H659     1.0000 0.81534  0.95600  0.70023  Biso   1.000  H
  C627     1.0000 0.69645  0.93467  0.69186  Biso   1.000  C
  H660     1.0000 0.81543  0.95607  0.70023  Biso   1.000  H
  H661     1.0000 0.81540  0.95600  0.70023  Biso   1.000  H
  C628     1.0000 0.08553  0.66681  0.72305  Biso   1.000  C
  S55      1.0000 0.06622  0.80121  0.74473  Biso   1.000  S
  C629     1.0000 0.08551  0.66688  0.72305  Biso   1.000  C
  C630     1.0000 0.08547  0.66681  0.72305  Biso   1.000  C
  C631     1.0000 0.08545  0.64046  0.67706  Biso   1.000  C
  H662     1.0000 0.06931  0.72552  0.65332  Biso   1.000  H
  C632     1.0000 0.08539  0.64046  0.67706  Biso   1.000  C
  H663     1.0000 0.06926  0.72552  0.65332  Biso   1.000  H
  H664     1.0000 0.34836  0.43810  0.74094  Biso   1.000  H
  C633     1.0000 0.38259  0.47495  0.70246  Biso   1.000  C
  C634     1.0000 0.38253  0.47495  0.70246  Biso   1.000  C
  H665     1.0000 0.34830  0.43810  0.74094  Biso   1.000  H
  S56      1.0000 0.26495  0.19879  0.75527  Biso   1.000  S
  S57      1.0000 0.26501  0.19879  0.75527  Biso   1.000  S
  H666     1.0000 0.39354  0.48284  0.66282  Biso   1.000  H
  H667     1.0000 0.39360  0.48284  0.66282  Biso   1.000  H
  C635     1.0000 0.66559  0.92752  0.71790  Biso   1.000  C
  C636     1.0000 0.63800  0.92712  0.67137  Biso   1.000  C
  C637     1.0000 0.63812  0.92712  0.67137  Biso   1.000  C
  H668     1.0000 0.08981  0.65163  0.74094  Biso   1.000  H
  C638     1.0000 0.09242  0.61746  0.70246  Biso   1.000  C
  H669     1.0000 0.08976  0.65163  0.74094  Biso   1.000  H
  S58      1.0000 0.93381  0.73501  0.75527  Biso   1.000  S
  H670     1.0000 0.08933  0.60643  0.66282  Biso   1.000  H
  H671     1.0000 0.08922  0.60643  0.66282  Biso   1.000  H
  H672     1.0000 0.43127  0.53305  0.70593  Biso   1.000  H
  C639     1.0000 0.33442  0.26198  0.78210  Biso   1.000  C
  C640     1.0000 0.33448  0.26198  0.78210  Biso   1.000  C
  C641     1.0000 0.58134  0.91455  0.72305  Biso   1.000  C
  S59      1.0000 0.73498  0.93380  0.74473  Biso   1.000  S
  S60      1.0000 0.73502  0.93387  0.74473  Biso   1.000  S
  C642     1.0000 0.55502  0.91461  0.67706  Biso   1.000  C
  H673     1.0000 0.65625  0.93073  0.65332  Biso   1.000  H
  H674     1.0000 0.10175  0.56872  0.70593  Biso   1.000  H
  C643     1.0000 0.92748  0.66561  0.78210  Biso   1.000  C
  C644     1.0000 0.92760  0.66561  0.78210  Biso   1.000  C
  C645     1.0000 0.41867  0.33319  0.77693  Biso   1.000  C
  C646     1.0000 0.30361  0.23824  0.80814  Biso   1.000  C
  C647     1.0000 0.41861  0.33319  0.77693  Biso   1.000  C
  H675     1.0000 0.56183  0.91027  0.74094  Biso   1.000  H
  C648     1.0000 0.52508  0.90766  0.70246  Biso   1.000  C
  H676     1.0000 0.56194  0.91027  0.74094  Biso   1.000  H
  S61      1.0000 0.80118  0.06620  0.75527  Biso   1.000  S
  H677     1.0000 0.51718  0.91073  0.66282  Biso   1.000  H
  H678     1.0000 0.51724  0.91073  0.66282  Biso   1.000  H
  C649     1.0000 0.91454  0.58136  0.77693  Biso   1.000  C
  C650     1.0000 0.93458  0.69636  0.80814  Biso   1.000  C
  C651     1.0000 0.93470  0.69636  0.80814  Biso   1.000  C
  H679     1.0000 0.43813  0.34837  0.75906  Biso   1.000  H
  C652     1.0000 0.47490  0.38254  0.79752  Biso   1.000  C
  C653     1.0000 0.47496  0.38254  0.79752  Biso   1.000  C
  C654     1.0000 0.36191  0.28906  0.82861  Biso   1.000  C
  N55      1.0000 0.21974  0.16964  0.81325  Biso   1.000  N
  N56      1.0000 0.21968  0.16964  0.81325  Biso   1.000  N
  H680     1.0000 0.46698  0.89823  0.70593  Biso   1.000  H
  H681     1.0000 0.46704  0.89823  0.70593  Biso   1.000  H
  C655     1.0000 0.73808  0.07248  0.78210  Biso   1.000  C
  C656     1.0000 0.73802  0.07248  0.78210  Biso   1.000  C
  H682     1.0000 0.91020  0.56190  0.75906  Biso   1.000  H
  C657     1.0000 0.90764  0.52505  0.79752  Biso   1.000  C
  H683     1.0000 0.91026  0.56190  0.75906  Biso   1.000  H
  C658     1.0000 0.92714  0.63806  0.82861  Biso   1.000  C
  N57      1.0000 0.94990  0.78028  0.81325  Biso   1.000  N
  H684     1.0000 0.53303  0.43128  0.79407  Biso   1.000  H
  C659     1.0000 0.44493  0.35954  0.82294  Biso   1.000  C
  C660     1.0000 0.44487  0.35954  0.82294  Biso   1.000  C
  H685     1.0000 0.34374  0.27448  0.84666  Biso   1.000  H
  C661     1.0000 0.18551  0.14229  0.84038  Biso   1.000  C
  H686     1.0000 0.18465  0.14069  0.79977  Biso   1.000  H
  H687     1.0000 0.18459  0.14069  0.79977  Biso   1.000  H
  C662     1.0000 0.66685  0.08545  0.77693  Biso   1.000  C
  C663     1.0000 0.76172  0.06533  0.80814  Biso   1.000  C
  C664     1.0000 0.66679  0.08545  0.77693  Biso   1.000  C
  C665     1.0000 0.76166  0.06533  0.80814  Biso   1.000  C
  H688     1.0000 0.89822  0.46695  0.79407  Biso   1.000  H
  C666     1.0000 0.91466  0.55508  0.82294  Biso   1.000  C
  H689     1.0000 0.89825  0.46701  0.79407  Biso   1.000  H
  H690     1.0000 0.93073  0.65624  0.84666  Biso   1.000  H
  C667     1.0000 0.95677  0.81452  0.84038  Biso   1.000  C
  H691     1.0000 0.95604  0.81538  0.79977  Biso   1.000  H
  C668     1.0000 0.95683  0.81452  0.84038  Biso   1.000  C
  H692     1.0000 0.95610  0.81538  0.79977  Biso   1.000  H
  H693     1.0000 0.48285  0.39357  0.83716  Biso   1.000  H
  H694     1.0000 0.48279  0.39357  0.83716  Biso   1.000  H
  H695     1.0000 0.19042  0.19438  0.85016  Biso   1.000  H
  H696     1.0000 0.22211  0.12156  0.84976  Biso   1.000  H
  C669     1.0000 0.08945  0.06840  0.84002  Biso   1.000  C
  C670     1.0000 0.08939  0.06840  0.84002  Biso   1.000  C
  H697     1.0000 0.19048  0.19438  0.85016  Biso   1.000  H
  H698     1.0000 0.22217  0.12156  0.84976  Biso   1.000  H
  H699     1.0000 0.65162  0.08973  0.75906  Biso   1.000  H
  C671     1.0000 0.61743  0.09234  0.79752  Biso   1.000  C
  H700     1.0000 0.65165  0.08980  0.75906  Biso   1.000  H
  H701     1.0000 0.65159  0.08980  0.75906  Biso   1.000  H
  C672     1.0000 0.61737  0.09234  0.79752  Biso   1.000  C
  C673     1.0000 0.71095  0.07288  0.82861  Biso   1.000  C
  N58      1.0000 0.83036  0.05008  0.81325  Biso   1.000  N
  C674     1.0000 0.71089  0.07288  0.82861  Biso   1.000  C
  N59      1.0000 0.83030  0.05008  0.81325  Biso   1.000  N
  H702     1.0000 0.91070  0.51716  0.83716  Biso   1.000  H
  H703     1.0000 0.89936  0.77787  0.84976  Biso   1.000  H
  C675     1.0000 0.97893  0.91060  0.84002  Biso   1.000  C
  H704     1.0000 0.89942  0.77787  0.84976  Biso   1.000  H
  C676     1.0000 0.97898  0.91060  0.84002  Biso   1.000  C
  H705     1.0000 0.00392  0.80957  0.85016  Biso   1.000  H
  C677     1.0000 0.02109  0.09013  0.83980  Biso   1.000  C
  C678     1.0000 0.02115  0.09013  0.83980  Biso   1.000  C
  C679     1.0000 0.06906  0.97887  0.83980  Biso   1.000  C
  C680     1.0000 0.06894  0.97887  0.83980  Biso   1.000  C
  H706     1.0000 0.56875  0.10177  0.79407  Biso   1.000  H
  C681     1.0000 0.64047  0.08539  0.82294  Biso   1.000  C
  C682     1.0000 0.64041  0.08539  0.82294  Biso   1.000  C
  H707     1.0000 0.56869  0.10177  0.79407  Biso   1.000  H
  H708     1.0000 0.72553  0.06927  0.84666  Biso   1.000  H
  C683     1.0000 0.85772  0.04320  0.84038  Biso   1.000  C
  H709     1.0000 0.85934  0.04400  0.79977  Biso   1.000  H
  C684     1.0000 0.85770  0.04326  0.84038  Biso   1.000  C
  C685     1.0000 0.85766  0.04320  0.84038  Biso   1.000  C
  C686     1.0000 0.90985  0.93099  0.83980  Biso   1.000  C
  C687     1.0000 0.04402  0.18682  0.83918  Biso   1.000  C
  C688     1.0000 0.04407  0.18682  0.83918  Biso   1.000  C
  C689     1.0000 0.93157  0.02100  0.84002  Biso   1.000  C
  C690     1.0000 0.93160  0.02106  0.84002  Biso   1.000  C
  C691     1.0000 0.93155  0.02106  0.84002  Biso   1.000  C
  C692     1.0000 0.14277  0.95594  0.83918  Biso   1.000  C
  C693     1.0000 0.14281  0.95600  0.83918  Biso   1.000  C
  C694     1.0000 0.14275  0.95600  0.83918  Biso   1.000  C
  H710     1.0000 0.60645  0.08927  0.83716  Biso   1.000  H
  H711     1.0000 0.60639  0.08927  0.83716  Biso   1.000  H
  H712     1.0000 0.80566  0.99605  0.85016  Biso   1.000  H
  H713     1.0000 0.87841  0.10057  0.84976  Biso   1.000  H
  C695     1.0000 0.81315  0.85724  0.83918  Biso   1.000  C
  H714     1.0000 0.10111  0.22273  0.82956  Biso   1.000  H
  C696     1.0000 0.05284  0.22473  0.86693  Biso   1.000  C
  H715     1.0000 0.10115  0.22280  0.82956  Biso   1.000  H
  C697     1.0000 0.05278  0.22473  0.86693  Biso   1.000  C
  H716     1.0000 0.99680  0.19164  0.82946  Biso   1.000  H
  H717     1.0000 0.19481  0.00314  0.82946  Biso   1.000  H
  H718     1.0000 0.12167  0.89890  0.82956  Biso   1.000  H
  C698     1.0000 0.17192  0.94718  0.86693  Biso   1.000  C
  H719     1.0000 0.80825  0.80515  0.82946  Biso   1.000  H
  H720     1.0000 0.77722  0.87837  0.82956  Biso   1.000  H
  C699     1.0000 0.77524  0.82809  0.86693  Biso   1.000  C
  H721     1.0000 0.80836  0.80515  0.82946  Biso   1.000  H
  H722     1.0000 0.77728  0.87837  0.82956  Biso   1.000  H
  H723     1.0000 0.06704  0.28719  0.86576  Biso   1.000  H
  H724     1.0000 0.10085  0.22186  0.87645  Biso   1.000  H
  H725     1.0000 0.10080  0.22186  0.87645  Biso   1.000  H
  H726     1.0000 0.99632  0.18976  0.87655  Biso   1.000  H
  H727     1.0000 0.99627  0.18976  0.87655  Biso   1.000  H
  H728     1.0000 0.19345  0.00368  0.87655  Biso   1.000  H
  H729     1.0000 0.19340  0.00368  0.87655  Biso   1.000  H
  H730     1.0000 0.22013  0.93300  0.86576  Biso   1.000  H
  H731     1.0000 0.12110  0.89917  0.87645  Biso   1.000  H
  H732     1.0000 0.12105  0.89917  0.87645  Biso   1.000  H
  H733     1.0000 0.71286  0.77988  0.86576  Biso   1.000  H
  H734     1.0000 0.77810  0.87897  0.87645  Biso   1.000  H
  H735     1.0000 0.81022  0.80656  0.87655  Biso   1.000  H
  C700     1.0000 0.22474  0.05282  0.63305  Biso   1.000  C
  C701     1.0000 0.18684  0.04406  0.66080  Biso   1.000  C
  H736     1.0000 0.28713  0.06700  0.63422  Biso   1.000  H
  H737     1.0000 0.22182  0.10083  0.62353  Biso   1.000  H
  H738     1.0000 0.28717  0.06707  0.63422  Biso   1.000  H
  H739     1.0000 0.22188  0.10083  0.62353  Biso   1.000  H
  H740     1.0000 0.18978  0.99632  0.62343  Biso   1.000  H
  H741     1.0000 0.18972  0.99632  0.62343  Biso   1.000  H
  H742     1.0000 0.19167  0.99686  0.67054  Biso   1.000  H
  C702     1.0000 0.09013  0.02113  0.66018  Biso   1.000  C
  H743     1.0000 0.22271  0.10110  0.67044  Biso   1.000  H
  H744     1.0000 0.22277  0.10110  0.67044  Biso   1.000  H
  C703     1.0000 0.09007  0.02113  0.66018  Biso   1.000  C
  C704     1.0000 0.22480  0.05282  0.63305  Biso   1.000  C
  C705     1.0000 0.06838  0.08940  0.65996  Biso   1.000  C
  C706     1.0000 0.06842  0.08947  0.65996  Biso   1.000  C
  C707     1.0000 0.02110  0.93160  0.65996  Biso   1.000  C
  C708     1.0000 0.02104  0.93160  0.65996  Biso   1.000  C
  C709     1.0000 0.14225  0.18548  0.65962  Biso   1.000  C
  C710     1.0000 0.97891  0.06901  0.66018  Biso   1.000  C
  C711     1.0000 0.97885  0.06901  0.66018  Biso   1.000  C
  C712     1.0000 0.14231  0.18548  0.65962  Biso   1.000  C
  C713     1.0000 0.93096  0.90987  0.66018  Biso   1.000  C
  C714     1.0000 0.93102  0.90987  0.66018  Biso   1.000  C
  C715     1.0000 0.04328  0.85771  0.65962  Biso   1.000  C
  C716     1.0000 0.04316  0.85771  0.65962  Biso   1.000  C
  H745     1.0000 0.19435  0.19043  0.64983  Biso   1.000  H
  H746     1.0000 0.12154  0.22213  0.65022  Biso   1.000  H
  N60      1.0000 0.16962  0.21972  0.68673  Biso   1.000  N
  H747     1.0000 0.12160  0.22213  0.65022  Biso   1.000  H
  N61      1.0000 0.16968  0.21972  0.68673  Biso   1.000  N
  C717     1.0000 0.91057  0.97900  0.65996  Biso   1.000  C
  C718     1.0000 0.95597  0.14276  0.66080  Biso   1.000  C
  C719     1.0000 0.95595  0.14282  0.66080  Biso   1.000  C
  C720     1.0000 0.95591  0.14276  0.66080  Biso   1.000  C
  C721     1.0000 0.85714  0.81318  0.66080  Biso   1.000  C
  C722     1.0000 0.85719  0.81318  0.66080  Biso   1.000  C
  H748     1.0000 0.99598  0.80562  0.64983  Biso   1.000  H
  H749     1.0000 0.99610  0.80562  0.64983  Biso   1.000  H
  H750     1.0000 0.10061  0.87844  0.65022  Biso   1.000  H
  N62      1.0000 0.05010  0.83036  0.68673  Biso   1.000  N
  N63      1.0000 0.05005  0.83036  0.68673  Biso   1.000  N
  C723     1.0000 0.23827  0.30364  0.69186  Biso   1.000  C
  H751     1.0000 0.14066  0.18462  0.70023  Biso   1.000  H
  C724     1.0000 0.81452  0.95680  0.65962  Biso   1.000  C
  H752     1.0000 0.00315  0.19485  0.67054  Biso   1.000  H
  H753     1.0000 0.89885  0.12163  0.67044  Biso   1.000  H
  C725     1.0000 0.94715  0.17191  0.63305  Biso   1.000  C
  C726     1.0000 0.94709  0.17191  0.63305  Biso   1.000  C
  H754     1.0000 0.00321  0.19485  0.67054  Biso   1.000  H
  H755     1.0000 0.80516  0.80836  0.67054  Biso   1.000  H
  H756     1.0000 0.87839  0.77727  0.67044  Biso   1.000  H
  C727     1.0000 0.82810  0.77527  0.63305  Biso   1.000  C
  H757     1.0000 0.87844  0.77727  0.67044  Biso   1.000  H
  H758     1.0000 0.04397  0.85931  0.70023  Biso   1.000  H
  C728     1.0000 0.06543  0.76176  0.69186  Biso   1.000  C
  C729     1.0000 0.06537  0.76176  0.69186  Biso   1.000  C
  C730     1.0000 0.26193  0.33439  0.71790  Biso   1.000  C
  C731     1.0000 0.28903  0.36194  0.67137  Biso   1.000  C
  C732     1.0000 0.26197  0.33446  0.71790  Biso   1.000  C
  C733     1.0000 0.28908  0.36194  0.67137  Biso   1.000  C
  H759     1.0000 0.77779  0.89943  0.65022  Biso   1.000  H
  N64      1.0000 0.78027  0.94992  0.68673  Biso   1.000  N
  H760     1.0000 0.77791  0.89943  0.65022  Biso   1.000  H
  N65      1.0000 0.78033  0.94992  0.68673  Biso   1.000  N
  H761     1.0000 0.80960  0.00395  0.64983  Biso   1.000  H
  H762     1.0000 0.80955  0.00395  0.64983  Biso   1.000  H
  H763     1.0000 0.00366  0.19344  0.62343  Biso   1.000  H
  H764     1.0000 0.93298  0.22012  0.63422  Biso   1.000  H
  H765     1.0000 0.89918  0.12103  0.62353  Biso   1.000  H
  H766     1.0000 0.93292  0.22012  0.63422  Biso   1.000  H
  H767     1.0000 0.89913  0.12103  0.62353  Biso   1.000  H
  H768     1.0000 0.80656  0.81024  0.62343  Biso   1.000  H
  H769     1.0000 0.77980  0.71281  0.63422  Biso   1.000  H
  H770     1.0000 0.87899  0.77814  0.62353  Biso   1.000  H
  H771     1.0000 0.77991  0.71281  0.63422  Biso   1.000  H
  C734     1.0000 0.07250  0.73802  0.71790  Biso   1.000  C
  C735     1.0000 0.07291  0.71094  0.67137  Biso   1.000  C
  C736     1.0000 0.07280  0.71094  0.67137  Biso   1.000  C
  S62      1.0000 0.19880  0.26499  0.74473  Biso   1.000  S
  C737     1.0000 0.33313  0.41864  0.72305  Biso   1.000  C
  C738     1.0000 0.33319  0.41864  0.72305  Biso   1.000  C
  S63      1.0000 0.19886  0.26499  0.74473  Biso   1.000  S
  C739     1.0000 0.35953  0.44492  0.67706  Biso   1.000  C
  H772     1.0000 0.27443  0.34376  0.65332  Biso   1.000  H
  C740     1.0000 0.35959  0.44492  0.67706  Biso   1.000  C
  H773     1.0000 0.27449  0.34376  0.65332  Biso   1.000  H
  C741     1.0000 0.69639  0.93467  0.69186  Biso   1.000  C
  H774     1.0000 0.81534  0.95600  0.70023  Biso   1.000  H
  C742     1.0000 0.69645  0.93467  0.69186  Biso   1.000  C
  H775     1.0000 0.81543  0.95607  0.70023  Biso   1.000  H
  H776     1.0000 0.81540  0.95600  0.70023  Biso   1.000  H
  C743     1.0000 0.08553  0.66681  0.72305  Biso   1.000  C
  S64      1.0000 0.06622  0.80121  0.74473  Biso   1.000  S
  C744     1.0000 0.08551  0.66688  0.72305  Biso   1.000  C
  C745     1.0000 0.08547  0.66681  0.72305  Biso   1.000  C
  C746     1.0000 0.08545  0.64046  0.67706  Biso   1.000  C
  H777     1.0000 0.06931  0.72552  0.65332  Biso   1.000  H
  C747     1.0000 0.08539  0.64046  0.67706  Biso   1.000  C
  H778     1.0000 0.06926  0.72552  0.65332  Biso   1.000  H
  S65      1.0000 0.26495  0.19879  0.75527  Biso   1.000  S
  S66      1.0000 0.26501  0.19879  0.75527  Biso   1.000  S
  H779     1.0000 0.34836  0.43810  0.74094  Biso   1.000  H
  C748     1.0000 0.38253  0.47495  0.70246  Biso   1.000  C
  C749     1.0000 0.38259  0.47495  0.70246  Biso   1.000  C
  H780     1.0000 0.34830  0.43810  0.74094  Biso   1.000  H
  H781     1.0000 0.39354  0.48284  0.66282  Biso   1.000  H
  H782     1.0000 0.39360  0.48284  0.66282  Biso   1.000  H
  C750     1.0000 0.66559  0.92752  0.71790  Biso   1.000  C
  C751     1.0000 0.63800  0.92712  0.67137  Biso   1.000  C
  C752     1.0000 0.63812  0.92712  0.67137  Biso   1.000  C
  H783     1.0000 0.08981  0.65163  0.74094  Biso   1.000  H
  C753     1.0000 0.09242  0.61746  0.70246  Biso   1.000  C
  H784     1.0000 0.08976  0.65163  0.74094  Biso   1.000  H
  S67      1.0000 0.93381  0.73501  0.75527  Biso   1.000  S
  H785     1.0000 0.08933  0.60643  0.66282  Biso   1.000  H
  H786     1.0000 0.08922  0.60643  0.66282  Biso   1.000  H
  C754     1.0000 0.33442  0.26198  0.78210  Biso   1.000  C
  C755     1.0000 0.33448  0.26198  0.78210  Biso   1.000  C
  H787     1.0000 0.43127  0.53305  0.70593  Biso   1.000  H
  S68      1.0000 0.73498  0.93380  0.74473  Biso   1.000  S
  C756     1.0000 0.58134  0.91455  0.72305  Biso   1.000  C
  S69      1.0000 0.73502  0.93387  0.74473  Biso   1.000  S
  H788     1.0000 0.65625  0.93073  0.65332  Biso   1.000  H
  C757     1.0000 0.55502  0.91461  0.67706  Biso   1.000  C
  H789     1.0000 0.10175  0.56872  0.70593  Biso   1.000  H
  C758     1.0000 0.92748  0.66561  0.78210  Biso   1.000  C
  C759     1.0000 0.92760  0.66561  0.78210  Biso   1.000  C
  C760     1.0000 0.30361  0.23824  0.80814  Biso   1.000  C
  C761     1.0000 0.41861  0.33319  0.77693  Biso   1.000  C
  C762     1.0000 0.41867  0.33319  0.77693  Biso   1.000  C
  S70      1.0000 0.80118  0.06620  0.75527  Biso   1.000  S
  C763     1.0000 0.52508  0.90766  0.70246  Biso   1.000  C
  H790     1.0000 0.56183  0.91027  0.74094  Biso   1.000  H
  H791     1.0000 0.56194  0.91027  0.74094  Biso   1.000  H
  H792     1.0000 0.51718  0.91073  0.66282  Biso   1.000  H
  H793     1.0000 0.51724  0.91073  0.66282  Biso   1.000  H
  C764     1.0000 0.91454  0.58136  0.77693  Biso   1.000  C
  C765     1.0000 0.93458  0.69636  0.80814  Biso   1.000  C
  C766     1.0000 0.93470  0.69636  0.80814  Biso   1.000  C
  C767     1.0000 0.36191  0.28906  0.82861  Biso   1.000  C
  N66      1.0000 0.21968  0.16964  0.81325  Biso   1.000  N
  N67      1.0000 0.21974  0.16964  0.81325  Biso   1.000  N
  H794     1.0000 0.43813  0.34837  0.75906  Biso   1.000  H
  C768     1.0000 0.47490  0.38254  0.79752  Biso   1.000  C
  C769     1.0000 0.47496  0.38254  0.79752  Biso   1.000  C
  C770     1.0000 0.73808  0.07248  0.78210  Biso   1.000  C
  C771     1.0000 0.73802  0.07248  0.78210  Biso   1.000  C
  H795     1.0000 0.46698  0.89823  0.70593  Biso   1.000  H
  H796     1.0000 0.46704  0.89823  0.70593  Biso   1.000  H
  H797     1.0000 0.91020  0.56190  0.75906  Biso   1.000  H
  C772     1.0000 0.90764  0.52505  0.79752  Biso   1.000  C
  H798     1.0000 0.91026  0.56190  0.75906  Biso   1.000  H
  N68      1.0000 0.94990  0.78028  0.81325  Biso   1.000  N
  C773     1.0000 0.92714  0.63806  0.82861  Biso   1.000  C
  H799     1.0000 0.34374  0.27448  0.84666  Biso   1.000  H
  C774     1.0000 0.44487  0.35954  0.82294  Biso   1.000  C
  C775     1.0000 0.44493  0.35954  0.82294  Biso   1.000  C
  C776     1.0000 0.18551  0.14229  0.84038  Biso   1.000  C
  H800     1.0000 0.18465  0.14069  0.79977  Biso   1.000  H
  H801     1.0000 0.18459  0.14069  0.79977  Biso   1.000  H
  H802     1.0000 0.53303  0.43128  0.79407  Biso   1.000  H
  C777     1.0000 0.66685  0.08545  0.77693  Biso   1.000  C
  C778     1.0000 0.76172  0.06533  0.80814  Biso   1.000  C
  C779     1.0000 0.66679  0.08545  0.77693  Biso   1.000  C
  C780     1.0000 0.76166  0.06533  0.80814  Biso   1.000  C
  H803     1.0000 0.89822  0.46695  0.79407  Biso   1.000  H
  H804     1.0000 0.89825  0.46701  0.79407  Biso   1.000  H
  C781     1.0000 0.91466  0.55508  0.82294  Biso   1.000  C
  C782     1.0000 0.95677  0.81452  0.84038  Biso   1.000  C
  H805     1.0000 0.95604  0.81538  0.79977  Biso   1.000  H
  C783     1.0000 0.95683  0.81452  0.84038  Biso   1.000  C
  H806     1.0000 0.95610  0.81538  0.79977  Biso   1.000  H
  H807     1.0000 0.93073  0.65624  0.84666  Biso   1.000  H
  H808     1.0000 0.48279  0.39357  0.83716  Biso   1.000  H
  H809     1.0000 0.48285  0.39357  0.83716  Biso   1.000  H
  H810     1.0000 0.19042  0.19438  0.85016  Biso   1.000  H
  H811     1.0000 0.22211  0.12156  0.84976  Biso   1.000  H
  C784     1.0000 0.08939  0.06840  0.84002  Biso   1.000  C
  C785     1.0000 0.08945  0.06840  0.84002  Biso   1.000  C
  H812     1.0000 0.19048  0.19438  0.85016  Biso   1.000  H
  H813     1.0000 0.22217  0.12156  0.84976  Biso   1.000  H
  H814     1.0000 0.65162  0.08973  0.75906  Biso   1.000  H
  C786     1.0000 0.61743  0.09234  0.79752  Biso   1.000  C
  H815     1.0000 0.65165  0.08980  0.75906  Biso   1.000  H
  H816     1.0000 0.65159  0.08980  0.75906  Biso   1.000  H
  C787     1.0000 0.61737  0.09234  0.79752  Biso   1.000  C
  C788     1.0000 0.71095  0.07288  0.82861  Biso   1.000  C
  N69      1.0000 0.83036  0.05008  0.81325  Biso   1.000  N
  C789     1.0000 0.71089  0.07288  0.82861  Biso   1.000  C
  N70      1.0000 0.83030  0.05008  0.81325  Biso   1.000  N
  H817     1.0000 0.91070  0.51716  0.83716  Biso   1.000  H
  H818     1.0000 0.00392  0.80957  0.85016  Biso   1.000  H
  H819     1.0000 0.89936  0.77787  0.84976  Biso   1.000  H
  C790     1.0000 0.97893  0.91060  0.84002  Biso   1.000  C
  H820     1.0000 0.89942  0.77787  0.84976  Biso   1.000  H
  C791     1.0000 0.97898  0.91060  0.84002  Biso   1.000  C
  C792     1.0000 0.02109  0.09013  0.83980  Biso   1.000  C
  C793     1.0000 0.06906  0.97887  0.83980  Biso   1.000  C
  C794     1.0000 0.06894  0.97887  0.83980  Biso   1.000  C
  C795     1.0000 0.02115  0.09013  0.83980  Biso   1.000  C
  H821     1.0000 0.56875  0.10177  0.79407  Biso   1.000  H
  C796     1.0000 0.64047  0.08539  0.82294  Biso   1.000  C
  C797     1.0000 0.64041  0.08539  0.82294  Biso   1.000  C
  H822     1.0000 0.56869  0.10177  0.79407  Biso   1.000  H
  H823     1.0000 0.72553  0.06927  0.84666  Biso   1.000  H
  C798     1.0000 0.85772  0.04320  0.84038  Biso   1.000  C
  H824     1.0000 0.85934  0.04400  0.79977  Biso   1.000  H
  C799     1.0000 0.85770  0.04326  0.84038  Biso   1.000  C
  C800     1.0000 0.85766  0.04320  0.84038  Biso   1.000  C
  C801     1.0000 0.90985  0.93099  0.83980  Biso   1.000  C
  C802     1.0000 0.04402  0.18682  0.83918  Biso   1.000  C
  C803     1.0000 0.93157  0.02100  0.84002  Biso   1.000  C
  C804     1.0000 0.93160  0.02106  0.84002  Biso   1.000  C
  C805     1.0000 0.93155  0.02106  0.84002  Biso   1.000  C
  C806     1.0000 0.04407  0.18682  0.83918  Biso   1.000  C
  C807     1.0000 0.14277  0.95594  0.83918  Biso   1.000  C
  C808     1.0000 0.14281  0.95600  0.83918  Biso   1.000  C
  C809     1.0000 0.14275  0.95600  0.83918  Biso   1.000  C
  H825     1.0000 0.60645  0.08927  0.83716  Biso   1.000  H
  H826     1.0000 0.60639  0.08927  0.83716  Biso   1.000  H
  H827     1.0000 0.80566  0.99605  0.85016  Biso   1.000  H
  H828     1.0000 0.87841  0.10057  0.84976  Biso   1.000  H
  C810     1.0000 0.81315  0.85724  0.83918  Biso   1.000  C
  H829     1.0000 0.10111  0.22273  0.82956  Biso   1.000  H
  C811     1.0000 0.05278  0.22473  0.86693  Biso   1.000  C
  H830     1.0000 0.10115  0.22280  0.82956  Biso   1.000  H
  C812     1.0000 0.05284  0.22473  0.86693  Biso   1.000  C
  H831     1.0000 0.99680  0.19164  0.82946  Biso   1.000  H
  H832     1.0000 0.12167  0.89890  0.82956  Biso   1.000  H
  H833     1.0000 0.19481  0.00314  0.82946  Biso   1.000  H
  C813     1.0000 0.17192  0.94718  0.86693  Biso   1.000  C
  C814     1.0000 0.77524  0.82809  0.86693  Biso   1.000  C
  H834     1.0000 0.80825  0.80515  0.82946  Biso   1.000  H
  H835     1.0000 0.77722  0.87837  0.82956  Biso   1.000  H
  H836     1.0000 0.80836  0.80515  0.82946  Biso   1.000  H
  H837     1.0000 0.77728  0.87837  0.82956  Biso   1.000  H
  H838     1.0000 0.06704  0.28719  0.86576  Biso   1.000  H
  H839     1.0000 0.10080  0.22186  0.87645  Biso   1.000  H
  H840     1.0000 0.10085  0.22186  0.87645  Biso   1.000  H
  H841     1.0000 0.99632  0.18976  0.87655  Biso   1.000  H
  H842     1.0000 0.99627  0.18976  0.87655  Biso   1.000  H
  H843     1.0000 0.22013  0.93300  0.86576  Biso   1.000  H
  H844     1.0000 0.19340  0.00368  0.87655  Biso   1.000  H
  H845     1.0000 0.19345  0.00368  0.87655  Biso   1.000  H
  H846     1.0000 0.12110  0.89917  0.87645  Biso   1.000  H
  H847     1.0000 0.12105  0.89917  0.87645  Biso   1.000  H
  H848     1.0000 0.81022  0.80656  0.87655  Biso   1.000  H
  H849     1.0000 0.71286  0.77988  0.86576  Biso   1.000  H
  H850     1.0000 0.77810  0.87897  0.87645  Biso   1.000  H
  C815     1.0000 0.22474  0.05282  0.63305  Biso   1.000  C
  C816     1.0000 0.18684  0.04406  0.66080  Biso   1.000  C
  H851     1.0000 0.18978  0.99632  0.62343  Biso   1.000  H
  H852     1.0000 0.18972  0.99632  0.62343  Biso   1.000  H
  H853     1.0000 0.28713  0.06700  0.63422  Biso   1.000  H
  H854     1.0000 0.22188  0.10083  0.62353  Biso   1.000  H
  H855     1.0000 0.28717  0.06707  0.63422  Biso   1.000  H
  H856     1.0000 0.22182  0.10083  0.62353  Biso   1.000  H
  H857     1.0000 0.19167  0.99686  0.67054  Biso   1.000  H
  C817     1.0000 0.09013  0.02113  0.66018  Biso   1.000  C
  H858     1.0000 0.22277  0.10110  0.67044  Biso   1.000  H
  H859     1.0000 0.22271  0.10110  0.67044  Biso   1.000  H
  C818     1.0000 0.09007  0.02113  0.66018  Biso   1.000  C
  C819     1.0000 0.22480  0.05282  0.63305  Biso   1.000  C
  C820     1.0000 0.02110  0.93160  0.65996  Biso   1.000  C
  C821     1.0000 0.02104  0.93160  0.65996  Biso   1.000  C
  C822     1.0000 0.06838  0.08940  0.65996  Biso   1.000  C
  C823     1.0000 0.06842  0.08947  0.65996  Biso   1.000  C
  C824     1.0000 0.93096  0.90987  0.66018  Biso   1.000  C
  C825     1.0000 0.93102  0.90987  0.66018  Biso   1.000  C
  C826     1.0000 0.04328  0.85771  0.65962  Biso   1.000  C
  C827     1.0000 0.04316  0.85771  0.65962  Biso   1.000  C
  C828     1.0000 0.14225  0.18548  0.65962  Biso   1.000  C
  C829     1.0000 0.97891  0.06901  0.66018  Biso   1.000  C
  C830     1.0000 0.97885  0.06901  0.66018  Biso   1.000  C
  C831     1.0000 0.14231  0.18548  0.65962  Biso   1.000  C
  C832     1.0000 0.91057  0.97900  0.65996  Biso   1.000  C
  C833     1.0000 0.85714  0.81318  0.66080  Biso   1.000  C
  C834     1.0000 0.85719  0.81318  0.66080  Biso   1.000  C
  H860     1.0000 0.99598  0.80562  0.64983  Biso   1.000  H
  H861     1.0000 0.99610  0.80562  0.64983  Biso   1.000  H
  H862     1.0000 0.10061  0.87844  0.65022  Biso   1.000  H
  N71      1.0000 0.05010  0.83036  0.68673  Biso   1.000  N
  N72      1.0000 0.05005  0.83036  0.68673  Biso   1.000  N
  H863     1.0000 0.19435  0.19043  0.64983  Biso   1.000  H
  H864     1.0000 0.12154  0.22213  0.65022  Biso   1.000  H
  N73      1.0000 0.16962  0.21972  0.68673  Biso   1.000  N
  H865     1.0000 0.12160  0.22213  0.65022  Biso   1.000  H
  N74      1.0000 0.16968  0.21972  0.68673  Biso   1.000  N
  C835     1.0000 0.95597  0.14276  0.66080  Biso   1.000  C
  C836     1.0000 0.95595  0.14282  0.66080  Biso   1.000  C
  C837     1.0000 0.95591  0.14276  0.66080  Biso   1.000  C
  C838     1.0000 0.81452  0.95680  0.65962  Biso   1.000  C
  H866     1.0000 0.80516  0.80836  0.67054  Biso   1.000  H
  H867     1.0000 0.87839  0.77727  0.67044  Biso   1.000  H
  C839     1.0000 0.82810  0.77527  0.63305  Biso   1.000  C
  H868     1.0000 0.87844  0.77727  0.67044  Biso   1.000  H
  H869     1.0000 0.04397  0.85931  0.70023  Biso   1.000  H
  C840     1.0000 0.06543  0.76176  0.69186  Biso   1.000  C
  C841     1.0000 0.06537  0.76176  0.69186  Biso   1.000  C
  C842     1.0000 0.23827  0.30364  0.69186  Biso   1.000  C
  H870     1.0000 0.14066  0.18462  0.70023  Biso   1.000  H
  H871     1.0000 0.00315  0.19485  0.67054  Biso   1.000  H
  H872     1.0000 0.89885  0.12163  0.67044  Biso   1.000  H
  C843     1.0000 0.94715  0.17191  0.63305  Biso   1.000  C
  C844     1.0000 0.94709  0.17191  0.63305  Biso   1.000  C
  H873     1.0000 0.00321  0.19485  0.67054  Biso   1.000  H
  H874     1.0000 0.77779  0.89943  0.65022  Biso   1.000  H
  N75      1.0000 0.78027  0.94992  0.68673  Biso   1.000  N
  H875     1.0000 0.77791  0.89943  0.65022  Biso   1.000  H
  N76      1.0000 0.78033  0.94992  0.68673  Biso   1.000  N
  H876     1.0000 0.80960  0.00395  0.64983  Biso   1.000  H
  H877     1.0000 0.80955  0.00395  0.64983  Biso   1.000  H
  H878     1.0000 0.80656  0.81024  0.62343  Biso   1.000  H
  H879     1.0000 0.77980  0.71281  0.63422  Biso   1.000  H
  H880     1.0000 0.87899  0.77814  0.62353  Biso   1.000  H
  H881     1.0000 0.77991  0.71281  0.63422  Biso   1.000  H
  C845     1.0000 0.07250  0.73802  0.71790  Biso   1.000  C
  C846     1.0000 0.07291  0.71094  0.67137  Biso   1.000  C
  C847     1.0000 0.07280  0.71094  0.67137  Biso   1.000  C
  C848     1.0000 0.26193  0.33439  0.71790  Biso   1.000  C
  C849     1.0000 0.28908  0.36194  0.67137  Biso   1.000  C
  C850     1.0000 0.26197  0.33446  0.71790  Biso   1.000  C
  C851     1.0000 0.28903  0.36194  0.67137  Biso   1.000  C
  H882     1.0000 0.00366  0.19344  0.62343  Biso   1.000  H
  H883     1.0000 0.93298  0.22012  0.63422  Biso   1.000  H
  H884     1.0000 0.89918  0.12103  0.62353  Biso   1.000  H
  H885     1.0000 0.93292  0.22012  0.63422  Biso   1.000  H
  H886     1.0000 0.89913  0.12103  0.62353  Biso   1.000  H
  C852     1.0000 0.69639  0.93467  0.69186  Biso   1.000  C
  H887     1.0000 0.81534  0.95600  0.70023  Biso   1.000  H
  C853     1.0000 0.69645  0.93467  0.69186  Biso   1.000  C
  H888     1.0000 0.81543  0.95607  0.70023  Biso   1.000  H
  H889     1.0000 0.81540  0.95600  0.70023  Biso   1.000  H
  C854     1.0000 0.08553  0.66681  0.72305  Biso   1.000  C
  S71      1.0000 0.06622  0.80121  0.74473  Biso   1.000  S
  C855     1.0000 0.08551  0.66688  0.72305  Biso   1.000  C
  C856     1.0000 0.08547  0.66681  0.72305  Biso   1.000  C
  C857     1.0000 0.08545  0.64046  0.67706  Biso   1.000  C
  H890     1.0000 0.06931  0.72552  0.65332  Biso   1.000  H
  C858     1.0000 0.08539  0.64046  0.67706  Biso   1.000  C
  H891     1.0000 0.06926  0.72552  0.65332  Biso   1.000  H
  S72      1.0000 0.19880  0.26499  0.74473  Biso   1.000  S
  C859     1.0000 0.33319  0.41864  0.72305  Biso   1.000  C
  C860     1.0000 0.33313  0.41864  0.72305  Biso   1.000  C
  S73      1.0000 0.19886  0.26499  0.74473  Biso   1.000  S
  C861     1.0000 0.35959  0.44492  0.67706  Biso   1.000  C
  H892     1.0000 0.27449  0.34376  0.65332  Biso   1.000  H
  C862     1.0000 0.35953  0.44492  0.67706  Biso   1.000  C
  H893     1.0000 0.27443  0.34376  0.65332  Biso   1.000  H
  C863     1.0000 0.66559  0.92752  0.71790  Biso   1.000  C
  C864     1.0000 0.63800  0.92712  0.67137  Biso   1.000  C
  C865     1.0000 0.63812  0.92712  0.67137  Biso   1.000  C
  H894     1.0000 0.08981  0.65163  0.74094  Biso   1.000  H
  C866     1.0000 0.09242  0.61746  0.70246  Biso   1.000  C
  H895     1.0000 0.08976  0.65163  0.74094  Biso   1.000  H
  S74      1.0000 0.93381  0.73501  0.75527  Biso   1.000  S
  H896     1.0000 0.08933  0.60643  0.66282  Biso   1.000  H
  H897     1.0000 0.08922  0.60643  0.66282  Biso   1.000  H
  S75      1.0000 0.26495  0.19879  0.75527  Biso   1.000  S
  S76      1.0000 0.26501  0.19879  0.75527  Biso   1.000  S
  H898     1.0000 0.34836  0.43810  0.74094  Biso   1.000  H
  C867     1.0000 0.38259  0.47495  0.70246  Biso   1.000  C
  C868     1.0000 0.38253  0.47495  0.70246  Biso   1.000  C
  H899     1.0000 0.34830  0.43810  0.74094  Biso   1.000  H
  H900     1.0000 0.39354  0.48284  0.66282  Biso   1.000  H
  H901     1.0000 0.39360  0.48284  0.66282  Biso   1.000  H
  S77      1.0000 0.73498  0.93380  0.74473  Biso   1.000  S
  C869     1.0000 0.58134  0.91455  0.72305  Biso   1.000  C
  S78      1.0000 0.73502  0.93387  0.74473  Biso   1.000  S
  H902     1.0000 0.65625  0.93073  0.65332  Biso   1.000  H
  C870     1.0000 0.55502  0.91461  0.67706  Biso   1.000  C
  H903     1.0000 0.10175  0.56872  0.70593  Biso   1.000  H
  C871     1.0000 0.92748  0.66561  0.78210  Biso   1.000  C
  C872     1.0000 0.92760  0.66561  0.78210  Biso   1.000  C
  C873     1.0000 0.33442  0.26198  0.78210  Biso   1.000  C
  C874     1.0000 0.33448  0.26198  0.78210  Biso   1.000  C
  H904     1.0000 0.43127  0.53305  0.70593  Biso   1.000  H
  S79      1.0000 0.80118  0.06620  0.75527  Biso   1.000  S
  C875     1.0000 0.52508  0.90766  0.70246  Biso   1.000  C
  H905     1.0000 0.56183  0.91027  0.74094  Biso   1.000  H
  H906     1.0000 0.56194  0.91027  0.74094  Biso   1.000  H
  H907     1.0000 0.51718  0.91073  0.66282  Biso   1.000  H
  H908     1.0000 0.51724  0.91073  0.66282  Biso   1.000  H
  C876     1.0000 0.91454  0.58136  0.77693  Biso   1.000  C
  C877     1.0000 0.93458  0.69636  0.80814  Biso   1.000  C
  C878     1.0000 0.93470  0.69636  0.80814  Biso   1.000  C
  C879     1.0000 0.30361  0.23824  0.80814  Biso   1.000  C
  C880     1.0000 0.41867  0.33319  0.77693  Biso   1.000  C
  C881     1.0000 0.41861  0.33319  0.77693  Biso   1.000  C
  C882     1.0000 0.73808  0.07248  0.78210  Biso   1.000  C
  C883     1.0000 0.73802  0.07248  0.78210  Biso   1.000  C
  H909     1.0000 0.46698  0.89823  0.70593  Biso   1.000  H
  H910     1.0000 0.46704  0.89823  0.70593  Biso   1.000  H
  H911     1.0000 0.91020  0.56190  0.75906  Biso   1.000  H
  C884     1.0000 0.90764  0.52505  0.79752  Biso   1.000  C
  H912     1.0000 0.91026  0.56190  0.75906  Biso   1.000  H
  N77      1.0000 0.94990  0.78028  0.81325  Biso   1.000  N
  C885     1.0000 0.92714  0.63806  0.82861  Biso   1.000  C
  C886     1.0000 0.36191  0.28906  0.82861  Biso   1.000  C
  N78      1.0000 0.21974  0.16964  0.81325  Biso   1.000  N
  N79      1.0000 0.21968  0.16964  0.81325  Biso   1.000  N
  H913     1.0000 0.43813  0.34837  0.75906  Biso   1.000  H
  C887     1.0000 0.47490  0.38254  0.79752  Biso   1.000  C
  C888     1.0000 0.47496  0.38254  0.79752  Biso   1.000  C
  C889     1.0000 0.66685  0.08545  0.77693  Biso   1.000  C
  C890     1.0000 0.76172  0.06533  0.80814  Biso   1.000  C
  C891     1.0000 0.66679  0.08545  0.77693  Biso   1.000  C
  C892     1.0000 0.76166  0.06533  0.80814  Biso   1.000  C
  H914     1.0000 0.89822  0.46695  0.79407  Biso   1.000  H
  H915     1.0000 0.89825  0.46701  0.79407  Biso   1.000  H
  C893     1.0000 0.91466  0.55508  0.82294  Biso   1.000  C
  C894     1.0000 0.95677  0.81452  0.84038  Biso   1.000  C
  H916     1.0000 0.95604  0.81538  0.79977  Biso   1.000  H
  C895     1.0000 0.95683  0.81452  0.84038  Biso   1.000  C
  H917     1.0000 0.95610  0.81538  0.79977  Biso   1.000  H
  H918     1.0000 0.93073  0.65624  0.84666  Biso   1.000  H
  H919     1.0000 0.34374  0.27448  0.84666  Biso   1.000  H
  C896     1.0000 0.44493  0.35954  0.82294  Biso   1.000  C
  C897     1.0000 0.44487  0.35954  0.82294  Biso   1.000  C
  C898     1.0000 0.18551  0.14229  0.84038  Biso   1.000  C
  H920     1.0000 0.18465  0.14069  0.79977  Biso   1.000  H
  H921     1.0000 0.18459  0.14069  0.79977  Biso   1.000  H
  H922     1.0000 0.53303  0.43128  0.79407  Biso   1.000  H
  H923     1.0000 0.65162  0.08973  0.75906  Biso   1.000  H
  C899     1.0000 0.61743  0.09234  0.79752  Biso   1.000  C
  H924     1.0000 0.65165  0.08980  0.75906  Biso   1.000  H
  H925     1.0000 0.65159  0.08980  0.75906  Biso   1.000  H
  C900     1.0000 0.61737  0.09234  0.79752  Biso   1.000  C
  C901     1.0000 0.71095  0.07288  0.82861  Biso   1.000  C
  N80      1.0000 0.83036  0.05008  0.81325  Biso   1.000  N
  C902     1.0000 0.71089  0.07288  0.82861  Biso   1.000  C
  N81      1.0000 0.83030  0.05008  0.81325  Biso   1.000  N
  H926     1.0000 0.91070  0.51716  0.83716  Biso   1.000  H
  H927     1.0000 0.00392  0.80957  0.85016  Biso   1.000  H
  H928     1.0000 0.89936  0.77787  0.84976  Biso   1.000  H
  C903     1.0000 0.97893  0.91060  0.84002  Biso   1.000  C
  H929     1.0000 0.89942  0.77787  0.84976  Biso   1.000  H
  C904     1.0000 0.97898  0.91060  0.84002  Biso   1.000  C
  H930     1.0000 0.48285  0.39357  0.83716  Biso   1.000  H
  H931     1.0000 0.48279  0.39357  0.83716  Biso   1.000  H
  H932     1.0000 0.19042  0.19438  0.85016  Biso   1.000  H
  H933     1.0000 0.22211  0.12156  0.84976  Biso   1.000  H
  C905     1.0000 0.08945  0.06840  0.84002  Biso   1.000  C
  C906     1.0000 0.08939  0.06840  0.84002  Biso   1.000  C
  H934     1.0000 0.19048  0.19438  0.85016  Biso   1.000  H
  H935     1.0000 0.22217  0.12156  0.84976  Biso   1.000  H
  H936     1.0000 0.56875  0.10177  0.79407  Biso   1.000  H
  C907     1.0000 0.64047  0.08539  0.82294  Biso   1.000  C
  C908     1.0000 0.64041  0.08539  0.82294  Biso   1.000  C
  H937     1.0000 0.56869  0.10177  0.79407  Biso   1.000  H
  H938     1.0000 0.72553  0.06927  0.84666  Biso   1.000  H
  C909     1.0000 0.85772  0.04320  0.84038  Biso   1.000  C
  H939     1.0000 0.85934  0.04400  0.79977  Biso   1.000  H
  C910     1.0000 0.85770  0.04326  0.84038  Biso   1.000  C
  C911     1.0000 0.85766  0.04320  0.84038  Biso   1.000  C
  C912     1.0000 0.90985  0.93099  0.83980  Biso   1.000  C
  C913     1.0000 0.06906  0.97887  0.83980  Biso   1.000  C
  C914     1.0000 0.06894  0.97887  0.83980  Biso   1.000  C
  C915     1.0000 0.02109  0.09013  0.83980  Biso   1.000  C
  C916     1.0000 0.02115  0.09013  0.83980  Biso   1.000  C
  H940     1.0000 0.60645  0.08927  0.83716  Biso   1.000  H
  H941     1.0000 0.60639  0.08927  0.83716  Biso   1.000  H
  H942     1.0000 0.80566  0.99605  0.85016  Biso   1.000  H
  H943     1.0000 0.87841  0.10057  0.84976  Biso   1.000  H
  C917     1.0000 0.93157  0.02100  0.84002  Biso   1.000  C
  C918     1.0000 0.93160  0.02106  0.84002  Biso   1.000  C
  C919     1.0000 0.93155  0.02106  0.84002  Biso   1.000  C
  C920     1.0000 0.81315  0.85724  0.83918  Biso   1.000  C
  C921     1.0000 0.14277  0.95594  0.83918  Biso   1.000  C
  C922     1.0000 0.14281  0.95600  0.83918  Biso   1.000  C
  C923     1.0000 0.14275  0.95600  0.83918  Biso   1.000  C
  C924     1.0000 0.04402  0.18682  0.83918  Biso   1.000  C
  C925     1.0000 0.04407  0.18682  0.83918  Biso   1.000  C
  C926     1.0000 0.77524  0.82809  0.86693  Biso   1.000  C
  H944     1.0000 0.80825  0.80515  0.82946  Biso   1.000  H
  H945     1.0000 0.77722  0.87837  0.82956  Biso   1.000  H
  H946     1.0000 0.80836  0.80515  0.82946  Biso   1.000  H
  H947     1.0000 0.77728  0.87837  0.82956  Biso   1.000  H
  H948     1.0000 0.12167  0.89890  0.82956  Biso   1.000  H
  H949     1.0000 0.19481  0.00314  0.82946  Biso   1.000  H
  C927     1.0000 0.17192  0.94718  0.86693  Biso   1.000  C
  H950     1.0000 0.99680  0.19164  0.82946  Biso   1.000  H
  H951     1.0000 0.10111  0.22273  0.82956  Biso   1.000  H
  C928     1.0000 0.05284  0.22473  0.86693  Biso   1.000  C
  H952     1.0000 0.10115  0.22280  0.82956  Biso   1.000  H
  C929     1.0000 0.05278  0.22473  0.86693  Biso   1.000  C
  H953     1.0000 0.81022  0.80656  0.87655  Biso   1.000  H
  H954     1.0000 0.71286  0.77988  0.86576  Biso   1.000  H
  H955     1.0000 0.77810  0.87897  0.87645  Biso   1.000  H
  H956     1.0000 0.22013  0.93300  0.86576  Biso   1.000  H
  H957     1.0000 0.12110  0.89917  0.87645  Biso   1.000  H
  H958     1.0000 0.12105  0.89917  0.87645  Biso   1.000  H
  H959     1.0000 0.19345  0.00368  0.87655  Biso   1.000  H
  H960     1.0000 0.19340  0.00368  0.87655  Biso   1.000  H
  H961     1.0000 0.06704  0.28719  0.86576  Biso   1.000  H
  H962     1.0000 0.99632  0.18976  0.87655  Biso   1.000  H
  H963     1.0000 0.99627  0.18976  0.87655  Biso   1.000  H
  H964     1.0000 0.10085  0.22186  0.87645  Biso   1.000  H
  H965     1.0000 0.10080  0.22186  0.87645  Biso   1.000  H
  C930     1.0000 0.22474  0.05282  0.63305  Biso   1.000  C
  C931     1.0000 0.18684  0.04406  0.66080  Biso   1.000  C
  H966     1.0000 0.18978  0.99632  0.62343  Biso   1.000  H
  H967     1.0000 0.18972  0.99632  0.62343  Biso   1.000  H
  H968     1.0000 0.28713  0.06700  0.63422  Biso   1.000  H
  H969     1.0000 0.22188  0.10083  0.62353  Biso   1.000  H
  H970     1.0000 0.28717  0.06707  0.63422  Biso   1.000  H
  H971     1.0000 0.22182  0.10083  0.62353  Biso   1.000  H
  H972     1.0000 0.19167  0.99686  0.67054  Biso   1.000  H
  C932     1.0000 0.09013  0.02113  0.66018  Biso   1.000  C
  H973     1.0000 0.22277  0.10110  0.67044  Biso   1.000  H
  H974     1.0000 0.22271  0.10110  0.67044  Biso   1.000  H
  C933     1.0000 0.09007  0.02113  0.66018  Biso   1.000  C
  C934     1.0000 0.22480  0.05282  0.63305  Biso   1.000  C
  C935     1.0000 0.02110  0.93160  0.65996  Biso   1.000  C
  C936     1.0000 0.02104  0.93160  0.65996  Biso   1.000  C
  C937     1.0000 0.06838  0.08940  0.65996  Biso   1.000  C
  C938     1.0000 0.06842  0.08947  0.65996  Biso   1.000  C
  C939     1.0000 0.93096  0.90987  0.66018  Biso   1.000  C
  C940     1.0000 0.93102  0.90987  0.66018  Biso   1.000  C
  C941     1.0000 0.04328  0.85771  0.65962  Biso   1.000  C
  C942     1.0000 0.04316  0.85771  0.65962  Biso   1.000  C
  C943     1.0000 0.97891  0.06901  0.66018  Biso   1.000  C
  C944     1.0000 0.97885  0.06901  0.66018  Biso   1.000  C
  C945     1.0000 0.14225  0.18548  0.65962  Biso   1.000  C
  C946     1.0000 0.14231  0.18548  0.65962  Biso   1.000  C
  C947     1.0000 0.91057  0.97900  0.65996  Biso   1.000  C
  C948     1.0000 0.85714  0.81318  0.66080  Biso   1.000  C
  C949     1.0000 0.85719  0.81318  0.66080  Biso   1.000  C
  H975     1.0000 0.99598  0.80562  0.64983  Biso   1.000  H
  H976     1.0000 0.99610  0.80562  0.64983  Biso   1.000  H
  H977     1.0000 0.10061  0.87844  0.65022  Biso   1.000  H
  N82      1.0000 0.05010  0.83036  0.68673  Biso   1.000  N
  N83      1.0000 0.05005  0.83036  0.68673  Biso   1.000  N
  C950     1.0000 0.95597  0.14276  0.66080  Biso   1.000  C
  C951     1.0000 0.95595  0.14282  0.66080  Biso   1.000  C
  C952     1.0000 0.95591  0.14276  0.66080  Biso   1.000  C
  H978     1.0000 0.19435  0.19043  0.64983  Biso   1.000  H
  H979     1.0000 0.12154  0.22213  0.65022  Biso   1.000  H
  N84      1.0000 0.16962  0.21972  0.68673  Biso   1.000  N
  H980     1.0000 0.12160  0.22213  0.65022  Biso   1.000  H
  N85      1.0000 0.16968  0.21972  0.68673  Biso   1.000  N
  C953     1.0000 0.81452  0.95680  0.65962  Biso   1.000  C
  H981     1.0000 0.80516  0.80836  0.67054  Biso   1.000  H
  H982     1.0000 0.87839  0.77727  0.67044  Biso   1.000  H
  C954     1.0000 0.82810  0.77527  0.63305  Biso   1.000  C
  H983     1.0000 0.87844  0.77727  0.67044  Biso   1.000  H
  H984     1.0000 0.04397  0.85931  0.70023  Biso   1.000  H
  C955     1.0000 0.06543  0.76176  0.69186  Biso   1.000  C
  C956     1.0000 0.06537  0.76176  0.69186  Biso   1.000  C
  H985     1.0000 0.89885  0.12163  0.67044  Biso   1.000  H
  C957     1.0000 0.94715  0.17191  0.63305  Biso   1.000  C
  C958     1.0000 0.94709  0.17191  0.63305  Biso   1.000  C
  H986     1.0000 0.00315  0.19485  0.67054  Biso   1.000  H
  H987     1.0000 0.00321  0.19485  0.67054  Biso   1.000  H
  C959     1.0000 0.23827  0.30364  0.69186  Biso   1.000  C
  H988     1.0000 0.14066  0.18462  0.70023  Biso   1.000  H
  H989     1.0000 0.77779  0.89943  0.65022  Biso   1.000  H
  N86      1.0000 0.78027  0.94992  0.68673  Biso   1.000  N
  H990     1.0000 0.77791  0.89943  0.65022  Biso   1.000  H
  N87      1.0000 0.78033  0.94992  0.68673  Biso   1.000  N
  H991     1.0000 0.80960  0.00395  0.64983  Biso   1.000  H
  H992     1.0000 0.80955  0.00395  0.64983  Biso   1.000  H
  H993     1.0000 0.80656  0.81024  0.62343  Biso   1.000  H
  H994     1.0000 0.77980  0.71281  0.63422  Biso   1.000  H
  H995     1.0000 0.87899  0.77814  0.62353  Biso   1.000  H
  H996     1.0000 0.77991  0.71281  0.63422  Biso   1.000  H
  C960     1.0000 0.07250  0.73802  0.71790  Biso   1.000  C
  C961     1.0000 0.07291  0.71094  0.67137  Biso   1.000  C
  C962     1.0000 0.07280  0.71094  0.67137  Biso   1.000  C
  H997     1.0000 0.00366  0.19344  0.62343  Biso   1.000  H
  H998     1.0000 0.93298  0.22012  0.63422  Biso   1.000  H
  H999     1.0000 0.89918  0.12103  0.62353  Biso   1.000  H
  H1000    1.0000 0.93292  0.22012  0.63422  Biso   1.000  H
  H1001    1.0000 0.89913  0.12103  0.62353  Biso   1.000  H
  C963     1.0000 0.26193  0.33439  0.71790  Biso   1.000  C
  C964     1.0000 0.28908  0.36194  0.67137  Biso   1.000  C
  C965     1.0000 0.26197  0.33446  0.71790  Biso   1.000  C
  C966     1.0000 0.28903  0.36194  0.67137  Biso   1.000  C
  C967     1.0000 0.69639  0.93467  0.69186  Biso   1.000  C
  H1002    1.0000 0.81534  0.95600  0.70023  Biso   1.000  H
  C968     1.0000 0.69645  0.93467  0.69186  Biso   1.000  C
  H1003    1.0000 0.81543  0.95607  0.70023  Biso   1.000  H
  H1004    1.0000 0.81540  0.95600  0.70023  Biso   1.000  H
  C969     1.0000 0.08553  0.66681  0.72305  Biso   1.000  C
  S80      1.0000 0.06622  0.80121  0.74473  Biso   1.000  S
  C970     1.0000 0.08551  0.66688  0.72305  Biso   1.000  C
  C971     1.0000 0.08547  0.66681  0.72305  Biso   1.000  C
  C972     1.0000 0.08545  0.64046  0.67706  Biso   1.000  C
  H1005    1.0000 0.06931  0.72552  0.65332  Biso   1.000  H
  C973     1.0000 0.08539  0.64046  0.67706  Biso   1.000  C
  H1006    1.0000 0.06926  0.72552  0.65332  Biso   1.000  H
  C974     1.0000 0.33319  0.41864  0.72305  Biso   1.000  C
  S81      1.0000 0.19880  0.26499  0.74473  Biso   1.000  S
  C975     1.0000 0.33313  0.41864  0.72305  Biso   1.000  C
  S82      1.0000 0.19886  0.26499  0.74473  Biso   1.000  S
  C976     1.0000 0.35959  0.44492  0.67706  Biso   1.000  C
  H1007    1.0000 0.27449  0.34376  0.65332  Biso   1.000  H
  C977     1.0000 0.35953  0.44492  0.67706  Biso   1.000  C
  H1008    1.0000 0.27443  0.34376  0.65332  Biso   1.000  H
  C978     1.0000 0.66559  0.92752  0.71790  Biso   1.000  C
  C979     1.0000 0.63800  0.92712  0.67137  Biso   1.000  C
  C980     1.0000 0.63812  0.92712  0.67137  Biso   1.000  C
  H1009    1.0000 0.08981  0.65163  0.74094  Biso   1.000  H
  C981     1.0000 0.09242  0.61746  0.70246  Biso   1.000  C
  H1010    1.0000 0.08976  0.65163  0.74094  Biso   1.000  H
  S83      1.0000 0.93381  0.73501  0.75527  Biso   1.000  S
  H1011    1.0000 0.08933  0.60643  0.66282  Biso   1.000  H
  H1012    1.0000 0.08922  0.60643  0.66282  Biso   1.000  H
  H1013    1.0000 0.34836  0.43810  0.74094  Biso   1.000  H
  C982     1.0000 0.38259  0.47495  0.70246  Biso   1.000  C
  C983     1.0000 0.38253  0.47495  0.70246  Biso   1.000  C
  H1014    1.0000 0.34830  0.43810  0.74094  Biso   1.000  H
  S84      1.0000 0.26495  0.19879  0.75527  Biso   1.000  S
  S85      1.0000 0.26501  0.19879  0.75527  Biso   1.000  S
  H1015    1.0000 0.39354  0.48284  0.66282  Biso   1.000  H
  H1016    1.0000 0.39360  0.48284  0.66282  Biso   1.000  H
  S86      1.0000 0.73498  0.93380  0.74473  Biso   1.000  S
  C984     1.0000 0.58134  0.91455  0.72305  Biso   1.000  C
  S87      1.0000 0.73502  0.93387  0.74473  Biso   1.000  S
  H1017    1.0000 0.65625  0.93073  0.65332  Biso   1.000  H
  C985     1.0000 0.55502  0.91461  0.67706  Biso   1.000  C
  H1018    1.0000 0.10175  0.56872  0.70593  Biso   1.000  H
  C986     1.0000 0.92748  0.66561  0.78210  Biso   1.000  C
  C987     1.0000 0.92760  0.66561  0.78210  Biso   1.000  C
  H1019    1.0000 0.43127  0.53305  0.70593  Biso   1.000  H
  C988     1.0000 0.33442  0.26198  0.78210  Biso   1.000  C
  C989     1.0000 0.33448  0.26198  0.78210  Biso   1.000  C
  S88      1.0000 0.80118  0.06620  0.75527  Biso   1.000  S
  C990     1.0000 0.52508  0.90766  0.70246  Biso   1.000  C
  H1020    1.0000 0.56183  0.91027  0.74094  Biso   1.000  H
  H1021    1.0000 0.56194  0.91027  0.74094  Biso   1.000  H
  H1022    1.0000 0.51718  0.91073  0.66282  Biso   1.000  H
  H1023    1.0000 0.51724  0.91073  0.66282  Biso   1.000  H
  C991     1.0000 0.91454  0.58136  0.77693  Biso   1.000  C
  C992     1.0000 0.93458  0.69636  0.80814  Biso   1.000  C
  C993     1.0000 0.93470  0.69636  0.80814  Biso   1.000  C
  C994     1.0000 0.30361  0.23824  0.80814  Biso   1.000  C
  C995     1.0000 0.41867  0.33319  0.77693  Biso   1.000  C
  C996     1.0000 0.41861  0.33319  0.77693  Biso   1.000  C
  C997     1.0000 0.73808  0.07248  0.78210  Biso   1.000  C
  C998     1.0000 0.73802  0.07248  0.78210  Biso   1.000  C
  H1024    1.0000 0.46698  0.89823  0.70593  Biso   1.000  H
  H1025    1.0000 0.46704  0.89823  0.70593  Biso   1.000  H
  H1026    1.0000 0.91020  0.56190  0.75906  Biso   1.000  H
  C999     1.0000 0.90764  0.52505  0.79752  Biso   1.000  C
  H1027    1.0000 0.91026  0.56190  0.75906  Biso   1.000  H
  N88      1.0000 0.94990  0.78028  0.81325  Biso   1.000  N
  C1000    1.0000 0.92714  0.63806  0.82861  Biso   1.000  C
  C1001    1.0000 0.36191  0.28906  0.82861  Biso   1.000  C
  N89      1.0000 0.21974  0.16964  0.81325  Biso   1.000  N
  N90      1.0000 0.21968  0.16964  0.81325  Biso   1.000  N
  H1028    1.0000 0.43813  0.34837  0.75906  Biso   1.000  H
  C1002    1.0000 0.47490  0.38254  0.79752  Biso   1.000  C
  C1003    1.0000 0.47496  0.38254  0.79752  Biso   1.000  C
  C1004    1.0000 0.66685  0.08545  0.77693  Biso   1.000  C
  C1005    1.0000 0.76172  0.06533  0.80814  Biso   1.000  C
  C1006    1.0000 0.66679  0.08545  0.77693  Biso   1.000  C
  C1007    1.0000 0.76166  0.06533  0.80814  Biso   1.000  C
  H1029    1.0000 0.89822  0.46695  0.79407  Biso   1.000  H
  H1030    1.0000 0.89825  0.46701  0.79407  Biso   1.000  H
  C1008    1.0000 0.91466  0.55508  0.82294  Biso   1.000  C
  C1009    1.0000 0.95677  0.81452  0.84038  Biso   1.000  C
  H1031    1.0000 0.95604  0.81538  0.79977  Biso   1.000  H
  C1010    1.0000 0.95683  0.81452  0.84038  Biso   1.000  C
  H1032    1.0000 0.95610  0.81538  0.79977  Biso   1.000  H
  H1033    1.0000 0.93073  0.65624  0.84666  Biso   1.000  H
  H1034    1.0000 0.34374  0.27448  0.84666  Biso   1.000  H
  C1011    1.0000 0.44493  0.35954  0.82294  Biso   1.000  C
  C1012    1.0000 0.44487  0.35954  0.82294  Biso   1.000  C
  C1013    1.0000 0.18551  0.14229  0.84038  Biso   1.000  C
  H1035    1.0000 0.18465  0.14069  0.79977  Biso   1.000  H
  H1036    1.0000 0.18459  0.14069  0.79977  Biso   1.000  H
  H1037    1.0000 0.53303  0.43128  0.79407  Biso   1.000  H
  H1038    1.0000 0.65162  0.08973  0.75906  Biso   1.000  H
  C1014    1.0000 0.61743  0.09234  0.79752  Biso   1.000  C
  H1039    1.0000 0.65165  0.08980  0.75906  Biso   1.000  H
  H1040    1.0000 0.65159  0.08980  0.75906  Biso   1.000  H
  C1015    1.0000 0.61737  0.09234  0.79752  Biso   1.000  C
  C1016    1.0000 0.71095  0.07288  0.82861  Biso   1.000  C
  N91      1.0000 0.83036  0.05008  0.81325  Biso   1.000  N
  C1017    1.0000 0.71089  0.07288  0.82861  Biso   1.000  C
  N92      1.0000 0.83030  0.05008  0.81325  Biso   1.000  N
  H1041    1.0000 0.91070  0.51716  0.83716  Biso   1.000  H
  H1042    1.0000 0.00392  0.80957  0.85016  Biso   1.000  H
  H1043    1.0000 0.89936  0.77787  0.84976  Biso   1.000  H
  C1018    1.0000 0.97893  0.91060  0.84002  Biso   1.000  C
  H1044    1.0000 0.89942  0.77787  0.84976  Biso   1.000  H
  C1019    1.0000 0.97898  0.91060  0.84002  Biso   1.000  C
  H1045    1.0000 0.48285  0.39357  0.83716  Biso   1.000  H
  H1046    1.0000 0.48279  0.39357  0.83716  Biso   1.000  H
  H1047    1.0000 0.19042  0.19438  0.85016  Biso   1.000  H
  H1048    1.0000 0.22211  0.12156  0.84976  Biso   1.000  H
  C1020    1.0000 0.08945  0.06840  0.84002  Biso   1.000  C
  C1021    1.0000 0.08939  0.06840  0.84002  Biso   1.000  C
  H1049    1.0000 0.19048  0.19438  0.85016  Biso   1.000  H
  H1050    1.0000 0.22217  0.12156  0.84976  Biso   1.000  H
  H1051    1.0000 0.56875  0.10177  0.79407  Biso   1.000  H
  C1022    1.0000 0.64047  0.08539  0.82294  Biso   1.000  C
  C1023    1.0000 0.64041  0.08539  0.82294  Biso   1.000  C
  H1052    1.0000 0.56869  0.10177  0.79407  Biso   1.000  H
  H1053    1.0000 0.72553  0.06927  0.84666  Biso   1.000  H
  C1024    1.0000 0.85772  0.04320  0.84038  Biso   1.000  C
  H1054    1.0000 0.85934  0.04400  0.79977  Biso   1.000  H
  C1025    1.0000 0.85770  0.04326  0.84038  Biso   1.000  C
  C1026    1.0000 0.85766  0.04320  0.84038  Biso   1.000  C
  C1027    1.0000 0.90985  0.93099  0.83980  Biso   1.000  C
  C1028    1.0000 0.06906  0.97887  0.83980  Biso   1.000  C
  C1029    1.0000 0.06894  0.97887  0.83980  Biso   1.000  C
  C1030    1.0000 0.02109  0.09013  0.83980  Biso   1.000  C
  C1031    1.0000 0.02115  0.09013  0.83980  Biso   1.000  C
  H1055    1.0000 0.60645  0.08927  0.83716  Biso   1.000  H
  H1056    1.0000 0.60639  0.08927  0.83716  Biso   1.000  H
  H1057    1.0000 0.80566  0.99605  0.85016  Biso   1.000  H
  H1058    1.0000 0.87841  0.10057  0.84976  Biso   1.000  H
  C1032    1.0000 0.93157  0.02100  0.84002  Biso   1.000  C
  C1033    1.0000 0.93160  0.02106  0.84002  Biso   1.000  C
  C1034    1.0000 0.93155  0.02106  0.84002  Biso   1.000  C
  C1035    1.0000 0.81315  0.85724  0.83918  Biso   1.000  C
  C1036    1.0000 0.14277  0.95594  0.83918  Biso   1.000  C
  C1037    1.0000 0.14281  0.95600  0.83918  Biso   1.000  C
  C1038    1.0000 0.14275  0.95600  0.83918  Biso   1.000  C
  C1039    1.0000 0.04402  0.18682  0.83918  Biso   1.000  C
  C1040    1.0000 0.04407  0.18682  0.83918  Biso   1.000  C
  C1041    1.0000 0.77524  0.82809  0.86693  Biso   1.000  C
  H1059    1.0000 0.80825  0.80515  0.82946  Biso   1.000  H
  H1060    1.0000 0.77722  0.87837  0.82956  Biso   1.000  H
  H1061    1.0000 0.80836  0.80515  0.82946  Biso   1.000  H
  H1062    1.0000 0.77728  0.87837  0.82956  Biso   1.000  H
  H1063    1.0000 0.12167  0.89890  0.82956  Biso   1.000  H
  H1064    1.0000 0.19481  0.00314  0.82946  Biso   1.000  H
  C1042    1.0000 0.17192  0.94718  0.86693  Biso   1.000  C
  H1065    1.0000 0.99680  0.19164  0.82946  Biso   1.000  H
  H1066    1.0000 0.10111  0.22273  0.82956  Biso   1.000  H
  C1043    1.0000 0.05284  0.22473  0.86693  Biso   1.000  C
  H1067    1.0000 0.10115  0.22280  0.82956  Biso   1.000  H
  C1044    1.0000 0.05278  0.22473  0.86693  Biso   1.000  C
  H1068    1.0000 0.81022  0.80656  0.87655  Biso   1.000  H
  H1069    1.0000 0.71286  0.77988  0.86576  Biso   1.000  H
  H1070    1.0000 0.77810  0.87897  0.87645  Biso   1.000  H
  H1071    1.0000 0.22013  0.93300  0.86576  Biso   1.000  H
  H1072    1.0000 0.12110  0.89917  0.87645  Biso   1.000  H
  H1073    1.0000 0.12105  0.89917  0.87645  Biso   1.000  H
  H1074    1.0000 0.19345  0.00368  0.87655  Biso   1.000  H
  H1075    1.0000 0.19340  0.00368  0.87655  Biso   1.000  H
  H1076    1.0000 0.06704  0.28719  0.86576  Biso   1.000  H
  H1077    1.0000 0.99632  0.18976  0.87655  Biso   1.000  H
  H1078    1.0000 0.99627  0.18976  0.87655  Biso   1.000  H
  H1079    1.0000 0.10085  0.22186  0.87645  Biso   1.000  H
  H1080    1.0000 0.10080  0.22186  0.87645  Biso   1.000  H
  C1045    1.0000 0.28049  0.44191  0.79973  Biso   1.000  C
  C1046    1.0000 0.28931  0.47983  0.82746  Biso   1.000  C
  H1081    1.0000 0.26628  0.37946  0.80090  Biso   1.000  H
  H1082    1.0000 0.23247  0.44479  0.79019  Biso   1.000  H
  H1083    1.0000 0.33700  0.47688  0.79009  Biso   1.000  H
  C1047    1.0000 0.31223  0.57651  0.82686  Biso   1.000  C
  H1084    1.0000 0.33653  0.47501  0.83720  Biso   1.000  H
  H1085    1.0000 0.23221  0.44392  0.83710  Biso   1.000  H
  C1048    1.0000 0.24388  0.59825  0.82664  Biso   1.000  C
  C1049    1.0000 0.40175  0.64565  0.82664  Biso   1.000  C
  C1050    1.0000 0.14781  0.52436  0.82628  Biso   1.000  C
  C1051    1.0000 0.26432  0.68778  0.82686  Biso   1.000  C
  C1052    1.0000 0.47560  0.62345  0.82628  Biso   1.000  C
  C1053    1.0000 0.42342  0.73565  0.82686  Biso   1.000  C
  H1086    1.0000 0.14290  0.47227  0.81649  Biso   1.000  H
  H1087    1.0000 0.11121  0.54509  0.81690  Biso   1.000  H
  N93      1.0000 0.11358  0.49701  0.85339  Biso   1.000  N
  C1054    1.0000 0.35437  0.75612  0.82664  Biso   1.000  C
  C1055    1.0000 0.19055  0.71071  0.82746  Biso   1.000  C
  H1088    1.0000 0.52766  0.67059  0.81649  Biso   1.000  H
  H1089    1.0000 0.45491  0.56608  0.81690  Biso   1.000  H
  N94      1.0000 0.50297  0.61657  0.85339  Biso   1.000  N
  C1056    1.0000 0.52015  0.80947  0.82746  Biso   1.000  C
  C1057    1.0000 0.02971  0.42841  0.85852  Biso   1.000  C
  H1090    1.0000 0.14867  0.52596  0.86689  Biso   1.000  H
  C1058    1.0000 0.37656  0.85213  0.82628  Biso   1.000  C
  H1091    1.0000 0.13852  0.66351  0.83720  Biso   1.000  H
  H1092    1.0000 0.21166  0.76775  0.83710  Biso   1.000  H
  C1059    1.0000 0.16140  0.71947  0.79973  Biso   1.000  C
  C1060    1.0000 0.57161  0.60132  0.85852  Biso   1.000  C
  H1093    1.0000 0.47402  0.62272  0.86689  Biso   1.000  H
  H1094    1.0000 0.52502  0.86150  0.83720  Biso   1.000  H
  H1095    1.0000 0.55611  0.78828  0.83710  Biso   1.000  H
  C1061    1.0000 0.55808  0.83856  0.79973  Biso   1.000  C
  C1062    1.0000 0.99891  0.40467  0.88456  Biso   1.000  C
  C1063    1.0000 0.97141  0.37759  0.83805  Biso   1.000  C
  H1096    1.0000 0.32940  0.85708  0.81649  Biso   1.000  H
  H1097    1.0000 0.43391  0.88878  0.81690  Biso   1.000  H
  N95      1.0000 0.38342  0.88637  0.85339  Biso   1.000  N
  H1098    1.0000 0.11322  0.73372  0.80090  Biso   1.000  H
  H1099    1.0000 0.21228  0.76748  0.79019  Biso   1.000  H
  H1100    1.0000 0.13987  0.66297  0.79009  Biso   1.000  H
  C1064    1.0000 0.59525  0.59417  0.88456  Biso   1.000  C
  C1065    1.0000 0.62238  0.59377  0.83805  Biso   1.000  C
  H1101    1.0000 0.62047  0.88677  0.80090  Biso   1.000  H
  H1102    1.0000 0.55517  0.78768  0.79019  Biso   1.000  H
  H1103    1.0000 0.52310  0.86009  0.79009  Biso   1.000  H
  S89      1.0000 0.06837  0.46786  0.91139  Biso   1.000  S
  C1066    1.0000 0.91469  0.33353  0.88971  Biso   1.000  C
  C1067    1.0000 0.88840  0.30711  0.84372  Biso   1.000  C
  H1104    1.0000 0.98959  0.39217  0.82000  Biso   1.000  H
  C1068    1.0000 0.39869  0.97029  0.85852  Biso   1.000  C
  H1105    1.0000 0.37728  0.85126  0.86689  Biso   1.000  H
  C1069    1.0000 0.66647  0.58120  0.88971  Biso   1.000  C
  S90      1.0000 0.53218  0.60052  0.91139  Biso   1.000  S
  C1070    1.0000 0.69285  0.58126  0.84372  Biso   1.000  C
  H1106    1.0000 0.60780  0.59738  0.82000  Biso   1.000  H
  S91      1.0000 0.13453  0.40166  0.92193  Biso   1.000  S
  H1107    1.0000 0.89520  0.31828  0.90760  Biso   1.000  H
  C1071    1.0000 0.85843  0.28411  0.86912  Biso   1.000  C
  H1108    1.0000 0.85048  0.27308  0.82948  Biso   1.000  H
  C1072    1.0000 0.40573  0.00104  0.88456  Biso   1.000  C
  C1073    1.0000 0.40618  0.02859  0.83805  Biso   1.000  C
  H1109    1.0000 0.68171  0.57692  0.90760  Biso   1.000  H
  C1074    1.0000 0.71590  0.57431  0.86912  Biso   1.000  C
  S92      1.0000 0.59834  0.73285  0.92193  Biso   1.000  S
  H1110    1.0000 0.72688  0.57738  0.82948  Biso   1.000  H
  C1075    1.0000 0.07139  0.33225  0.94876  Biso   1.000  C
  H1111    1.0000 0.80029  0.23537  0.87260  Biso   1.000  H
  S93      1.0000 0.39951  0.93164  0.91139  Biso   1.000  S
  C1076    1.0000 0.41878  0.08529  0.88971  Biso   1.000  C
  C1077    1.0000 0.41860  0.11157  0.84372  Biso   1.000  C
  H1112    1.0000 0.40259  0.01040  0.82000  Biso   1.000  H
  H1113    1.0000 0.76458  0.56488  0.87260  Biso   1.000  H
  C1078    1.0000 0.66773  0.73913  0.94876  Biso   1.000  C
  C1079    1.0000 0.00014  0.24800  0.94361  Biso   1.000  C
  C1080    1.0000 0.09505  0.36301  0.97480  Biso   1.000  C
  S94      1.0000 0.26716  0.86544  0.92193  Biso   1.000  S
  H1114    1.0000 0.42307  0.10475  0.90760  Biso   1.000  H
  C1081    1.0000 0.42568  0.14159  0.86912  Biso   1.000  C
  H1115    1.0000 0.42262  0.14949  0.82948  Biso   1.000  H
  C1082    1.0000 0.75193  0.75210  0.94361  Biso   1.000  C
  C1083    1.0000 0.63694  0.73198  0.97480  Biso   1.000  C
  H1116    1.0000 0.98497  0.22855  0.92572  Biso   1.000  H
  C1084    1.0000 0.95074  0.19170  0.96420  Biso   1.000  C
  C1085    1.0000 0.04424  0.30471  0.99527  Biso   1.000  C
  N96      1.0000 0.16370  0.44693  0.97993  Biso   1.000  N
  C1086    1.0000 0.26089  0.92863  0.94876  Biso   1.000  C
  H1117    1.0000 0.43510  0.19970  0.87260  Biso   1.000  H
  H1118    1.0000 0.77144  0.75638  0.92572  Biso   1.000  H
  C1087    1.0000 0.80824  0.75899  0.96420  Biso   1.000  C
  C1088    1.0000 0.69526  0.73953  0.99527  Biso   1.000  C
  N97      1.0000 0.55305  0.71673  0.97993  Biso   1.000  N
  H1119    1.0000 0.90205  0.13360  0.96073  Biso   1.000  H
  C1089    1.0000 0.97374  0.22173  0.98960  Biso   1.000  C
  H1120    1.0000 0.05884  0.32289  0.01332  Biso   1.000  H
  H1121    1.0000 0.19266  0.48203  0.96643  Biso   1.000  H
  C1090    1.0000 0.19107  0.48116  0.00704  Biso   1.000  C
  C1091    1.0000 0.24785  0.99984  0.94361  Biso   1.000  C
  C1092    1.0000 0.26795  0.90489  0.97480  Biso   1.000  C
  H1122    1.0000 0.86634  0.76842  0.96073  Biso   1.000  H
  C1093    1.0000 0.77824  0.75204  0.98960  Biso   1.000  C
  H1123    1.0000 0.67707  0.73592  0.01332  Biso   1.000  H
  H1124    1.0000 0.51798  0.71065  0.96643  Biso   1.000  H
  C1094    1.0000 0.51880  0.70984  0.00704  Biso   1.000  C
  H1125    1.0000 0.93978  0.18381  0.00382  Biso   1.000  H
  H1126    1.0000 0.13897  0.47622  0.01683  Biso   1.000  H
  H1127    1.0000 0.21178  0.44452  0.01642  Biso   1.000  H
  C1095    1.0000 0.26494  0.57725  0.00668  Biso   1.000  C
  H1128    1.0000 0.24351  0.01502  0.92572  Biso   1.000  H
  C1096    1.0000 0.24091  0.04919  0.96420  Biso   1.000  C
  C1097    1.0000 0.26047  0.95571  0.99527  Biso   1.000  C
  N98      1.0000 0.28322  0.83629  0.97993  Biso   1.000  N
  H1129    1.0000 0.81614  0.75591  0.00382  Biso   1.000  H
  H1130    1.0000 0.52372  0.66270  0.01683  Biso   1.000  H
  H1131    1.0000 0.55548  0.76721  0.01642  Biso   1.000  H
  C1098    1.0000 0.42275  0.68764  0.00668  Biso   1.000  C
  C1099    1.0000 0.24320  0.64552  0.00646  Biso   1.000  C
  C1100    1.0000 0.35441  0.59764  0.00646  Biso   1.000  C
  H1132    1.0000 0.23158  0.09793  0.96073  Biso   1.000  H
  C1101    1.0000 0.24788  0.02619  0.98960  Biso   1.000  C
  H1133    1.0000 0.26407  0.94113  0.01332  Biso   1.000  H
  H1134    1.0000 0.28936  0.80733  0.96643  Biso   1.000  H
  C1102    1.0000 0.29010  0.80894  0.00704  Biso   1.000  C
  C1103    1.0000 0.40237  0.75678  0.00646  Biso   1.000  C
  C1104    1.0000 0.31228  0.73505  0.00668  Biso   1.000  C
  C1105    1.0000 0.14652  0.62265  0.00586  Biso   1.000  C
  C1106    1.0000 0.37735  0.52389  0.00586  Biso   1.000  C
  H1135    1.0000 0.24399  0.06022  0.00382  Biso   1.000  H
  H1136    1.0000 0.33728  0.86103  0.01683  Biso   1.000  H
  H1137    1.0000 0.23278  0.78821  0.01642  Biso   1.000  H
  C1107    1.0000 0.47613  0.85347  0.00586  Biso   1.000  C
  H1138    1.0000 0.14166  0.66979  0.99612  Biso   1.000  H
  H1139    1.0000 0.11056  0.56555  0.99622  Biso   1.000  H
  C1108    1.0000 0.10858  0.61383  0.03359  Biso   1.000  C
  H1140    1.0000 0.33017  0.47180  0.99612  Biso   1.000  H
  H1141    1.0000 0.43448  0.54502  0.99622  Biso   1.000  H
  C1109    1.0000 0.38617  0.49474  0.03359  Biso   1.000  C
  H1142    1.0000 0.52816  0.85829  0.99612  Biso   1.000  H
  H1143    1.0000 0.45497  0.88945  0.99622  Biso   1.000  H
  C1110    1.0000 0.50522  0.89138  0.03359  Biso   1.000  C
  H1144    1.0000 0.04619  0.59965  0.03242  Biso   1.000  H
  H1145    1.0000 0.11144  0.56582  0.04313  Biso   1.000  H
  H1146    1.0000 0.14355  0.67033  0.04323  Biso   1.000  H
  H1147    1.0000 0.40034  0.44653  0.03242  Biso   1.000  H
  H1148    1.0000 0.43414  0.54562  0.04313  Biso   1.000  H
  H1149    1.0000 0.32966  0.47321  0.04323  Biso   1.000  H
  H1150    1.0000 0.55347  0.95384  0.03242  Biso   1.000  H
  H1151    1.0000 0.45433  0.88851  0.04313  Biso   1.000  H
  H1152    1.0000 0.52676  0.85641  0.04323  Biso   1.000  H
  C1111    1.0000 0.44187  0.16141  0.20027  Biso   1.000  C
  C1112    1.0000 0.47985  0.19057  0.17252  Biso   1.000  C
  H1153    1.0000 0.37949  0.11320  0.19910  Biso   1.000  H
  H1154    1.0000 0.44479  0.21230  0.20979  Biso   1.000  H
  H1155    1.0000 0.47686  0.13988  0.20989  Biso   1.000  H
  C1113    1.0000 0.57654  0.26432  0.17314  Biso   1.000  C
  H1156    1.0000 0.47500  0.13848  0.16280  Biso   1.000  H
  H1157    1.0000 0.44391  0.21170  0.16290  Biso   1.000  H
  C1114    1.0000 0.64562  0.24393  0.17336  Biso   1.000  C
  C1115    1.0000 0.59820  0.35432  0.17336  Biso   1.000  C
  C1116    1.0000 0.62346  0.14784  0.17372  Biso   1.000  C
  C1117    1.0000 0.73563  0.31220  0.17314  Biso   1.000  C
  C1118    1.0000 0.68779  0.42346  0.17314  Biso   1.000  C
  C1119    1.0000 0.52435  0.37652  0.17372  Biso   1.000  C
  H1158    1.0000 0.67055  0.14289  0.18349  Biso   1.000  H
  H1159    1.0000 0.56611  0.11120  0.18310  Biso   1.000  H
  N99      1.0000 0.61659  0.11360  0.14659  Biso   1.000  N
  C1120    1.0000 0.75608  0.40173  0.17336  Biso   1.000  C
  C1121    1.0000 0.80941  0.28926  0.17252  Biso   1.000  C
  C1122    1.0000 0.71071  0.52015  0.17252  Biso   1.000  C
  H1160    1.0000 0.47229  0.32938  0.18349  Biso   1.000  H
  H1161    1.0000 0.54511  0.43389  0.18310  Biso   1.000  H
  N100     1.0000 0.49699  0.38341  0.14659  Biso   1.000  N
  C1123    1.0000 0.60127  0.02969  0.14148  Biso   1.000  C
  H1162    1.0000 0.62268  0.14871  0.13309  Biso   1.000  H
  C1124    1.0000 0.85215  0.47561  0.17372  Biso   1.000  C
  H1163    1.0000 0.86144  0.33647  0.16280  Biso   1.000  H
  H1164    1.0000 0.78830  0.23222  0.16290  Biso   1.000  H
  C1125    1.0000 0.83861  0.28050  0.20027  Biso   1.000  C
  H1165    1.0000 0.66349  0.52496  0.16280  Biso   1.000  H
  H1166    1.0000 0.76778  0.55612  0.16290  Biso   1.000  H
  C1126    1.0000 0.71947  0.55806  0.20027  Biso   1.000  C
  C1127    1.0000 0.42835  0.39865  0.14148  Biso   1.000  C
  H1167    1.0000 0.52603  0.37732  0.13309  Biso   1.000  H
  C1128    1.0000 0.59423  0.99893  0.11542  Biso   1.000  C
  C1129    1.0000 0.59383  0.97138  0.16195  Biso   1.000  C
  H1168    1.0000 0.85711  0.52770  0.18349  Biso   1.000  H
  H1169    1.0000 0.88880  0.45489  0.18310  Biso   1.000  H
  N101     1.0000 0.88638  0.50296  0.14659  Biso   1.000  N
  H1170    1.0000 0.88677  0.26633  0.19910  Biso   1.000  H
  H1171    1.0000 0.78768  0.23249  0.20979  Biso   1.000  H
  H1172    1.0000 0.86009  0.33700  0.20989  Biso   1.000  H
  H1173    1.0000 0.73367  0.62051  0.19910  Biso   1.000  H
  H1174    1.0000 0.76749  0.55518  0.20979  Biso   1.000  H
  H1175    1.0000 0.66296  0.52309  0.20989  Biso   1.000  H
  C1130    1.0000 0.40471  0.40581  0.11542  Biso   1.000  C
  C1131    1.0000 0.37758  0.40621  0.16195  Biso   1.000  C
  S95      1.0000 0.60050  0.06834  0.08859  Biso   1.000  S
  C1132    1.0000 0.58123  0.91468  0.11027  Biso   1.000  C
  C1133    1.0000 0.58130  0.88840  0.15628  Biso   1.000  C
  H1176    1.0000 0.59737  0.98957  0.18000  Biso   1.000  H
  C1134    1.0000 0.97025  0.57157  0.14148  Biso   1.000  C
  H1177    1.0000 0.85128  0.47401  0.13309  Biso   1.000  H
  C1135    1.0000 0.33348  0.41878  0.11027  Biso   1.000  C
  S96      1.0000 0.46787  0.39952  0.08859  Biso   1.000  S
  C1136    1.0000 0.30710  0.41871  0.15628  Biso   1.000  C
  H1178    1.0000 0.39222  0.40260  0.18000  Biso   1.000  H
  S97      1.0000 0.73285  0.13453  0.07807  Biso   1.000  S
  H1179    1.0000 0.57689  0.89522  0.09240  Biso   1.000  H
  C1137    1.0000 0.57428  0.85838  0.13086  Biso   1.000  C
  H1180    1.0000 0.57740  0.85049  0.17050  Biso   1.000  H
  C1138    1.0000 0.00111  0.59530  0.11542  Biso   1.000  C
  C1139    1.0000 0.02855  0.62238  0.16195  Biso   1.000  C
  H1181    1.0000 0.31825  0.42306  0.09240  Biso   1.000  H
  C1140    1.0000 0.28406  0.42567  0.13086  Biso   1.000  C
  S98      1.0000 0.40167  0.26713  0.07807  Biso   1.000  S
  H1182    1.0000 0.27308  0.42259  0.17050  Biso   1.000  H
  C1141    1.0000 0.73913  0.07135  0.05124  Biso   1.000  C
  H1183    1.0000 0.56485  0.80027  0.12740  Biso   1.000  H
  S99      1.0000 0.93164  0.53212  0.08859  Biso   1.000  S
  C1142    1.0000 0.08530  0.66652  0.11027  Biso   1.000  C
  C1143    1.0000 0.11156  0.69286  0.15628  Biso   1.000  C
  H1184    1.0000 0.01037  0.60781  0.18000  Biso   1.000  H
  H1185    1.0000 0.23538  0.43509  0.12740  Biso   1.000  H
  C1144    1.0000 0.33223  0.26084  0.05124  Biso   1.000  C
  C1145    1.0000 0.75211  0.00013  0.05639  Biso   1.000  C
  C1146    1.0000 0.73200  0.09508  0.02520  Biso   1.000  C
  S100     1.0000 0.86549  0.59831  0.07807  Biso   1.000  S
  H1186    1.0000 0.10476  0.68169  0.09240  Biso   1.000  H
  C1147    1.0000 0.14159  0.71586  0.13086  Biso   1.000  C
  H1187    1.0000 0.14948  0.72689  0.17050  Biso   1.000  H
  C1148    1.0000 0.24803  0.24787  0.05639  Biso   1.000  C
  C1149    1.0000 0.36302  0.26800  0.02520  Biso   1.000  C
  H1188    1.0000 0.75645  0.98496  0.07426  Biso   1.000  H
  C1150    1.0000 0.75911  0.95079  0.03580  Biso   1.000  C
  C1151    1.0000 0.73949  0.04426  0.00471  Biso   1.000  C
  N102     1.0000 0.71674  0.16369  0.02007  Biso   1.000  N
  C1152    1.0000 0.92857  0.66772  0.05124  Biso   1.000  C
  H1189    1.0000 0.19966  0.76461  0.12740  Biso   1.000  H
  H1190    1.0000 0.22852  0.24359  0.07426  Biso   1.000  H
  C1153    1.0000 0.19172  0.24098  0.03580  Biso   1.000  C
  C1154    1.0000 0.30470  0.26044  0.00471  Biso   1.000  C
  N103     1.0000 0.44691  0.28324  0.02007  Biso   1.000  N
  H1191    1.0000 0.76844  0.90204  0.03927  Biso   1.000  H
  C1155    1.0000 0.75202  0.97379  0.01040  Biso   1.000  C
  H1192    1.0000 0.73589  0.05884  0.98666  Biso   1.000  H
  H1193    1.0000 0.71060  0.19264  0.03357  Biso   1.000  H
  C1156    1.0000 0.70986  0.19103  0.99296  Biso   1.000  C
  C1157    1.0000 0.99982  0.75197  0.05639  Biso   1.000  C
  C1158    1.0000 0.90491  0.63696  0.02520  Biso   1.000  C
  H1194    1.0000 0.13361  0.23156  0.03927  Biso   1.000  H
  C1159    1.0000 0.22172  0.24794  0.01040  Biso   1.000  C
  H1195    1.0000 0.32295  0.26405  0.98666  Biso   1.000  H
  H1196    1.0000 0.48203  0.28933  0.03357  Biso   1.000  H
  C1160    1.0000 0.48116  0.29013  0.99296  Biso   1.000  C
  H1197    1.0000 0.75597  0.93975  0.99616  Biso   1.000  H
  H1198    1.0000 0.66273  0.13895  0.98317  Biso   1.000  H
  H1199    1.0000 0.76724  0.21176  0.98356  Biso   1.000  H
  C1161    1.0000 0.68768  0.26492  0.99330  Biso   1.000  C
  H1200    1.0000 0.01499  0.77143  0.07426  Biso   1.000  H
  C1162    1.0000 0.04922  0.80827  0.03580  Biso   1.000  C
  C1163    1.0000 0.95572  0.69527  0.00471  Biso   1.000  C
  N104     1.0000 0.83631  0.55304  0.02007  Biso   1.000  N
  H1201    1.0000 0.18382  0.24406  0.99616  Biso   1.000  H
  H1202    1.0000 0.47624  0.33727  0.98317  Biso   1.000  H
  H1203    1.0000 0.44454  0.23276  0.98356  Biso   1.000  H
  C1164    1.0000 0.57721  0.31233  0.99330  Biso   1.000  C
  C1165    1.0000 0.75676  0.35445  0.99352  Biso   1.000  C
  C1166    1.0000 0.59765  0.24319  0.99352  Biso   1.000  C
  H1204    1.0000 0.09791  0.86638  0.03927  Biso   1.000  H
  C1167    1.0000 0.02622  0.77825  0.01040  Biso   1.000  C
  H1205    1.0000 0.94112  0.67708  0.98666  Biso   1.000  H
  H1206    1.0000 0.80729  0.51794  0.03357  Biso   1.000  H
  C1168    1.0000 0.80894  0.51881  0.99296  Biso   1.000  C
  C1169    1.0000 0.64554  0.40233  0.99352  Biso   1.000  C
  C1170    1.0000 0.73502  0.42272  0.99330  Biso   1.000  C
  C1171    1.0000 0.85347  0.37739  0.99414  Biso   1.000  C
  C1172    1.0000 0.52389  0.14650  0.99414  Biso   1.000  C
  H1207    1.0000 0.06023  0.81616  0.99616  Biso   1.000  H
  H1208    1.0000 0.86099  0.52376  0.98317  Biso   1.000  H
  H1209    1.0000 0.78824  0.55545  0.98356  Biso   1.000  H
  C1173    1.0000 0.62260  0.47608  0.99414  Biso   1.000  C
  H1210    1.0000 0.85830  0.33018  0.00388  Biso   1.000  H
  H1211    1.0000 0.88940  0.43443  0.00378  Biso   1.000  H
  C1174    1.0000 0.89144  0.38615  0.96639  Biso   1.000  C
  H1212    1.0000 0.47185  0.14169  0.00388  Biso   1.000  H
  H1213    1.0000 0.54502  0.11060  0.00378  Biso   1.000  H
  C1175    1.0000 0.49474  0.10859  0.96639  Biso   1.000  C
  H1214    1.0000 0.66984  0.52817  0.00388  Biso   1.000  H
  H1215    1.0000 0.56554  0.45495  0.00378  Biso   1.000  H
  C1176    1.0000 0.61379  0.50524  0.96639  Biso   1.000  C
  H1216    1.0000 0.95380  0.40039  0.96756  Biso   1.000  H
  H1217    1.0000 0.88851  0.43416  0.95687  Biso   1.000  H
  H1218    1.0000 0.85641  0.32965  0.95677  Biso   1.000  H
  H1219    1.0000 0.44649  0.04614  0.96756  Biso   1.000  H
  H1220    1.0000 0.54563  0.11146  0.95687  Biso   1.000  H
  H1221    1.0000 0.47319  0.14356  0.95677  Biso   1.000  H
  H1222    1.0000 0.59961  0.55345  0.96756  Biso   1.000  H
  H1223    1.0000 0.56582  0.45435  0.95687  Biso   1.000  H
  H1224    1.0000 0.67030  0.52677  0.95677  Biso   1.000  H
