data_image0
_cell_length_a       17.288
_cell_length_b       18.419
_cell_length_c       16.74
_cell_angle_alpha    91.25
_cell_angle_beta     117.04
_cell_angle_gamma    69.95

_symmetry_space_group_name_H-M    "P 1"
_symmetry_int_tables_number       1

loop_
  _symmetry_equiv_pos_as_xyz
  'x, y, z'

loop_
  _atom_site_label
  _atom_site_occupancy
  _atom_site_fract_x
  _atom_site_fract_y
  _atom_site_fract_z
  _atom_site_thermal_displace_type
  _atom_site_B_iso_or_equiv
  _atom_site_type_symbol
  C1       1.0000 0.52929  0.76162  0.43282  Biso   1.000  C
  C2       1.0000 0.45814  0.71130  0.38960  Biso   1.000  C
  C3       1.0000 0.45808  0.71130  0.38960  Biso   1.000  C
  C4       1.0000 0.52829  0.73042  0.37588  Biso   1.000  C
  O1       1.0000 0.61462  0.68719  0.43322  Biso   1.000  O
  H1       1.0000 0.51874  0.78489  0.38152  Biso   1.000  H
  H2       1.0000 0.51869  0.78489  0.38152  Biso   1.000  H
  H3       1.0000 0.48930  0.79212  0.37228  Biso   1.000  H
  H4       1.0000 0.55451  0.79511  0.47413  Biso   1.000  H
  C5       1.0000 0.46351  0.72721  0.46693  Biso   1.000  C
  H5       1.0000 0.42690  0.70310  0.42011  Biso   1.000  H
  H6       1.0000 0.46914  0.65623  0.38743  Biso   1.000  H
  H7       1.0000 0.39585  0.74150  0.34123  Biso   1.000  H
  H8       1.0000 0.46910  0.65617  0.38743  Biso   1.000  H
  H9       1.0000 0.39579  0.74150  0.34123  Biso   1.000  H
  H10      1.0000 0.51812  0.72400  0.31473  Biso   1.000  H
  C6       1.0000 0.69221  0.70690  0.47671  Biso   1.000  C
  O2       1.0000 0.53332  0.67153  0.54540  Biso   1.000  O
  O3       1.0000 0.53327  0.67153  0.54540  Biso   1.000  O
  H11      1.0000 0.47330  0.77622  0.47569  Biso   1.000  H
  H12      1.0000 0.40329  0.73603  0.46332  Biso   1.000  H
  H13      1.0000 0.40332  0.73597  0.46332  Biso   1.000  H
  H14      1.0000 0.42188  0.76939  0.48119  Biso   1.000  H
  C7       1.0000 0.75148  0.68013  0.56850  Biso   1.000  C
  C8       1.0000 0.71348  0.74905  0.42677  Biso   1.000  C
  C9       1.0000 0.71351  0.74899  0.42677  Biso   1.000  C
  C10      1.0000 0.57610  0.70070  0.62381  Biso   1.000  C
  C11      1.0000 0.72871  0.63114  0.62028  Biso   1.000  C
  C12      1.0000 0.72868  0.63108  0.62028  Biso   1.000  C
  C13      1.0000 0.83043  0.69942  0.60920  Biso   1.000  C
  C14      1.0000 0.83037  0.69942  0.60920  Biso   1.000  C
  O4       1.0000 0.65220  0.77701  0.33559  Biso   1.000  O
  C15      1.0000 0.79263  0.76749  0.46903  Biso   1.000  C
  C16      1.0000 0.52780  0.74240  0.66669  Biso   1.000  C
  C17      1.0000 0.67394  0.67971  0.66533  Biso   1.000  C
  C18      1.0000 0.67388  0.67971  0.66533  Biso   1.000  C
  H15      1.0000 0.68756  0.60820  0.57503  Biso   1.000  H
  C19      1.0000 0.81607  0.56144  0.68850  Biso   1.000  C
  H16      1.0000 0.68750  0.60820  0.57503  Biso   1.000  H
  C20      1.0000 0.81609  0.56138  0.68850  Biso   1.000  C
  C21      1.0000 0.85379  0.74209  0.56089  Biso   1.000  C
  H17      1.0000 0.86972  0.68333  0.67131  Biso   1.000  H
  H18      1.0000 0.86974  0.68327  0.67131  Biso   1.000  H
  C22      1.0000 0.67255  0.72499  0.27702  Biso   1.000  C
  C23      1.0000 0.67249  0.72499  0.27702  Biso   1.000  C
  O5       1.0000 0.81517  0.80573  0.41807  Biso   1.000  O
  O6       1.0000 0.81519  0.80568  0.41807  Biso   1.000  O
  O7       1.0000 0.43170  0.76423  0.62497  Biso   1.000  O
  C24      1.0000 0.57288  0.76573  0.74890  Biso   1.000  C
  C25      1.0000 0.71670  0.70450  0.74571  Biso   1.000  C
  H19      1.0000 0.79834  0.53561  0.72363  Biso   1.000  H
  H20      1.0000 0.86209  0.58131  0.73042  Biso   1.000  H
  C26      1.0000 0.86041  0.50190  0.64297  Biso   1.000  C
  H21      1.0000 0.79828  0.53561  0.72363  Biso   1.000  H
  C27      1.0000 0.94182  0.76021  0.60547  Biso   1.000  C
  C28      1.0000 0.94176  0.76021  0.60547  Biso   1.000  C
  C29      1.0000 0.60229  0.76283  0.18087  Biso   1.000  C
  H22      1.0000 0.66862  0.67552  0.28959  Biso   1.000  H
  H23      1.0000 0.73530  0.71480  0.28680  Biso   1.000  H
  H24      1.0000 0.66856  0.67552  0.28959  Biso   1.000  H
  C30      1.0000 0.74958  0.87054  0.35808  Biso   1.000  C
  C31      1.0000 0.74960  0.87048  0.35808  Biso   1.000  C
  C32      1.0000 0.76339  0.90238  0.41087  Biso   1.000  C
  C33      1.0000 0.39743  0.70453  0.63122  Biso   1.000  C
  C34      1.0000 0.39739  0.70447  0.63122  Biso   1.000  C
  O8       1.0000 0.52371  0.80129  0.79483  Biso   1.000  O
  C35      1.0000 0.66864  0.74730  0.79110  Biso   1.000  C
  C36      1.0000 0.66858  0.74730  0.79110  Biso   1.000  C
  H25      1.0000 0.78080  0.69245  0.77187  Biso   1.000  H
  H26      1.0000 0.78076  0.69239  0.77187  Biso   1.000  H
  H27      1.0000 0.87561  0.52834  0.60587  Biso   1.000  H
  H28      1.0000 0.81499  0.48062  0.60282  Biso   1.000  H
  C37      1.0000 0.94778  0.43521  0.70820  Biso   1.000  C
  H29      1.0000 0.87557  0.52829  0.60587  Biso   1.000  H
  C38      1.0000 0.92549  0.83644  0.64359  Biso   1.000  C
  H30      1.0000 0.95588  0.76894  0.55689  Biso   1.000  H
  C39      1.0000 0.92551  0.83638  0.64359  Biso   1.000  C
  H31      1.0000 0.95591  0.76888  0.55689  Biso   1.000  H
  C40      1.0000 0.02729  0.69263  0.67470  Biso   1.000  C
  C41      1.0000 0.02731  0.69257  0.67470  Biso   1.000  C
  C42      1.0000 0.62331  0.74073  0.11068  Biso   1.000  C
  C43      1.0000 0.51740  0.82274  0.15967  Biso   1.000  C
  C44      1.0000 0.51742  0.82268  0.15967  Biso   1.000  C
  C45      1.0000 0.79452  0.92313  0.35977  Biso   1.000  C
  H32      1.0000 0.72161  0.85745  0.29760  Biso   1.000  H
  H33      1.0000 0.70061  0.89450  0.37459  Biso   1.000  H
  C46      1.0000 0.79446  0.92313  0.35977  Biso   1.000  C
  H34      1.0000 0.72163  0.85739  0.29760  Biso   1.000  H
  H35      1.0000 0.71142  0.92330  0.35013  Biso   1.000  H
  C47      1.0000 0.83109  0.94870  0.43241  Biso   1.000  C
  H36      1.0000 0.73812  0.91147  0.45300  Biso   1.000  H
  C48      1.0000 0.29370  0.73821  0.58318  Biso   1.000  C
  H37      1.0000 0.41981  0.66069  0.60377  Biso   1.000  H
  H38      1.0000 0.42022  0.68552  0.69441  Biso   1.000  H
  C49      1.0000 0.45633  0.87951  0.75529  Biso   1.000  C
  C50      1.0000 0.45627  0.87951  0.75529  Biso   1.000  C
  C51      1.0000 0.72053  0.77090  0.88309  Biso   1.000  C
  C52      1.0000 0.72047  0.77090  0.88309  Biso   1.000  C
  H39      1.0000 0.99633  0.45542  0.74313  Biso   1.000  H
  H40      1.0000 0.93477  0.41274  0.75040  Biso   1.000  H
  C53      1.0000 0.98361  0.37143  0.66071  Biso   1.000  C
  H41      1.0000 0.93479  0.41268  0.75040  Biso   1.000  H
  C54      1.0000 0.98363  0.37137  0.66071  Biso   1.000  C
  C55      1.0000 0.93082  0.83811  0.72947  Biso   1.000  C
  C56      1.0000 0.93076  0.83811  0.72947  Biso   1.000  C
  C57      1.0000 0.90338  0.90684  0.59500  Biso   1.000  C
  C58      1.0000 0.90340  0.90678  0.59500  Biso   1.000  C
  H42      1.0000 0.08199  0.70632  0.69482  Biso   1.000  H
  H43      1.0000 0.01911  0.68560  0.72729  Biso   1.000  H
  C59      1.0000 0.04552  0.61484  0.63829  Biso   1.000  C
  C60      1.0000 0.04548  0.61478  0.63829  Biso   1.000  C
  C61      1.0000 0.55942  0.77641  0.02222  Biso   1.000  C
  H44      1.0000 0.68049  0.70173  0.12359  Biso   1.000  H
  C62      1.0000 0.45473  0.85952  0.07202  Biso   1.000  C
  C63      1.0000 0.45468  0.85952  0.07202  Biso   1.000  C
  H45      1.0000 0.50266  0.83815  0.20588  Biso   1.000  H
  H46      1.0000 0.50268  0.83809  0.20588  Biso   1.000  H
  H47      1.0000 0.74861  0.96783  0.31269  Biso   1.000  H
  H48      1.0000 0.84291  0.89704  0.34320  Biso   1.000  H
  H49      1.0000 0.74863  0.96777  0.31269  Biso   1.000  H
  H50      1.0000 0.84293  0.89698  0.34320  Biso   1.000  H
  H51      1.0000 0.84812  0.94928  0.38471  Biso   1.000  H
  O9       1.0000 0.91013  0.90671  0.51510  Biso   1.000  O
  O10      1.0000 0.91007  0.90671  0.51510  Biso   1.000  O
  H52      1.0000 0.84510  0.99102  0.41603  Biso   1.000  H
  H53      1.0000 0.78112  0.97321  0.44749  Biso   1.000  H
  H54      1.0000 0.80173  0.00218  0.43859  Biso   1.000  H
  C64      1.0000 0.24634  0.69459  0.59432  Biso   1.000  C
  C65      1.0000 0.24281  0.81062  0.52753  Biso   1.000  C
  C66      1.0000 0.50352  0.93762  0.76222  Biso   1.000  C
  H55      1.0000 0.41482  0.88063  0.69189  Biso   1.000  H
  H56      1.0000 0.41876  0.89514  0.78607  Biso   1.000  H
  H57      1.0000 0.41479  0.88057  0.69189  Biso   1.000  H
  H58      1.0000 0.41878  0.89508  0.78607  Biso   1.000  H
  C67      1.0000 0.74029  0.84332  0.87467  Biso   1.000  C
  H59      1.0000 0.67824  0.78433  0.90973  Biso   1.000  H
  C68      1.0000 0.80858  0.70240  0.94927  Biso   1.000  C
  H60      1.0000 0.67820  0.78427  0.90973  Biso   1.000  H
  H61      1.0000 0.93576  0.35024  0.62707  Biso   1.000  H
  H62      1.0000 0.99514  0.39411  0.61743  Biso   1.000  H
  H63      1.0000 0.93578  0.35018  0.62707  Biso   1.000  H
  H64      1.0000 0.99508  0.39411  0.61743  Biso   1.000  H
  C69      1.0000 0.07361  0.30502  0.72689  Biso   1.000  C
  C70      1.0000 0.91382  0.90634  0.76731  Biso   1.000  C
  C71      1.0000 0.91384  0.90628  0.76731  Biso   1.000  C
  H65      1.0000 0.94650  0.79113  0.76331  Biso   1.000  H
  H66      1.0000 0.94652  0.79107  0.76331  Biso   1.000  H
  C72      1.0000 0.88240  0.97659  0.62809  Biso   1.000  C
  H67      1.0000 0.99830  0.59451  0.63149  Biso   1.000  H
  H68      1.0000 0.04004  0.62391  0.57883  Biso   1.000  H
  C73      1.0000 0.14140  0.55474  0.70059  Biso   1.000  C
  C74      1.0000 0.14142  0.55468  0.70059  Biso   1.000  C
  C75      1.0000 0.47469  0.83614  0.00190  Biso   1.000  C
  C76      1.0000 0.47471  0.83608  0.00190  Biso   1.000  C
  H69      1.0000 0.57332  0.76024  0.97561  Biso   1.000  H
  H70      1.0000 0.57330  0.76030  0.97561  Biso   1.000  H
  C77      1.0000 0.36820  0.92964  0.05137  Biso   1.000  C
  C78      1.0000 0.36816  0.92958  0.05137  Biso   1.000  C
  C79      1.0000 0.14895  0.72429  0.54792  Biso   1.000  C
  H71      1.0000 0.27938  0.64643  0.63217  Biso   1.000  H
  C80      1.0000 0.14889  0.72429  0.54792  Biso   1.000  C
  C81      1.0000 0.14639  0.83893  0.48113  Biso   1.000  C
  C82      1.0000 0.14641  0.83887  0.48113  Biso   1.000  C
  H72      1.0000 0.27420  0.84053  0.52142  Biso   1.000  H
  H73      1.0000 0.27422  0.84048  0.52142  Biso   1.000  H
  C83      1.0000 0.52400  0.96284  0.85082  Biso   1.000  C
  H74      1.0000 0.46218  0.98202  0.71357  Biso   1.000  H
  H75      1.0000 0.56079  0.91273  0.75828  Biso   1.000  H
  C84      1.0000 0.52402  0.96278  0.85082  Biso   1.000  C
  H76      1.0000 0.56081  0.91267  0.75828  Biso   1.000  H
  H77      1.0000 0.52408  0.93231  0.71649  Biso   1.000  H
  H78      1.0000 0.45809  0.99037  0.74931  Biso   1.000  H
  O11      1.0000 0.58920  0.92537  0.85762  Biso   1.000  O
  C85      1.0000 0.81654  0.84312  0.86903  Biso   1.000  C
  C86      1.0000 0.67672  0.91691  0.87161  Biso   1.000  C
  C87      1.0000 0.81649  0.84312  0.86903  Biso   1.000  C
  H79      1.0000 0.85053  0.68492  0.92312  Biso   1.000  H
  C88      1.0000 0.78953  0.63288  0.97183  Biso   1.000  C
  H80      1.0000 0.85047  0.68492  0.92312  Biso   1.000  H
  H81      1.0000 0.84053  0.72081  0.00519  Biso   1.000  H
  H82      1.0000 0.84047  0.72081  0.00519  Biso   1.000  H
  H83      1.0000 0.09560  0.26789  0.69359  Biso   1.000  H
  H84      1.0000 0.12049  0.32600  0.76208  Biso   1.000  H
  H85      1.0000 0.06143  0.27940  0.76677  Biso   1.000  H
  H86      1.0000 0.06137  0.27940  0.76677  Biso   1.000  H
  C89      1.0000 0.92622  0.90520  0.86353  Biso   1.000  C
  C90      1.0000 0.88698  0.97554  0.71357  Biso   1.000  C
  C91      1.0000 0.88700  0.97548  0.71357  Biso   1.000  C
  O12      1.0000 0.84730  0.04674  0.57292  Biso   1.000  O
  O13      1.0000 0.84732  0.04669  0.57292  Biso   1.000  O
  H87      1.0000 0.15114  0.55320  0.76242  Biso   1.000  H
  H88      1.0000 0.18833  0.57093  0.69842  Biso   1.000  H
  C92      1.0000 0.15509  0.47355  0.67627  Biso   1.000  C
  H89      1.0000 0.18829  0.57088  0.69842  Biso   1.000  H
  C93      1.0000 0.15511  0.47349  0.67627  Biso   1.000  C
  H90      1.0000 0.43194  0.86006  0.94211  Biso   1.000  H
  H91      1.0000 0.43192  0.86011  0.94211  Biso   1.000  H
  O14      1.0000 0.36673  0.94330  0.13453  Biso   1.000  O
  H92      1.0000 0.36913  0.97493  0.02392  Biso   1.000  H
  H93      1.0000 0.31277  0.91995  0.00938  Biso   1.000  H
  H94      1.0000 0.36910  0.97487  0.02392  Biso   1.000  H
  H95      1.0000 0.31279  0.91989  0.00938  Biso   1.000  H
  C94      1.0000 0.09850  0.79529  0.49118  Biso   1.000  C
  H96      1.0000 0.11712  0.69550  0.55553  Biso   1.000  H
  C95      1.0000 0.09021  0.91722  0.41977  Biso   1.000  C
  O15      1.0000 0.61768  0.91261  0.91068  Biso   1.000  O
  H97      1.0000 0.48142  0.95730  0.87080  Biso   1.000  H
  H98      1.0000 0.51846  0.01700  0.84783  Biso   1.000  H
  H99      1.0000 0.51840  0.01700  0.84783  Biso   1.000  H
  C96      1.0000 0.83850  0.90784  0.86448  Biso   1.000  C
  H100     1.0000 0.85752  0.79505  0.86808  Biso   1.000  H
  C97      1.0000 0.83853  0.90778  0.86448  Biso   1.000  C
  H101     1.0000 0.85748  0.79499  0.86808  Biso   1.000  H
  C98      1.0000 0.69692  0.98272  0.86923  Biso   1.000  C
  H102     1.0000 0.74690  0.62120  0.91578  Biso   1.000  H
  H103     1.0000 0.75851  0.64753  0.00893  Biso   1.000  H
  C99      1.0000 0.87621  0.55980  0.02150  Biso   1.000  C
  H104     1.0000 0.75853  0.64747  0.00893  Biso   1.000  H
  H105     1.0000 0.93630  0.95301  0.88391  Biso   1.000  H
  C100     1.0000 0.01149  0.83545  0.93168  Biso   1.000  C
  C101     1.0000 0.01151  0.83539  0.93168  Biso   1.000  C
  O16      1.0000 0.87011  0.04451  0.74863  Biso   1.000  O
  C102     1.0000 0.90979  0.08284  0.58019  Biso   1.000  C
  C103     1.0000 0.90981  0.08279  0.58019  Biso   1.000  C
  H106     1.0000 0.10899  0.45722  0.68021  Biso   1.000  H
  H107     1.0000 0.21650  0.43779  0.72132  Biso   1.000  H
  C104     1.0000 0.14735  0.46549  0.58393  Biso   1.000  C
  C105     1.0000 0.14729  0.46549  0.58393  Biso   1.000  C
  C106     1.0000 0.30311  0.01733  0.13080  Biso   1.000  C
  C107     1.0000 0.30313  0.01727  0.13080  Biso   1.000  C
  H108     1.0000 0.03354  0.81400  0.45993  Biso   1.000  H
  H109     1.0000 0.03349  0.81400  0.45993  Biso   1.000  H
  O17      1.0000 0.15273  0.95331  0.42711  Biso   1.000  O
  H110     1.0000 0.05632  0.91011  0.35740  Biso   1.000  H
  H111     1.0000 0.04518  0.94982  0.43771  Biso   1.000  H
  O18      1.0000 0.15268  0.95331  0.42711  Biso   1.000  O
  H112     1.0000 0.05627  0.91011  0.35740  Biso   1.000  H
  C108     1.0000 0.77403  0.98090  0.86563  Biso   1.000  C
  O19      1.0000 0.63332  0.05669  0.86550  Biso   1.000  O
  H113     1.0000 0.90660  0.54533  0.98393  Biso   1.000  H
  H114     1.0000 0.90662  0.54527  0.98393  Biso   1.000  H
  H115     1.0000 0.91898  0.57215  0.07688  Biso   1.000  H
  C109     1.0000 0.86030  0.49054  0.04589  Biso   1.000  C
  H116     1.0000 0.91900  0.57209  0.07688  Biso   1.000  H
  C110     1.0000 0.86032  0.49048  0.04589  Biso   1.000  C
  H117     1.0000 0.00450  0.78732  0.91109  Biso   1.000  H
  H118     1.0000 0.01221  0.83642  0.98997  Biso   1.000  H
  C111     1.0000 0.10338  0.83422  0.94479  Biso   1.000  C
  H119     1.0000 0.01215  0.83642  0.98997  Biso   1.000  H
  C112     1.0000 0.75928  0.07778  0.71568  Biso   1.000  C
  C113     1.0000 0.80608  0.11445  0.70419  Biso   1.000  C
  C114     1.0000 0.80611  0.11439  0.70419  Biso   1.000  C
  C115     1.0000 0.85358  0.16112  0.51890  Biso   1.000  C
  H120     1.0000 0.94373  0.08989  0.64263  Biso   1.000  H
  H121     1.0000 0.95479  0.05023  0.56232  Biso   1.000  H
  H122     1.0000 0.95481  0.05017  0.56232  Biso   1.000  H
  H123     1.0000 0.16168  0.41154  0.57618  Biso   1.000  H
  H124     1.0000 0.08471  0.49612  0.53827  Biso   1.000  H
  H125     1.0000 0.19057  0.48375  0.57809  Biso   1.000  H
  H126     1.0000 0.16170  0.41148  0.57618  Biso   1.000  H
  H127     1.0000 0.08465  0.49612  0.53827  Biso   1.000  H
  H128     1.0000 0.19059  0.48369  0.57809  Biso   1.000  H
  C116     1.0000 0.22600  0.01915  0.13440  Biso   1.000  C
  C117     1.0000 0.22602  0.01909  0.13440  Biso   1.000  C
  C118     1.0000 0.32332  0.08314  0.12842  Biso   1.000  C
  C119     1.0000 0.32334  0.08308  0.12842  Biso   1.000  C
  C120     1.0000 0.11762  0.02341  0.37187  Biso   1.000  C
  C121     1.0000 0.11756  0.02341  0.37187  Biso   1.000  C
  O20      1.0000 0.79691  0.04594  0.87052  Biso   1.000  O
  O21      1.0000 0.79693  0.04588  0.87052  Biso   1.000  O
  C122     1.0000 0.63180  0.07042  0.94859  Biso   1.000  C
  H129     1.0000 0.81559  0.47961  0.99072  Biso   1.000  H
  H130     1.0000 0.83181  0.50461  0.08510  Biso   1.000  H
  C123     1.0000 0.94359  0.41784  0.09149  Biso   1.000  C
  C124     1.0000 0.94362  0.41778  0.09149  Biso   1.000  C
  H131     1.0000 0.10284  0.83369  0.88663  Biso   1.000  H
  H132     1.0000 0.11132  0.88183  0.96660  Biso   1.000  H
  H133     1.0000 0.11128  0.88178  0.96660  Biso   1.000  H
  C125     1.0000 0.18629  0.76365  0.01178  Biso   1.000  C
  C126     1.0000 0.18631  0.76359  0.01178  Biso   1.000  C
  C127     1.0000 0.73599  0.10802  0.79599  Biso   1.000  C
  C128     1.0000 0.77100  0.15282  0.76698  Biso   1.000  C
  H134     1.0000 0.70263  0.08572  0.74442  Biso   1.000  H
  H135     1.0000 0.70257  0.08572  0.74442  Biso   1.000  H
  H136     1.0000 0.75513  0.10932  0.64963  Biso   1.000  H
  H137     1.0000 0.72769  0.12063  0.66567  Biso   1.000  H
  H138     1.0000 0.73533  0.03677  0.69373  Biso   1.000  H
  H139     1.0000 0.83340  0.14524  0.68707  Biso   1.000  H
  H140     1.0000 0.83342  0.14519  0.68707  Biso   1.000  H
  C129     1.0000 0.90152  0.20471  0.50878  Biso   1.000  C
  C130     1.0000 0.75722  0.18943  0.47250  Biso   1.000  C
  C131     1.0000 0.90146  0.20471  0.50878  Biso   1.000  C
  C132     1.0000 0.75718  0.18937  0.47250  Biso   1.000  C
  C133     1.0000 0.16150  0.09222  0.13548  Biso   1.000  C
  O22      1.0000 0.20312  0.95411  0.12951  Biso   1.000  O
  C134     1.0000 0.25972  0.15674  0.12529  Biso   1.000  C
  C135     1.0000 0.25968  0.15668  0.12529  Biso   1.000  C
  O23      1.0000 0.38232  0.08745  0.08928  Biso   1.000  O
  O24      1.0000 0.38228  0.08739  0.08928  Biso   1.000  O
  O25      1.0000 0.41080  0.07462  0.14241  Biso   1.000  O
  C136     1.0000 0.11302  0.02452  0.28639  Biso   1.000  C
  C137     1.0000 0.09660  0.09321  0.40503  Biso   1.000  C
  C138     1.0000 0.11296  0.02452  0.28639  Biso   1.000  C
  C139     1.0000 0.54530  0.14053  0.92801  Biso   1.000  C
  H141     1.0000 0.63090  0.02512  0.97611  Biso   1.000  H
  H142     1.0000 0.68718  0.08011  0.99059  Biso   1.000  H
  C140     1.0000 0.54532  0.14048  0.92801  Biso   1.000  C
  H143     1.0000 0.92699  0.37941  0.11071  Biso   1.000  H
  H144     1.0000 0.96722  0.39830  0.05011  Biso   1.000  H
  H145     1.0000 0.99101  0.42852  0.14353  Biso   1.000  H
  H146     1.0000 0.18220  0.71642  0.98630  Biso   1.000  H
  H147     1.0000 0.18220  0.76053  0.06743  Biso   1.000  H
  C141     1.0000 0.27916  0.76644  0.03427  Biso   1.000  C
  H148     1.0000 0.18222  0.76047  0.06743  Biso   1.000  H
  C142     1.0000 0.27918  0.76638  0.03427  Biso   1.000  C
  H149     1.0000 0.68984  0.14349  0.81073  Biso   1.000  H
  H150     1.0000 0.67103  0.11817  0.77853  Biso   1.000  H
  H151     1.0000 0.74790  0.15559  0.81100  Biso   1.000  H
  H152     1.0000 0.72223  0.20372  0.73613  Biso   1.000  H
  H153     1.0000 0.82184  0.16069  0.81923  Biso   1.000  H
  C143     1.0000 0.85111  0.27570  0.45211  Biso   1.000  C
  H154     1.0000 0.96651  0.18599  0.54010  Biso   1.000  H
  C144     1.0000 0.70632  0.26179  0.41678  Biso   1.000  C
  H155     1.0000 0.72584  0.15952  0.47861  Biso   1.000  H
  H156     1.0000 0.72578  0.15952  0.47861  Biso   1.000  H
  C145     1.0000 0.07383  0.09480  0.13650  Biso   1.000  C
  C146     1.0000 0.07378  0.09480  0.13650  Biso   1.000  C
  C147     1.0000 0.18349  0.15693  0.13100  Biso   1.000  C
  C148     1.0000 0.18351  0.15688  0.13100  Biso   1.000  C
  C149     1.0000 0.26401  0.89204  0.20397  Biso   1.000  C
  C150     1.0000 0.26397  0.89199  0.20397  Biso   1.000  C
  C151     1.0000 0.27949  0.22911  0.11687  Biso   1.000  C
  C152     1.0000 0.47604  0.03721  0.14921  Biso   1.000  C
  C153     1.0000 0.47598  0.03721  0.14921  Biso   1.000  C
  C154     1.0000 0.49652  0.06243  0.23781  Biso   1.000  C
  C155     1.0000 0.49654  0.06237  0.23781  Biso   1.000  C
  O26      1.0000 0.12987  0.95554  0.25140  Biso   1.000  O
  O27      1.0000 0.12989  0.95549  0.25140  Biso   1.000  O
  C156     1.0000 0.08622  0.09371  0.23272  Biso   1.000  C
  C157     1.0000 0.07451  0.16362  0.35638  Biso   1.000  C
  O28      1.0000 0.08990  0.09334  0.48493  Biso   1.000  O
  O29      1.0000 0.08993  0.09328  0.48493  Biso   1.000  O
  C158     1.0000 0.52534  0.16391  0.99813  Biso   1.000  C
  C159     1.0000 0.48260  0.17732  0.84029  Biso   1.000  C
  C160     1.0000 0.52529  0.16391  0.99813  Biso   1.000  C
  H157     1.0000 0.28628  0.76370  0.97999  Biso   1.000  H
  H158     1.0000 0.28079  0.81612  0.05371  Biso   1.000  H
  C161     1.0000 0.36071  0.70061  0.10840  Biso   1.000  C
  C162     1.0000 0.75371  0.30540  0.40571  Biso   1.000  C
  H159     1.0000 0.88294  0.30449  0.44450  Biso   1.000  H
  H160     1.0000 0.88288  0.30449  0.44450  Biso   1.000  H
  C163     1.0000 0.60260  0.29552  0.36881  Biso   1.000  C
  C164     1.0000 0.98851  0.16461  0.06829  Biso   1.000  C
  H161     1.0000 0.06368  0.04704  0.11612  Biso   1.000  H
  H162     1.0000 0.06370  0.04698  0.11612  Biso   1.000  H
  H163     1.0000 0.14248  0.20501  0.13188  Biso   1.000  H
  C165     1.0000 0.24068  0.92222  0.28429  Biso   1.000  C
  C166     1.0000 0.22900  0.84724  0.23299  Biso   1.000  C
  C167     1.0000 0.22902  0.84718  0.23299  Biso   1.000  C
  H164     1.0000 0.29740  0.91433  0.25561  Biso   1.000  H
  H165     1.0000 0.29742  0.91428  0.25561  Biso   1.000  H
  H166     1.0000 0.25210  0.84440  0.18903  Biso   1.000  H
  H167     1.0000 0.31021  0.85650  0.18930  Biso   1.000  H
  H168     1.0000 0.32903  0.88182  0.22150  Biso   1.000  H
  C168     1.0000 0.33139  0.25270  0.20887  Biso   1.000  C
  H169     1.0000 0.32179  0.21572  0.09030  Biso   1.000  H
  C169     1.0000 0.19139  0.29760  0.05069  Biso   1.000  C
  H170     1.0000 0.48160  0.98299  0.15220  Biso   1.000  H
  H171     1.0000 0.51863  0.04269  0.12923  Biso   1.000  H
  C170     1.0000 0.54369  0.12049  0.24467  Biso   1.000  C
  H172     1.0000 0.53782  0.01804  0.28639  Biso   1.000  H
  H173     1.0000 0.43921  0.08733  0.24168  Biso   1.000  H
  H174     1.0000 0.53778  0.01799  0.28639  Biso   1.000  H
  H175     1.0000 0.47586  0.06775  0.28347  Biso   1.000  H
  H176     1.0000 0.54191  0.00962  0.25072  Biso   1.000  H
  C171     1.0000 0.19392  0.88561  0.29577  Biso   1.000  C
  C172     1.0000 0.19386  0.88561  0.29577  Biso   1.000  C
  C173     1.0000 0.06921  0.16189  0.27049  Biso   1.000  C
  C174     1.0000 0.05818  0.23985  0.39449  Biso   1.000  C
  C175     1.0000 0.05820  0.23979  0.39449  Biso   1.000  C
  C176     1.0000 0.16891  0.05129  0.56762  Biso   1.000  C
  C177     1.0000 0.44061  0.22364  0.97781  Biso   1.000  C
  C178     1.0000 0.44063  0.22359  0.97781  Biso   1.000  C
  H177     1.0000 0.56814  0.13988  0.05792  Biso   1.000  H
  C179     1.0000 0.39771  0.23723  0.81909  Biso   1.000  C
  C180     1.0000 0.39773  0.23718  0.81909  Biso   1.000  C
  H178     1.0000 0.49728  0.16191  0.79409  Biso   1.000  H
  H179     1.0000 0.41839  0.70400  0.11819  Biso   1.000  H
  H180     1.0000 0.35632  0.70501  0.16358  Biso   1.000  H
  H181     1.0000 0.35882  0.65122  0.09019  Biso   1.000  H
  H182     1.0000 0.35626  0.70501  0.16358  Biso   1.000  H
  H183     1.0000 0.35876  0.65122  0.09019  Biso   1.000  H
  H184     1.0000 0.72062  0.35363  0.36779  Biso   1.000  H
  H185     1.0000 0.72058  0.35357  0.36779  Biso   1.000  H
  O30      1.0000 0.56830  0.23583  0.37499  Biso   1.000  O
  O31      1.0000 0.56832  0.23578  0.37499  Biso   1.000  O
  H186     1.0000 0.58021  0.33931  0.39619  Biso   1.000  H
  H187     1.0000 0.57982  0.31453  0.30562  Biso   1.000  H
  H188     1.0000 0.57984  0.31448  0.30562  Biso   1.000  H
  H189     1.0000 0.99550  0.21274  0.08887  Biso   1.000  H
  H190     1.0000 0.98779  0.16364  0.00999  Biso   1.000  H
  C181     1.0000 0.89657  0.16584  0.05517  Biso   1.000  C
  H191     1.0000 0.99552  0.21268  0.08887  Biso   1.000  H
  H192     1.0000 0.98781  0.16358  0.00999  Biso   1.000  H
  C182     1.0000 0.89659  0.16578  0.05517  Biso   1.000  C
  H193     1.0000 0.24490  0.89073  0.35040  Biso   1.000  H
  H194     1.0000 0.27231  0.87943  0.33429  Biso   1.000  H
  H195     1.0000 0.26472  0.96322  0.30630  Biso   1.000  H
  H196     1.0000 0.27781  0.79633  0.26390  Biso   1.000  H
  H197     1.0000 0.17822  0.83930  0.18080  Biso   1.000  H
  C183     1.0000 0.28330  0.29549  0.25432  Biso   1.000  C
  C184     1.0000 0.42710  0.23432  0.25113  Biso   1.000  C
  H198     1.0000 0.15950  0.27919  0.99477  Biso   1.000  H
  H199     1.0000 0.14950  0.31513  0.07691  Biso   1.000  H
  C185     1.0000 0.21053  0.36711  0.02820  Biso   1.000  C
  H200     1.0000 0.14952  0.31507  0.07691  Biso   1.000  H
  C186     1.0000 0.21047  0.36711  0.02820  Biso   1.000  C
  O32      1.0000 0.47629  0.19871  0.20520  Biso   1.000  O
  H201     1.0000 0.58518  0.11943  0.30807  Biso   1.000  H
  H202     1.0000 0.58118  0.10492  0.21389  Biso   1.000  H
  H203     1.0000 0.16660  0.85482  0.31289  Biso   1.000  H
  H204     1.0000 0.05353  0.20892  0.23672  Biso   1.000  H
  H205     1.0000 0.05348  0.20892  0.23672  Biso   1.000  H
  C187     1.0000 0.97274  0.30742  0.32533  Biso   1.000  C
  C188     1.0000 0.97268  0.30742  0.32533  Biso   1.000  C
  C189     1.0000 0.14617  0.25791  0.43907  Biso   1.000  C
  H206     1.0000 0.04412  0.23112  0.44308  Biso   1.000  H
  H207     1.0000 0.04406  0.23112  0.44308  Biso   1.000  H
  H208     1.0000 0.19829  0.99783  0.56137  Biso   1.000  H
  H209     1.0000 0.15488  0.00903  0.58400  Biso   1.000  H
  H210     1.0000 0.21891  0.02680  0.55247  Biso   1.000  H
  C190     1.0000 0.20548  0.07693  0.64019  Biso   1.000  C
  H211     1.0000 0.15490  0.00898  0.58400  Biso   1.000  H
  C191     1.0000 0.20550  0.07687  0.64019  Biso   1.000  C
  H212     1.0000 0.15194  0.05072  0.61532  Biso   1.000  H
  C192     1.0000 0.23657  0.09762  0.58909  Biso   1.000  C
  C193     1.0000 0.37669  0.25933  0.88928  Biso   1.000  C
  H213     1.0000 0.42677  0.23963  0.02442  Biso   1.000  H
  H214     1.0000 0.42670  0.23969  0.02442  Biso   1.000  H
  C194     1.0000 0.32751  0.27500  0.72301  Biso   1.000  C
  C195     1.0000 0.47222  0.25760  0.33328  Biso   1.000  C
  C196     1.0000 0.47217  0.25760  0.33328  Biso   1.000  C
  C197     1.0000 0.81371  0.23641  0.98818  Biso   1.000  C
  H215     1.0000 0.89722  0.16630  0.11340  Biso   1.000  H
  H216     1.0000 0.88872  0.11822  0.03343  Biso   1.000  H
  C198     1.0000 0.32609  0.32034  0.33470  Biso   1.000  C
  C199     1.0000 0.32611  0.32029  0.33470  Biso   1.000  C
  H217     1.0000 0.21920  0.30761  0.22809  Biso   1.000  H
  H218     1.0000 0.24152  0.35252  0.99110  Biso   1.000  H
  C200     1.0000 0.12385  0.44020  0.97853  Biso   1.000  C
  C201     1.0000 0.12379  0.44020  0.97853  Biso   1.000  C
  H219     1.0000 0.25312  0.37880  0.08419  Biso   1.000  H
  H220     1.0000 0.91799  0.29373  0.30521  Biso   1.000  H
  H221     1.0000 0.98091  0.31440  0.27267  Biso   1.000  H
  C202     1.0000 0.95448  0.38522  0.36168  Biso   1.000  C
  C203     1.0000 0.20743  0.23250  0.53100  Biso   1.000  C
  C204     1.0000 0.16960  0.30063  0.39083  Biso   1.000  C
  C205     1.0000 0.20737  0.23250  0.53100  Biso   1.000  C
  C206     1.0000 0.16962  0.30057  0.39083  Biso   1.000  C
  H222     1.0000 0.25139  0.03223  0.68727  Biso   1.000  H
  H223     1.0000 0.15709  0.10302  0.65677  Biso   1.000  H
  C207     1.0000 0.25042  0.12952  0.64189  Biso   1.000  C
  C208     1.0000 0.25036  0.12952  0.64189  Biso   1.000  C
  H224     1.0000 0.29941  0.10550  0.62538  Biso   1.000  H
  O33      1.0000 0.18478  0.19433  0.58189  Biso   1.000  O
  H225     1.0000 0.26193  0.08852  0.54703  Biso   1.000  H
  H226     1.0000 0.28861  0.07675  0.64990  Biso   1.000  H
  H227     1.0000 0.31951  0.29833  0.87637  Biso   1.000  H
  H228     1.0000 0.31945  0.29833  0.87637  Biso   1.000  H
  O34      1.0000 0.34780  0.22305  0.66438  Biso   1.000  O
  O35      1.0000 0.34782  0.22299  0.66438  Biso   1.000  O
  H229     1.0000 0.33138  0.32454  0.71038  Biso   1.000  H
  H230     1.0000 0.26476  0.28519  0.71323  Biso   1.000  H
  H231     1.0000 0.33140  0.32448  0.71038  Biso   1.000  H
  H232     1.0000 0.26470  0.28519  0.71323  Biso   1.000  H
  C209     1.0000 0.42390  0.29930  0.37622  Biso   1.000  C
  H233     1.0000 0.81778  0.23952  0.93260  Biso   1.000  H
  C210     1.0000 0.72078  0.23362  0.96569  Biso   1.000  C
  H234     1.0000 0.81783  0.28363  0.01373  Biso   1.000  H
  H235     1.0000 0.81785  0.28357  0.01373  Biso   1.000  H
  C211     1.0000 0.27129  0.36892  0.37968  Biso   1.000  C
  H236     1.0000 0.08102  0.42791  0.92309  Biso   1.000  H
  C212     1.0000 0.13970  0.50952  0.95407  Biso   1.000  C
  H237     1.0000 0.08097  0.42791  0.92309  Biso   1.000  H
  H238     1.0000 0.09344  0.45472  0.01610  Biso   1.000  H
  H239     1.0000 0.09338  0.45472  0.01610  Biso   1.000  H
  H240     1.0000 0.96000  0.37614  0.42120  Biso   1.000  H
  C213     1.0000 0.85860  0.44532  0.29937  Biso   1.000  C
  H241     1.0000 0.96002  0.37608  0.42120  Biso   1.000  H
  H242     1.0000 0.00172  0.40549  0.36847  Biso   1.000  H
  H243     1.0000 0.00166  0.40549  0.36847  Biso   1.000  H
  C214     1.0000 0.28652  0.25101  0.57319  Biso   1.000  C
  H244     1.0000 0.13031  0.31672  0.32872  Biso   1.000  H
  C215     1.0000 0.24850  0.31992  0.43153  Biso   1.000  C
  H245     1.0000 0.27842  0.14260  0.70243  Biso   1.000  H
  O36      1.0000 0.46671  0.32852  0.45463  Biso   1.000  O
  H246     1.0000 0.71918  0.18393  0.94632  Biso   1.000  H
  C216     1.0000 0.63934  0.29939  0.89163  Biso   1.000  C
  H247     1.0000 0.71920  0.18387  0.94632  Biso   1.000  H
  H248     1.0000 0.71368  0.23630  0.01998  Biso   1.000  H
  H249     1.0000 0.31250  0.39180  0.42500  Biso   1.000  H
  C217     1.0000 0.18390  0.43861  0.31153  Biso   1.000  C
  H250     1.0000 0.16824  0.49539  0.91493  Biso   1.000  H
  C218     1.0000 0.05641  0.58222  0.90848  Biso   1.000  C
  H251     1.0000 0.18438  0.52044  0.00931  Biso   1.000  H
  H252     1.0000 0.18440  0.52039  0.00931  Biso   1.000  H
  H253     1.0000 0.84892  0.44679  0.23761  Biso   1.000  H
  H254     1.0000 0.81171  0.42912  0.30161  Biso   1.000  H
  C219     1.0000 0.84491  0.52651  0.32370  Biso   1.000  C
  C220     1.0000 0.30784  0.29309  0.52332  Biso   1.000  C
  C221     1.0000 0.30779  0.29309  0.52332  Biso   1.000  C
  C222     1.0000 0.53652  0.27284  0.53310  Biso   1.000  C
  C223     1.0000 0.53648  0.27278  0.53310  Biso   1.000  C
  H255     1.0000 0.58158  0.29601  0.88177  Biso   1.000  H
  H256     1.0000 0.64368  0.29505  0.83639  Biso   1.000  H
  H257     1.0000 0.64118  0.34884  0.90977  Biso   1.000  H
  H258     1.0000 0.64370  0.29499  0.83639  Biso   1.000  H
  H259     1.0000 0.64120  0.34878  0.90977  Biso   1.000  H
  H260     1.0000 0.20169  0.46444  0.27640  Biso   1.000  H
  H261     1.0000 0.13789  0.41874  0.26961  Biso   1.000  H
  C224     1.0000 0.13961  0.49811  0.35699  Biso   1.000  C
  H262     1.0000 0.20172  0.46438  0.27640  Biso   1.000  H
  H263     1.0000 0.13791  0.41868  0.26961  Biso   1.000  H
  H264     1.0000 0.07298  0.62064  0.88932  Biso   1.000  H
  H265     1.0000 0.03283  0.60169  0.94992  Biso   1.000  H
  H266     1.0000 0.00903  0.57153  0.85650  Biso   1.000  H
  H267     1.0000 0.07300  0.62058  0.88932  Biso   1.000  H
  H268     1.0000 0.00899  0.57148  0.85650  Biso   1.000  H
  H269     1.0000 0.89104  0.54283  0.31982  Biso   1.000  H
  H270     1.0000 0.78350  0.56220  0.27871  Biso   1.000  H
  C225     1.0000 0.85271  0.53450  0.41610  Biso   1.000  C
  H271     1.0000 0.89100  0.54277  0.31982  Biso   1.000  H
  O37      1.0000 0.38544  0.31281  0.56681  Biso   1.000  O
  O38      1.0000 0.38538  0.31281  0.56681  Biso   1.000  O
  C226     1.0000 0.54192  0.28869  0.61043  Biso   1.000  C
  H272     1.0000 0.57310  0.29689  0.57992  Biso   1.000  H
  H273     1.0000 0.52670  0.22384  0.52427  Biso   1.000  H
  H274     1.0000 0.59668  0.26402  0.53671  Biso   1.000  H
  H275     1.0000 0.52672  0.22378  0.52427  Biso   1.000  H
  H276     1.0000 0.57808  0.23061  0.51877  Biso   1.000  H
  H277     1.0000 0.12439  0.47172  0.39409  Biso   1.000  H
  H278     1.0000 0.18499  0.51943  0.39721  Biso   1.000  H
  C227     1.0000 0.05219  0.56484  0.29183  Biso   1.000  C
  H279     1.0000 0.18501  0.51937  0.39721  Biso   1.000  H
  C228     1.0000 0.05221  0.56478  0.29183  Biso   1.000  C
  H280     1.0000 0.83832  0.58852  0.42378  Biso   1.000  H
  H281     1.0000 0.91529  0.50394  0.46169  Biso   1.000  H
  H282     1.0000 0.80937  0.51631  0.42188  Biso   1.000  H
  H283     1.0000 0.83826  0.58852  0.42378  Biso   1.000  H
  H284     1.0000 0.91531  0.50388  0.46169  Biso   1.000  H
  C229     1.0000 0.47171  0.26964  0.62408  Biso   1.000  C
  C230     1.0000 0.47167  0.26959  0.62408  Biso   1.000  C
  C231     1.0000 0.47069  0.23843  0.56721  Biso   1.000  C
  H285     1.0000 0.53090  0.34382  0.61260  Biso   1.000  H
  H286     1.0000 0.60421  0.25849  0.65880  Biso   1.000  H
  H287     1.0000 0.00371  0.54463  0.25690  Biso   1.000  H
  H288     1.0000 0.06521  0.58731  0.24963  Biso   1.000  H
  C232     1.0000 0.01643  0.62862  0.33932  Biso   1.000  C
  H289     1.0000 0.00373  0.54458  0.25690  Biso   1.000  H
  H290     1.0000 0.48131  0.21510  0.61851  Biso   1.000  H
  H291     1.0000 0.48192  0.27605  0.68530  Biso   1.000  H
  H292     1.0000 0.48188  0.27599  0.68530  Biso   1.000  H
  H293     1.0000 0.51070  0.20794  0.62769  Biso   1.000  H
  H294     1.0000 0.44547  0.20494  0.52590  Biso   1.000  H
  C233     1.0000 0.92639  0.69504  0.27308  Biso   1.000  C
  C234     1.0000 0.92641  0.69498  0.27308  Biso   1.000  C
  H295     1.0000 0.06418  0.64982  0.37289  Biso   1.000  H
  H296     1.0000 0.00489  0.60594  0.38260  Biso   1.000  H
  H297     1.0000 0.00491  0.60588  0.38260  Biso   1.000  H
  H298     1.0000 0.90442  0.73211  0.30637  Biso   1.000  H
  H299     1.0000 0.87947  0.67400  0.23788  Biso   1.000  H
  H300     1.0000 0.93860  0.72060  0.23319  Biso   1.000  H
  H301     1.0000 0.90436  0.73211  0.30637  Biso   1.000  H
  C235     1.0000 0.52929  0.76162  0.43282  Biso   1.000  C
  C236     1.0000 0.45814  0.71130  0.38960  Biso   1.000  C
  C237     1.0000 0.45808  0.71130  0.38960  Biso   1.000  C
  C238     1.0000 0.52829  0.73042  0.37588  Biso   1.000  C
  O39      1.0000 0.61462  0.68719  0.43322  Biso   1.000  O
  H302     1.0000 0.51874  0.78489  0.38152  Biso   1.000  H
  H303     1.0000 0.51869  0.78489  0.38152  Biso   1.000  H
  H304     1.0000 0.48930  0.79212  0.37228  Biso   1.000  H
  H305     1.0000 0.55451  0.79511  0.47413  Biso   1.000  H
  C239     1.0000 0.46351  0.72721  0.46693  Biso   1.000  C
  H306     1.0000 0.42690  0.70310  0.42011  Biso   1.000  H
  H307     1.0000 0.46914  0.65623  0.38743  Biso   1.000  H
  H308     1.0000 0.39585  0.74150  0.34123  Biso   1.000  H
  H309     1.0000 0.46910  0.65617  0.38743  Biso   1.000  H
  H310     1.0000 0.39579  0.74150  0.34123  Biso   1.000  H
  H311     1.0000 0.51812  0.72400  0.31473  Biso   1.000  H
  C240     1.0000 0.69221  0.70690  0.47671  Biso   1.000  C
  O40      1.0000 0.53332  0.67153  0.54540  Biso   1.000  O
  O41      1.0000 0.53327  0.67153  0.54540  Biso   1.000  O
  H312     1.0000 0.47330  0.77622  0.47569  Biso   1.000  H
  H313     1.0000 0.40329  0.73603  0.46332  Biso   1.000  H
  H314     1.0000 0.40332  0.73597  0.46332  Biso   1.000  H
  H315     1.0000 0.42188  0.76939  0.48119  Biso   1.000  H
  C241     1.0000 0.75148  0.68013  0.56850  Biso   1.000  C
  C242     1.0000 0.71348  0.74905  0.42677  Biso   1.000  C
  C243     1.0000 0.71351  0.74899  0.42677  Biso   1.000  C
  C244     1.0000 0.57610  0.70070  0.62381  Biso   1.000  C
  C245     1.0000 0.72871  0.63114  0.62028  Biso   1.000  C
  C246     1.0000 0.72868  0.63108  0.62028  Biso   1.000  C
  C247     1.0000 0.83043  0.69942  0.60920  Biso   1.000  C
  C248     1.0000 0.83037  0.69942  0.60920  Biso   1.000  C
  O42      1.0000 0.65220  0.77701  0.33559  Biso   1.000  O
  C249     1.0000 0.79263  0.76749  0.46903  Biso   1.000  C
  C250     1.0000 0.52780  0.74240  0.66669  Biso   1.000  C
  C251     1.0000 0.67394  0.67971  0.66533  Biso   1.000  C
  C252     1.0000 0.67388  0.67971  0.66533  Biso   1.000  C
  H316     1.0000 0.68756  0.60820  0.57503  Biso   1.000  H
  C253     1.0000 0.81607  0.56144  0.68850  Biso   1.000  C
  H317     1.0000 0.68750  0.60820  0.57503  Biso   1.000  H
  C254     1.0000 0.81609  0.56138  0.68850  Biso   1.000  C
  C255     1.0000 0.85379  0.74209  0.56089  Biso   1.000  C
  H318     1.0000 0.86972  0.68333  0.67131  Biso   1.000  H
  H319     1.0000 0.86974  0.68327  0.67131  Biso   1.000  H
  C256     1.0000 0.67255  0.72499  0.27702  Biso   1.000  C
  C257     1.0000 0.67249  0.72499  0.27702  Biso   1.000  C
  O43      1.0000 0.81517  0.80573  0.41807  Biso   1.000  O
  O44      1.0000 0.81519  0.80568  0.41807  Biso   1.000  O
  O45      1.0000 0.43170  0.76423  0.62497  Biso   1.000  O
  C258     1.0000 0.57288  0.76573  0.74890  Biso   1.000  C
  C259     1.0000 0.71670  0.70450  0.74571  Biso   1.000  C
  H320     1.0000 0.86209  0.58131  0.73042  Biso   1.000  H
  C260     1.0000 0.86041  0.50190  0.64297  Biso   1.000  C
  H321     1.0000 0.79834  0.53561  0.72363  Biso   1.000  H
  H322     1.0000 0.79828  0.53561  0.72363  Biso   1.000  H
  C261     1.0000 0.94182  0.76021  0.60547  Biso   1.000  C
  C262     1.0000 0.94176  0.76021  0.60547  Biso   1.000  C
  C263     1.0000 0.60229  0.76283  0.18087  Biso   1.000  C
  H323     1.0000 0.73530  0.71480  0.28680  Biso   1.000  H
  H324     1.0000 0.66862  0.67552  0.28959  Biso   1.000  H
  H325     1.0000 0.66856  0.67552  0.28959  Biso   1.000  H
  C264     1.0000 0.74958  0.87054  0.35808  Biso   1.000  C
  C265     1.0000 0.74960  0.87048  0.35808  Biso   1.000  C
  C266     1.0000 0.76339  0.90238  0.41087  Biso   1.000  C
  C267     1.0000 0.39743  0.70453  0.63122  Biso   1.000  C
  C268     1.0000 0.39739  0.70447  0.63122  Biso   1.000  C
  O46      1.0000 0.52371  0.80129  0.79483  Biso   1.000  O
  C269     1.0000 0.66864  0.74730  0.79110  Biso   1.000  C
  C270     1.0000 0.66858  0.74730  0.79110  Biso   1.000  C
  H326     1.0000 0.78080  0.69245  0.77187  Biso   1.000  H
  H327     1.0000 0.78076  0.69239  0.77187  Biso   1.000  H
  H328     1.0000 0.81499  0.48062  0.60282  Biso   1.000  H
  C271     1.0000 0.94778  0.43521  0.70820  Biso   1.000  C
  H329     1.0000 0.87561  0.52834  0.60587  Biso   1.000  H
  H330     1.0000 0.87557  0.52829  0.60587  Biso   1.000  H
  C272     1.0000 0.92549  0.83644  0.64359  Biso   1.000  C
  H331     1.0000 0.95588  0.76894  0.55689  Biso   1.000  H
  C273     1.0000 0.92551  0.83638  0.64359  Biso   1.000  C
  H332     1.0000 0.95591  0.76888  0.55689  Biso   1.000  H
  C274     1.0000 0.02729  0.69263  0.67470  Biso   1.000  C
  C275     1.0000 0.02731  0.69257  0.67470  Biso   1.000  C
  C276     1.0000 0.62331  0.74073  0.11068  Biso   1.000  C
  C277     1.0000 0.51740  0.82274  0.15967  Biso   1.000  C
  C278     1.0000 0.51742  0.82268  0.15967  Biso   1.000  C
  H333     1.0000 0.70061  0.89450  0.37459  Biso   1.000  H
  C279     1.0000 0.79452  0.92313  0.35977  Biso   1.000  C
  H334     1.0000 0.72161  0.85745  0.29760  Biso   1.000  H
  C280     1.0000 0.79446  0.92313  0.35977  Biso   1.000  C
  H335     1.0000 0.72163  0.85739  0.29760  Biso   1.000  H
  H336     1.0000 0.71142  0.92330  0.35013  Biso   1.000  H
  C281     1.0000 0.83109  0.94870  0.43241  Biso   1.000  C
  H337     1.0000 0.73812  0.91147  0.45300  Biso   1.000  H
  C282     1.0000 0.29370  0.73821  0.58318  Biso   1.000  C
  H338     1.0000 0.41981  0.66069  0.60377  Biso   1.000  H
  H339     1.0000 0.42022  0.68552  0.69441  Biso   1.000  H
  C283     1.0000 0.45633  0.87951  0.75529  Biso   1.000  C
  C284     1.0000 0.45627  0.87951  0.75529  Biso   1.000  C
  C285     1.0000 0.72053  0.77090  0.88309  Biso   1.000  C
  C286     1.0000 0.72047  0.77090  0.88309  Biso   1.000  C
  H340     1.0000 0.99633  0.45542  0.74313  Biso   1.000  H
  H341     1.0000 0.93477  0.41274  0.75040  Biso   1.000  H
  C287     1.0000 0.98361  0.37143  0.66071  Biso   1.000  C
  H342     1.0000 0.93479  0.41268  0.75040  Biso   1.000  H
  C288     1.0000 0.98363  0.37137  0.66071  Biso   1.000  C
  C289     1.0000 0.93082  0.83811  0.72947  Biso   1.000  C
  C290     1.0000 0.93076  0.83811  0.72947  Biso   1.000  C
  C291     1.0000 0.90338  0.90684  0.59500  Biso   1.000  C
  C292     1.0000 0.90340  0.90678  0.59500  Biso   1.000  C
  H343     1.0000 0.08199  0.70632  0.69482  Biso   1.000  H
  H344     1.0000 0.01911  0.68560  0.72729  Biso   1.000  H
  C293     1.0000 0.04552  0.61484  0.63829  Biso   1.000  C
  C294     1.0000 0.04548  0.61478  0.63829  Biso   1.000  C
  C295     1.0000 0.55942  0.77641  0.02222  Biso   1.000  C
  H345     1.0000 0.68049  0.70173  0.12359  Biso   1.000  H
  C296     1.0000 0.45473  0.85952  0.07202  Biso   1.000  C
  C297     1.0000 0.45468  0.85952  0.07202  Biso   1.000  C
  H346     1.0000 0.50266  0.83815  0.20588  Biso   1.000  H
  H347     1.0000 0.50268  0.83809  0.20588  Biso   1.000  H
  H348     1.0000 0.74861  0.96783  0.31269  Biso   1.000  H
  H349     1.0000 0.84291  0.89704  0.34320  Biso   1.000  H
  H350     1.0000 0.74863  0.96777  0.31269  Biso   1.000  H
  H351     1.0000 0.84293  0.89698  0.34320  Biso   1.000  H
  H352     1.0000 0.84812  0.94928  0.38471  Biso   1.000  H
  O47      1.0000 0.91013  0.90671  0.51510  Biso   1.000  O
  O48      1.0000 0.91007  0.90671  0.51510  Biso   1.000  O
  H353     1.0000 0.84510  0.99102  0.41603  Biso   1.000  H
  H354     1.0000 0.78112  0.97321  0.44749  Biso   1.000  H
  H355     1.0000 0.80173  0.00218  0.43859  Biso   1.000  H
  C298     1.0000 0.24634  0.69459  0.59432  Biso   1.000  C
  C299     1.0000 0.24281  0.81062  0.52753  Biso   1.000  C
  C300     1.0000 0.50352  0.93762  0.76222  Biso   1.000  C
  H356     1.0000 0.41482  0.88063  0.69189  Biso   1.000  H
  H357     1.0000 0.41876  0.89514  0.78607  Biso   1.000  H
  H358     1.0000 0.41479  0.88057  0.69189  Biso   1.000  H
  H359     1.0000 0.41878  0.89508  0.78607  Biso   1.000  H
  C301     1.0000 0.74029  0.84332  0.87467  Biso   1.000  C
  C302     1.0000 0.80858  0.70240  0.94927  Biso   1.000  C
  H360     1.0000 0.67824  0.78433  0.90973  Biso   1.000  H
  H361     1.0000 0.67820  0.78427  0.90973  Biso   1.000  H
  H362     1.0000 0.93576  0.35024  0.62707  Biso   1.000  H
  H363     1.0000 0.99514  0.39411  0.61743  Biso   1.000  H
  H364     1.0000 0.93578  0.35018  0.62707  Biso   1.000  H
  H365     1.0000 0.99508  0.39411  0.61743  Biso   1.000  H
  C303     1.0000 0.07361  0.30502  0.72689  Biso   1.000  C
  C304     1.0000 0.91382  0.90634  0.76731  Biso   1.000  C
  C305     1.0000 0.91384  0.90628  0.76731  Biso   1.000  C
  H366     1.0000 0.94650  0.79113  0.76331  Biso   1.000  H
  H367     1.0000 0.94652  0.79107  0.76331  Biso   1.000  H
  C306     1.0000 0.88240  0.97659  0.62809  Biso   1.000  C
  H368     1.0000 0.99830  0.59451  0.63149  Biso   1.000  H
  H369     1.0000 0.04004  0.62391  0.57883  Biso   1.000  H
  C307     1.0000 0.14140  0.55474  0.70059  Biso   1.000  C
  C308     1.0000 0.14142  0.55468  0.70059  Biso   1.000  C
  C309     1.0000 0.47469  0.83614  0.00190  Biso   1.000  C
  C310     1.0000 0.47471  0.83608  0.00190  Biso   1.000  C
  H370     1.0000 0.57332  0.76024  0.97561  Biso   1.000  H
  H371     1.0000 0.57330  0.76030  0.97561  Biso   1.000  H
  C311     1.0000 0.36820  0.92964  0.05137  Biso   1.000  C
  C312     1.0000 0.36816  0.92958  0.05137  Biso   1.000  C
  H372     1.0000 0.27938  0.64643  0.63217  Biso   1.000  H
  C313     1.0000 0.14895  0.72429  0.54792  Biso   1.000  C
  C314     1.0000 0.14889  0.72429  0.54792  Biso   1.000  C
  C315     1.0000 0.14639  0.83893  0.48113  Biso   1.000  C
  H373     1.0000 0.27420  0.84053  0.52142  Biso   1.000  H
  C316     1.0000 0.14641  0.83887  0.48113  Biso   1.000  C
  H374     1.0000 0.27422  0.84048  0.52142  Biso   1.000  H
  H375     1.0000 0.46218  0.98202  0.71357  Biso   1.000  H
  C317     1.0000 0.52400  0.96284  0.85082  Biso   1.000  C
  H376     1.0000 0.56079  0.91273  0.75828  Biso   1.000  H
  C318     1.0000 0.52402  0.96278  0.85082  Biso   1.000  C
  H377     1.0000 0.56081  0.91267  0.75828  Biso   1.000  H
  H378     1.0000 0.52408  0.93231  0.71649  Biso   1.000  H
  H379     1.0000 0.45809  0.99037  0.74931  Biso   1.000  H
  O49      1.0000 0.58920  0.92537  0.85762  Biso   1.000  O
  C319     1.0000 0.67672  0.91691  0.87161  Biso   1.000  C
  C320     1.0000 0.81654  0.84312  0.86903  Biso   1.000  C
  C321     1.0000 0.81649  0.84312  0.86903  Biso   1.000  C
  C322     1.0000 0.78953  0.63288  0.97183  Biso   1.000  C
  H380     1.0000 0.85053  0.68492  0.92312  Biso   1.000  H
  H381     1.0000 0.85047  0.68492  0.92312  Biso   1.000  H
  H382     1.0000 0.84053  0.72081  0.00519  Biso   1.000  H
  H383     1.0000 0.84047  0.72081  0.00519  Biso   1.000  H
  H384     1.0000 0.09560  0.26789  0.69359  Biso   1.000  H
  H385     1.0000 0.12049  0.32600  0.76208  Biso   1.000  H
  H386     1.0000 0.06143  0.27940  0.76677  Biso   1.000  H
  H387     1.0000 0.06137  0.27940  0.76677  Biso   1.000  H
  C323     1.0000 0.92622  0.90520  0.86353  Biso   1.000  C
  C324     1.0000 0.88698  0.97554  0.71357  Biso   1.000  C
  C325     1.0000 0.88700  0.97548  0.71357  Biso   1.000  C
  O50      1.0000 0.84730  0.04674  0.57292  Biso   1.000  O
  O51      1.0000 0.84732  0.04669  0.57292  Biso   1.000  O
  H388     1.0000 0.15114  0.55320  0.76242  Biso   1.000  H
  H389     1.0000 0.18833  0.57093  0.69842  Biso   1.000  H
  C326     1.0000 0.15509  0.47355  0.67627  Biso   1.000  C
  H390     1.0000 0.18829  0.57088  0.69842  Biso   1.000  H
  C327     1.0000 0.15511  0.47349  0.67627  Biso   1.000  C
  H391     1.0000 0.43194  0.86006  0.94211  Biso   1.000  H
  H392     1.0000 0.43192  0.86011  0.94211  Biso   1.000  H
  O52      1.0000 0.36673  0.94330  0.13453  Biso   1.000  O
  H393     1.0000 0.36913  0.97493  0.02392  Biso   1.000  H
  H394     1.0000 0.31277  0.91995  0.00938  Biso   1.000  H
  H395     1.0000 0.36910  0.97487  0.02392  Biso   1.000  H
  H396     1.0000 0.31279  0.91989  0.00938  Biso   1.000  H
  C328     1.0000 0.09850  0.79529  0.49118  Biso   1.000  C
  H397     1.0000 0.11712  0.69550  0.55553  Biso   1.000  H
  C329     1.0000 0.09021  0.91722  0.41977  Biso   1.000  C
  O53      1.0000 0.61768  0.91261  0.91068  Biso   1.000  O
  H398     1.0000 0.48142  0.95730  0.87080  Biso   1.000  H
  H399     1.0000 0.51846  0.01700  0.84783  Biso   1.000  H
  H400     1.0000 0.51840  0.01700  0.84783  Biso   1.000  H
  C330     1.0000 0.69692  0.98272  0.86923  Biso   1.000  C
  C331     1.0000 0.83850  0.90784  0.86448  Biso   1.000  C
  H401     1.0000 0.85752  0.79505  0.86808  Biso   1.000  H
  C332     1.0000 0.83853  0.90778  0.86448  Biso   1.000  C
  H402     1.0000 0.85748  0.79499  0.86808  Biso   1.000  H
  H403     1.0000 0.74690  0.62120  0.91578  Biso   1.000  H
  H404     1.0000 0.75851  0.64753  0.00893  Biso   1.000  H
  C333     1.0000 0.87621  0.55980  0.02150  Biso   1.000  C
  H405     1.0000 0.75853  0.64747  0.00893  Biso   1.000  H
  H406     1.0000 0.93630  0.95301  0.88391  Biso   1.000  H
  C334     1.0000 0.01149  0.83545  0.93168  Biso   1.000  C
  C335     1.0000 0.01151  0.83539  0.93168  Biso   1.000  C
  O54      1.0000 0.87011  0.04451  0.74863  Biso   1.000  O
  C336     1.0000 0.90979  0.08284  0.58019  Biso   1.000  C
  C337     1.0000 0.90981  0.08279  0.58019  Biso   1.000  C
  H407     1.0000 0.10899  0.45722  0.68021  Biso   1.000  H
  H408     1.0000 0.21650  0.43779  0.72132  Biso   1.000  H
  C338     1.0000 0.14735  0.46549  0.58393  Biso   1.000  C
  C339     1.0000 0.14729  0.46549  0.58393  Biso   1.000  C
  C340     1.0000 0.30311  0.01733  0.13080  Biso   1.000  C
  C341     1.0000 0.30313  0.01727  0.13080  Biso   1.000  C
  H409     1.0000 0.03354  0.81400  0.45993  Biso   1.000  H
  H410     1.0000 0.03349  0.81400  0.45993  Biso   1.000  H
  H411     1.0000 0.04518  0.94982  0.43771  Biso   1.000  H
  O55      1.0000 0.15273  0.95331  0.42711  Biso   1.000  O
  H412     1.0000 0.05632  0.91011  0.35740  Biso   1.000  H
  O56      1.0000 0.15268  0.95331  0.42711  Biso   1.000  O
  H413     1.0000 0.05627  0.91011  0.35740  Biso   1.000  H
  C342     1.0000 0.77403  0.98090  0.86563  Biso   1.000  C
  O57      1.0000 0.63332  0.05669  0.86550  Biso   1.000  O
  H414     1.0000 0.90660  0.54533  0.98393  Biso   1.000  H
  H415     1.0000 0.90662  0.54527  0.98393  Biso   1.000  H
  H416     1.0000 0.91898  0.57215  0.07688  Biso   1.000  H
  C343     1.0000 0.86030  0.49054  0.04589  Biso   1.000  C
  H417     1.0000 0.91900  0.57209  0.07688  Biso   1.000  H
  C344     1.0000 0.86032  0.49048  0.04589  Biso   1.000  C
  H418     1.0000 0.00450  0.78732  0.91109  Biso   1.000  H
  H419     1.0000 0.01221  0.83642  0.98997  Biso   1.000  H
  C345     1.0000 0.10338  0.83422  0.94479  Biso   1.000  C
  H420     1.0000 0.01215  0.83642  0.98997  Biso   1.000  H
  C346     1.0000 0.75928  0.07778  0.71568  Biso   1.000  C
  C347     1.0000 0.80608  0.11445  0.70419  Biso   1.000  C
  C348     1.0000 0.80611  0.11439  0.70419  Biso   1.000  C
  C349     1.0000 0.85358  0.16112  0.51890  Biso   1.000  C
  H421     1.0000 0.94373  0.08989  0.64263  Biso   1.000  H
  H422     1.0000 0.95479  0.05023  0.56232  Biso   1.000  H
  H423     1.0000 0.95481  0.05017  0.56232  Biso   1.000  H
  H424     1.0000 0.16168  0.41154  0.57618  Biso   1.000  H
  H425     1.0000 0.08471  0.49612  0.53827  Biso   1.000  H
  H426     1.0000 0.19057  0.48375  0.57809  Biso   1.000  H
  H427     1.0000 0.16170  0.41148  0.57618  Biso   1.000  H
  H428     1.0000 0.08465  0.49612  0.53827  Biso   1.000  H
  H429     1.0000 0.19059  0.48369  0.57809  Biso   1.000  H
  C350     1.0000 0.22600  0.01915  0.13440  Biso   1.000  C
  C351     1.0000 0.22602  0.01909  0.13440  Biso   1.000  C
  C352     1.0000 0.32332  0.08314  0.12842  Biso   1.000  C
  C353     1.0000 0.32334  0.08308  0.12842  Biso   1.000  C
  C354     1.0000 0.11762  0.02341  0.37187  Biso   1.000  C
  C355     1.0000 0.11756  0.02341  0.37187  Biso   1.000  C
  O58      1.0000 0.79691  0.04594  0.87052  Biso   1.000  O
  O59      1.0000 0.79693  0.04588  0.87052  Biso   1.000  O
  C356     1.0000 0.63180  0.07042  0.94859  Biso   1.000  C
  H430     1.0000 0.81559  0.47961  0.99072  Biso   1.000  H
  H431     1.0000 0.83181  0.50461  0.08510  Biso   1.000  H
  C357     1.0000 0.94359  0.41784  0.09149  Biso   1.000  C
  C358     1.0000 0.94362  0.41778  0.09149  Biso   1.000  C
  H432     1.0000 0.10284  0.83369  0.88663  Biso   1.000  H
  H433     1.0000 0.11132  0.88183  0.96660  Biso   1.000  H
  H434     1.0000 0.11128  0.88178  0.96660  Biso   1.000  H
  C359     1.0000 0.18629  0.76365  0.01178  Biso   1.000  C
  C360     1.0000 0.18631  0.76359  0.01178  Biso   1.000  C
  C361     1.0000 0.73599  0.10802  0.79599  Biso   1.000  C
  C362     1.0000 0.77100  0.15282  0.76698  Biso   1.000  C
  H435     1.0000 0.70263  0.08572  0.74442  Biso   1.000  H
  H436     1.0000 0.70257  0.08572  0.74442  Biso   1.000  H
  H437     1.0000 0.75513  0.10932  0.64963  Biso   1.000  H
  H438     1.0000 0.72769  0.12063  0.66567  Biso   1.000  H
  H439     1.0000 0.73533  0.03677  0.69373  Biso   1.000  H
  H440     1.0000 0.83340  0.14524  0.68707  Biso   1.000  H
  H441     1.0000 0.83342  0.14519  0.68707  Biso   1.000  H
  C363     1.0000 0.90152  0.20471  0.50878  Biso   1.000  C
  C364     1.0000 0.75722  0.18943  0.47250  Biso   1.000  C
  C365     1.0000 0.90146  0.20471  0.50878  Biso   1.000  C
  C366     1.0000 0.75718  0.18937  0.47250  Biso   1.000  C
  C367     1.0000 0.16150  0.09222  0.13548  Biso   1.000  C
  O60      1.0000 0.20312  0.95411  0.12951  Biso   1.000  O
  C368     1.0000 0.25972  0.15674  0.12529  Biso   1.000  C
  C369     1.0000 0.25968  0.15668  0.12529  Biso   1.000  C
  O61      1.0000 0.38232  0.08745  0.08928  Biso   1.000  O
  O62      1.0000 0.38228  0.08739  0.08928  Biso   1.000  O
  O63      1.0000 0.41080  0.07462  0.14241  Biso   1.000  O
  C370     1.0000 0.11302  0.02452  0.28639  Biso   1.000  C
  C371     1.0000 0.09660  0.09321  0.40503  Biso   1.000  C
  C372     1.0000 0.11296  0.02452  0.28639  Biso   1.000  C
  C373     1.0000 0.54530  0.14053  0.92801  Biso   1.000  C
  H442     1.0000 0.63090  0.02512  0.97611  Biso   1.000  H
  H443     1.0000 0.68718  0.08011  0.99059  Biso   1.000  H
  C374     1.0000 0.54532  0.14048  0.92801  Biso   1.000  C
  H444     1.0000 0.92699  0.37941  0.11071  Biso   1.000  H
  H445     1.0000 0.96722  0.39830  0.05011  Biso   1.000  H
  H446     1.0000 0.99101  0.42852  0.14353  Biso   1.000  H
  H447     1.0000 0.18220  0.71642  0.98630  Biso   1.000  H
  H448     1.0000 0.18220  0.76053  0.06743  Biso   1.000  H
  C375     1.0000 0.27916  0.76644  0.03427  Biso   1.000  C
  H449     1.0000 0.18222  0.76047  0.06743  Biso   1.000  H
  C376     1.0000 0.27918  0.76638  0.03427  Biso   1.000  C
  H450     1.0000 0.68984  0.14349  0.81073  Biso   1.000  H
  H451     1.0000 0.67103  0.11817  0.77853  Biso   1.000  H
  H452     1.0000 0.74790  0.15559  0.81100  Biso   1.000  H
  H453     1.0000 0.72223  0.20372  0.73613  Biso   1.000  H
  H454     1.0000 0.82184  0.16069  0.81923  Biso   1.000  H
  C377     1.0000 0.85111  0.27570  0.45211  Biso   1.000  C
  H455     1.0000 0.96651  0.18599  0.54010  Biso   1.000  H
  C378     1.0000 0.70632  0.26179  0.41678  Biso   1.000  C
  H456     1.0000 0.72584  0.15952  0.47861  Biso   1.000  H
  H457     1.0000 0.72578  0.15952  0.47861  Biso   1.000  H
  C379     1.0000 0.07383  0.09480  0.13650  Biso   1.000  C
  C380     1.0000 0.07378  0.09480  0.13650  Biso   1.000  C
  C381     1.0000 0.18349  0.15693  0.13100  Biso   1.000  C
  C382     1.0000 0.18351  0.15688  0.13100  Biso   1.000  C
  C383     1.0000 0.26401  0.89204  0.20397  Biso   1.000  C
  C384     1.0000 0.26397  0.89199  0.20397  Biso   1.000  C
  C385     1.0000 0.27949  0.22911  0.11687  Biso   1.000  C
  C386     1.0000 0.47604  0.03721  0.14921  Biso   1.000  C
  C387     1.0000 0.47598  0.03721  0.14921  Biso   1.000  C
  C388     1.0000 0.49652  0.06243  0.23781  Biso   1.000  C
  C389     1.0000 0.49654  0.06237  0.23781  Biso   1.000  C
  O64      1.0000 0.12987  0.95554  0.25140  Biso   1.000  O
  O65      1.0000 0.12989  0.95549  0.25140  Biso   1.000  O
  C390     1.0000 0.08622  0.09371  0.23272  Biso   1.000  C
  C391     1.0000 0.07451  0.16362  0.35638  Biso   1.000  C
  O66      1.0000 0.08990  0.09334  0.48493  Biso   1.000  O
  O67      1.0000 0.08993  0.09328  0.48493  Biso   1.000  O
  C392     1.0000 0.52534  0.16391  0.99813  Biso   1.000  C
  C393     1.0000 0.48260  0.17732  0.84029  Biso   1.000  C
  C394     1.0000 0.52529  0.16391  0.99813  Biso   1.000  C
  H458     1.0000 0.28628  0.76370  0.97999  Biso   1.000  H
  H459     1.0000 0.28079  0.81612  0.05371  Biso   1.000  H
  C395     1.0000 0.36071  0.70061  0.10840  Biso   1.000  C
  C396     1.0000 0.75371  0.30540  0.40571  Biso   1.000  C
  H460     1.0000 0.88294  0.30449  0.44450  Biso   1.000  H
  H461     1.0000 0.88288  0.30449  0.44450  Biso   1.000  H
  C397     1.0000 0.60260  0.29552  0.36881  Biso   1.000  C
  C398     1.0000 0.98851  0.16461  0.06829  Biso   1.000  C
  H462     1.0000 0.06368  0.04704  0.11612  Biso   1.000  H
  H463     1.0000 0.06370  0.04698  0.11612  Biso   1.000  H
  H464     1.0000 0.14248  0.20501  0.13188  Biso   1.000  H
  C399     1.0000 0.24068  0.92222  0.28429  Biso   1.000  C
  C400     1.0000 0.22900  0.84724  0.23299  Biso   1.000  C
  C401     1.0000 0.22902  0.84718  0.23299  Biso   1.000  C
  H465     1.0000 0.29740  0.91433  0.25561  Biso   1.000  H
  H466     1.0000 0.29742  0.91428  0.25561  Biso   1.000  H
  H467     1.0000 0.25210  0.84440  0.18903  Biso   1.000  H
  H468     1.0000 0.31021  0.85650  0.18930  Biso   1.000  H
  H469     1.0000 0.32903  0.88182  0.22150  Biso   1.000  H
  C402     1.0000 0.33139  0.25270  0.20887  Biso   1.000  C
  H470     1.0000 0.32179  0.21572  0.09030  Biso   1.000  H
  C403     1.0000 0.19139  0.29760  0.05069  Biso   1.000  C
  H471     1.0000 0.48160  0.98299  0.15220  Biso   1.000  H
  H472     1.0000 0.51863  0.04269  0.12923  Biso   1.000  H
  C404     1.0000 0.54369  0.12049  0.24467  Biso   1.000  C
  H473     1.0000 0.53782  0.01804  0.28639  Biso   1.000  H
  H474     1.0000 0.43921  0.08733  0.24168  Biso   1.000  H
  H475     1.0000 0.53778  0.01799  0.28639  Biso   1.000  H
  H476     1.0000 0.47586  0.06775  0.28347  Biso   1.000  H
  H477     1.0000 0.54191  0.00962  0.25072  Biso   1.000  H
  C405     1.0000 0.19392  0.88561  0.29577  Biso   1.000  C
  C406     1.0000 0.19386  0.88561  0.29577  Biso   1.000  C
  C407     1.0000 0.06921  0.16189  0.27049  Biso   1.000  C
  C408     1.0000 0.05818  0.23985  0.39449  Biso   1.000  C
  C409     1.0000 0.05820  0.23979  0.39449  Biso   1.000  C
  C410     1.0000 0.16891  0.05129  0.56762  Biso   1.000  C
  C411     1.0000 0.44061  0.22364  0.97781  Biso   1.000  C
  C412     1.0000 0.44063  0.22359  0.97781  Biso   1.000  C
  H478     1.0000 0.56814  0.13988  0.05792  Biso   1.000  H
  C413     1.0000 0.39771  0.23723  0.81909  Biso   1.000  C
  C414     1.0000 0.39773  0.23718  0.81909  Biso   1.000  C
  H479     1.0000 0.49728  0.16191  0.79409  Biso   1.000  H
  H480     1.0000 0.41839  0.70400  0.11819  Biso   1.000  H
  H481     1.0000 0.35632  0.70501  0.16358  Biso   1.000  H
  H482     1.0000 0.35882  0.65122  0.09019  Biso   1.000  H
  H483     1.0000 0.35626  0.70501  0.16358  Biso   1.000  H
  H484     1.0000 0.35876  0.65122  0.09019  Biso   1.000  H
  H485     1.0000 0.72062  0.35363  0.36779  Biso   1.000  H
  H486     1.0000 0.72058  0.35357  0.36779  Biso   1.000  H
  O68      1.0000 0.56830  0.23583  0.37499  Biso   1.000  O
  O69      1.0000 0.56832  0.23578  0.37499  Biso   1.000  O
  H487     1.0000 0.58021  0.33931  0.39619  Biso   1.000  H
  H488     1.0000 0.57982  0.31453  0.30562  Biso   1.000  H
  H489     1.0000 0.57984  0.31448  0.30562  Biso   1.000  H
  H490     1.0000 0.99550  0.21274  0.08887  Biso   1.000  H
  H491     1.0000 0.98779  0.16364  0.00999  Biso   1.000  H
  C415     1.0000 0.89657  0.16584  0.05517  Biso   1.000  C
  H492     1.0000 0.99552  0.21268  0.08887  Biso   1.000  H
  H493     1.0000 0.98781  0.16358  0.00999  Biso   1.000  H
  C416     1.0000 0.89659  0.16578  0.05517  Biso   1.000  C
  H494     1.0000 0.24490  0.89073  0.35040  Biso   1.000  H
  H495     1.0000 0.27231  0.87943  0.33429  Biso   1.000  H
  H496     1.0000 0.26472  0.96322  0.30630  Biso   1.000  H
  H497     1.0000 0.27781  0.79633  0.26390  Biso   1.000  H
  H498     1.0000 0.17822  0.83930  0.18080  Biso   1.000  H
  C417     1.0000 0.28330  0.29549  0.25432  Biso   1.000  C
  C418     1.0000 0.42710  0.23432  0.25113  Biso   1.000  C
  H499     1.0000 0.15950  0.27919  0.99477  Biso   1.000  H
  H500     1.0000 0.14950  0.31513  0.07691  Biso   1.000  H
  C419     1.0000 0.21053  0.36711  0.02820  Biso   1.000  C
  H501     1.0000 0.14952  0.31507  0.07691  Biso   1.000  H
  C420     1.0000 0.21047  0.36711  0.02820  Biso   1.000  C
  O70      1.0000 0.47629  0.19871  0.20520  Biso   1.000  O
  H502     1.0000 0.58518  0.11943  0.30807  Biso   1.000  H
  H503     1.0000 0.58118  0.10492  0.21389  Biso   1.000  H
  H504     1.0000 0.16660  0.85482  0.31289  Biso   1.000  H
  H505     1.0000 0.05353  0.20892  0.23672  Biso   1.000  H
  H506     1.0000 0.05348  0.20892  0.23672  Biso   1.000  H
  C421     1.0000 0.97274  0.30742  0.32533  Biso   1.000  C
  C422     1.0000 0.97268  0.30742  0.32533  Biso   1.000  C
  C423     1.0000 0.14617  0.25791  0.43907  Biso   1.000  C
  H507     1.0000 0.04412  0.23112  0.44308  Biso   1.000  H
  H508     1.0000 0.04406  0.23112  0.44308  Biso   1.000  H
  H509     1.0000 0.19829  0.99783  0.56137  Biso   1.000  H
  H510     1.0000 0.15488  0.00903  0.58400  Biso   1.000  H
  H511     1.0000 0.21891  0.02680  0.55247  Biso   1.000  H
  C424     1.0000 0.20548  0.07693  0.64019  Biso   1.000  C
  H512     1.0000 0.15490  0.00898  0.58400  Biso   1.000  H
  C425     1.0000 0.20550  0.07687  0.64019  Biso   1.000  C
  H513     1.0000 0.15194  0.05072  0.61532  Biso   1.000  H
  C426     1.0000 0.23657  0.09762  0.58909  Biso   1.000  C
  C427     1.0000 0.37669  0.25933  0.88928  Biso   1.000  C
  H514     1.0000 0.42677  0.23963  0.02442  Biso   1.000  H
  H515     1.0000 0.42670  0.23969  0.02442  Biso   1.000  H
  C428     1.0000 0.32751  0.27500  0.72301  Biso   1.000  C
  C429     1.0000 0.47222  0.25760  0.33328  Biso   1.000  C
  C430     1.0000 0.47217  0.25760  0.33328  Biso   1.000  C
  C431     1.0000 0.81371  0.23641  0.98818  Biso   1.000  C
  H516     1.0000 0.89722  0.16630  0.11340  Biso   1.000  H
  H517     1.0000 0.88872  0.11822  0.03343  Biso   1.000  H
  C432     1.0000 0.32609  0.32034  0.33470  Biso   1.000  C
  C433     1.0000 0.32611  0.32029  0.33470  Biso   1.000  C
  H518     1.0000 0.21920  0.30761  0.22809  Biso   1.000  H
  H519     1.0000 0.24152  0.35252  0.99110  Biso   1.000  H
  C434     1.0000 0.12385  0.44020  0.97853  Biso   1.000  C
  C435     1.0000 0.12379  0.44020  0.97853  Biso   1.000  C
  H520     1.0000 0.25312  0.37880  0.08419  Biso   1.000  H
  H521     1.0000 0.91799  0.29373  0.30521  Biso   1.000  H
  H522     1.0000 0.98091  0.31440  0.27267  Biso   1.000  H
  C436     1.0000 0.95448  0.38522  0.36168  Biso   1.000  C
  C437     1.0000 0.20743  0.23250  0.53100  Biso   1.000  C
  C438     1.0000 0.16960  0.30063  0.39083  Biso   1.000  C
  C439     1.0000 0.20737  0.23250  0.53100  Biso   1.000  C
  C440     1.0000 0.16962  0.30057  0.39083  Biso   1.000  C
  H523     1.0000 0.25139  0.03223  0.68727  Biso   1.000  H
  H524     1.0000 0.15709  0.10302  0.65677  Biso   1.000  H
  C441     1.0000 0.25042  0.12952  0.64189  Biso   1.000  C
  C442     1.0000 0.25036  0.12952  0.64189  Biso   1.000  C
  H525     1.0000 0.29941  0.10550  0.62538  Biso   1.000  H
  O71      1.0000 0.18478  0.19433  0.58189  Biso   1.000  O
  H526     1.0000 0.26193  0.08852  0.54703  Biso   1.000  H
  H527     1.0000 0.28861  0.07675  0.64990  Biso   1.000  H
  H528     1.0000 0.31951  0.29833  0.87637  Biso   1.000  H
  H529     1.0000 0.31945  0.29833  0.87637  Biso   1.000  H
  O72      1.0000 0.34780  0.22305  0.66438  Biso   1.000  O
  O73      1.0000 0.34782  0.22299  0.66438  Biso   1.000  O
  H530     1.0000 0.33138  0.32454  0.71038  Biso   1.000  H
  H531     1.0000 0.26476  0.28519  0.71323  Biso   1.000  H
  H532     1.0000 0.33140  0.32448  0.71038  Biso   1.000  H
  H533     1.0000 0.26470  0.28519  0.71323  Biso   1.000  H
  C443     1.0000 0.42390  0.29930  0.37622  Biso   1.000  C
  H534     1.0000 0.81778  0.23952  0.93260  Biso   1.000  H
  C444     1.0000 0.72078  0.23362  0.96569  Biso   1.000  C
  H535     1.0000 0.81783  0.28363  0.01373  Biso   1.000  H
  H536     1.0000 0.81785  0.28357  0.01373  Biso   1.000  H
  C445     1.0000 0.27129  0.36892  0.37968  Biso   1.000  C
  H537     1.0000 0.08102  0.42791  0.92309  Biso   1.000  H
  C446     1.0000 0.13970  0.50952  0.95407  Biso   1.000  C
  H538     1.0000 0.08097  0.42791  0.92309  Biso   1.000  H
  H539     1.0000 0.09344  0.45472  0.01610  Biso   1.000  H
  H540     1.0000 0.09338  0.45472  0.01610  Biso   1.000  H
  H541     1.0000 0.96000  0.37614  0.42120  Biso   1.000  H
  C447     1.0000 0.85860  0.44532  0.29937  Biso   1.000  C
  H542     1.0000 0.96002  0.37608  0.42120  Biso   1.000  H
  H543     1.0000 0.00172  0.40549  0.36847  Biso   1.000  H
  H544     1.0000 0.00166  0.40549  0.36847  Biso   1.000  H
  C448     1.0000 0.28652  0.25101  0.57319  Biso   1.000  C
  H545     1.0000 0.13031  0.31672  0.32872  Biso   1.000  H
  C449     1.0000 0.24850  0.31992  0.43153  Biso   1.000  C
  H546     1.0000 0.27842  0.14260  0.70243  Biso   1.000  H
  O74      1.0000 0.46671  0.32852  0.45463  Biso   1.000  O
  H547     1.0000 0.71918  0.18393  0.94632  Biso   1.000  H
  C450     1.0000 0.63934  0.29939  0.89163  Biso   1.000  C
  H548     1.0000 0.71920  0.18387  0.94632  Biso   1.000  H
  H549     1.0000 0.71368  0.23630  0.01998  Biso   1.000  H
  H550     1.0000 0.31250  0.39180  0.42500  Biso   1.000  H
  C451     1.0000 0.18390  0.43861  0.31153  Biso   1.000  C
  H551     1.0000 0.16824  0.49539  0.91493  Biso   1.000  H
  C452     1.0000 0.05641  0.58222  0.90848  Biso   1.000  C
  H552     1.0000 0.18438  0.52044  0.00931  Biso   1.000  H
  H553     1.0000 0.18440  0.52039  0.00931  Biso   1.000  H
  H554     1.0000 0.84892  0.44679  0.23761  Biso   1.000  H
  H555     1.0000 0.81171  0.42912  0.30161  Biso   1.000  H
  C453     1.0000 0.84491  0.52651  0.32370  Biso   1.000  C
  C454     1.0000 0.30784  0.29309  0.52332  Biso   1.000  C
  C455     1.0000 0.30779  0.29309  0.52332  Biso   1.000  C
  C456     1.0000 0.53652  0.27284  0.53310  Biso   1.000  C
  C457     1.0000 0.53648  0.27278  0.53310  Biso   1.000  C
  H556     1.0000 0.58158  0.29601  0.88177  Biso   1.000  H
  H557     1.0000 0.64368  0.29505  0.83639  Biso   1.000  H
  H558     1.0000 0.64118  0.34884  0.90977  Biso   1.000  H
  H559     1.0000 0.64370  0.29499  0.83639  Biso   1.000  H
  H560     1.0000 0.64120  0.34878  0.90977  Biso   1.000  H
  H561     1.0000 0.20169  0.46444  0.27640  Biso   1.000  H
  H562     1.0000 0.13789  0.41874  0.26961  Biso   1.000  H
  C458     1.0000 0.13961  0.49811  0.35699  Biso   1.000  C
  H563     1.0000 0.20172  0.46438  0.27640  Biso   1.000  H
  H564     1.0000 0.13791  0.41868  0.26961  Biso   1.000  H
  H565     1.0000 0.07298  0.62064  0.88932  Biso   1.000  H
  H566     1.0000 0.03283  0.60169  0.94992  Biso   1.000  H
  H567     1.0000 0.00903  0.57153  0.85650  Biso   1.000  H
  H568     1.0000 0.07300  0.62058  0.88932  Biso   1.000  H
  H569     1.0000 0.00899  0.57148  0.85650  Biso   1.000  H
  H570     1.0000 0.89104  0.54283  0.31982  Biso   1.000  H
  H571     1.0000 0.78350  0.56220  0.27871  Biso   1.000  H
  C459     1.0000 0.85271  0.53450  0.41610  Biso   1.000  C
  H572     1.0000 0.89100  0.54277  0.31982  Biso   1.000  H
  O75      1.0000 0.38544  0.31281  0.56681  Biso   1.000  O
  O76      1.0000 0.38538  0.31281  0.56681  Biso   1.000  O
  C460     1.0000 0.54192  0.28869  0.61043  Biso   1.000  C
  H573     1.0000 0.57310  0.29689  0.57992  Biso   1.000  H
  H574     1.0000 0.52670  0.22384  0.52427  Biso   1.000  H
  H575     1.0000 0.59668  0.26402  0.53671  Biso   1.000  H
  H576     1.0000 0.52672  0.22378  0.52427  Biso   1.000  H
  H577     1.0000 0.57808  0.23061  0.51877  Biso   1.000  H
  H578     1.0000 0.12439  0.47172  0.39409  Biso   1.000  H
  H579     1.0000 0.18499  0.51943  0.39721  Biso   1.000  H
  C461     1.0000 0.05219  0.56484  0.29183  Biso   1.000  C
  H580     1.0000 0.18501  0.51937  0.39721  Biso   1.000  H
  C462     1.0000 0.05221  0.56478  0.29183  Biso   1.000  C
  H581     1.0000 0.83832  0.58852  0.42378  Biso   1.000  H
  H582     1.0000 0.91529  0.50394  0.46169  Biso   1.000  H
  H583     1.0000 0.80937  0.51631  0.42188  Biso   1.000  H
  H584     1.0000 0.83826  0.58852  0.42378  Biso   1.000  H
  H585     1.0000 0.91531  0.50388  0.46169  Biso   1.000  H
  C463     1.0000 0.47171  0.26964  0.62408  Biso   1.000  C
  C464     1.0000 0.47167  0.26959  0.62408  Biso   1.000  C
  C465     1.0000 0.47069  0.23843  0.56721  Biso   1.000  C
  H586     1.0000 0.53090  0.34382  0.61260  Biso   1.000  H
  H587     1.0000 0.60421  0.25849  0.65880  Biso   1.000  H
  H588     1.0000 0.00371  0.54463  0.25690  Biso   1.000  H
  H589     1.0000 0.06521  0.58731  0.24963  Biso   1.000  H
  C466     1.0000 0.01643  0.62862  0.33932  Biso   1.000  C
  H590     1.0000 0.00373  0.54458  0.25690  Biso   1.000  H
  H591     1.0000 0.48131  0.21510  0.61851  Biso   1.000  H
  H592     1.0000 0.48192  0.27605  0.68530  Biso   1.000  H
  H593     1.0000 0.48188  0.27599  0.68530  Biso   1.000  H
  H594     1.0000 0.51070  0.20794  0.62769  Biso   1.000  H
  H595     1.0000 0.44547  0.20494  0.52590  Biso   1.000  H
  C467     1.0000 0.92639  0.69504  0.27308  Biso   1.000  C
  C468     1.0000 0.92641  0.69498  0.27308  Biso   1.000  C
  H596     1.0000 0.06418  0.64982  0.37289  Biso   1.000  H
  H597     1.0000 0.00489  0.60594  0.38260  Biso   1.000  H
  H598     1.0000 0.00491  0.60588  0.38260  Biso   1.000  H
  H599     1.0000 0.90442  0.73211  0.30637  Biso   1.000  H
  H600     1.0000 0.87947  0.67400  0.23788  Biso   1.000  H
  H601     1.0000 0.93860  0.72060  0.23319  Biso   1.000  H
  H602     1.0000 0.90436  0.73211  0.30637  Biso   1.000  H
