data_image0
_cell_length_a       15.521
_cell_length_b       25.567
_cell_length_c       32.448
_cell_angle_alpha    90
_cell_angle_beta     101.04
_cell_angle_gamma    90

_symmetry_space_group_name_H-M    "P 1"
_symmetry_int_tables_number       1

loop_
  _symmetry_equiv_pos_as_xyz
  'x, y, z'

loop_
  _atom_site_label
  _atom_site_occupancy
  _atom_site_fract_x
  _atom_site_fract_y
  _atom_site_fract_z
  _atom_site_thermal_displace_type
  _atom_site_B_iso_or_equiv
  _atom_site_type_symbol
  O1       1.0000 0.82956  0.86240  0.85869  Biso   1.000  O
  C1       1.0000 0.79837  0.84719  0.88861  Biso   1.000  C
  C2       1.0000 0.79830  0.84719  0.88861  Biso   1.000  C
  N1       1.0000 0.72204  0.86361  0.89863  Biso   1.000  N
  N2       1.0000 0.83616  0.80991  0.91671  Biso   1.000  N
  N3       1.0000 0.72204  0.86357  0.89863  Biso   1.000  N
  N4       1.0000 0.83616  0.80987  0.91671  Biso   1.000  N
  C3       1.0000 0.65955  0.89639  0.87162  Biso   1.000  C
  C4       1.0000 0.69623  0.83072  0.93122  Biso   1.000  C
  C5       1.0000 0.69623  0.83068  0.93122  Biso   1.000  C
  C6       1.0000 0.90706  0.77651  0.90921  Biso   1.000  C
  C7       1.0000 0.77473  0.79251  0.94271  Biso   1.000  C
  C8       1.0000 0.90706  0.77647  0.90921  Biso   1.000  C
  C9       1.0000 0.77473  0.79247  0.94271  Biso   1.000  C
  N5       1.0000 0.64543  0.94712  0.89122  Biso   1.000  N
  H1       1.0000 0.68074  0.90288  0.84522  Biso   1.000  H
  H2       1.0000 0.60285  0.87762  0.86453  Biso   1.000  H
  N6       1.0000 0.64543  0.94708  0.89122  Biso   1.000  N
  H3       1.0000 0.60285  0.87758  0.86453  Biso   1.000  H
  N7       1.0000 0.69484  0.85939  0.97072  Biso   1.000  N
  H4       1.0000 0.63983  0.81191  0.92070  Biso   1.000  H
  H5       1.0000 0.63983  0.81187  0.92070  Biso   1.000  H
  N8       1.0000 0.98357  0.77760  0.94180  Biso   1.000  N
  H6       1.0000 0.88503  0.74092  0.90600  Biso   1.000  H
  H7       1.0000 0.92354  0.78609  0.88311  Biso   1.000  H
  N9       1.0000 0.98350  0.77760  0.94180  Biso   1.000  N
  H8       1.0000 0.88503  0.74088  0.90600  Biso   1.000  H
  N10      1.0000 0.80497  0.80189  0.98733  Biso   1.000  N
  H9       1.0000 0.75656  0.75531  0.93690  Biso   1.000  H
  N11      1.0000 0.80495  0.80189  0.98730  Biso   1.000  N
  H10      1.0000 0.75656  0.75527  0.93690  Biso   1.000  H
  C10      1.0000 0.66704  0.99280  0.87520  Biso   1.000  C
  C11      1.0000 0.58185  0.95330  0.91781  Biso   1.000  C
  C12      1.0000 0.66704  0.99276  0.87520  Biso   1.000  C
  C13      1.0000 0.61897  0.88689  0.97722  Biso   1.000  C
  C14      1.0000 0.61891  0.88689  0.97722  Biso   1.000  C
  C15      1.0000 0.75379  0.83709  0.00322  Biso   1.000  C
  C16      1.0000 0.99235  0.74749  0.97983  Biso   1.000  C
  C17      1.0000 0.06151  0.79779  0.93580  Biso   1.000  C
  C18      1.0000 0.86036  0.76509  0.01352  Biso   1.000  C
  O2       1.0000 0.71384  0.99851  0.84967  Biso   1.000  O
  O3       1.0000 0.71384  0.99847  0.84967  Biso   1.000  O
  N12      1.0000 0.62615  0.03192  0.89231  Biso   1.000  N
  N13      1.0000 0.61175  0.94059  0.96111  Biso   1.000  N
  H11      1.0000 0.52626  0.93429  0.90610  Biso   1.000  H
  H12      1.0000 0.52620  0.93429  0.90610  Biso   1.000  H
  C19      1.0000 0.56643  0.01259  0.91791  Biso   1.000  C
  C20      1.0000 0.56643  0.01263  0.91791  Biso   1.000  C
  H13      1.0000 0.56637  0.86709  0.96362  Biso   1.000  H
  H14      1.0000 0.61900  0.88779  0.00771  Biso   1.000  H
  O4       1.0000 0.75981  0.84879  0.04014  Biso   1.000  O
  O5       1.0000 0.75975  0.84879  0.04014  Biso   1.000  O
  H15      1.0000 0.97234  0.71060  0.97411  Biso   1.000  H
  N14      1.0000 0.95266  0.77119  0.01232  Biso   1.000  N
  C21      1.0000 0.09222  0.75042  0.99851  Biso   1.000  C
  C22      1.0000 0.09222  0.75038  0.99851  Biso   1.000  C
  O6       1.0000 0.07353  0.82168  0.90531  Biso   1.000  O
  N15      1.0000 0.12558  0.78511  0.97063  Biso   1.000  N
  N16      1.0000 0.12551  0.78511  0.97063  Biso   1.000  N
  N17      1.0000 0.12558  0.78507  0.97063  Biso   1.000  N
  N18      1.0000 0.12551  0.78507  0.97063  Biso   1.000  N
  H16      1.0000 0.85087  0.76661  0.04212  Biso   1.000  H
  H17      1.0000 0.84398  0.72922  0.00400  Biso   1.000  H
  H18      1.0000 0.85087  0.76657  0.04212  Biso   1.000  H
  H19      1.0000 0.84398  0.72918  0.00400  Biso   1.000  H
  C23      1.0000 0.62725  0.08609  0.87913  Biso   1.000  C
  C24      1.0000 0.62724  0.08609  0.87910  Biso   1.000  C
  C25      1.0000 0.62725  0.08613  0.87913  Biso   1.000  C
  C26      1.0000 0.62724  0.08613  0.87910  Biso   1.000  C
  C27      1.0000 0.61014  0.98318  0.98702  Biso   1.000  C
  N19      1.0000 0.59073  0.02589  0.96252  Biso   1.000  N
  H20      1.0000 0.50415  0.02198  0.90591  Biso   1.000  H
  H21      1.0000 0.50415  0.02202  0.90591  Biso   1.000  H
  C28      1.0000 0.01436  0.78171  0.04881  Biso   1.000  C
  C29      1.0000 0.01436  0.78167  0.04881  Biso   1.000  C
  H22      1.0000 0.12075  0.71522  0.99992  Biso   1.000  H
  H23      1.0000 0.12075  0.71518  0.99992  Biso   1.000  H
  N20      1.0000 0.09368  0.77252  0.04030  Biso   1.000  N
  N21      1.0000 0.09368  0.77248  0.04030  Biso   1.000  N
  C30      1.0000 0.21962  0.78621  0.96912  Biso   1.000  C
  C31      1.0000 0.21962  0.78617  0.96912  Biso   1.000  C
  N22      1.0000 0.67678  0.12031  0.91062  Biso   1.000  N
  H24      1.0000 0.56601  0.09899  0.87181  Biso   1.000  H
  H25      1.0000 0.65271  0.08781  0.85341  Biso   1.000  H
  N23      1.0000 0.67671  0.12031  0.91062  Biso   1.000  N
  H26      1.0000 0.56601  0.09903  0.87181  Biso   1.000  H
  O7       1.0000 0.62376  0.98240  0.02523  Biso   1.000  O
  O8       1.0000 0.62375  0.98240  0.02520  Biso   1.000  O
  C32      1.0000 0.56954  0.07471  0.97910  Biso   1.000  C
  O9       1.0000 0.99701  0.79712  0.08159  Biso   1.000  O
  O10      1.0000 0.99700  0.79712  0.08156  Biso   1.000  O
  O11      1.0000 0.99701  0.79708  0.08159  Biso   1.000  O
  O12      1.0000 0.99700  0.79708  0.08156  Biso   1.000  O
  C33      1.0000 0.17220  0.77162  0.07293  Biso   1.000  C
  C34      1.0000 0.17220  0.77158  0.07293  Biso   1.000  C
  N24      1.0000 0.26865  0.82219  0.99873  Biso   1.000  N
  H27      1.0000 0.24424  0.75062  0.97493  Biso   1.000  H
  H28      1.0000 0.22675  0.79610  0.94042  Biso   1.000  H
  H29      1.0000 0.24424  0.75058  0.97493  Biso   1.000  H
  H30      1.0000 0.22675  0.79607  0.94042  Biso   1.000  H
  C35      1.0000 0.74775  0.14679  0.90170  Biso   1.000  C
  C36      1.0000 0.63615  0.14660  0.94111  Biso   1.000  C
  C37      1.0000 0.63615  0.14663  0.94111  Biso   1.000  C
  N25      1.0000 0.63333  0.11710  0.97800  Biso   1.000  N
  H31      1.0000 0.51172  0.08620  0.96312  Biso   1.000  H
  N26      1.0000 0.63333  0.11706  0.97800  Biso   1.000  N
  H32      1.0000 0.56331  0.06931  0.00862  Biso   1.000  H
  H33      1.0000 0.56325  0.06931  0.00862  Biso   1.000  H
  N27      1.0000 0.23430  0.81312  0.06872  Biso   1.000  N
  H34      1.0000 0.20168  0.73740  0.07220  Biso   1.000  H
  H35      1.0000 0.15488  0.77491  0.10062  Biso   1.000  H
  N28      1.0000 0.23430  0.81308  0.06872  Biso   1.000  N
  H36      1.0000 0.15488  0.77487  0.10062  Biso   1.000  H
  C38      1.0000 0.31254  0.86310  0.98733  Biso   1.000  C
  C39      1.0000 0.31252  0.86310  0.98730  Biso   1.000  C
  C40      1.0000 0.31254  0.86307  0.98733  Biso   1.000  C
  C41      1.0000 0.31252  0.86307  0.98730  Biso   1.000  C
  C42      1.0000 0.29921  0.80850  0.04272  Biso   1.000  C
  C43      1.0000 0.29915  0.80850  0.04272  Biso   1.000  C
  O13      1.0000 0.78623  0.13909  0.87357  Biso   1.000  O
  N29      1.0000 0.76572  0.18688  0.93131  Biso   1.000  N
  O14      1.0000 0.78621  0.13909  0.87354  Biso   1.000  O
  O15      1.0000 0.78623  0.13912  0.87357  Biso   1.000  O
  O16      1.0000 0.78621  0.13912  0.87354  Biso   1.000  O
  C44      1.0000 0.70082  0.19150  0.95731  Biso   1.000  C
  H37      1.0000 0.57683  0.16040  0.92811  Biso   1.000  H
  C45      1.0000 0.68749  0.13690  0.01270  Biso   1.000  C
  C46      1.0000 0.25228  0.85321  0.09833  Biso   1.000  C
  C47      1.0000 0.25228  0.85317  0.09833  Biso   1.000  C
  O17      1.0000 0.30704  0.88020  0.95172  Biso   1.000  O
  N30      1.0000 0.36669  0.88290  0.02203  Biso   1.000  N
  H38      1.0000 0.32871  0.77361  0.04592  Biso   1.000  H
  C48      1.0000 0.36388  0.85340  0.05892  Biso   1.000  C
  H39      1.0000 0.32865  0.77361  0.04592  Biso   1.000  H
  H40      1.0000 0.32871  0.77358  0.04592  Biso   1.000  H
  C49      1.0000 0.36388  0.85337  0.05892  Biso   1.000  C
  H41      1.0000 0.32865  0.77358  0.04592  Biso   1.000  H
  C50      1.0000 0.82782  0.22838  0.92711  Biso   1.000  C
  H42      1.0000 0.67131  0.22639  0.95411  Biso   1.000  H
  H43      1.0000 0.67131  0.22642  0.95411  Biso   1.000  H
  N31      1.0000 0.73138  0.17781  0.00130  Biso   1.000  N
  O18      1.0000 0.69298  0.11980  0.04831  Biso   1.000  O
  O19      1.0000 0.21380  0.86091  0.12646  Biso   1.000  O
  N32      1.0000 0.32325  0.87969  0.08941  Biso   1.000  N
  O20      1.0000 0.21380  0.86088  0.12646  Biso   1.000  O
  C51      1.0000 0.43049  0.92529  0.02093  Biso   1.000  C
  H44      1.0000 0.42320  0.83960  0.07192  Biso   1.000  H
  N33      1.0000 0.90635  0.22748  0.95973  Biso   1.000  N
  H45      1.0000 0.79835  0.26260  0.92783  Biso   1.000  H
  H46      1.0000 0.84515  0.22509  0.89941  Biso   1.000  H
  N34      1.0000 0.90633  0.22748  0.95970  Biso   1.000  N
  H47      1.0000 0.79834  0.26260  0.92780  Biso   1.000  H
  N35      1.0000 0.90635  0.22752  0.95973  Biso   1.000  N
  H48      1.0000 0.84515  0.22513  0.89941  Biso   1.000  H
  N36      1.0000 0.90633  0.22752  0.95970  Biso   1.000  N
  C52      1.0000 0.78041  0.21379  0.03091  Biso   1.000  C
  C53      1.0000 0.78034  0.21379  0.03091  Biso   1.000  C
  C54      1.0000 0.78041  0.21383  0.03091  Biso   1.000  C
  C55      1.0000 0.78034  0.21383  0.03091  Biso   1.000  C
  C56      1.0000 0.37278  0.91391  0.12090  Biso   1.000  C
  C57      1.0000 0.37278  0.91387  0.12090  Biso   1.000  C
  H49      1.0000 0.43671  0.93069  0.99141  Biso   1.000  H
  N37      1.0000 0.40929  0.97411  0.03751  Biso   1.000  N
  H50      1.0000 0.48830  0.91380  0.03691  Biso   1.000  H
  N38      1.0000 0.40929  0.97407  0.03751  Biso   1.000  N
  C58      1.0000 0.98567  0.21829  0.95122  Biso   1.000  C
  C59      1.0000 0.98567  0.21833  0.95122  Biso   1.000  C
  C60      1.0000 0.90781  0.24958  0.00152  Biso   1.000  C
  N39      1.0000 0.87445  0.21489  0.02941  Biso   1.000  N
  H51      1.0000 0.75579  0.24938  0.02510  Biso   1.000  H
  H52      1.0000 0.77328  0.20390  0.05961  Biso   1.000  H
  N40      1.0000 0.87445  0.21493  0.02941  Biso   1.000  N
  H53      1.0000 0.75579  0.24942  0.02510  Biso   1.000  H
  H54      1.0000 0.77328  0.20393  0.05961  Biso   1.000  H
  N41      1.0000 0.37387  0.96808  0.10772  Biso   1.000  N
  H55      1.0000 0.43401  0.90101  0.12822  Biso   1.000  H
  H56      1.0000 0.34731  0.91219  0.14662  Biso   1.000  H
  H57      1.0000 0.43395  0.90101  0.12822  Biso   1.000  H
  H58      1.0000 0.34725  0.91219  0.14662  Biso   1.000  H
  H59      1.0000 0.43401  0.90097  0.12822  Biso   1.000  H
  H60      1.0000 0.43395  0.90097  0.12822  Biso   1.000  H
  C61      1.0000 0.43360  0.98741  0.08213  Biso   1.000  C
  C62      1.0000 0.43360  0.98737  0.08213  Biso   1.000  C
  C63      1.0000 0.38989  0.01682  0.01301  Biso   1.000  C
  O21      1.0000 0.00302  0.20288  0.91844  Biso   1.000  O
  N42      1.0000 0.04737  0.22881  0.98771  Biso   1.000  N
  N43      1.0000 0.04730  0.22881  0.98771  Biso   1.000  N
  O22      1.0000 0.00302  0.20292  0.91844  Biso   1.000  O
  H61      1.0000 0.87928  0.28478  0.00011  Biso   1.000  H
  H62      1.0000 0.87928  0.28482  0.00011  Biso   1.000  H
  C64      1.0000 0.00768  0.25251  0.02021  Biso   1.000  C
  C65      1.0000 0.00768  0.25247  0.02021  Biso   1.000  C
  C66      1.0000 0.93851  0.20221  0.06423  Biso   1.000  C
  C67      1.0000 0.93845  0.20221  0.06423  Biso   1.000  C
  C68      1.0000 0.33298  0.00720  0.12483  Biso   1.000  C
  C69      1.0000 0.33298  0.00724  0.12483  Biso   1.000  C
  H63      1.0000 0.49587  0.97802  0.09412  Biso   1.000  H
  H64      1.0000 0.49587  0.97798  0.09412  Biso   1.000  H
  C70      1.0000 0.41817  0.04670  0.08222  Biso   1.000  C
  O23      1.0000 0.37627  0.01760  0.97480  Biso   1.000  O
  O24      1.0000 0.37620  0.01760  0.97480  Biso   1.000  O
  N44      1.0000 0.38828  0.05941  0.03892  Biso   1.000  N
  C71      1.0000 0.13967  0.23491  0.98651  Biso   1.000  C
  C72      1.0000 0.13967  0.23487  0.98651  Biso   1.000  C
  N45      1.0000 0.01646  0.22240  0.05823  Biso   1.000  N
  H65      1.0000 0.02768  0.28940  0.02592  Biso   1.000  H
  N46      1.0000 0.01644  0.22240  0.05820  Biso   1.000  N
  O25      1.0000 0.92650  0.17832  0.09472  Biso   1.000  O
  O26      1.0000 0.28618  0.00149  0.15036  Biso   1.000  O
  N47      1.0000 0.35460  0.05288  0.10882  Biso   1.000  N
  O27      1.0000 0.28618  0.00153  0.15036  Biso   1.000  O
  N48      1.0000 0.35460  0.05292  0.10882  Biso   1.000  N
  H66      1.0000 0.47376  0.06571  0.09393  Biso   1.000  H
  H67      1.0000 0.47375  0.06571  0.09390  Biso   1.000  H
  C73      1.0000 0.38105  0.11311  0.02281  Biso   1.000  C
  H68      1.0000 0.14916  0.23339  0.95791  Biso   1.000  H
  H69      1.0000 0.15604  0.27078  0.99603  Biso   1.000  H
  H70      1.0000 0.14916  0.23343  0.95791  Biso   1.000  H
  H71      1.0000 0.15604  0.27082  0.99603  Biso   1.000  H
  N49      1.0000 0.19506  0.19811  0.01270  Biso   1.000  N
  C74      1.0000 0.09297  0.22349  0.09082  Biso   1.000  C
  C75      1.0000 0.34047  0.10361  0.12841  Biso   1.000  C
  H72      1.0000 0.38103  0.11221  0.99232  Biso   1.000  H
  H73      1.0000 0.38103  0.11218  0.99232  Biso   1.000  H
  N50      1.0000 0.30518  0.14061  0.02931  Biso   1.000  N
  H74      1.0000 0.43366  0.13291  0.03641  Biso   1.000  H
  H75      1.0000 0.43366  0.13287  0.03641  Biso   1.000  H
  C76      1.0000 0.24623  0.16291  0.99681  Biso   1.000  C
  C77      1.0000 0.22529  0.20749  0.05732  Biso   1.000  C
  C78      1.0000 0.22529  0.20753  0.05732  Biso   1.000  C
  N51      1.0000 0.16386  0.19009  0.08332  Biso   1.000  N
  H76      1.0000 0.11500  0.25908  0.09403  Biso   1.000  H
  H77      1.0000 0.07648  0.21391  0.11692  Biso   1.000  H
  H78      1.0000 0.11500  0.25912  0.09403  Biso   1.000  H
  N52      1.0000 0.27799  0.13639  0.10140  Biso   1.000  N
  H79      1.0000 0.31928  0.09712  0.15482  Biso   1.000  H
  H80      1.0000 0.39718  0.12238  0.13550  Biso   1.000  H
  N53      1.0000 0.27799  0.13643  0.10140  Biso   1.000  N
  H81      1.0000 0.39718  0.12242  0.13550  Biso   1.000  H
  C79      1.0000 0.30379  0.16928  0.06881  Biso   1.000  C
  O28      1.0000 0.24021  0.15121  0.95989  Biso   1.000  O
  H82      1.0000 0.24347  0.24469  0.06313  Biso   1.000  H
  H83      1.0000 0.24347  0.24473  0.06313  Biso   1.000  H
  C80      1.0000 0.20166  0.15281  0.11142  Biso   1.000  C
  H84      1.0000 0.36019  0.18809  0.07933  Biso   1.000  H
  H85      1.0000 0.36018  0.18809  0.07930  Biso   1.000  H
  H86      1.0000 0.36019  0.18813  0.07933  Biso   1.000  H
  H87      1.0000 0.36018  0.18813  0.07930  Biso   1.000  H
  O29      1.0000 0.17047  0.13760  0.14135  Biso   1.000  O
  O30      1.0000 0.17047  0.13756  0.14135  Biso   1.000  O
  O31      1.0000 0.82956  0.86240  0.85869  Biso   1.000  O
  C81      1.0000 0.79837  0.84719  0.88861  Biso   1.000  C
  C82      1.0000 0.79830  0.84719  0.88861  Biso   1.000  C
  N54      1.0000 0.72204  0.86361  0.89863  Biso   1.000  N
  N55      1.0000 0.83616  0.80991  0.91671  Biso   1.000  N
  N56      1.0000 0.72204  0.86357  0.89863  Biso   1.000  N
  N57      1.0000 0.83616  0.80987  0.91671  Biso   1.000  N
  C83      1.0000 0.65955  0.89639  0.87162  Biso   1.000  C
  C84      1.0000 0.69623  0.83072  0.93122  Biso   1.000  C
  C85      1.0000 0.69623  0.83068  0.93122  Biso   1.000  C
  C86      1.0000 0.90706  0.77651  0.90921  Biso   1.000  C
  C87      1.0000 0.77473  0.79251  0.94271  Biso   1.000  C
  C88      1.0000 0.90706  0.77647  0.90921  Biso   1.000  C
  C89      1.0000 0.77473  0.79247  0.94271  Biso   1.000  C
  N58      1.0000 0.64543  0.94712  0.89122  Biso   1.000  N
  H88      1.0000 0.68074  0.90288  0.84522  Biso   1.000  H
  H89      1.0000 0.60285  0.87762  0.86453  Biso   1.000  H
  N59      1.0000 0.64543  0.94708  0.89122  Biso   1.000  N
  H90      1.0000 0.60285  0.87758  0.86453  Biso   1.000  H
  N60      1.0000 0.69484  0.85939  0.97072  Biso   1.000  N
  H91      1.0000 0.63983  0.81191  0.92070  Biso   1.000  H
  H92      1.0000 0.63983  0.81187  0.92070  Biso   1.000  H
  H93      1.0000 0.88503  0.74092  0.90600  Biso   1.000  H
  H94      1.0000 0.92354  0.78609  0.88311  Biso   1.000  H
  N61      1.0000 0.98357  0.77760  0.94180  Biso   1.000  N
  N62      1.0000 0.98350  0.77760  0.94180  Biso   1.000  N
  H95      1.0000 0.88503  0.74088  0.90600  Biso   1.000  H
  H96      1.0000 0.75656  0.75531  0.93690  Biso   1.000  H
  N63      1.0000 0.80497  0.80189  0.98733  Biso   1.000  N
  N64      1.0000 0.80495  0.80189  0.98730  Biso   1.000  N
  H97      1.0000 0.75656  0.75527  0.93690  Biso   1.000  H
  C90      1.0000 0.66704  0.99280  0.87520  Biso   1.000  C
  C91      1.0000 0.58185  0.95330  0.91781  Biso   1.000  C
  C92      1.0000 0.66704  0.99276  0.87520  Biso   1.000  C
  C93      1.0000 0.61897  0.88689  0.97722  Biso   1.000  C
  C94      1.0000 0.61891  0.88689  0.97722  Biso   1.000  C
  C95      1.0000 0.75379  0.83709  0.00322  Biso   1.000  C
  C96      1.0000 0.99235  0.74749  0.97983  Biso   1.000  C
  C97      1.0000 0.06151  0.79779  0.93580  Biso   1.000  C
  C98      1.0000 0.86036  0.76509  0.01352  Biso   1.000  C
  O32      1.0000 0.71384  0.99851  0.84967  Biso   1.000  O
  O33      1.0000 0.71384  0.99847  0.84967  Biso   1.000  O
  N65      1.0000 0.62615  0.03192  0.89231  Biso   1.000  N
  N66      1.0000 0.61175  0.94059  0.96111  Biso   1.000  N
  H98      1.0000 0.52626  0.93429  0.90610  Biso   1.000  H
  H99      1.0000 0.52620  0.93429  0.90610  Biso   1.000  H
  C99      1.0000 0.56643  0.01259  0.91791  Biso   1.000  C
  C100     1.0000 0.56643  0.01263  0.91791  Biso   1.000  C
  H100     1.0000 0.56637  0.86709  0.96362  Biso   1.000  H
  H101     1.0000 0.61900  0.88779  0.00771  Biso   1.000  H
  O34      1.0000 0.75981  0.84879  0.04014  Biso   1.000  O
  O35      1.0000 0.75975  0.84879  0.04014  Biso   1.000  O
  H102     1.0000 0.97234  0.71060  0.97411  Biso   1.000  H
  N67      1.0000 0.95266  0.77119  0.01232  Biso   1.000  N
  C101     1.0000 0.09222  0.75042  0.99851  Biso   1.000  C
  C102     1.0000 0.09222  0.75038  0.99851  Biso   1.000  C
  O36      1.0000 0.07353  0.82168  0.90531  Biso   1.000  O
  N68      1.0000 0.12558  0.78511  0.97063  Biso   1.000  N
  N69      1.0000 0.12551  0.78511  0.97063  Biso   1.000  N
  N70      1.0000 0.12558  0.78507  0.97063  Biso   1.000  N
  N71      1.0000 0.12551  0.78507  0.97063  Biso   1.000  N
  H103     1.0000 0.85087  0.76661  0.04212  Biso   1.000  H
  H104     1.0000 0.84398  0.72922  0.00400  Biso   1.000  H
  H105     1.0000 0.85087  0.76657  0.04212  Biso   1.000  H
  H106     1.0000 0.84398  0.72918  0.00400  Biso   1.000  H
  C103     1.0000 0.62725  0.08609  0.87913  Biso   1.000  C
  C104     1.0000 0.62724  0.08609  0.87910  Biso   1.000  C
  C105     1.0000 0.62725  0.08613  0.87913  Biso   1.000  C
  C106     1.0000 0.62724  0.08613  0.87910  Biso   1.000  C
  C107     1.0000 0.61014  0.98318  0.98702  Biso   1.000  C
  N72      1.0000 0.59073  0.02589  0.96252  Biso   1.000  N
  H107     1.0000 0.50415  0.02198  0.90591  Biso   1.000  H
  H108     1.0000 0.50415  0.02202  0.90591  Biso   1.000  H
  C108     1.0000 0.01436  0.78171  0.04881  Biso   1.000  C
  C109     1.0000 0.01436  0.78167  0.04881  Biso   1.000  C
  H109     1.0000 0.12075  0.71522  0.99992  Biso   1.000  H
  H110     1.0000 0.12075  0.71518  0.99992  Biso   1.000  H
  N73      1.0000 0.09368  0.77252  0.04030  Biso   1.000  N
  N74      1.0000 0.09368  0.77248  0.04030  Biso   1.000  N
  C110     1.0000 0.21962  0.78621  0.96912  Biso   1.000  C
  C111     1.0000 0.21962  0.78617  0.96912  Biso   1.000  C
  N75      1.0000 0.67678  0.12031  0.91062  Biso   1.000  N
  H111     1.0000 0.56601  0.09899  0.87181  Biso   1.000  H
  H112     1.0000 0.65271  0.08781  0.85341  Biso   1.000  H
  N76      1.0000 0.67671  0.12031  0.91062  Biso   1.000  N
  H113     1.0000 0.56601  0.09903  0.87181  Biso   1.000  H
  O37      1.0000 0.62376  0.98240  0.02523  Biso   1.000  O
  O38      1.0000 0.62375  0.98240  0.02520  Biso   1.000  O
  C112     1.0000 0.56954  0.07471  0.97910  Biso   1.000  C
  O39      1.0000 0.99701  0.79712  0.08159  Biso   1.000  O
  O40      1.0000 0.99700  0.79712  0.08156  Biso   1.000  O
  O41      1.0000 0.99701  0.79708  0.08159  Biso   1.000  O
  O42      1.0000 0.99700  0.79708  0.08156  Biso   1.000  O
  C113     1.0000 0.17220  0.77162  0.07293  Biso   1.000  C
  C114     1.0000 0.17220  0.77158  0.07293  Biso   1.000  C
  N77      1.0000 0.26865  0.82219  0.99873  Biso   1.000  N
  H114     1.0000 0.24424  0.75062  0.97493  Biso   1.000  H
  H115     1.0000 0.22675  0.79610  0.94042  Biso   1.000  H
  H116     1.0000 0.24424  0.75058  0.97493  Biso   1.000  H
  H117     1.0000 0.22675  0.79607  0.94042  Biso   1.000  H
  C115     1.0000 0.74775  0.14679  0.90170  Biso   1.000  C
  C116     1.0000 0.63615  0.14660  0.94111  Biso   1.000  C
  C117     1.0000 0.63615  0.14663  0.94111  Biso   1.000  C
  N78      1.0000 0.63333  0.11710  0.97800  Biso   1.000  N
  H118     1.0000 0.51172  0.08620  0.96312  Biso   1.000  H
  N79      1.0000 0.63333  0.11706  0.97800  Biso   1.000  N
  H119     1.0000 0.56331  0.06931  0.00862  Biso   1.000  H
  H120     1.0000 0.56325  0.06931  0.00862  Biso   1.000  H
  N80      1.0000 0.23430  0.81312  0.06872  Biso   1.000  N
  H121     1.0000 0.20168  0.73740  0.07220  Biso   1.000  H
  H122     1.0000 0.15488  0.77491  0.10062  Biso   1.000  H
  N81      1.0000 0.23430  0.81308  0.06872  Biso   1.000  N
  H123     1.0000 0.15488  0.77487  0.10062  Biso   1.000  H
  C118     1.0000 0.31254  0.86310  0.98733  Biso   1.000  C
  C119     1.0000 0.31252  0.86310  0.98730  Biso   1.000  C
  C120     1.0000 0.31254  0.86307  0.98733  Biso   1.000  C
  C121     1.0000 0.31252  0.86307  0.98730  Biso   1.000  C
  C122     1.0000 0.29921  0.80850  0.04272  Biso   1.000  C
  C123     1.0000 0.29915  0.80850  0.04272  Biso   1.000  C
  O43      1.0000 0.78623  0.13909  0.87357  Biso   1.000  O
  N82      1.0000 0.76572  0.18688  0.93131  Biso   1.000  N
  O44      1.0000 0.78621  0.13909  0.87354  Biso   1.000  O
  O45      1.0000 0.78623  0.13912  0.87357  Biso   1.000  O
  O46      1.0000 0.78621  0.13912  0.87354  Biso   1.000  O
  C124     1.0000 0.70082  0.19150  0.95731  Biso   1.000  C
  H124     1.0000 0.57683  0.16040  0.92811  Biso   1.000  H
  C125     1.0000 0.68749  0.13690  0.01270  Biso   1.000  C
  C126     1.0000 0.25228  0.85321  0.09833  Biso   1.000  C
  C127     1.0000 0.25228  0.85317  0.09833  Biso   1.000  C
  O47      1.0000 0.30704  0.88020  0.95172  Biso   1.000  O
  N83      1.0000 0.36669  0.88290  0.02203  Biso   1.000  N
  H125     1.0000 0.32871  0.77361  0.04592  Biso   1.000  H
  C128     1.0000 0.36388  0.85340  0.05892  Biso   1.000  C
  H126     1.0000 0.32865  0.77361  0.04592  Biso   1.000  H
  H127     1.0000 0.32871  0.77358  0.04592  Biso   1.000  H
  C129     1.0000 0.36388  0.85337  0.05892  Biso   1.000  C
  H128     1.0000 0.32865  0.77358  0.04592  Biso   1.000  H
  C130     1.0000 0.82782  0.22838  0.92711  Biso   1.000  C
  H129     1.0000 0.67131  0.22639  0.95411  Biso   1.000  H
  H130     1.0000 0.67131  0.22642  0.95411  Biso   1.000  H
  N84      1.0000 0.73138  0.17781  0.00130  Biso   1.000  N
  O48      1.0000 0.69298  0.11980  0.04831  Biso   1.000  O
  O49      1.0000 0.21380  0.86091  0.12646  Biso   1.000  O
  N85      1.0000 0.32325  0.87969  0.08941  Biso   1.000  N
  O50      1.0000 0.21380  0.86088  0.12646  Biso   1.000  O
  C131     1.0000 0.43049  0.92529  0.02093  Biso   1.000  C
  H131     1.0000 0.42320  0.83960  0.07192  Biso   1.000  H
  N86      1.0000 0.90635  0.22748  0.95973  Biso   1.000  N
  H132     1.0000 0.79835  0.26260  0.92783  Biso   1.000  H
  H133     1.0000 0.84515  0.22509  0.89941  Biso   1.000  H
  N87      1.0000 0.90633  0.22748  0.95970  Biso   1.000  N
  H134     1.0000 0.79834  0.26260  0.92780  Biso   1.000  H
  N88      1.0000 0.90635  0.22752  0.95973  Biso   1.000  N
  H135     1.0000 0.84515  0.22513  0.89941  Biso   1.000  H
  N89      1.0000 0.90633  0.22752  0.95970  Biso   1.000  N
  C132     1.0000 0.78041  0.21379  0.03091  Biso   1.000  C
  C133     1.0000 0.78034  0.21379  0.03091  Biso   1.000  C
  C134     1.0000 0.78041  0.21383  0.03091  Biso   1.000  C
  C135     1.0000 0.78034  0.21383  0.03091  Biso   1.000  C
  C136     1.0000 0.37278  0.91391  0.12090  Biso   1.000  C
  C137     1.0000 0.37278  0.91387  0.12090  Biso   1.000  C
  H136     1.0000 0.43671  0.93069  0.99141  Biso   1.000  H
  N90      1.0000 0.40929  0.97411  0.03751  Biso   1.000  N
  H137     1.0000 0.48830  0.91380  0.03691  Biso   1.000  H
  N91      1.0000 0.40929  0.97407  0.03751  Biso   1.000  N
  C138     1.0000 0.98567  0.21829  0.95122  Biso   1.000  C
  C139     1.0000 0.98567  0.21833  0.95122  Biso   1.000  C
  C140     1.0000 0.90781  0.24958  0.00152  Biso   1.000  C
  N92      1.0000 0.87445  0.21489  0.02941  Biso   1.000  N
  H138     1.0000 0.75579  0.24938  0.02510  Biso   1.000  H
  H139     1.0000 0.77328  0.20390  0.05961  Biso   1.000  H
  N93      1.0000 0.87445  0.21493  0.02941  Biso   1.000  N
  H140     1.0000 0.75579  0.24942  0.02510  Biso   1.000  H
  H141     1.0000 0.77328  0.20393  0.05961  Biso   1.000  H
  N94      1.0000 0.37387  0.96808  0.10772  Biso   1.000  N
  H142     1.0000 0.43401  0.90101  0.12822  Biso   1.000  H
  H143     1.0000 0.34731  0.91219  0.14662  Biso   1.000  H
  H144     1.0000 0.43395  0.90101  0.12822  Biso   1.000  H
  H145     1.0000 0.34725  0.91219  0.14662  Biso   1.000  H
  H146     1.0000 0.43401  0.90097  0.12822  Biso   1.000  H
  H147     1.0000 0.43395  0.90097  0.12822  Biso   1.000  H
  C141     1.0000 0.43360  0.98741  0.08213  Biso   1.000  C
  C142     1.0000 0.43360  0.98737  0.08213  Biso   1.000  C
  C143     1.0000 0.38989  0.01682  0.01301  Biso   1.000  C
  O51      1.0000 0.00302  0.20288  0.91844  Biso   1.000  O
  N95      1.0000 0.04737  0.22881  0.98771  Biso   1.000  N
  N96      1.0000 0.04730  0.22881  0.98771  Biso   1.000  N
  O52      1.0000 0.00302  0.20292  0.91844  Biso   1.000  O
  H148     1.0000 0.87928  0.28478  0.00011  Biso   1.000  H
  H149     1.0000 0.87928  0.28482  0.00011  Biso   1.000  H
  C144     1.0000 0.00768  0.25251  0.02021  Biso   1.000  C
  C145     1.0000 0.00768  0.25247  0.02021  Biso   1.000  C
  C146     1.0000 0.93851  0.20221  0.06423  Biso   1.000  C
  C147     1.0000 0.93845  0.20221  0.06423  Biso   1.000  C
  C148     1.0000 0.33298  0.00720  0.12483  Biso   1.000  C
  C149     1.0000 0.33298  0.00724  0.12483  Biso   1.000  C
  H150     1.0000 0.49587  0.97802  0.09412  Biso   1.000  H
  H151     1.0000 0.49587  0.97798  0.09412  Biso   1.000  H
  C150     1.0000 0.41817  0.04670  0.08222  Biso   1.000  C
  O53      1.0000 0.37627  0.01760  0.97480  Biso   1.000  O
  O54      1.0000 0.37620  0.01760  0.97480  Biso   1.000  O
  N97      1.0000 0.38828  0.05941  0.03892  Biso   1.000  N
  C151     1.0000 0.13967  0.23491  0.98651  Biso   1.000  C
  C152     1.0000 0.13967  0.23487  0.98651  Biso   1.000  C
  N98      1.0000 0.01646  0.22240  0.05823  Biso   1.000  N
  H152     1.0000 0.02768  0.28940  0.02592  Biso   1.000  H
  N99      1.0000 0.01644  0.22240  0.05820  Biso   1.000  N
  O55      1.0000 0.92650  0.17832  0.09472  Biso   1.000  O
  O56      1.0000 0.28618  0.00149  0.15036  Biso   1.000  O
  N100     1.0000 0.35460  0.05288  0.10882  Biso   1.000  N
  O57      1.0000 0.28618  0.00153  0.15036  Biso   1.000  O
  N101     1.0000 0.35460  0.05292  0.10882  Biso   1.000  N
  H153     1.0000 0.47376  0.06571  0.09393  Biso   1.000  H
  H154     1.0000 0.47375  0.06571  0.09390  Biso   1.000  H
  C153     1.0000 0.38105  0.11311  0.02281  Biso   1.000  C
  H155     1.0000 0.14916  0.23339  0.95791  Biso   1.000  H
  H156     1.0000 0.15604  0.27078  0.99603  Biso   1.000  H
  H157     1.0000 0.14916  0.23343  0.95791  Biso   1.000  H
  H158     1.0000 0.15604  0.27082  0.99603  Biso   1.000  H
  N102     1.0000 0.19506  0.19811  0.01270  Biso   1.000  N
  C154     1.0000 0.09297  0.22349  0.09082  Biso   1.000  C
  C155     1.0000 0.34047  0.10361  0.12841  Biso   1.000  C
  H159     1.0000 0.38103  0.11221  0.99232  Biso   1.000  H
  H160     1.0000 0.38103  0.11218  0.99232  Biso   1.000  H
  N103     1.0000 0.30518  0.14061  0.02931  Biso   1.000  N
  H161     1.0000 0.43366  0.13291  0.03641  Biso   1.000  H
  H162     1.0000 0.43366  0.13287  0.03641  Biso   1.000  H
  C156     1.0000 0.24623  0.16291  0.99681  Biso   1.000  C
  C157     1.0000 0.22529  0.20749  0.05732  Biso   1.000  C
  C158     1.0000 0.22529  0.20753  0.05732  Biso   1.000  C
  N104     1.0000 0.16386  0.19009  0.08332  Biso   1.000  N
  H163     1.0000 0.11500  0.25908  0.09403  Biso   1.000  H
  H164     1.0000 0.07648  0.21391  0.11692  Biso   1.000  H
  H165     1.0000 0.11500  0.25912  0.09403  Biso   1.000  H
  N105     1.0000 0.27799  0.13639  0.10140  Biso   1.000  N
  H166     1.0000 0.31928  0.09712  0.15482  Biso   1.000  H
  H167     1.0000 0.39718  0.12238  0.13550  Biso   1.000  H
  N106     1.0000 0.27799  0.13643  0.10140  Biso   1.000  N
  H168     1.0000 0.39718  0.12242  0.13550  Biso   1.000  H
  C159     1.0000 0.30379  0.16928  0.06881  Biso   1.000  C
  O58      1.0000 0.24021  0.15121  0.95989  Biso   1.000  O
  H169     1.0000 0.24347  0.24469  0.06313  Biso   1.000  H
  H170     1.0000 0.24347  0.24473  0.06313  Biso   1.000  H
  C160     1.0000 0.20166  0.15281  0.11142  Biso   1.000  C
  H171     1.0000 0.36019  0.18809  0.07933  Biso   1.000  H
  H172     1.0000 0.36018  0.18809  0.07930  Biso   1.000  H
  H173     1.0000 0.36019  0.18813  0.07933  Biso   1.000  H
  H174     1.0000 0.36018  0.18813  0.07930  Biso   1.000  H
  O59      1.0000 0.17047  0.13760  0.14135  Biso   1.000  O
  O60      1.0000 0.17047  0.13756  0.14135  Biso   1.000  O
  O61      1.0000 0.82956  0.86240  0.85869  Biso   1.000  O
  C161     1.0000 0.79837  0.84719  0.88861  Biso   1.000  C
  C162     1.0000 0.79830  0.84719  0.88861  Biso   1.000  C
  N107     1.0000 0.72204  0.86361  0.89863  Biso   1.000  N
  N108     1.0000 0.83616  0.80991  0.91671  Biso   1.000  N
  N109     1.0000 0.72204  0.86357  0.89863  Biso   1.000  N
  N110     1.0000 0.83616  0.80987  0.91671  Biso   1.000  N
  C163     1.0000 0.65955  0.89639  0.87162  Biso   1.000  C
  C164     1.0000 0.69623  0.83072  0.93122  Biso   1.000  C
  C165     1.0000 0.69623  0.83068  0.93122  Biso   1.000  C
  C166     1.0000 0.90706  0.77651  0.90921  Biso   1.000  C
  C167     1.0000 0.77473  0.79251  0.94271  Biso   1.000  C
  C168     1.0000 0.90706  0.77647  0.90921  Biso   1.000  C
  C169     1.0000 0.77473  0.79247  0.94271  Biso   1.000  C
  H175     1.0000 0.68074  0.90288  0.84522  Biso   1.000  H
  N111     1.0000 0.64543  0.94712  0.89122  Biso   1.000  N
  H176     1.0000 0.60285  0.87762  0.86453  Biso   1.000  H
  N112     1.0000 0.64543  0.94708  0.89122  Biso   1.000  N
  H177     1.0000 0.60285  0.87758  0.86453  Biso   1.000  H
  N113     1.0000 0.69484  0.85939  0.97072  Biso   1.000  N
  H178     1.0000 0.63983  0.81191  0.92070  Biso   1.000  H
  H179     1.0000 0.63983  0.81187  0.92070  Biso   1.000  H
  H180     1.0000 0.92354  0.78609  0.88311  Biso   1.000  H
  N114     1.0000 0.98357  0.77760  0.94180  Biso   1.000  N
  H181     1.0000 0.88503  0.74092  0.90600  Biso   1.000  H
  N115     1.0000 0.98350  0.77760  0.94180  Biso   1.000  N
  H182     1.0000 0.88503  0.74088  0.90600  Biso   1.000  H
  N116     1.0000 0.80497  0.80189  0.98733  Biso   1.000  N
  H183     1.0000 0.75656  0.75531  0.93690  Biso   1.000  H
  N117     1.0000 0.80495  0.80189  0.98730  Biso   1.000  N
  H184     1.0000 0.75656  0.75527  0.93690  Biso   1.000  H
  C170     1.0000 0.58185  0.95330  0.91781  Biso   1.000  C
  C171     1.0000 0.66704  0.99280  0.87520  Biso   1.000  C
  C172     1.0000 0.66704  0.99276  0.87520  Biso   1.000  C
  C173     1.0000 0.61897  0.88689  0.97722  Biso   1.000  C
  C174     1.0000 0.61891  0.88689  0.97722  Biso   1.000  C
  C175     1.0000 0.75379  0.83709  0.00322  Biso   1.000  C
  C176     1.0000 0.99235  0.74749  0.97983  Biso   1.000  C
  C177     1.0000 0.06151  0.79779  0.93580  Biso   1.000  C
  C178     1.0000 0.86036  0.76509  0.01352  Biso   1.000  C
  N118     1.0000 0.61175  0.94059  0.96111  Biso   1.000  N
  H185     1.0000 0.52626  0.93429  0.90610  Biso   1.000  H
  H186     1.0000 0.52620  0.93429  0.90610  Biso   1.000  H
  C179     1.0000 0.56643  0.01259  0.91791  Biso   1.000  C
  C180     1.0000 0.56643  0.01263  0.91791  Biso   1.000  C
  O62      1.0000 0.71384  0.99851  0.84967  Biso   1.000  O
  O63      1.0000 0.71384  0.99847  0.84967  Biso   1.000  O
  N119     1.0000 0.62615  0.03192  0.89231  Biso   1.000  N
  H187     1.0000 0.56637  0.86709  0.96362  Biso   1.000  H
  H188     1.0000 0.61900  0.88779  0.00771  Biso   1.000  H
  O64      1.0000 0.75981  0.84879  0.04014  Biso   1.000  O
  O65      1.0000 0.75975  0.84879  0.04014  Biso   1.000  O
  H189     1.0000 0.97234  0.71060  0.97411  Biso   1.000  H
  N120     1.0000 0.95266  0.77119  0.01232  Biso   1.000  N
  C181     1.0000 0.09222  0.75042  0.99851  Biso   1.000  C
  C182     1.0000 0.09222  0.75038  0.99851  Biso   1.000  C
  O66      1.0000 0.07353  0.82168  0.90531  Biso   1.000  O
  N121     1.0000 0.12558  0.78511  0.97063  Biso   1.000  N
  N122     1.0000 0.12551  0.78511  0.97063  Biso   1.000  N
  N123     1.0000 0.12558  0.78507  0.97063  Biso   1.000  N
  N124     1.0000 0.12551  0.78507  0.97063  Biso   1.000  N
  H190     1.0000 0.85087  0.76661  0.04212  Biso   1.000  H
  H191     1.0000 0.84398  0.72922  0.00400  Biso   1.000  H
  H192     1.0000 0.85087  0.76657  0.04212  Biso   1.000  H
  H193     1.0000 0.84398  0.72918  0.00400  Biso   1.000  H
  C183     1.0000 0.61014  0.98318  0.98702  Biso   1.000  C
  N125     1.0000 0.59073  0.02589  0.96252  Biso   1.000  N
  H194     1.0000 0.50415  0.02198  0.90591  Biso   1.000  H
  H195     1.0000 0.50415  0.02202  0.90591  Biso   1.000  H
  C184     1.0000 0.62725  0.08609  0.87913  Biso   1.000  C
  C185     1.0000 0.62724  0.08609  0.87910  Biso   1.000  C
  C186     1.0000 0.62725  0.08613  0.87913  Biso   1.000  C
  C187     1.0000 0.62724  0.08613  0.87910  Biso   1.000  C
  C188     1.0000 0.01436  0.78171  0.04881  Biso   1.000  C
  C189     1.0000 0.01436  0.78167  0.04881  Biso   1.000  C
  H196     1.0000 0.12075  0.71522  0.99992  Biso   1.000  H
  H197     1.0000 0.12075  0.71518  0.99992  Biso   1.000  H
  N126     1.0000 0.09368  0.77252  0.04030  Biso   1.000  N
  N127     1.0000 0.09368  0.77248  0.04030  Biso   1.000  N
  C190     1.0000 0.21962  0.78621  0.96912  Biso   1.000  C
  C191     1.0000 0.21962  0.78617  0.96912  Biso   1.000  C
  O67      1.0000 0.62376  0.98240  0.02523  Biso   1.000  O
  O68      1.0000 0.62375  0.98240  0.02520  Biso   1.000  O
  C192     1.0000 0.56954  0.07471  0.97910  Biso   1.000  C
  N128     1.0000 0.67678  0.12031  0.91062  Biso   1.000  N
  H198     1.0000 0.56601  0.09899  0.87181  Biso   1.000  H
  H199     1.0000 0.65271  0.08781  0.85341  Biso   1.000  H
  N129     1.0000 0.67671  0.12031  0.91062  Biso   1.000  N
  H200     1.0000 0.56601  0.09903  0.87181  Biso   1.000  H
  O69      1.0000 0.99701  0.79712  0.08159  Biso   1.000  O
  O70      1.0000 0.99700  0.79712  0.08156  Biso   1.000  O
  O71      1.0000 0.99701  0.79708  0.08159  Biso   1.000  O
  O72      1.0000 0.99700  0.79708  0.08156  Biso   1.000  O
  C193     1.0000 0.17220  0.77162  0.07293  Biso   1.000  C
  C194     1.0000 0.17220  0.77158  0.07293  Biso   1.000  C
  N130     1.0000 0.26865  0.82219  0.99873  Biso   1.000  N
  H201     1.0000 0.24424  0.75062  0.97493  Biso   1.000  H
  H202     1.0000 0.22675  0.79610  0.94042  Biso   1.000  H
  H203     1.0000 0.24424  0.75058  0.97493  Biso   1.000  H
  H204     1.0000 0.22675  0.79607  0.94042  Biso   1.000  H
  N131     1.0000 0.63333  0.11710  0.97800  Biso   1.000  N
  H205     1.0000 0.51172  0.08620  0.96312  Biso   1.000  H
  N132     1.0000 0.63333  0.11706  0.97800  Biso   1.000  N
  H206     1.0000 0.56331  0.06931  0.00862  Biso   1.000  H
  H207     1.0000 0.56325  0.06931  0.00862  Biso   1.000  H
  C195     1.0000 0.74775  0.14679  0.90170  Biso   1.000  C
  C196     1.0000 0.63615  0.14660  0.94111  Biso   1.000  C
  C197     1.0000 0.63615  0.14663  0.94111  Biso   1.000  C
  N133     1.0000 0.23430  0.81312  0.06872  Biso   1.000  N
  H208     1.0000 0.20168  0.73740  0.07220  Biso   1.000  H
  H209     1.0000 0.15488  0.77491  0.10062  Biso   1.000  H
  N134     1.0000 0.23430  0.81308  0.06872  Biso   1.000  N
  H210     1.0000 0.15488  0.77487  0.10062  Biso   1.000  H
  C198     1.0000 0.31254  0.86310  0.98733  Biso   1.000  C
  C199     1.0000 0.31252  0.86310  0.98730  Biso   1.000  C
  C200     1.0000 0.31254  0.86307  0.98733  Biso   1.000  C
  C201     1.0000 0.31252  0.86307  0.98730  Biso   1.000  C
  C202     1.0000 0.29921  0.80850  0.04272  Biso   1.000  C
  C203     1.0000 0.29915  0.80850  0.04272  Biso   1.000  C
  C204     1.0000 0.68749  0.13690  0.01270  Biso   1.000  C
  O73      1.0000 0.78623  0.13909  0.87357  Biso   1.000  O
  N135     1.0000 0.76572  0.18688  0.93131  Biso   1.000  N
  O74      1.0000 0.78621  0.13909  0.87354  Biso   1.000  O
  O75      1.0000 0.78623  0.13912  0.87357  Biso   1.000  O
  O76      1.0000 0.78621  0.13912  0.87354  Biso   1.000  O
  C205     1.0000 0.70082  0.19150  0.95731  Biso   1.000  C
  H211     1.0000 0.57683  0.16040  0.92811  Biso   1.000  H
  C206     1.0000 0.25228  0.85321  0.09833  Biso   1.000  C
  C207     1.0000 0.25228  0.85317  0.09833  Biso   1.000  C
  O77      1.0000 0.30704  0.88020  0.95172  Biso   1.000  O
  N136     1.0000 0.36669  0.88290  0.02203  Biso   1.000  N
  H212     1.0000 0.32871  0.77361  0.04592  Biso   1.000  H
  C208     1.0000 0.36388  0.85340  0.05892  Biso   1.000  C
  H213     1.0000 0.32865  0.77361  0.04592  Biso   1.000  H
  H214     1.0000 0.32871  0.77358  0.04592  Biso   1.000  H
  C209     1.0000 0.36388  0.85337  0.05892  Biso   1.000  C
  H215     1.0000 0.32865  0.77358  0.04592  Biso   1.000  H
  O78      1.0000 0.69298  0.11980  0.04831  Biso   1.000  O
  N137     1.0000 0.73138  0.17781  0.00130  Biso   1.000  N
  C210     1.0000 0.82782  0.22838  0.92711  Biso   1.000  C
  H216     1.0000 0.67131  0.22639  0.95411  Biso   1.000  H
  H217     1.0000 0.67131  0.22642  0.95411  Biso   1.000  H
  O79      1.0000 0.21380  0.86091  0.12646  Biso   1.000  O
  N138     1.0000 0.32325  0.87969  0.08941  Biso   1.000  N
  O80      1.0000 0.21380  0.86088  0.12646  Biso   1.000  O
  C211     1.0000 0.43049  0.92529  0.02093  Biso   1.000  C
  H218     1.0000 0.42320  0.83960  0.07192  Biso   1.000  H
  C212     1.0000 0.78041  0.21379  0.03091  Biso   1.000  C
  C213     1.0000 0.78034  0.21379  0.03091  Biso   1.000  C
  C214     1.0000 0.78041  0.21383  0.03091  Biso   1.000  C
  C215     1.0000 0.78034  0.21383  0.03091  Biso   1.000  C
  N139     1.0000 0.90635  0.22748  0.95973  Biso   1.000  N
  H219     1.0000 0.79835  0.26260  0.92783  Biso   1.000  H
  H220     1.0000 0.84515  0.22509  0.89941  Biso   1.000  H
  N140     1.0000 0.90633  0.22748  0.95970  Biso   1.000  N
  H221     1.0000 0.79834  0.26260  0.92780  Biso   1.000  H
  N141     1.0000 0.90635  0.22752  0.95973  Biso   1.000  N
  H222     1.0000 0.84515  0.22513  0.89941  Biso   1.000  H
  N142     1.0000 0.90633  0.22752  0.95970  Biso   1.000  N
  C216     1.0000 0.37278  0.91391  0.12090  Biso   1.000  C
  C217     1.0000 0.37278  0.91387  0.12090  Biso   1.000  C
  H223     1.0000 0.43671  0.93069  0.99141  Biso   1.000  H
  N143     1.0000 0.40929  0.97411  0.03751  Biso   1.000  N
  H224     1.0000 0.48830  0.91380  0.03691  Biso   1.000  H
  N144     1.0000 0.40929  0.97407  0.03751  Biso   1.000  N
  N145     1.0000 0.87445  0.21489  0.02941  Biso   1.000  N
  H225     1.0000 0.75579  0.24938  0.02510  Biso   1.000  H
  H226     1.0000 0.77328  0.20390  0.05961  Biso   1.000  H
  N146     1.0000 0.87445  0.21493  0.02941  Biso   1.000  N
  H227     1.0000 0.75579  0.24942  0.02510  Biso   1.000  H
  H228     1.0000 0.77328  0.20393  0.05961  Biso   1.000  H
  C218     1.0000 0.98567  0.21829  0.95122  Biso   1.000  C
  C219     1.0000 0.98567  0.21833  0.95122  Biso   1.000  C
  C220     1.0000 0.90781  0.24958  0.00152  Biso   1.000  C
  N147     1.0000 0.37387  0.96808  0.10772  Biso   1.000  N
  H229     1.0000 0.43401  0.90101  0.12822  Biso   1.000  H
  H230     1.0000 0.34731  0.91219  0.14662  Biso   1.000  H
  H231     1.0000 0.43395  0.90101  0.12822  Biso   1.000  H
  H232     1.0000 0.34725  0.91219  0.14662  Biso   1.000  H
  H233     1.0000 0.43401  0.90097  0.12822  Biso   1.000  H
  H234     1.0000 0.43395  0.90097  0.12822  Biso   1.000  H
  C221     1.0000 0.43360  0.98741  0.08213  Biso   1.000  C
  C222     1.0000 0.43360  0.98737  0.08213  Biso   1.000  C
  C223     1.0000 0.38989  0.01682  0.01301  Biso   1.000  C
  C224     1.0000 0.93851  0.20221  0.06423  Biso   1.000  C
  C225     1.0000 0.93845  0.20221  0.06423  Biso   1.000  C
  O81      1.0000 0.00302  0.20288  0.91844  Biso   1.000  O
  N148     1.0000 0.04737  0.22881  0.98771  Biso   1.000  N
  N149     1.0000 0.04730  0.22881  0.98771  Biso   1.000  N
  O82      1.0000 0.00302  0.20292  0.91844  Biso   1.000  O
  H235     1.0000 0.87928  0.28478  0.00011  Biso   1.000  H
  H236     1.0000 0.87928  0.28482  0.00011  Biso   1.000  H
  C226     1.0000 0.00768  0.25251  0.02021  Biso   1.000  C
  C227     1.0000 0.00768  0.25247  0.02021  Biso   1.000  C
  C228     1.0000 0.33298  0.00720  0.12483  Biso   1.000  C
  C229     1.0000 0.33298  0.00724  0.12483  Biso   1.000  C
  H237     1.0000 0.49587  0.97802  0.09412  Biso   1.000  H
  H238     1.0000 0.49587  0.97798  0.09412  Biso   1.000  H
  C230     1.0000 0.41817  0.04670  0.08222  Biso   1.000  C
  O83      1.0000 0.37627  0.01760  0.97480  Biso   1.000  O
  O84      1.0000 0.37620  0.01760  0.97480  Biso   1.000  O
  N150     1.0000 0.38828  0.05941  0.03892  Biso   1.000  N
  O85      1.0000 0.92650  0.17832  0.09472  Biso   1.000  O
  N151     1.0000 0.01646  0.22240  0.05823  Biso   1.000  N
  N152     1.0000 0.01644  0.22240  0.05820  Biso   1.000  N
  C231     1.0000 0.13967  0.23491  0.98651  Biso   1.000  C
  C232     1.0000 0.13967  0.23487  0.98651  Biso   1.000  C
  H239     1.0000 0.02768  0.28940  0.02592  Biso   1.000  H
  O86      1.0000 0.28618  0.00149  0.15036  Biso   1.000  O
  N153     1.0000 0.35460  0.05288  0.10882  Biso   1.000  N
  O87      1.0000 0.28618  0.00153  0.15036  Biso   1.000  O
  N154     1.0000 0.35460  0.05292  0.10882  Biso   1.000  N
  H240     1.0000 0.47376  0.06571  0.09393  Biso   1.000  H
  H241     1.0000 0.47375  0.06571  0.09390  Biso   1.000  H
  C233     1.0000 0.38105  0.11311  0.02281  Biso   1.000  C
  C234     1.0000 0.09297  0.22349  0.09082  Biso   1.000  C
  H242     1.0000 0.14916  0.23339  0.95791  Biso   1.000  H
  H243     1.0000 0.15604  0.27078  0.99603  Biso   1.000  H
  H244     1.0000 0.14916  0.23343  0.95791  Biso   1.000  H
  H245     1.0000 0.15604  0.27082  0.99603  Biso   1.000  H
  N155     1.0000 0.19506  0.19811  0.01270  Biso   1.000  N
  C235     1.0000 0.34047  0.10361  0.12841  Biso   1.000  C
  H246     1.0000 0.38103  0.11221  0.99232  Biso   1.000  H
  H247     1.0000 0.38103  0.11218  0.99232  Biso   1.000  H
  N156     1.0000 0.30518  0.14061  0.02931  Biso   1.000  N
  H248     1.0000 0.43366  0.13291  0.03641  Biso   1.000  H
  H249     1.0000 0.43366  0.13287  0.03641  Biso   1.000  H
  N157     1.0000 0.16386  0.19009  0.08332  Biso   1.000  N
  H250     1.0000 0.11500  0.25908  0.09403  Biso   1.000  H
  H251     1.0000 0.07648  0.21391  0.11692  Biso   1.000  H
  H252     1.0000 0.11500  0.25912  0.09403  Biso   1.000  H
  C236     1.0000 0.24623  0.16291  0.99681  Biso   1.000  C
  C237     1.0000 0.22529  0.20749  0.05732  Biso   1.000  C
  C238     1.0000 0.22529  0.20753  0.05732  Biso   1.000  C
  N158     1.0000 0.27799  0.13639  0.10140  Biso   1.000  N
  H253     1.0000 0.31928  0.09712  0.15482  Biso   1.000  H
  H254     1.0000 0.39718  0.12238  0.13550  Biso   1.000  H
  N159     1.0000 0.27799  0.13643  0.10140  Biso   1.000  N
  H255     1.0000 0.39718  0.12242  0.13550  Biso   1.000  H
  C239     1.0000 0.30379  0.16928  0.06881  Biso   1.000  C
  C240     1.0000 0.20166  0.15281  0.11142  Biso   1.000  C
  O88      1.0000 0.24021  0.15121  0.95989  Biso   1.000  O
  H256     1.0000 0.24347  0.24469  0.06313  Biso   1.000  H
  H257     1.0000 0.24347  0.24473  0.06313  Biso   1.000  H
  H258     1.0000 0.36019  0.18809  0.07933  Biso   1.000  H
  H259     1.0000 0.36018  0.18809  0.07930  Biso   1.000  H
  H260     1.0000 0.36019  0.18813  0.07933  Biso   1.000  H
  H261     1.0000 0.36018  0.18813  0.07930  Biso   1.000  H
  O89      1.0000 0.17047  0.13760  0.14135  Biso   1.000  O
  O90      1.0000 0.17047  0.13756  0.14135  Biso   1.000  O
  O91      1.0000 0.82956  0.86240  0.85869  Biso   1.000  O
  C241     1.0000 0.79837  0.84719  0.88861  Biso   1.000  C
  C242     1.0000 0.79830  0.84719  0.88861  Biso   1.000  C
  N160     1.0000 0.72204  0.86361  0.89863  Biso   1.000  N
  N161     1.0000 0.83616  0.80991  0.91671  Biso   1.000  N
  N162     1.0000 0.72204  0.86357  0.89863  Biso   1.000  N
  N163     1.0000 0.83616  0.80987  0.91671  Biso   1.000  N
  C243     1.0000 0.65955  0.89639  0.87162  Biso   1.000  C
  C244     1.0000 0.69623  0.83072  0.93122  Biso   1.000  C
  C245     1.0000 0.69623  0.83068  0.93122  Biso   1.000  C
  C246     1.0000 0.90706  0.77651  0.90921  Biso   1.000  C
  C247     1.0000 0.77473  0.79251  0.94271  Biso   1.000  C
  C248     1.0000 0.90706  0.77647  0.90921  Biso   1.000  C
  C249     1.0000 0.77473  0.79247  0.94271  Biso   1.000  C
  H262     1.0000 0.68074  0.90288  0.84522  Biso   1.000  H
  N164     1.0000 0.64543  0.94712  0.89122  Biso   1.000  N
  H263     1.0000 0.60285  0.87762  0.86453  Biso   1.000  H
  N165     1.0000 0.64543  0.94708  0.89122  Biso   1.000  N
  H264     1.0000 0.60285  0.87758  0.86453  Biso   1.000  H
  N166     1.0000 0.69484  0.85939  0.97072  Biso   1.000  N
  H265     1.0000 0.63983  0.81191  0.92070  Biso   1.000  H
  H266     1.0000 0.63983  0.81187  0.92070  Biso   1.000  H
  H267     1.0000 0.92354  0.78609  0.88311  Biso   1.000  H
  H268     1.0000 0.88503  0.74092  0.90600  Biso   1.000  H
  N167     1.0000 0.98357  0.77760  0.94180  Biso   1.000  N
  N168     1.0000 0.98350  0.77760  0.94180  Biso   1.000  N
  H269     1.0000 0.88503  0.74088  0.90600  Biso   1.000  H
  H270     1.0000 0.75656  0.75531  0.93690  Biso   1.000  H
  N169     1.0000 0.80497  0.80189  0.98733  Biso   1.000  N
  N170     1.0000 0.80495  0.80189  0.98730  Biso   1.000  N
  H271     1.0000 0.75656  0.75527  0.93690  Biso   1.000  H
  C250     1.0000 0.58185  0.95330  0.91781  Biso   1.000  C
  C251     1.0000 0.66704  0.99280  0.87520  Biso   1.000  C
  C252     1.0000 0.66704  0.99276  0.87520  Biso   1.000  C
  C253     1.0000 0.61897  0.88689  0.97722  Biso   1.000  C
  C254     1.0000 0.61891  0.88689  0.97722  Biso   1.000  C
  C255     1.0000 0.75379  0.83709  0.00322  Biso   1.000  C
  C256     1.0000 0.99235  0.74749  0.97983  Biso   1.000  C
  C257     1.0000 0.06151  0.79779  0.93580  Biso   1.000  C
  C258     1.0000 0.86036  0.76509  0.01352  Biso   1.000  C
  N171     1.0000 0.61175  0.94059  0.96111  Biso   1.000  N
  H272     1.0000 0.52626  0.93429  0.90610  Biso   1.000  H
  H273     1.0000 0.52620  0.93429  0.90610  Biso   1.000  H
  C259     1.0000 0.56643  0.01259  0.91791  Biso   1.000  C
  C260     1.0000 0.56643  0.01263  0.91791  Biso   1.000  C
  O92      1.0000 0.71384  0.99851  0.84967  Biso   1.000  O
  O93      1.0000 0.71384  0.99847  0.84967  Biso   1.000  O
  N172     1.0000 0.62615  0.03192  0.89231  Biso   1.000  N
  H274     1.0000 0.56637  0.86709  0.96362  Biso   1.000  H
  H275     1.0000 0.61900  0.88779  0.00771  Biso   1.000  H
  O94      1.0000 0.75981  0.84879  0.04014  Biso   1.000  O
  O95      1.0000 0.75975  0.84879  0.04014  Biso   1.000  O
  H276     1.0000 0.97234  0.71060  0.97411  Biso   1.000  H
  N173     1.0000 0.95266  0.77119  0.01232  Biso   1.000  N
  C261     1.0000 0.09222  0.75042  0.99851  Biso   1.000  C
  C262     1.0000 0.09222  0.75038  0.99851  Biso   1.000  C
  O96      1.0000 0.07353  0.82168  0.90531  Biso   1.000  O
  N174     1.0000 0.12558  0.78511  0.97063  Biso   1.000  N
  N175     1.0000 0.12551  0.78511  0.97063  Biso   1.000  N
  N176     1.0000 0.12558  0.78507  0.97063  Biso   1.000  N
  N177     1.0000 0.12551  0.78507  0.97063  Biso   1.000  N
  H277     1.0000 0.85087  0.76661  0.04212  Biso   1.000  H
  H278     1.0000 0.84398  0.72922  0.00400  Biso   1.000  H
  H279     1.0000 0.85087  0.76657  0.04212  Biso   1.000  H
  H280     1.0000 0.84398  0.72918  0.00400  Biso   1.000  H
  C263     1.0000 0.61014  0.98318  0.98702  Biso   1.000  C
  N178     1.0000 0.59073  0.02589  0.96252  Biso   1.000  N
  H281     1.0000 0.50415  0.02198  0.90591  Biso   1.000  H
  H282     1.0000 0.50415  0.02202  0.90591  Biso   1.000  H
  C264     1.0000 0.62725  0.08609  0.87913  Biso   1.000  C
  C265     1.0000 0.62724  0.08609  0.87910  Biso   1.000  C
  C266     1.0000 0.62725  0.08613  0.87913  Biso   1.000  C
  C267     1.0000 0.62724  0.08613  0.87910  Biso   1.000  C
  C268     1.0000 0.01436  0.78171  0.04881  Biso   1.000  C
  C269     1.0000 0.01436  0.78167  0.04881  Biso   1.000  C
  H283     1.0000 0.12075  0.71522  0.99992  Biso   1.000  H
  H284     1.0000 0.12075  0.71518  0.99992  Biso   1.000  H
  N179     1.0000 0.09368  0.77252  0.04030  Biso   1.000  N
  N180     1.0000 0.09368  0.77248  0.04030  Biso   1.000  N
  C270     1.0000 0.21962  0.78621  0.96912  Biso   1.000  C
  C271     1.0000 0.21962  0.78617  0.96912  Biso   1.000  C
  O97      1.0000 0.62376  0.98240  0.02523  Biso   1.000  O
  O98      1.0000 0.62375  0.98240  0.02520  Biso   1.000  O
  C272     1.0000 0.56954  0.07471  0.97910  Biso   1.000  C
  N181     1.0000 0.67678  0.12031  0.91062  Biso   1.000  N
  H285     1.0000 0.56601  0.09899  0.87181  Biso   1.000  H
  H286     1.0000 0.65271  0.08781  0.85341  Biso   1.000  H
  N182     1.0000 0.67671  0.12031  0.91062  Biso   1.000  N
  H287     1.0000 0.56601  0.09903  0.87181  Biso   1.000  H
  O99      1.0000 0.99701  0.79712  0.08159  Biso   1.000  O
  O100     1.0000 0.99700  0.79712  0.08156  Biso   1.000  O
  O101     1.0000 0.99701  0.79708  0.08159  Biso   1.000  O
  O102     1.0000 0.99700  0.79708  0.08156  Biso   1.000  O
  C273     1.0000 0.17220  0.77162  0.07293  Biso   1.000  C
  C274     1.0000 0.17220  0.77158  0.07293  Biso   1.000  C
  N183     1.0000 0.26865  0.82219  0.99873  Biso   1.000  N
  H288     1.0000 0.24424  0.75062  0.97493  Biso   1.000  H
  H289     1.0000 0.22675  0.79610  0.94042  Biso   1.000  H
  H290     1.0000 0.24424  0.75058  0.97493  Biso   1.000  H
  H291     1.0000 0.22675  0.79607  0.94042  Biso   1.000  H
  N184     1.0000 0.63333  0.11710  0.97800  Biso   1.000  N
  H292     1.0000 0.51172  0.08620  0.96312  Biso   1.000  H
  N185     1.0000 0.63333  0.11706  0.97800  Biso   1.000  N
  H293     1.0000 0.56331  0.06931  0.00862  Biso   1.000  H
  H294     1.0000 0.56325  0.06931  0.00862  Biso   1.000  H
  C275     1.0000 0.74775  0.14679  0.90170  Biso   1.000  C
  C276     1.0000 0.63615  0.14660  0.94111  Biso   1.000  C
  C277     1.0000 0.63615  0.14663  0.94111  Biso   1.000  C
  N186     1.0000 0.23430  0.81312  0.06872  Biso   1.000  N
  H295     1.0000 0.20168  0.73740  0.07220  Biso   1.000  H
  H296     1.0000 0.15488  0.77491  0.10062  Biso   1.000  H
  N187     1.0000 0.23430  0.81308  0.06872  Biso   1.000  N
  H297     1.0000 0.15488  0.77487  0.10062  Biso   1.000  H
  C278     1.0000 0.31254  0.86310  0.98733  Biso   1.000  C
  C279     1.0000 0.31252  0.86310  0.98730  Biso   1.000  C
  C280     1.0000 0.31254  0.86307  0.98733  Biso   1.000  C
  C281     1.0000 0.31252  0.86307  0.98730  Biso   1.000  C
  C282     1.0000 0.29921  0.80850  0.04272  Biso   1.000  C
  C283     1.0000 0.29915  0.80850  0.04272  Biso   1.000  C
  C284     1.0000 0.68749  0.13690  0.01270  Biso   1.000  C
  O103     1.0000 0.78623  0.13909  0.87357  Biso   1.000  O
  N188     1.0000 0.76572  0.18688  0.93131  Biso   1.000  N
  O104     1.0000 0.78621  0.13909  0.87354  Biso   1.000  O
  O105     1.0000 0.78623  0.13912  0.87357  Biso   1.000  O
  O106     1.0000 0.78621  0.13912  0.87354  Biso   1.000  O
  C285     1.0000 0.70082  0.19150  0.95731  Biso   1.000  C
  H298     1.0000 0.57683  0.16040  0.92811  Biso   1.000  H
  C286     1.0000 0.25228  0.85321  0.09833  Biso   1.000  C
  C287     1.0000 0.25228  0.85317  0.09833  Biso   1.000  C
  O107     1.0000 0.30704  0.88020  0.95172  Biso   1.000  O
  N189     1.0000 0.36669  0.88290  0.02203  Biso   1.000  N
  H299     1.0000 0.32871  0.77361  0.04592  Biso   1.000  H
  C288     1.0000 0.36388  0.85340  0.05892  Biso   1.000  C
  H300     1.0000 0.32865  0.77361  0.04592  Biso   1.000  H
  H301     1.0000 0.32871  0.77358  0.04592  Biso   1.000  H
  C289     1.0000 0.36388  0.85337  0.05892  Biso   1.000  C
  H302     1.0000 0.32865  0.77358  0.04592  Biso   1.000  H
  O108     1.0000 0.69298  0.11980  0.04831  Biso   1.000  O
  N190     1.0000 0.73138  0.17781  0.00130  Biso   1.000  N
  C290     1.0000 0.82782  0.22838  0.92711  Biso   1.000  C
  H303     1.0000 0.67131  0.22639  0.95411  Biso   1.000  H
  H304     1.0000 0.67131  0.22642  0.95411  Biso   1.000  H
  O109     1.0000 0.21380  0.86091  0.12646  Biso   1.000  O
  N191     1.0000 0.32325  0.87969  0.08941  Biso   1.000  N
  O110     1.0000 0.21380  0.86088  0.12646  Biso   1.000  O
  C291     1.0000 0.43049  0.92529  0.02093  Biso   1.000  C
  H305     1.0000 0.42320  0.83960  0.07192  Biso   1.000  H
  C292     1.0000 0.78041  0.21379  0.03091  Biso   1.000  C
  C293     1.0000 0.78034  0.21379  0.03091  Biso   1.000  C
  C294     1.0000 0.78041  0.21383  0.03091  Biso   1.000  C
  C295     1.0000 0.78034  0.21383  0.03091  Biso   1.000  C
  N192     1.0000 0.90635  0.22748  0.95973  Biso   1.000  N
  H306     1.0000 0.79835  0.26260  0.92783  Biso   1.000  H
  H307     1.0000 0.84515  0.22509  0.89941  Biso   1.000  H
  N193     1.0000 0.90633  0.22748  0.95970  Biso   1.000  N
  H308     1.0000 0.79834  0.26260  0.92780  Biso   1.000  H
  N194     1.0000 0.90635  0.22752  0.95973  Biso   1.000  N
  H309     1.0000 0.84515  0.22513  0.89941  Biso   1.000  H
  N195     1.0000 0.90633  0.22752  0.95970  Biso   1.000  N
  C296     1.0000 0.37278  0.91391  0.12090  Biso   1.000  C
  C297     1.0000 0.37278  0.91387  0.12090  Biso   1.000  C
  H310     1.0000 0.43671  0.93069  0.99141  Biso   1.000  H
  N196     1.0000 0.40929  0.97411  0.03751  Biso   1.000  N
  H311     1.0000 0.48830  0.91380  0.03691  Biso   1.000  H
  N197     1.0000 0.40929  0.97407  0.03751  Biso   1.000  N
  N198     1.0000 0.87445  0.21489  0.02941  Biso   1.000  N
  H312     1.0000 0.75579  0.24938  0.02510  Biso   1.000  H
  H313     1.0000 0.77328  0.20390  0.05961  Biso   1.000  H
  N199     1.0000 0.87445  0.21493  0.02941  Biso   1.000  N
  H314     1.0000 0.75579  0.24942  0.02510  Biso   1.000  H
  H315     1.0000 0.77328  0.20393  0.05961  Biso   1.000  H
  C298     1.0000 0.98567  0.21829  0.95122  Biso   1.000  C
  C299     1.0000 0.98567  0.21833  0.95122  Biso   1.000  C
  C300     1.0000 0.90781  0.24958  0.00152  Biso   1.000  C
  N200     1.0000 0.37387  0.96808  0.10772  Biso   1.000  N
  H316     1.0000 0.43401  0.90101  0.12822  Biso   1.000  H
  H317     1.0000 0.34731  0.91219  0.14662  Biso   1.000  H
  H318     1.0000 0.43395  0.90101  0.12822  Biso   1.000  H
  H319     1.0000 0.34725  0.91219  0.14662  Biso   1.000  H
  H320     1.0000 0.43401  0.90097  0.12822  Biso   1.000  H
  H321     1.0000 0.43395  0.90097  0.12822  Biso   1.000  H
  C301     1.0000 0.43360  0.98741  0.08213  Biso   1.000  C
  C302     1.0000 0.43360  0.98737  0.08213  Biso   1.000  C
  C303     1.0000 0.38989  0.01682  0.01301  Biso   1.000  C
  C304     1.0000 0.93851  0.20221  0.06423  Biso   1.000  C
  C305     1.0000 0.93845  0.20221  0.06423  Biso   1.000  C
  O111     1.0000 0.00302  0.20288  0.91844  Biso   1.000  O
  N201     1.0000 0.04737  0.22881  0.98771  Biso   1.000  N
  N202     1.0000 0.04730  0.22881  0.98771  Biso   1.000  N
  O112     1.0000 0.00302  0.20292  0.91844  Biso   1.000  O
  H322     1.0000 0.87928  0.28478  0.00011  Biso   1.000  H
  H323     1.0000 0.87928  0.28482  0.00011  Biso   1.000  H
  C306     1.0000 0.00768  0.25251  0.02021  Biso   1.000  C
  C307     1.0000 0.00768  0.25247  0.02021  Biso   1.000  C
  C308     1.0000 0.33298  0.00720  0.12483  Biso   1.000  C
  C309     1.0000 0.33298  0.00724  0.12483  Biso   1.000  C
  H324     1.0000 0.49587  0.97802  0.09412  Biso   1.000  H
  H325     1.0000 0.49587  0.97798  0.09412  Biso   1.000  H
  C310     1.0000 0.41817  0.04670  0.08222  Biso   1.000  C
  O113     1.0000 0.37627  0.01760  0.97480  Biso   1.000  O
  O114     1.0000 0.37620  0.01760  0.97480  Biso   1.000  O
  N203     1.0000 0.38828  0.05941  0.03892  Biso   1.000  N
  O115     1.0000 0.92650  0.17832  0.09472  Biso   1.000  O
  N204     1.0000 0.01646  0.22240  0.05823  Biso   1.000  N
  N205     1.0000 0.01644  0.22240  0.05820  Biso   1.000  N
  C311     1.0000 0.13967  0.23491  0.98651  Biso   1.000  C
  C312     1.0000 0.13967  0.23487  0.98651  Biso   1.000  C
  H326     1.0000 0.02768  0.28940  0.02592  Biso   1.000  H
  O116     1.0000 0.28618  0.00149  0.15036  Biso   1.000  O
  N206     1.0000 0.35460  0.05288  0.10882  Biso   1.000  N
  O117     1.0000 0.28618  0.00153  0.15036  Biso   1.000  O
  N207     1.0000 0.35460  0.05292  0.10882  Biso   1.000  N
  H327     1.0000 0.47376  0.06571  0.09393  Biso   1.000  H
  H328     1.0000 0.47375  0.06571  0.09390  Biso   1.000  H
  C313     1.0000 0.38105  0.11311  0.02281  Biso   1.000  C
  C314     1.0000 0.09297  0.22349  0.09082  Biso   1.000  C
  H329     1.0000 0.14916  0.23339  0.95791  Biso   1.000  H
  H330     1.0000 0.15604  0.27078  0.99603  Biso   1.000  H
  H331     1.0000 0.14916  0.23343  0.95791  Biso   1.000  H
  H332     1.0000 0.15604  0.27082  0.99603  Biso   1.000  H
  N208     1.0000 0.19506  0.19811  0.01270  Biso   1.000  N
  C315     1.0000 0.34047  0.10361  0.12841  Biso   1.000  C
  H333     1.0000 0.38103  0.11221  0.99232  Biso   1.000  H
  H334     1.0000 0.38103  0.11218  0.99232  Biso   1.000  H
  N209     1.0000 0.30518  0.14061  0.02931  Biso   1.000  N
  H335     1.0000 0.43366  0.13291  0.03641  Biso   1.000  H
  H336     1.0000 0.43366  0.13287  0.03641  Biso   1.000  H
  N210     1.0000 0.16386  0.19009  0.08332  Biso   1.000  N
  H337     1.0000 0.11500  0.25908  0.09403  Biso   1.000  H
  H338     1.0000 0.07648  0.21391  0.11692  Biso   1.000  H
  H339     1.0000 0.11500  0.25912  0.09403  Biso   1.000  H
  C316     1.0000 0.24623  0.16291  0.99681  Biso   1.000  C
  C317     1.0000 0.22529  0.20749  0.05732  Biso   1.000  C
  C318     1.0000 0.22529  0.20753  0.05732  Biso   1.000  C
  N211     1.0000 0.27799  0.13639  0.10140  Biso   1.000  N
  H340     1.0000 0.31928  0.09712  0.15482  Biso   1.000  H
  H341     1.0000 0.39718  0.12238  0.13550  Biso   1.000  H
  N212     1.0000 0.27799  0.13643  0.10140  Biso   1.000  N
  H342     1.0000 0.39718  0.12242  0.13550  Biso   1.000  H
  C319     1.0000 0.30379  0.16928  0.06881  Biso   1.000  C
  C320     1.0000 0.20166  0.15281  0.11142  Biso   1.000  C
  O118     1.0000 0.24021  0.15121  0.95989  Biso   1.000  O
  H343     1.0000 0.24347  0.24469  0.06313  Biso   1.000  H
  H344     1.0000 0.24347  0.24473  0.06313  Biso   1.000  H
  H345     1.0000 0.36019  0.18809  0.07933  Biso   1.000  H
  H346     1.0000 0.36018  0.18809  0.07930  Biso   1.000  H
  H347     1.0000 0.36019  0.18813  0.07933  Biso   1.000  H
  H348     1.0000 0.36018  0.18813  0.07930  Biso   1.000  H
  O119     1.0000 0.17047  0.13760  0.14135  Biso   1.000  O
  O120     1.0000 0.17047  0.13756  0.14135  Biso   1.000  O
  O121     1.0000 0.82956  0.86240  0.85869  Biso   1.000  O
  C321     1.0000 0.79837  0.84719  0.88861  Biso   1.000  C
  C322     1.0000 0.79830  0.84719  0.88861  Biso   1.000  C
  N213     1.0000 0.72204  0.86361  0.89863  Biso   1.000  N
  N214     1.0000 0.83616  0.80991  0.91671  Biso   1.000  N
  N215     1.0000 0.72204  0.86357  0.89863  Biso   1.000  N
  N216     1.0000 0.83616  0.80987  0.91671  Biso   1.000  N
  C323     1.0000 0.65955  0.89639  0.87162  Biso   1.000  C
  C324     1.0000 0.69623  0.83072  0.93122  Biso   1.000  C
  C325     1.0000 0.69623  0.83068  0.93122  Biso   1.000  C
  C326     1.0000 0.90706  0.77651  0.90921  Biso   1.000  C
  C327     1.0000 0.77473  0.79251  0.94271  Biso   1.000  C
  C328     1.0000 0.90706  0.77647  0.90921  Biso   1.000  C
  C329     1.0000 0.77473  0.79247  0.94271  Biso   1.000  C
  H349     1.0000 0.68074  0.90288  0.84522  Biso   1.000  H
  N217     1.0000 0.64543  0.94712  0.89122  Biso   1.000  N
  H350     1.0000 0.60285  0.87762  0.86453  Biso   1.000  H
  N218     1.0000 0.64543  0.94708  0.89122  Biso   1.000  N
  H351     1.0000 0.60285  0.87758  0.86453  Biso   1.000  H
  N219     1.0000 0.69484  0.85939  0.97072  Biso   1.000  N
  H352     1.0000 0.63983  0.81191  0.92070  Biso   1.000  H
  H353     1.0000 0.63983  0.81187  0.92070  Biso   1.000  H
  H354     1.0000 0.92354  0.78609  0.88311  Biso   1.000  H
  N220     1.0000 0.98357  0.77760  0.94180  Biso   1.000  N
  H355     1.0000 0.88503  0.74092  0.90600  Biso   1.000  H
  N221     1.0000 0.98350  0.77760  0.94180  Biso   1.000  N
  H356     1.0000 0.88503  0.74088  0.90600  Biso   1.000  H
  N222     1.0000 0.80497  0.80189  0.98733  Biso   1.000  N
  H357     1.0000 0.75656  0.75531  0.93690  Biso   1.000  H
  N223     1.0000 0.80495  0.80189  0.98730  Biso   1.000  N
  H358     1.0000 0.75656  0.75527  0.93690  Biso   1.000  H
  C330     1.0000 0.58185  0.95330  0.91781  Biso   1.000  C
  C331     1.0000 0.66704  0.99280  0.87520  Biso   1.000  C
  C332     1.0000 0.66704  0.99276  0.87520  Biso   1.000  C
  C333     1.0000 0.61897  0.88689  0.97722  Biso   1.000  C
  C334     1.0000 0.61891  0.88689  0.97722  Biso   1.000  C
  C335     1.0000 0.75379  0.83709  0.00322  Biso   1.000  C
  C336     1.0000 0.99235  0.74749  0.97983  Biso   1.000  C
  C337     1.0000 0.06151  0.79779  0.93580  Biso   1.000  C
  C338     1.0000 0.86036  0.76509  0.01352  Biso   1.000  C
  N224     1.0000 0.61175  0.94059  0.96111  Biso   1.000  N
  H359     1.0000 0.52626  0.93429  0.90610  Biso   1.000  H
  H360     1.0000 0.52620  0.93429  0.90610  Biso   1.000  H
  C339     1.0000 0.56643  0.01259  0.91791  Biso   1.000  C
  C340     1.0000 0.56643  0.01263  0.91791  Biso   1.000  C
  O122     1.0000 0.71384  0.99851  0.84967  Biso   1.000  O
  O123     1.0000 0.71384  0.99847  0.84967  Biso   1.000  O
  N225     1.0000 0.62615  0.03192  0.89231  Biso   1.000  N
  H361     1.0000 0.56637  0.86709  0.96362  Biso   1.000  H
  H362     1.0000 0.61900  0.88779  0.00771  Biso   1.000  H
  O124     1.0000 0.75981  0.84879  0.04014  Biso   1.000  O
  O125     1.0000 0.75975  0.84879  0.04014  Biso   1.000  O
  H363     1.0000 0.97234  0.71060  0.97411  Biso   1.000  H
  N226     1.0000 0.95266  0.77119  0.01232  Biso   1.000  N
  C341     1.0000 0.09222  0.75042  0.99851  Biso   1.000  C
  C342     1.0000 0.09222  0.75038  0.99851  Biso   1.000  C
  O126     1.0000 0.07353  0.82168  0.90531  Biso   1.000  O
  N227     1.0000 0.12558  0.78511  0.97063  Biso   1.000  N
  N228     1.0000 0.12551  0.78511  0.97063  Biso   1.000  N
  N229     1.0000 0.12558  0.78507  0.97063  Biso   1.000  N
  N230     1.0000 0.12551  0.78507  0.97063  Biso   1.000  N
  H364     1.0000 0.85087  0.76661  0.04212  Biso   1.000  H
  H365     1.0000 0.84398  0.72922  0.00400  Biso   1.000  H
  H366     1.0000 0.85087  0.76657  0.04212  Biso   1.000  H
  H367     1.0000 0.84398  0.72918  0.00400  Biso   1.000  H
  C343     1.0000 0.61014  0.98318  0.98702  Biso   1.000  C
  N231     1.0000 0.59073  0.02589  0.96252  Biso   1.000  N
  H368     1.0000 0.50415  0.02198  0.90591  Biso   1.000  H
  H369     1.0000 0.50415  0.02202  0.90591  Biso   1.000  H
  C344     1.0000 0.62725  0.08609  0.87913  Biso   1.000  C
  C345     1.0000 0.62724  0.08609  0.87910  Biso   1.000  C
  C346     1.0000 0.62725  0.08613  0.87913  Biso   1.000  C
  C347     1.0000 0.62724  0.08613  0.87910  Biso   1.000  C
  C348     1.0000 0.01436  0.78171  0.04881  Biso   1.000  C
  C349     1.0000 0.01436  0.78167  0.04881  Biso   1.000  C
  H370     1.0000 0.12075  0.71522  0.99992  Biso   1.000  H
  H371     1.0000 0.12075  0.71518  0.99992  Biso   1.000  H
  N232     1.0000 0.09368  0.77252  0.04030  Biso   1.000  N
  N233     1.0000 0.09368  0.77248  0.04030  Biso   1.000  N
  C350     1.0000 0.21962  0.78621  0.96912  Biso   1.000  C
  C351     1.0000 0.21962  0.78617  0.96912  Biso   1.000  C
  O127     1.0000 0.62376  0.98240  0.02523  Biso   1.000  O
  O128     1.0000 0.62375  0.98240  0.02520  Biso   1.000  O
  C352     1.0000 0.56954  0.07471  0.97910  Biso   1.000  C
  N234     1.0000 0.67678  0.12031  0.91062  Biso   1.000  N
  H372     1.0000 0.56601  0.09899  0.87181  Biso   1.000  H
  H373     1.0000 0.65271  0.08781  0.85341  Biso   1.000  H
  N235     1.0000 0.67671  0.12031  0.91062  Biso   1.000  N
  H374     1.0000 0.56601  0.09903  0.87181  Biso   1.000  H
  O129     1.0000 0.99701  0.79712  0.08159  Biso   1.000  O
  O130     1.0000 0.99700  0.79712  0.08156  Biso   1.000  O
  O131     1.0000 0.99701  0.79708  0.08159  Biso   1.000  O
  O132     1.0000 0.99700  0.79708  0.08156  Biso   1.000  O
  C353     1.0000 0.17220  0.77162  0.07293  Biso   1.000  C
  C354     1.0000 0.17220  0.77158  0.07293  Biso   1.000  C
  N236     1.0000 0.26865  0.82219  0.99873  Biso   1.000  N
  H375     1.0000 0.24424  0.75062  0.97493  Biso   1.000  H
  H376     1.0000 0.22675  0.79610  0.94042  Biso   1.000  H
  H377     1.0000 0.24424  0.75058  0.97493  Biso   1.000  H
  H378     1.0000 0.22675  0.79607  0.94042  Biso   1.000  H
  N237     1.0000 0.63333  0.11710  0.97800  Biso   1.000  N
  H379     1.0000 0.51172  0.08620  0.96312  Biso   1.000  H
  N238     1.0000 0.63333  0.11706  0.97800  Biso   1.000  N
  H380     1.0000 0.56331  0.06931  0.00862  Biso   1.000  H
  H381     1.0000 0.56325  0.06931  0.00862  Biso   1.000  H
  C355     1.0000 0.74775  0.14679  0.90170  Biso   1.000  C
  C356     1.0000 0.63615  0.14660  0.94111  Biso   1.000  C
  C357     1.0000 0.63615  0.14663  0.94111  Biso   1.000  C
  N239     1.0000 0.23430  0.81312  0.06872  Biso   1.000  N
  H382     1.0000 0.20168  0.73740  0.07220  Biso   1.000  H
  H383     1.0000 0.15488  0.77491  0.10062  Biso   1.000  H
  N240     1.0000 0.23430  0.81308  0.06872  Biso   1.000  N
  H384     1.0000 0.15488  0.77487  0.10062  Biso   1.000  H
  C358     1.0000 0.31254  0.86310  0.98733  Biso   1.000  C
  C359     1.0000 0.31252  0.86310  0.98730  Biso   1.000  C
  C360     1.0000 0.31254  0.86307  0.98733  Biso   1.000  C
  C361     1.0000 0.31252  0.86307  0.98730  Biso   1.000  C
  C362     1.0000 0.29921  0.80850  0.04272  Biso   1.000  C
  C363     1.0000 0.29915  0.80850  0.04272  Biso   1.000  C
  C364     1.0000 0.68749  0.13690  0.01270  Biso   1.000  C
  O133     1.0000 0.78623  0.13909  0.87357  Biso   1.000  O
  N241     1.0000 0.76572  0.18688  0.93131  Biso   1.000  N
  O134     1.0000 0.78621  0.13909  0.87354  Biso   1.000  O
  O135     1.0000 0.78623  0.13912  0.87357  Biso   1.000  O
  O136     1.0000 0.78621  0.13912  0.87354  Biso   1.000  O
  C365     1.0000 0.70082  0.19150  0.95731  Biso   1.000  C
  H385     1.0000 0.57683  0.16040  0.92811  Biso   1.000  H
  C366     1.0000 0.25228  0.85321  0.09833  Biso   1.000  C
  C367     1.0000 0.25228  0.85317  0.09833  Biso   1.000  C
  O137     1.0000 0.30704  0.88020  0.95172  Biso   1.000  O
  N242     1.0000 0.36669  0.88290  0.02203  Biso   1.000  N
  H386     1.0000 0.32871  0.77361  0.04592  Biso   1.000  H
  C368     1.0000 0.36388  0.85340  0.05892  Biso   1.000  C
  H387     1.0000 0.32865  0.77361  0.04592  Biso   1.000  H
  H388     1.0000 0.32871  0.77358  0.04592  Biso   1.000  H
  C369     1.0000 0.36388  0.85337  0.05892  Biso   1.000  C
  H389     1.0000 0.32865  0.77358  0.04592  Biso   1.000  H
  O138     1.0000 0.69298  0.11980  0.04831  Biso   1.000  O
  N243     1.0000 0.73138  0.17781  0.00130  Biso   1.000  N
  C370     1.0000 0.82782  0.22838  0.92711  Biso   1.000  C
  H390     1.0000 0.67131  0.22639  0.95411  Biso   1.000  H
  H391     1.0000 0.67131  0.22642  0.95411  Biso   1.000  H
  O139     1.0000 0.21380  0.86091  0.12646  Biso   1.000  O
  N244     1.0000 0.32325  0.87969  0.08941  Biso   1.000  N
  O140     1.0000 0.21380  0.86088  0.12646  Biso   1.000  O
  C371     1.0000 0.43049  0.92529  0.02093  Biso   1.000  C
  H392     1.0000 0.42320  0.83960  0.07192  Biso   1.000  H
  C372     1.0000 0.78041  0.21379  0.03091  Biso   1.000  C
  C373     1.0000 0.78034  0.21379  0.03091  Biso   1.000  C
  C374     1.0000 0.78041  0.21383  0.03091  Biso   1.000  C
  C375     1.0000 0.78034  0.21383  0.03091  Biso   1.000  C
  N245     1.0000 0.90635  0.22748  0.95973  Biso   1.000  N
  H393     1.0000 0.79835  0.26260  0.92783  Biso   1.000  H
  H394     1.0000 0.84515  0.22509  0.89941  Biso   1.000  H
  N246     1.0000 0.90633  0.22748  0.95970  Biso   1.000  N
  H395     1.0000 0.79834  0.26260  0.92780  Biso   1.000  H
  N247     1.0000 0.90635  0.22752  0.95973  Biso   1.000  N
  H396     1.0000 0.84515  0.22513  0.89941  Biso   1.000  H
  N248     1.0000 0.90633  0.22752  0.95970  Biso   1.000  N
  C376     1.0000 0.37278  0.91391  0.12090  Biso   1.000  C
  C377     1.0000 0.37278  0.91387  0.12090  Biso   1.000  C
  H397     1.0000 0.43671  0.93069  0.99141  Biso   1.000  H
  N249     1.0000 0.40929  0.97411  0.03751  Biso   1.000  N
  H398     1.0000 0.48830  0.91380  0.03691  Biso   1.000  H
  N250     1.0000 0.40929  0.97407  0.03751  Biso   1.000  N
  N251     1.0000 0.87445  0.21489  0.02941  Biso   1.000  N
  H399     1.0000 0.75579  0.24938  0.02510  Biso   1.000  H
  H400     1.0000 0.77328  0.20390  0.05961  Biso   1.000  H
  N252     1.0000 0.87445  0.21493  0.02941  Biso   1.000  N
  H401     1.0000 0.75579  0.24942  0.02510  Biso   1.000  H
  H402     1.0000 0.77328  0.20393  0.05961  Biso   1.000  H
  C378     1.0000 0.98567  0.21829  0.95122  Biso   1.000  C
  C379     1.0000 0.98567  0.21833  0.95122  Biso   1.000  C
  C380     1.0000 0.90781  0.24958  0.00152  Biso   1.000  C
  N253     1.0000 0.37387  0.96808  0.10772  Biso   1.000  N
  H403     1.0000 0.43401  0.90101  0.12822  Biso   1.000  H
  H404     1.0000 0.34731  0.91219  0.14662  Biso   1.000  H
  H405     1.0000 0.43395  0.90101  0.12822  Biso   1.000  H
  H406     1.0000 0.34725  0.91219  0.14662  Biso   1.000  H
  H407     1.0000 0.43401  0.90097  0.12822  Biso   1.000  H
  H408     1.0000 0.43395  0.90097  0.12822  Biso   1.000  H
  C381     1.0000 0.43360  0.98741  0.08213  Biso   1.000  C
  C382     1.0000 0.43360  0.98737  0.08213  Biso   1.000  C
  C383     1.0000 0.38989  0.01682  0.01301  Biso   1.000  C
  C384     1.0000 0.93851  0.20221  0.06423  Biso   1.000  C
  C385     1.0000 0.93845  0.20221  0.06423  Biso   1.000  C
  O141     1.0000 0.00302  0.20288  0.91844  Biso   1.000  O
  N254     1.0000 0.04737  0.22881  0.98771  Biso   1.000  N
  N255     1.0000 0.04730  0.22881  0.98771  Biso   1.000  N
  O142     1.0000 0.00302  0.20292  0.91844  Biso   1.000  O
  H409     1.0000 0.87928  0.28478  0.00011  Biso   1.000  H
  H410     1.0000 0.87928  0.28482  0.00011  Biso   1.000  H
  C386     1.0000 0.00768  0.25251  0.02021  Biso   1.000  C
  C387     1.0000 0.00768  0.25247  0.02021  Biso   1.000  C
  C388     1.0000 0.33298  0.00720  0.12483  Biso   1.000  C
  C389     1.0000 0.33298  0.00724  0.12483  Biso   1.000  C
  H411     1.0000 0.49587  0.97802  0.09412  Biso   1.000  H
  H412     1.0000 0.49587  0.97798  0.09412  Biso   1.000  H
  C390     1.0000 0.41817  0.04670  0.08222  Biso   1.000  C
  O143     1.0000 0.37627  0.01760  0.97480  Biso   1.000  O
  O144     1.0000 0.37620  0.01760  0.97480  Biso   1.000  O
  N256     1.0000 0.38828  0.05941  0.03892  Biso   1.000  N
  O145     1.0000 0.92650  0.17832  0.09472  Biso   1.000  O
  N257     1.0000 0.01646  0.22240  0.05823  Biso   1.000  N
  N258     1.0000 0.01644  0.22240  0.05820  Biso   1.000  N
  C391     1.0000 0.13967  0.23491  0.98651  Biso   1.000  C
  C392     1.0000 0.13967  0.23487  0.98651  Biso   1.000  C
  H413     1.0000 0.02768  0.28940  0.02592  Biso   1.000  H
  O146     1.0000 0.28618  0.00149  0.15036  Biso   1.000  O
  N259     1.0000 0.35460  0.05288  0.10882  Biso   1.000  N
  O147     1.0000 0.28618  0.00153  0.15036  Biso   1.000  O
  N260     1.0000 0.35460  0.05292  0.10882  Biso   1.000  N
  H414     1.0000 0.47376  0.06571  0.09393  Biso   1.000  H
  H415     1.0000 0.47375  0.06571  0.09390  Biso   1.000  H
  C393     1.0000 0.38105  0.11311  0.02281  Biso   1.000  C
  C394     1.0000 0.09297  0.22349  0.09082  Biso   1.000  C
  H416     1.0000 0.14916  0.23339  0.95791  Biso   1.000  H
  H417     1.0000 0.15604  0.27078  0.99603  Biso   1.000  H
  H418     1.0000 0.14916  0.23343  0.95791  Biso   1.000  H
  H419     1.0000 0.15604  0.27082  0.99603  Biso   1.000  H
  N261     1.0000 0.19506  0.19811  0.01270  Biso   1.000  N
  C395     1.0000 0.34047  0.10361  0.12841  Biso   1.000  C
  H420     1.0000 0.38103  0.11221  0.99232  Biso   1.000  H
  H421     1.0000 0.38103  0.11218  0.99232  Biso   1.000  H
  N262     1.0000 0.30518  0.14061  0.02931  Biso   1.000  N
  H422     1.0000 0.43366  0.13291  0.03641  Biso   1.000  H
  H423     1.0000 0.43366  0.13287  0.03641  Biso   1.000  H
  N263     1.0000 0.16386  0.19009  0.08332  Biso   1.000  N
  H424     1.0000 0.11500  0.25908  0.09403  Biso   1.000  H
  H425     1.0000 0.07648  0.21391  0.11692  Biso   1.000  H
  H426     1.0000 0.11500  0.25912  0.09403  Biso   1.000  H
  C396     1.0000 0.24623  0.16291  0.99681  Biso   1.000  C
  C397     1.0000 0.22529  0.20749  0.05732  Biso   1.000  C
  C398     1.0000 0.22529  0.20753  0.05732  Biso   1.000  C
  N264     1.0000 0.27799  0.13639  0.10140  Biso   1.000  N
  H427     1.0000 0.31928  0.09712  0.15482  Biso   1.000  H
  H428     1.0000 0.39718  0.12238  0.13550  Biso   1.000  H
  N265     1.0000 0.27799  0.13643  0.10140  Biso   1.000  N
  H429     1.0000 0.39718  0.12242  0.13550  Biso   1.000  H
  C399     1.0000 0.30379  0.16928  0.06881  Biso   1.000  C
  C400     1.0000 0.20166  0.15281  0.11142  Biso   1.000  C
  O148     1.0000 0.24021  0.15121  0.95989  Biso   1.000  O
  H430     1.0000 0.24347  0.24469  0.06313  Biso   1.000  H
  H431     1.0000 0.24347  0.24473  0.06313  Biso   1.000  H
  H432     1.0000 0.36019  0.18809  0.07933  Biso   1.000  H
  H433     1.0000 0.36018  0.18809  0.07930  Biso   1.000  H
  H434     1.0000 0.36019  0.18813  0.07933  Biso   1.000  H
  H435     1.0000 0.36018  0.18813  0.07930  Biso   1.000  H
  O149     1.0000 0.17047  0.13760  0.14135  Biso   1.000  O
  O150     1.0000 0.17047  0.13756  0.14135  Biso   1.000  O
  O151     1.0000 0.82956  0.86240  0.85869  Biso   1.000  O
  C401     1.0000 0.79837  0.84719  0.88861  Biso   1.000  C
  C402     1.0000 0.79830  0.84719  0.88861  Biso   1.000  C
  N266     1.0000 0.72204  0.86361  0.89863  Biso   1.000  N
  N267     1.0000 0.83616  0.80991  0.91671  Biso   1.000  N
  N268     1.0000 0.72204  0.86357  0.89863  Biso   1.000  N
  N269     1.0000 0.83616  0.80987  0.91671  Biso   1.000  N
  C403     1.0000 0.65955  0.89639  0.87162  Biso   1.000  C
  C404     1.0000 0.69623  0.83072  0.93122  Biso   1.000  C
  C405     1.0000 0.69623  0.83068  0.93122  Biso   1.000  C
  C406     1.0000 0.90706  0.77651  0.90921  Biso   1.000  C
  C407     1.0000 0.77473  0.79251  0.94271  Biso   1.000  C
  C408     1.0000 0.90706  0.77647  0.90921  Biso   1.000  C
  C409     1.0000 0.77473  0.79247  0.94271  Biso   1.000  C
  H436     1.0000 0.68074  0.90288  0.84522  Biso   1.000  H
  N270     1.0000 0.64543  0.94712  0.89122  Biso   1.000  N
  H437     1.0000 0.60285  0.87762  0.86453  Biso   1.000  H
  N271     1.0000 0.64543  0.94708  0.89122  Biso   1.000  N
  H438     1.0000 0.60285  0.87758  0.86453  Biso   1.000  H
  N272     1.0000 0.69484  0.85939  0.97072  Biso   1.000  N
  H439     1.0000 0.63983  0.81191  0.92070  Biso   1.000  H
  H440     1.0000 0.63983  0.81187  0.92070  Biso   1.000  H
  H441     1.0000 0.92354  0.78609  0.88311  Biso   1.000  H
  N273     1.0000 0.98357  0.77760  0.94180  Biso   1.000  N
  H442     1.0000 0.88503  0.74092  0.90600  Biso   1.000  H
  N274     1.0000 0.98350  0.77760  0.94180  Biso   1.000  N
  H443     1.0000 0.88503  0.74088  0.90600  Biso   1.000  H
  N275     1.0000 0.80497  0.80189  0.98733  Biso   1.000  N
  H444     1.0000 0.75656  0.75531  0.93690  Biso   1.000  H
  N276     1.0000 0.80495  0.80189  0.98730  Biso   1.000  N
  H445     1.0000 0.75656  0.75527  0.93690  Biso   1.000  H
  C410     1.0000 0.58185  0.95330  0.91781  Biso   1.000  C
  C411     1.0000 0.66704  0.99280  0.87520  Biso   1.000  C
  C412     1.0000 0.66704  0.99276  0.87520  Biso   1.000  C
  C413     1.0000 0.61897  0.88689  0.97722  Biso   1.000  C
  C414     1.0000 0.61891  0.88689  0.97722  Biso   1.000  C
  C415     1.0000 0.75379  0.83709  0.00322  Biso   1.000  C
  C416     1.0000 0.99235  0.74749  0.97983  Biso   1.000  C
  C417     1.0000 0.06151  0.79779  0.93580  Biso   1.000  C
  C418     1.0000 0.86036  0.76509  0.01352  Biso   1.000  C
  N277     1.0000 0.61175  0.94059  0.96111  Biso   1.000  N
  H446     1.0000 0.52626  0.93429  0.90610  Biso   1.000  H
  H447     1.0000 0.52620  0.93429  0.90610  Biso   1.000  H
  C419     1.0000 0.56643  0.01259  0.91791  Biso   1.000  C
  C420     1.0000 0.56643  0.01263  0.91791  Biso   1.000  C
  O152     1.0000 0.71384  0.99851  0.84967  Biso   1.000  O
  O153     1.0000 0.71384  0.99847  0.84967  Biso   1.000  O
  N278     1.0000 0.62615  0.03192  0.89231  Biso   1.000  N
  H448     1.0000 0.56637  0.86709  0.96362  Biso   1.000  H
  H449     1.0000 0.61900  0.88779  0.00771  Biso   1.000  H
  O154     1.0000 0.75981  0.84879  0.04014  Biso   1.000  O
  O155     1.0000 0.75975  0.84879  0.04014  Biso   1.000  O
  H450     1.0000 0.97234  0.71060  0.97411  Biso   1.000  H
  N279     1.0000 0.95266  0.77119  0.01232  Biso   1.000  N
  C421     1.0000 0.09222  0.75042  0.99851  Biso   1.000  C
  C422     1.0000 0.09222  0.75038  0.99851  Biso   1.000  C
  O156     1.0000 0.07353  0.82168  0.90531  Biso   1.000  O
  N280     1.0000 0.12558  0.78511  0.97063  Biso   1.000  N
  N281     1.0000 0.12551  0.78511  0.97063  Biso   1.000  N
  N282     1.0000 0.12558  0.78507  0.97063  Biso   1.000  N
  N283     1.0000 0.12551  0.78507  0.97063  Biso   1.000  N
  H451     1.0000 0.85087  0.76661  0.04212  Biso   1.000  H
  H452     1.0000 0.84398  0.72922  0.00400  Biso   1.000  H
  H453     1.0000 0.85087  0.76657  0.04212  Biso   1.000  H
  H454     1.0000 0.84398  0.72918  0.00400  Biso   1.000  H
  C423     1.0000 0.61014  0.98318  0.98702  Biso   1.000  C
  N284     1.0000 0.59073  0.02589  0.96252  Biso   1.000  N
  H455     1.0000 0.50415  0.02198  0.90591  Biso   1.000  H
  H456     1.0000 0.50415  0.02202  0.90591  Biso   1.000  H
  C424     1.0000 0.62725  0.08609  0.87913  Biso   1.000  C
  C425     1.0000 0.62724  0.08609  0.87910  Biso   1.000  C
  C426     1.0000 0.62725  0.08613  0.87913  Biso   1.000  C
  C427     1.0000 0.62724  0.08613  0.87910  Biso   1.000  C
  C428     1.0000 0.01436  0.78171  0.04881  Biso   1.000  C
  C429     1.0000 0.01436  0.78167  0.04881  Biso   1.000  C
  H457     1.0000 0.12075  0.71522  0.99992  Biso   1.000  H
  H458     1.0000 0.12075  0.71518  0.99992  Biso   1.000  H
  N285     1.0000 0.09368  0.77252  0.04030  Biso   1.000  N
  N286     1.0000 0.09368  0.77248  0.04030  Biso   1.000  N
  C430     1.0000 0.21962  0.78621  0.96912  Biso   1.000  C
  C431     1.0000 0.21962  0.78617  0.96912  Biso   1.000  C
  O157     1.0000 0.62376  0.98240  0.02523  Biso   1.000  O
  O158     1.0000 0.62375  0.98240  0.02520  Biso   1.000  O
  C432     1.0000 0.56954  0.07471  0.97910  Biso   1.000  C
  N287     1.0000 0.67678  0.12031  0.91062  Biso   1.000  N
  H459     1.0000 0.56601  0.09899  0.87181  Biso   1.000  H
  H460     1.0000 0.65271  0.08781  0.85341  Biso   1.000  H
  N288     1.0000 0.67671  0.12031  0.91062  Biso   1.000  N
  H461     1.0000 0.56601  0.09903  0.87181  Biso   1.000  H
  O159     1.0000 0.99701  0.79712  0.08159  Biso   1.000  O
  O160     1.0000 0.99700  0.79712  0.08156  Biso   1.000  O
  O161     1.0000 0.99701  0.79708  0.08159  Biso   1.000  O
  O162     1.0000 0.99700  0.79708  0.08156  Biso   1.000  O
  C433     1.0000 0.17220  0.77162  0.07293  Biso   1.000  C
  C434     1.0000 0.17220  0.77158  0.07293  Biso   1.000  C
  N289     1.0000 0.26865  0.82219  0.99873  Biso   1.000  N
  H462     1.0000 0.24424  0.75062  0.97493  Biso   1.000  H
  H463     1.0000 0.22675  0.79610  0.94042  Biso   1.000  H
  H464     1.0000 0.24424  0.75058  0.97493  Biso   1.000  H
  H465     1.0000 0.22675  0.79607  0.94042  Biso   1.000  H
  N290     1.0000 0.63333  0.11710  0.97800  Biso   1.000  N
  H466     1.0000 0.51172  0.08620  0.96312  Biso   1.000  H
  N291     1.0000 0.63333  0.11706  0.97800  Biso   1.000  N
  H467     1.0000 0.56331  0.06931  0.00862  Biso   1.000  H
  H468     1.0000 0.56325  0.06931  0.00862  Biso   1.000  H
  C435     1.0000 0.74775  0.14679  0.90170  Biso   1.000  C
  C436     1.0000 0.63615  0.14660  0.94111  Biso   1.000  C
  C437     1.0000 0.63615  0.14663  0.94111  Biso   1.000  C
  N292     1.0000 0.23430  0.81312  0.06872  Biso   1.000  N
  H469     1.0000 0.20168  0.73740  0.07220  Biso   1.000  H
  H470     1.0000 0.15488  0.77491  0.10062  Biso   1.000  H
  N293     1.0000 0.23430  0.81308  0.06872  Biso   1.000  N
  H471     1.0000 0.15488  0.77487  0.10062  Biso   1.000  H
  C438     1.0000 0.31254  0.86310  0.98733  Biso   1.000  C
  C439     1.0000 0.31252  0.86310  0.98730  Biso   1.000  C
  C440     1.0000 0.31254  0.86307  0.98733  Biso   1.000  C
  C441     1.0000 0.31252  0.86307  0.98730  Biso   1.000  C
  C442     1.0000 0.29921  0.80850  0.04272  Biso   1.000  C
  C443     1.0000 0.29915  0.80850  0.04272  Biso   1.000  C
  C444     1.0000 0.68749  0.13690  0.01270  Biso   1.000  C
  O163     1.0000 0.78623  0.13909  0.87357  Biso   1.000  O
  N294     1.0000 0.76572  0.18688  0.93131  Biso   1.000  N
  O164     1.0000 0.78621  0.13909  0.87354  Biso   1.000  O
  O165     1.0000 0.78623  0.13912  0.87357  Biso   1.000  O
  O166     1.0000 0.78621  0.13912  0.87354  Biso   1.000  O
  C445     1.0000 0.70082  0.19150  0.95731  Biso   1.000  C
  H472     1.0000 0.57683  0.16040  0.92811  Biso   1.000  H
  C446     1.0000 0.25228  0.85321  0.09833  Biso   1.000  C
  C447     1.0000 0.25228  0.85317  0.09833  Biso   1.000  C
  O167     1.0000 0.30704  0.88020  0.95172  Biso   1.000  O
  N295     1.0000 0.36669  0.88290  0.02203  Biso   1.000  N
  H473     1.0000 0.32871  0.77361  0.04592  Biso   1.000  H
  C448     1.0000 0.36388  0.85340  0.05892  Biso   1.000  C
  H474     1.0000 0.32865  0.77361  0.04592  Biso   1.000  H
  H475     1.0000 0.32871  0.77358  0.04592  Biso   1.000  H
  C449     1.0000 0.36388  0.85337  0.05892  Biso   1.000  C
  H476     1.0000 0.32865  0.77358  0.04592  Biso   1.000  H
  O168     1.0000 0.69298  0.11980  0.04831  Biso   1.000  O
  N296     1.0000 0.73138  0.17781  0.00130  Biso   1.000  N
  C450     1.0000 0.82782  0.22838  0.92711  Biso   1.000  C
  H477     1.0000 0.67131  0.22639  0.95411  Biso   1.000  H
  H478     1.0000 0.67131  0.22642  0.95411  Biso   1.000  H
  O169     1.0000 0.21380  0.86091  0.12646  Biso   1.000  O
  N297     1.0000 0.32325  0.87969  0.08941  Biso   1.000  N
  O170     1.0000 0.21380  0.86088  0.12646  Biso   1.000  O
  C451     1.0000 0.43049  0.92529  0.02093  Biso   1.000  C
  H479     1.0000 0.42320  0.83960  0.07192  Biso   1.000  H
  C452     1.0000 0.78041  0.21379  0.03091  Biso   1.000  C
  C453     1.0000 0.78034  0.21379  0.03091  Biso   1.000  C
  C454     1.0000 0.78041  0.21383  0.03091  Biso   1.000  C
  C455     1.0000 0.78034  0.21383  0.03091  Biso   1.000  C
  N298     1.0000 0.90635  0.22748  0.95973  Biso   1.000  N
  H480     1.0000 0.79835  0.26260  0.92783  Biso   1.000  H
  H481     1.0000 0.84515  0.22509  0.89941  Biso   1.000  H
  N299     1.0000 0.90633  0.22748  0.95970  Biso   1.000  N
  H482     1.0000 0.79834  0.26260  0.92780  Biso   1.000  H
  N300     1.0000 0.90635  0.22752  0.95973  Biso   1.000  N
  H483     1.0000 0.84515  0.22513  0.89941  Biso   1.000  H
  N301     1.0000 0.90633  0.22752  0.95970  Biso   1.000  N
  C456     1.0000 0.37278  0.91391  0.12090  Biso   1.000  C
  C457     1.0000 0.37278  0.91387  0.12090  Biso   1.000  C
  H484     1.0000 0.43671  0.93069  0.99141  Biso   1.000  H
  N302     1.0000 0.40929  0.97411  0.03751  Biso   1.000  N
  H485     1.0000 0.48830  0.91380  0.03691  Biso   1.000  H
  N303     1.0000 0.40929  0.97407  0.03751  Biso   1.000  N
  N304     1.0000 0.87445  0.21489  0.02941  Biso   1.000  N
  H486     1.0000 0.75579  0.24938  0.02510  Biso   1.000  H
  H487     1.0000 0.77328  0.20390  0.05961  Biso   1.000  H
  N305     1.0000 0.87445  0.21493  0.02941  Biso   1.000  N
  H488     1.0000 0.75579  0.24942  0.02510  Biso   1.000  H
  H489     1.0000 0.77328  0.20393  0.05961  Biso   1.000  H
  C458     1.0000 0.98567  0.21829  0.95122  Biso   1.000  C
  C459     1.0000 0.98567  0.21833  0.95122  Biso   1.000  C
  C460     1.0000 0.90781  0.24958  0.00152  Biso   1.000  C
  N306     1.0000 0.37387  0.96808  0.10772  Biso   1.000  N
  H490     1.0000 0.43401  0.90101  0.12822  Biso   1.000  H
  H491     1.0000 0.34731  0.91219  0.14662  Biso   1.000  H
  H492     1.0000 0.43395  0.90101  0.12822  Biso   1.000  H
  H493     1.0000 0.34725  0.91219  0.14662  Biso   1.000  H
  H494     1.0000 0.43401  0.90097  0.12822  Biso   1.000  H
  H495     1.0000 0.43395  0.90097  0.12822  Biso   1.000  H
  C461     1.0000 0.43360  0.98741  0.08213  Biso   1.000  C
  C462     1.0000 0.43360  0.98737  0.08213  Biso   1.000  C
  C463     1.0000 0.38989  0.01682  0.01301  Biso   1.000  C
  C464     1.0000 0.93851  0.20221  0.06423  Biso   1.000  C
  C465     1.0000 0.93845  0.20221  0.06423  Biso   1.000  C
  O171     1.0000 0.00302  0.20288  0.91844  Biso   1.000  O
  N307     1.0000 0.04737  0.22881  0.98771  Biso   1.000  N
  N308     1.0000 0.04730  0.22881  0.98771  Biso   1.000  N
  O172     1.0000 0.00302  0.20292  0.91844  Biso   1.000  O
  H496     1.0000 0.87928  0.28478  0.00011  Biso   1.000  H
  H497     1.0000 0.87928  0.28482  0.00011  Biso   1.000  H
  C466     1.0000 0.00768  0.25251  0.02021  Biso   1.000  C
  C467     1.0000 0.00768  0.25247  0.02021  Biso   1.000  C
  C468     1.0000 0.33298  0.00720  0.12483  Biso   1.000  C
  C469     1.0000 0.33298  0.00724  0.12483  Biso   1.000  C
  H498     1.0000 0.49587  0.97802  0.09412  Biso   1.000  H
  H499     1.0000 0.49587  0.97798  0.09412  Biso   1.000  H
  C470     1.0000 0.41817  0.04670  0.08222  Biso   1.000  C
  O173     1.0000 0.37627  0.01760  0.97480  Biso   1.000  O
  O174     1.0000 0.37620  0.01760  0.97480  Biso   1.000  O
  N309     1.0000 0.38828  0.05941  0.03892  Biso   1.000  N
  O175     1.0000 0.92650  0.17832  0.09472  Biso   1.000  O
  N310     1.0000 0.01646  0.22240  0.05823  Biso   1.000  N
  N311     1.0000 0.01644  0.22240  0.05820  Biso   1.000  N
  C471     1.0000 0.13967  0.23491  0.98651  Biso   1.000  C
  C472     1.0000 0.13967  0.23487  0.98651  Biso   1.000  C
  H500     1.0000 0.02768  0.28940  0.02592  Biso   1.000  H
  O176     1.0000 0.28618  0.00149  0.15036  Biso   1.000  O
  N312     1.0000 0.35460  0.05288  0.10882  Biso   1.000  N
  O177     1.0000 0.28618  0.00153  0.15036  Biso   1.000  O
  N313     1.0000 0.35460  0.05292  0.10882  Biso   1.000  N
  H501     1.0000 0.47376  0.06571  0.09393  Biso   1.000  H
  H502     1.0000 0.47375  0.06571  0.09390  Biso   1.000  H
  C473     1.0000 0.38105  0.11311  0.02281  Biso   1.000  C
  C474     1.0000 0.09297  0.22349  0.09082  Biso   1.000  C
  H503     1.0000 0.14916  0.23339  0.95791  Biso   1.000  H
  H504     1.0000 0.15604  0.27078  0.99603  Biso   1.000  H
  H505     1.0000 0.14916  0.23343  0.95791  Biso   1.000  H
  H506     1.0000 0.15604  0.27082  0.99603  Biso   1.000  H
  N314     1.0000 0.19506  0.19811  0.01270  Biso   1.000  N
  C475     1.0000 0.34047  0.10361  0.12841  Biso   1.000  C
  H507     1.0000 0.38103  0.11221  0.99232  Biso   1.000  H
  H508     1.0000 0.38103  0.11218  0.99232  Biso   1.000  H
  N315     1.0000 0.30518  0.14061  0.02931  Biso   1.000  N
  H509     1.0000 0.43366  0.13291  0.03641  Biso   1.000  H
  H510     1.0000 0.43366  0.13287  0.03641  Biso   1.000  H
  N316     1.0000 0.16386  0.19009  0.08332  Biso   1.000  N
  H511     1.0000 0.11500  0.25908  0.09403  Biso   1.000  H
  H512     1.0000 0.07648  0.21391  0.11692  Biso   1.000  H
  H513     1.0000 0.11500  0.25912  0.09403  Biso   1.000  H
  C476     1.0000 0.24623  0.16291  0.99681  Biso   1.000  C
  C477     1.0000 0.22529  0.20749  0.05732  Biso   1.000  C
  C478     1.0000 0.22529  0.20753  0.05732  Biso   1.000  C
  N317     1.0000 0.27799  0.13639  0.10140  Biso   1.000  N
  H514     1.0000 0.31928  0.09712  0.15482  Biso   1.000  H
  H515     1.0000 0.39718  0.12238  0.13550  Biso   1.000  H
  N318     1.0000 0.27799  0.13643  0.10140  Biso   1.000  N
  H516     1.0000 0.39718  0.12242  0.13550  Biso   1.000  H
  C479     1.0000 0.30379  0.16928  0.06881  Biso   1.000  C
  C480     1.0000 0.20166  0.15281  0.11142  Biso   1.000  C
  O178     1.0000 0.24021  0.15121  0.95989  Biso   1.000  O
  H517     1.0000 0.24347  0.24469  0.06313  Biso   1.000  H
  H518     1.0000 0.24347  0.24473  0.06313  Biso   1.000  H
  H519     1.0000 0.36019  0.18809  0.07933  Biso   1.000  H
  H520     1.0000 0.36018  0.18809  0.07930  Biso   1.000  H
  H521     1.0000 0.36019  0.18813  0.07933  Biso   1.000  H
  H522     1.0000 0.36018  0.18813  0.07930  Biso   1.000  H
  O179     1.0000 0.17047  0.13760  0.14135  Biso   1.000  O
  O180     1.0000 0.17047  0.13756  0.14135  Biso   1.000  O
  O181     1.0000 0.82956  0.86240  0.85869  Biso   1.000  O
  C481     1.0000 0.79837  0.84719  0.88861  Biso   1.000  C
  C482     1.0000 0.79830  0.84719  0.88861  Biso   1.000  C
  N319     1.0000 0.72204  0.86361  0.89863  Biso   1.000  N
  N320     1.0000 0.83616  0.80991  0.91671  Biso   1.000  N
  N321     1.0000 0.72204  0.86357  0.89863  Biso   1.000  N
  N322     1.0000 0.83616  0.80987  0.91671  Biso   1.000  N
  C483     1.0000 0.65955  0.89639  0.87162  Biso   1.000  C
  C484     1.0000 0.69623  0.83072  0.93122  Biso   1.000  C
  C485     1.0000 0.69623  0.83068  0.93122  Biso   1.000  C
  C486     1.0000 0.90706  0.77651  0.90921  Biso   1.000  C
  C487     1.0000 0.77473  0.79251  0.94271  Biso   1.000  C
  C488     1.0000 0.90706  0.77647  0.90921  Biso   1.000  C
  C489     1.0000 0.77473  0.79247  0.94271  Biso   1.000  C
  H523     1.0000 0.68074  0.90288  0.84522  Biso   1.000  H
  N323     1.0000 0.64543  0.94712  0.89122  Biso   1.000  N
  H524     1.0000 0.60285  0.87762  0.86453  Biso   1.000  H
  N324     1.0000 0.64543  0.94708  0.89122  Biso   1.000  N
  H525     1.0000 0.60285  0.87758  0.86453  Biso   1.000  H
  N325     1.0000 0.69484  0.85939  0.97072  Biso   1.000  N
  H526     1.0000 0.63983  0.81191  0.92070  Biso   1.000  H
  H527     1.0000 0.63983  0.81187  0.92070  Biso   1.000  H
  H528     1.0000 0.92354  0.78609  0.88311  Biso   1.000  H
  N326     1.0000 0.98357  0.77760  0.94180  Biso   1.000  N
  H529     1.0000 0.88503  0.74092  0.90600  Biso   1.000  H
  N327     1.0000 0.98350  0.77760  0.94180  Biso   1.000  N
  H530     1.0000 0.88503  0.74088  0.90600  Biso   1.000  H
  N328     1.0000 0.80497  0.80189  0.98733  Biso   1.000  N
  H531     1.0000 0.75656  0.75531  0.93690  Biso   1.000  H
  N329     1.0000 0.80495  0.80189  0.98730  Biso   1.000  N
  H532     1.0000 0.75656  0.75527  0.93690  Biso   1.000  H
  C490     1.0000 0.58185  0.95330  0.91781  Biso   1.000  C
  C491     1.0000 0.66704  0.99280  0.87520  Biso   1.000  C
  C492     1.0000 0.66704  0.99276  0.87520  Biso   1.000  C
  C493     1.0000 0.61897  0.88689  0.97722  Biso   1.000  C
  C494     1.0000 0.61891  0.88689  0.97722  Biso   1.000  C
  C495     1.0000 0.75379  0.83709  0.00322  Biso   1.000  C
  C496     1.0000 0.99235  0.74749  0.97983  Biso   1.000  C
  C497     1.0000 0.06151  0.79779  0.93580  Biso   1.000  C
  C498     1.0000 0.86036  0.76509  0.01352  Biso   1.000  C
  N330     1.0000 0.61175  0.94059  0.96111  Biso   1.000  N
  H533     1.0000 0.52626  0.93429  0.90610  Biso   1.000  H
  H534     1.0000 0.52620  0.93429  0.90610  Biso   1.000  H
  C499     1.0000 0.56643  0.01259  0.91791  Biso   1.000  C
  C500     1.0000 0.56643  0.01263  0.91791  Biso   1.000  C
  O182     1.0000 0.71384  0.99851  0.84967  Biso   1.000  O
  O183     1.0000 0.71384  0.99847  0.84967  Biso   1.000  O
  N331     1.0000 0.62615  0.03192  0.89231  Biso   1.000  N
  H535     1.0000 0.56637  0.86709  0.96362  Biso   1.000  H
  H536     1.0000 0.61900  0.88779  0.00771  Biso   1.000  H
  O184     1.0000 0.75981  0.84879  0.04014  Biso   1.000  O
  O185     1.0000 0.75975  0.84879  0.04014  Biso   1.000  O
  H537     1.0000 0.97234  0.71060  0.97411  Biso   1.000  H
  N332     1.0000 0.95266  0.77119  0.01232  Biso   1.000  N
  C501     1.0000 0.09222  0.75042  0.99851  Biso   1.000  C
  C502     1.0000 0.09222  0.75038  0.99851  Biso   1.000  C
  O186     1.0000 0.07353  0.82168  0.90531  Biso   1.000  O
  N333     1.0000 0.12558  0.78511  0.97063  Biso   1.000  N
  N334     1.0000 0.12551  0.78511  0.97063  Biso   1.000  N
  N335     1.0000 0.12558  0.78507  0.97063  Biso   1.000  N
  N336     1.0000 0.12551  0.78507  0.97063  Biso   1.000  N
  H538     1.0000 0.85087  0.76661  0.04212  Biso   1.000  H
  H539     1.0000 0.84398  0.72922  0.00400  Biso   1.000  H
  H540     1.0000 0.85087  0.76657  0.04212  Biso   1.000  H
  H541     1.0000 0.84398  0.72918  0.00400  Biso   1.000  H
  C503     1.0000 0.61014  0.98318  0.98702  Biso   1.000  C
  N337     1.0000 0.59073  0.02589  0.96252  Biso   1.000  N
  H542     1.0000 0.50415  0.02198  0.90591  Biso   1.000  H
  H543     1.0000 0.50415  0.02202  0.90591  Biso   1.000  H
  C504     1.0000 0.62725  0.08609  0.87913  Biso   1.000  C
  C505     1.0000 0.62724  0.08609  0.87910  Biso   1.000  C
  C506     1.0000 0.62725  0.08613  0.87913  Biso   1.000  C
  C507     1.0000 0.62724  0.08613  0.87910  Biso   1.000  C
  C508     1.0000 0.01436  0.78171  0.04881  Biso   1.000  C
  C509     1.0000 0.01436  0.78167  0.04881  Biso   1.000  C
  H544     1.0000 0.12075  0.71522  0.99992  Biso   1.000  H
  H545     1.0000 0.12075  0.71518  0.99992  Biso   1.000  H
  N338     1.0000 0.09368  0.77252  0.04030  Biso   1.000  N
  N339     1.0000 0.09368  0.77248  0.04030  Biso   1.000  N
  C510     1.0000 0.21962  0.78621  0.96912  Biso   1.000  C
  C511     1.0000 0.21962  0.78617  0.96912  Biso   1.000  C
  O187     1.0000 0.62376  0.98240  0.02523  Biso   1.000  O
  O188     1.0000 0.62375  0.98240  0.02520  Biso   1.000  O
  C512     1.0000 0.56954  0.07471  0.97910  Biso   1.000  C
  N340     1.0000 0.67678  0.12031  0.91062  Biso   1.000  N
  H546     1.0000 0.56601  0.09899  0.87181  Biso   1.000  H
  H547     1.0000 0.65271  0.08781  0.85341  Biso   1.000  H
  N341     1.0000 0.67671  0.12031  0.91062  Biso   1.000  N
  H548     1.0000 0.56601  0.09903  0.87181  Biso   1.000  H
  O189     1.0000 0.99701  0.79712  0.08159  Biso   1.000  O
  O190     1.0000 0.99700  0.79712  0.08156  Biso   1.000  O
  O191     1.0000 0.99701  0.79708  0.08159  Biso   1.000  O
  O192     1.0000 0.99700  0.79708  0.08156  Biso   1.000  O
  C513     1.0000 0.17220  0.77162  0.07293  Biso   1.000  C
  C514     1.0000 0.17220  0.77158  0.07293  Biso   1.000  C
  N342     1.0000 0.26865  0.82219  0.99873  Biso   1.000  N
  H549     1.0000 0.24424  0.75062  0.97493  Biso   1.000  H
  H550     1.0000 0.22675  0.79610  0.94042  Biso   1.000  H
  H551     1.0000 0.24424  0.75058  0.97493  Biso   1.000  H
  H552     1.0000 0.22675  0.79607  0.94042  Biso   1.000  H
  N343     1.0000 0.63333  0.11710  0.97800  Biso   1.000  N
  H553     1.0000 0.51172  0.08620  0.96312  Biso   1.000  H
  N344     1.0000 0.63333  0.11706  0.97800  Biso   1.000  N
  H554     1.0000 0.56331  0.06931  0.00862  Biso   1.000  H
  H555     1.0000 0.56325  0.06931  0.00862  Biso   1.000  H
  C515     1.0000 0.74775  0.14679  0.90170  Biso   1.000  C
  C516     1.0000 0.63615  0.14660  0.94111  Biso   1.000  C
  C517     1.0000 0.63615  0.14663  0.94111  Biso   1.000  C
  N345     1.0000 0.23430  0.81312  0.06872  Biso   1.000  N
  H556     1.0000 0.20168  0.73740  0.07220  Biso   1.000  H
  H557     1.0000 0.15488  0.77491  0.10062  Biso   1.000  H
  N346     1.0000 0.23430  0.81308  0.06872  Biso   1.000  N
  H558     1.0000 0.15488  0.77487  0.10062  Biso   1.000  H
  C518     1.0000 0.31254  0.86310  0.98733  Biso   1.000  C
  C519     1.0000 0.31252  0.86310  0.98730  Biso   1.000  C
  C520     1.0000 0.31254  0.86307  0.98733  Biso   1.000  C
  C521     1.0000 0.31252  0.86307  0.98730  Biso   1.000  C
  C522     1.0000 0.29921  0.80850  0.04272  Biso   1.000  C
  C523     1.0000 0.29915  0.80850  0.04272  Biso   1.000  C
  C524     1.0000 0.68749  0.13690  0.01270  Biso   1.000  C
  O193     1.0000 0.78623  0.13909  0.87357  Biso   1.000  O
  N347     1.0000 0.76572  0.18688  0.93131  Biso   1.000  N
  O194     1.0000 0.78621  0.13909  0.87354  Biso   1.000  O
  O195     1.0000 0.78623  0.13912  0.87357  Biso   1.000  O
  O196     1.0000 0.78621  0.13912  0.87354  Biso   1.000  O
  C525     1.0000 0.70082  0.19150  0.95731  Biso   1.000  C
  H559     1.0000 0.57683  0.16040  0.92811  Biso   1.000  H
  C526     1.0000 0.25228  0.85321  0.09833  Biso   1.000  C
  C527     1.0000 0.25228  0.85317  0.09833  Biso   1.000  C
  O197     1.0000 0.30704  0.88020  0.95172  Biso   1.000  O
  N348     1.0000 0.36669  0.88290  0.02203  Biso   1.000  N
  H560     1.0000 0.32871  0.77361  0.04592  Biso   1.000  H
  C528     1.0000 0.36388  0.85340  0.05892  Biso   1.000  C
  H561     1.0000 0.32865  0.77361  0.04592  Biso   1.000  H
  H562     1.0000 0.32871  0.77358  0.04592  Biso   1.000  H
  C529     1.0000 0.36388  0.85337  0.05892  Biso   1.000  C
  H563     1.0000 0.32865  0.77358  0.04592  Biso   1.000  H
  O198     1.0000 0.69298  0.11980  0.04831  Biso   1.000  O
  N349     1.0000 0.73138  0.17781  0.00130  Biso   1.000  N
  C530     1.0000 0.82782  0.22838  0.92711  Biso   1.000  C
  H564     1.0000 0.67131  0.22639  0.95411  Biso   1.000  H
  H565     1.0000 0.67131  0.22642  0.95411  Biso   1.000  H
  O199     1.0000 0.21380  0.86091  0.12646  Biso   1.000  O
  N350     1.0000 0.32325  0.87969  0.08941  Biso   1.000  N
  O200     1.0000 0.21380  0.86088  0.12646  Biso   1.000  O
  C531     1.0000 0.43049  0.92529  0.02093  Biso   1.000  C
  H566     1.0000 0.42320  0.83960  0.07192  Biso   1.000  H
  C532     1.0000 0.78041  0.21379  0.03091  Biso   1.000  C
  C533     1.0000 0.78034  0.21379  0.03091  Biso   1.000  C
  C534     1.0000 0.78041  0.21383  0.03091  Biso   1.000  C
  C535     1.0000 0.78034  0.21383  0.03091  Biso   1.000  C
  N351     1.0000 0.90635  0.22748  0.95973  Biso   1.000  N
  H567     1.0000 0.79835  0.26260  0.92783  Biso   1.000  H
  H568     1.0000 0.84515  0.22509  0.89941  Biso   1.000  H
  N352     1.0000 0.90633  0.22748  0.95970  Biso   1.000  N
  H569     1.0000 0.79834  0.26260  0.92780  Biso   1.000  H
  N353     1.0000 0.90635  0.22752  0.95973  Biso   1.000  N
  H570     1.0000 0.84515  0.22513  0.89941  Biso   1.000  H
  N354     1.0000 0.90633  0.22752  0.95970  Biso   1.000  N
  C536     1.0000 0.37278  0.91391  0.12090  Biso   1.000  C
  C537     1.0000 0.37278  0.91387  0.12090  Biso   1.000  C
  H571     1.0000 0.43671  0.93069  0.99141  Biso   1.000  H
  N355     1.0000 0.40929  0.97411  0.03751  Biso   1.000  N
  H572     1.0000 0.48830  0.91380  0.03691  Biso   1.000  H
  N356     1.0000 0.40929  0.97407  0.03751  Biso   1.000  N
  N357     1.0000 0.87445  0.21489  0.02941  Biso   1.000  N
  H573     1.0000 0.75579  0.24938  0.02510  Biso   1.000  H
  H574     1.0000 0.77328  0.20390  0.05961  Biso   1.000  H
  N358     1.0000 0.87445  0.21493  0.02941  Biso   1.000  N
  H575     1.0000 0.75579  0.24942  0.02510  Biso   1.000  H
  H576     1.0000 0.77328  0.20393  0.05961  Biso   1.000  H
  C538     1.0000 0.98567  0.21829  0.95122  Biso   1.000  C
  C539     1.0000 0.98567  0.21833  0.95122  Biso   1.000  C
  C540     1.0000 0.90781  0.24958  0.00152  Biso   1.000  C
  N359     1.0000 0.37387  0.96808  0.10772  Biso   1.000  N
  H577     1.0000 0.43401  0.90101  0.12822  Biso   1.000  H
  H578     1.0000 0.34731  0.91219  0.14662  Biso   1.000  H
  H579     1.0000 0.43395  0.90101  0.12822  Biso   1.000  H
  H580     1.0000 0.34725  0.91219  0.14662  Biso   1.000  H
  H581     1.0000 0.43401  0.90097  0.12822  Biso   1.000  H
  H582     1.0000 0.43395  0.90097  0.12822  Biso   1.000  H
  C541     1.0000 0.43360  0.98741  0.08213  Biso   1.000  C
  C542     1.0000 0.43360  0.98737  0.08213  Biso   1.000  C
  C543     1.0000 0.38989  0.01682  0.01301  Biso   1.000  C
  C544     1.0000 0.93851  0.20221  0.06423  Biso   1.000  C
  C545     1.0000 0.93845  0.20221  0.06423  Biso   1.000  C
  O201     1.0000 0.00302  0.20288  0.91844  Biso   1.000  O
  N360     1.0000 0.04737  0.22881  0.98771  Biso   1.000  N
  N361     1.0000 0.04730  0.22881  0.98771  Biso   1.000  N
  O202     1.0000 0.00302  0.20292  0.91844  Biso   1.000  O
  H583     1.0000 0.87928  0.28478  0.00011  Biso   1.000  H
  H584     1.0000 0.87928  0.28482  0.00011  Biso   1.000  H
  C546     1.0000 0.00768  0.25251  0.02021  Biso   1.000  C
  C547     1.0000 0.00768  0.25247  0.02021  Biso   1.000  C
  C548     1.0000 0.33298  0.00720  0.12483  Biso   1.000  C
  C549     1.0000 0.33298  0.00724  0.12483  Biso   1.000  C
  H585     1.0000 0.49587  0.97802  0.09412  Biso   1.000  H
  H586     1.0000 0.49587  0.97798  0.09412  Biso   1.000  H
  C550     1.0000 0.41817  0.04670  0.08222  Biso   1.000  C
  O203     1.0000 0.37627  0.01760  0.97480  Biso   1.000  O
  O204     1.0000 0.37620  0.01760  0.97480  Biso   1.000  O
  N362     1.0000 0.38828  0.05941  0.03892  Biso   1.000  N
  O205     1.0000 0.92650  0.17832  0.09472  Biso   1.000  O
  N363     1.0000 0.01646  0.22240  0.05823  Biso   1.000  N
  N364     1.0000 0.01644  0.22240  0.05820  Biso   1.000  N
  C551     1.0000 0.13967  0.23491  0.98651  Biso   1.000  C
  C552     1.0000 0.13967  0.23487  0.98651  Biso   1.000  C
  H587     1.0000 0.02768  0.28940  0.02592  Biso   1.000  H
  O206     1.0000 0.28618  0.00149  0.15036  Biso   1.000  O
  N365     1.0000 0.35460  0.05288  0.10882  Biso   1.000  N
  O207     1.0000 0.28618  0.00153  0.15036  Biso   1.000  O
  N366     1.0000 0.35460  0.05292  0.10882  Biso   1.000  N
  H588     1.0000 0.47376  0.06571  0.09393  Biso   1.000  H
  H589     1.0000 0.47375  0.06571  0.09390  Biso   1.000  H
  C553     1.0000 0.38105  0.11311  0.02281  Biso   1.000  C
  C554     1.0000 0.09297  0.22349  0.09082  Biso   1.000  C
  H590     1.0000 0.14916  0.23339  0.95791  Biso   1.000  H
  H591     1.0000 0.15604  0.27078  0.99603  Biso   1.000  H
  H592     1.0000 0.14916  0.23343  0.95791  Biso   1.000  H
  H593     1.0000 0.15604  0.27082  0.99603  Biso   1.000  H
  N367     1.0000 0.19506  0.19811  0.01270  Biso   1.000  N
  C555     1.0000 0.34047  0.10361  0.12841  Biso   1.000  C
  H594     1.0000 0.38103  0.11221  0.99232  Biso   1.000  H
  H595     1.0000 0.38103  0.11218  0.99232  Biso   1.000  H
  N368     1.0000 0.30518  0.14061  0.02931  Biso   1.000  N
  H596     1.0000 0.43366  0.13291  0.03641  Biso   1.000  H
  H597     1.0000 0.43366  0.13287  0.03641  Biso   1.000  H
  N369     1.0000 0.16386  0.19009  0.08332  Biso   1.000  N
  H598     1.0000 0.11500  0.25908  0.09403  Biso   1.000  H
  H599     1.0000 0.07648  0.21391  0.11692  Biso   1.000  H
  H600     1.0000 0.11500  0.25912  0.09403  Biso   1.000  H
  C556     1.0000 0.24623  0.16291  0.99681  Biso   1.000  C
  C557     1.0000 0.22529  0.20749  0.05732  Biso   1.000  C
  C558     1.0000 0.22529  0.20753  0.05732  Biso   1.000  C
  N370     1.0000 0.27799  0.13639  0.10140  Biso   1.000  N
  H601     1.0000 0.31928  0.09712  0.15482  Biso   1.000  H
  H602     1.0000 0.39718  0.12238  0.13550  Biso   1.000  H
  N371     1.0000 0.27799  0.13643  0.10140  Biso   1.000  N
  H603     1.0000 0.39718  0.12242  0.13550  Biso   1.000  H
  C559     1.0000 0.30379  0.16928  0.06881  Biso   1.000  C
  C560     1.0000 0.20166  0.15281  0.11142  Biso   1.000  C
  O208     1.0000 0.24021  0.15121  0.95989  Biso   1.000  O
  H604     1.0000 0.24347  0.24469  0.06313  Biso   1.000  H
  H605     1.0000 0.24347  0.24473  0.06313  Biso   1.000  H
  H606     1.0000 0.36019  0.18809  0.07933  Biso   1.000  H
  H607     1.0000 0.36018  0.18809  0.07930  Biso   1.000  H
  H608     1.0000 0.36019  0.18813  0.07933  Biso   1.000  H
  H609     1.0000 0.36018  0.18813  0.07930  Biso   1.000  H
  O209     1.0000 0.17047  0.13760  0.14135  Biso   1.000  O
  O210     1.0000 0.17047  0.13756  0.14135  Biso   1.000  O
  O211     1.0000 0.82956  0.86240  0.85869  Biso   1.000  O
  C561     1.0000 0.79837  0.84719  0.88861  Biso   1.000  C
  C562     1.0000 0.79830  0.84719  0.88861  Biso   1.000  C
  N372     1.0000 0.72204  0.86361  0.89863  Biso   1.000  N
  N373     1.0000 0.83616  0.80991  0.91671  Biso   1.000  N
  N374     1.0000 0.72204  0.86357  0.89863  Biso   1.000  N
  N375     1.0000 0.83616  0.80987  0.91671  Biso   1.000  N
  C563     1.0000 0.65955  0.89639  0.87162  Biso   1.000  C
  C564     1.0000 0.69623  0.83072  0.93122  Biso   1.000  C
  C565     1.0000 0.69623  0.83068  0.93122  Biso   1.000  C
  C566     1.0000 0.90706  0.77651  0.90921  Biso   1.000  C
  C567     1.0000 0.77473  0.79251  0.94271  Biso   1.000  C
  C568     1.0000 0.90706  0.77647  0.90921  Biso   1.000  C
  C569     1.0000 0.77473  0.79247  0.94271  Biso   1.000  C
  H610     1.0000 0.68074  0.90288  0.84522  Biso   1.000  H
  N376     1.0000 0.64543  0.94712  0.89122  Biso   1.000  N
  H611     1.0000 0.60285  0.87762  0.86453  Biso   1.000  H
  N377     1.0000 0.64543  0.94708  0.89122  Biso   1.000  N
  H612     1.0000 0.60285  0.87758  0.86453  Biso   1.000  H
  N378     1.0000 0.69484  0.85939  0.97072  Biso   1.000  N
  H613     1.0000 0.63983  0.81191  0.92070  Biso   1.000  H
  H614     1.0000 0.63983  0.81187  0.92070  Biso   1.000  H
  H615     1.0000 0.92354  0.78609  0.88311  Biso   1.000  H
  N379     1.0000 0.98357  0.77760  0.94180  Biso   1.000  N
  H616     1.0000 0.88503  0.74092  0.90600  Biso   1.000  H
  N380     1.0000 0.98350  0.77760  0.94180  Biso   1.000  N
  H617     1.0000 0.88503  0.74088  0.90600  Biso   1.000  H
  N381     1.0000 0.80497  0.80189  0.98733  Biso   1.000  N
  H618     1.0000 0.75656  0.75531  0.93690  Biso   1.000  H
  N382     1.0000 0.80495  0.80189  0.98730  Biso   1.000  N
  H619     1.0000 0.75656  0.75527  0.93690  Biso   1.000  H
  C570     1.0000 0.58185  0.95330  0.91781  Biso   1.000  C
  C571     1.0000 0.66704  0.99280  0.87520  Biso   1.000  C
  C572     1.0000 0.66704  0.99276  0.87520  Biso   1.000  C
  C573     1.0000 0.61897  0.88689  0.97722  Biso   1.000  C
  C574     1.0000 0.61891  0.88689  0.97722  Biso   1.000  C
  C575     1.0000 0.75379  0.83709  0.00322  Biso   1.000  C
  C576     1.0000 0.99235  0.74749  0.97983  Biso   1.000  C
  C577     1.0000 0.06151  0.79779  0.93580  Biso   1.000  C
  C578     1.0000 0.86036  0.76509  0.01352  Biso   1.000  C
  N383     1.0000 0.61175  0.94059  0.96111  Biso   1.000  N
  H620     1.0000 0.52626  0.93429  0.90610  Biso   1.000  H
  H621     1.0000 0.52620  0.93429  0.90610  Biso   1.000  H
  C579     1.0000 0.56643  0.01259  0.91791  Biso   1.000  C
  C580     1.0000 0.56643  0.01263  0.91791  Biso   1.000  C
  O212     1.0000 0.71384  0.99851  0.84967  Biso   1.000  O
  O213     1.0000 0.71384  0.99847  0.84967  Biso   1.000  O
  N384     1.0000 0.62615  0.03192  0.89231  Biso   1.000  N
  H622     1.0000 0.56637  0.86709  0.96362  Biso   1.000  H
  H623     1.0000 0.61900  0.88779  0.00771  Biso   1.000  H
  O214     1.0000 0.75981  0.84879  0.04014  Biso   1.000  O
  O215     1.0000 0.75975  0.84879  0.04014  Biso   1.000  O
  H624     1.0000 0.97234  0.71060  0.97411  Biso   1.000  H
  N385     1.0000 0.95266  0.77119  0.01232  Biso   1.000  N
  C581     1.0000 0.09222  0.75042  0.99851  Biso   1.000  C
  C582     1.0000 0.09222  0.75038  0.99851  Biso   1.000  C
  O216     1.0000 0.07353  0.82168  0.90531  Biso   1.000  O
  N386     1.0000 0.12558  0.78511  0.97063  Biso   1.000  N
  N387     1.0000 0.12551  0.78511  0.97063  Biso   1.000  N
  N388     1.0000 0.12558  0.78507  0.97063  Biso   1.000  N
  N389     1.0000 0.12551  0.78507  0.97063  Biso   1.000  N
  H625     1.0000 0.85087  0.76661  0.04212  Biso   1.000  H
  H626     1.0000 0.84398  0.72922  0.00400  Biso   1.000  H
  H627     1.0000 0.85087  0.76657  0.04212  Biso   1.000  H
  H628     1.0000 0.84398  0.72918  0.00400  Biso   1.000  H
  C583     1.0000 0.61014  0.98318  0.98702  Biso   1.000  C
  N390     1.0000 0.59073  0.02589  0.96252  Biso   1.000  N
  H629     1.0000 0.50415  0.02198  0.90591  Biso   1.000  H
  H630     1.0000 0.50415  0.02202  0.90591  Biso   1.000  H
  C584     1.0000 0.62725  0.08609  0.87913  Biso   1.000  C
  C585     1.0000 0.62724  0.08609  0.87910  Biso   1.000  C
  C586     1.0000 0.62725  0.08613  0.87913  Biso   1.000  C
  C587     1.0000 0.62724  0.08613  0.87910  Biso   1.000  C
  C588     1.0000 0.01436  0.78171  0.04881  Biso   1.000  C
  C589     1.0000 0.01436  0.78167  0.04881  Biso   1.000  C
  H631     1.0000 0.12075  0.71522  0.99992  Biso   1.000  H
  H632     1.0000 0.12075  0.71518  0.99992  Biso   1.000  H
  N391     1.0000 0.09368  0.77252  0.04030  Biso   1.000  N
  N392     1.0000 0.09368  0.77248  0.04030  Biso   1.000  N
  C590     1.0000 0.21962  0.78621  0.96912  Biso   1.000  C
  C591     1.0000 0.21962  0.78617  0.96912  Biso   1.000  C
  O217     1.0000 0.62376  0.98240  0.02523  Biso   1.000  O
  O218     1.0000 0.62375  0.98240  0.02520  Biso   1.000  O
  C592     1.0000 0.56954  0.07471  0.97910  Biso   1.000  C
  N393     1.0000 0.67678  0.12031  0.91062  Biso   1.000  N
  H633     1.0000 0.56601  0.09899  0.87181  Biso   1.000  H
  H634     1.0000 0.65271  0.08781  0.85341  Biso   1.000  H
  N394     1.0000 0.67671  0.12031  0.91062  Biso   1.000  N
  H635     1.0000 0.56601  0.09903  0.87181  Biso   1.000  H
  O219     1.0000 0.99701  0.79712  0.08159  Biso   1.000  O
  O220     1.0000 0.99700  0.79712  0.08156  Biso   1.000  O
  O221     1.0000 0.99701  0.79708  0.08159  Biso   1.000  O
  O222     1.0000 0.99700  0.79708  0.08156  Biso   1.000  O
  C593     1.0000 0.17220  0.77162  0.07293  Biso   1.000  C
  C594     1.0000 0.17220  0.77158  0.07293  Biso   1.000  C
  N395     1.0000 0.26865  0.82219  0.99873  Biso   1.000  N
  H636     1.0000 0.24424  0.75062  0.97493  Biso   1.000  H
  H637     1.0000 0.22675  0.79610  0.94042  Biso   1.000  H
  H638     1.0000 0.24424  0.75058  0.97493  Biso   1.000  H
  H639     1.0000 0.22675  0.79607  0.94042  Biso   1.000  H
  N396     1.0000 0.63333  0.11710  0.97800  Biso   1.000  N
  H640     1.0000 0.51172  0.08620  0.96312  Biso   1.000  H
  N397     1.0000 0.63333  0.11706  0.97800  Biso   1.000  N
  H641     1.0000 0.56331  0.06931  0.00862  Biso   1.000  H
  H642     1.0000 0.56325  0.06931  0.00862  Biso   1.000  H
  C595     1.0000 0.74775  0.14679  0.90170  Biso   1.000  C
  C596     1.0000 0.63615  0.14660  0.94111  Biso   1.000  C
  C597     1.0000 0.63615  0.14663  0.94111  Biso   1.000  C
  N398     1.0000 0.23430  0.81312  0.06872  Biso   1.000  N
  H643     1.0000 0.20168  0.73740  0.07220  Biso   1.000  H
  H644     1.0000 0.15488  0.77491  0.10062  Biso   1.000  H
  N399     1.0000 0.23430  0.81308  0.06872  Biso   1.000  N
  H645     1.0000 0.15488  0.77487  0.10062  Biso   1.000  H
  C598     1.0000 0.31254  0.86310  0.98733  Biso   1.000  C
  C599     1.0000 0.31252  0.86310  0.98730  Biso   1.000  C
  C600     1.0000 0.31254  0.86307  0.98733  Biso   1.000  C
  C601     1.0000 0.31252  0.86307  0.98730  Biso   1.000  C
  C602     1.0000 0.29921  0.80850  0.04272  Biso   1.000  C
  C603     1.0000 0.29915  0.80850  0.04272  Biso   1.000  C
  C604     1.0000 0.68749  0.13690  0.01270  Biso   1.000  C
  O223     1.0000 0.78623  0.13909  0.87357  Biso   1.000  O
  N400     1.0000 0.76572  0.18688  0.93131  Biso   1.000  N
  O224     1.0000 0.78621  0.13909  0.87354  Biso   1.000  O
  O225     1.0000 0.78623  0.13912  0.87357  Biso   1.000  O
  O226     1.0000 0.78621  0.13912  0.87354  Biso   1.000  O
  C605     1.0000 0.70082  0.19150  0.95731  Biso   1.000  C
  H646     1.0000 0.57683  0.16040  0.92811  Biso   1.000  H
  C606     1.0000 0.25228  0.85321  0.09833  Biso   1.000  C
  C607     1.0000 0.25228  0.85317  0.09833  Biso   1.000  C
  O227     1.0000 0.30704  0.88020  0.95172  Biso   1.000  O
  N401     1.0000 0.36669  0.88290  0.02203  Biso   1.000  N
  H647     1.0000 0.32871  0.77361  0.04592  Biso   1.000  H
  C608     1.0000 0.36388  0.85340  0.05892  Biso   1.000  C
  H648     1.0000 0.32865  0.77361  0.04592  Biso   1.000  H
  H649     1.0000 0.32871  0.77358  0.04592  Biso   1.000  H
  C609     1.0000 0.36388  0.85337  0.05892  Biso   1.000  C
  H650     1.0000 0.32865  0.77358  0.04592  Biso   1.000  H
  O228     1.0000 0.69298  0.11980  0.04831  Biso   1.000  O
  N402     1.0000 0.73138  0.17781  0.00130  Biso   1.000  N
  C610     1.0000 0.82782  0.22838  0.92711  Biso   1.000  C
  H651     1.0000 0.67131  0.22639  0.95411  Biso   1.000  H
  H652     1.0000 0.67131  0.22642  0.95411  Biso   1.000  H
  O229     1.0000 0.21380  0.86091  0.12646  Biso   1.000  O
  N403     1.0000 0.32325  0.87969  0.08941  Biso   1.000  N
  O230     1.0000 0.21380  0.86088  0.12646  Biso   1.000  O
  C611     1.0000 0.43049  0.92529  0.02093  Biso   1.000  C
  H653     1.0000 0.42320  0.83960  0.07192  Biso   1.000  H
  C612     1.0000 0.78041  0.21379  0.03091  Biso   1.000  C
  C613     1.0000 0.78034  0.21379  0.03091  Biso   1.000  C
  C614     1.0000 0.78041  0.21383  0.03091  Biso   1.000  C
  C615     1.0000 0.78034  0.21383  0.03091  Biso   1.000  C
  N404     1.0000 0.90635  0.22748  0.95973  Biso   1.000  N
  H654     1.0000 0.79835  0.26260  0.92783  Biso   1.000  H
  H655     1.0000 0.84515  0.22509  0.89941  Biso   1.000  H
  N405     1.0000 0.90633  0.22748  0.95970  Biso   1.000  N
  H656     1.0000 0.79834  0.26260  0.92780  Biso   1.000  H
  N406     1.0000 0.90635  0.22752  0.95973  Biso   1.000  N
  H657     1.0000 0.84515  0.22513  0.89941  Biso   1.000  H
  N407     1.0000 0.90633  0.22752  0.95970  Biso   1.000  N
  C616     1.0000 0.37278  0.91391  0.12090  Biso   1.000  C
  C617     1.0000 0.37278  0.91387  0.12090  Biso   1.000  C
  H658     1.0000 0.43671  0.93069  0.99141  Biso   1.000  H
  N408     1.0000 0.40929  0.97411  0.03751  Biso   1.000  N
  H659     1.0000 0.48830  0.91380  0.03691  Biso   1.000  H
  N409     1.0000 0.40929  0.97407  0.03751  Biso   1.000  N
  N410     1.0000 0.87445  0.21489  0.02941  Biso   1.000  N
  H660     1.0000 0.75579  0.24938  0.02510  Biso   1.000  H
  H661     1.0000 0.77328  0.20390  0.05961  Biso   1.000  H
  N411     1.0000 0.87445  0.21493  0.02941  Biso   1.000  N
  H662     1.0000 0.75579  0.24942  0.02510  Biso   1.000  H
  H663     1.0000 0.77328  0.20393  0.05961  Biso   1.000  H
  C618     1.0000 0.98567  0.21829  0.95122  Biso   1.000  C
  C619     1.0000 0.98567  0.21833  0.95122  Biso   1.000  C
  C620     1.0000 0.90781  0.24958  0.00152  Biso   1.000  C
  N412     1.0000 0.37387  0.96808  0.10772  Biso   1.000  N
  H664     1.0000 0.43401  0.90101  0.12822  Biso   1.000  H
  H665     1.0000 0.34731  0.91219  0.14662  Biso   1.000  H
  H666     1.0000 0.43395  0.90101  0.12822  Biso   1.000  H
  H667     1.0000 0.34725  0.91219  0.14662  Biso   1.000  H
  H668     1.0000 0.43401  0.90097  0.12822  Biso   1.000  H
  H669     1.0000 0.43395  0.90097  0.12822  Biso   1.000  H
  C621     1.0000 0.43360  0.98741  0.08213  Biso   1.000  C
  C622     1.0000 0.43360  0.98737  0.08213  Biso   1.000  C
  C623     1.0000 0.38989  0.01682  0.01301  Biso   1.000  C
  C624     1.0000 0.93851  0.20221  0.06423  Biso   1.000  C
  C625     1.0000 0.93845  0.20221  0.06423  Biso   1.000  C
  O231     1.0000 0.00302  0.20288  0.91844  Biso   1.000  O
  N413     1.0000 0.04737  0.22881  0.98771  Biso   1.000  N
  N414     1.0000 0.04730  0.22881  0.98771  Biso   1.000  N
  O232     1.0000 0.00302  0.20292  0.91844  Biso   1.000  O
  H670     1.0000 0.87928  0.28478  0.00011  Biso   1.000  H
  H671     1.0000 0.87928  0.28482  0.00011  Biso   1.000  H
  C626     1.0000 0.00768  0.25251  0.02021  Biso   1.000  C
  C627     1.0000 0.00768  0.25247  0.02021  Biso   1.000  C
  C628     1.0000 0.33298  0.00720  0.12483  Biso   1.000  C
  C629     1.0000 0.33298  0.00724  0.12483  Biso   1.000  C
  H672     1.0000 0.49587  0.97802  0.09412  Biso   1.000  H
  H673     1.0000 0.49587  0.97798  0.09412  Biso   1.000  H
  C630     1.0000 0.41817  0.04670  0.08222  Biso   1.000  C
  O233     1.0000 0.37627  0.01760  0.97480  Biso   1.000  O
  O234     1.0000 0.37620  0.01760  0.97480  Biso   1.000  O
  N415     1.0000 0.38828  0.05941  0.03892  Biso   1.000  N
  O235     1.0000 0.92650  0.17832  0.09472  Biso   1.000  O
  N416     1.0000 0.01646  0.22240  0.05823  Biso   1.000  N
  N417     1.0000 0.01644  0.22240  0.05820  Biso   1.000  N
  C631     1.0000 0.13967  0.23491  0.98651  Biso   1.000  C
  C632     1.0000 0.13967  0.23487  0.98651  Biso   1.000  C
  H674     1.0000 0.02768  0.28940  0.02592  Biso   1.000  H
  O236     1.0000 0.28618  0.00149  0.15036  Biso   1.000  O
  N418     1.0000 0.35460  0.05288  0.10882  Biso   1.000  N
  O237     1.0000 0.28618  0.00153  0.15036  Biso   1.000  O
  N419     1.0000 0.35460  0.05292  0.10882  Biso   1.000  N
  H675     1.0000 0.47376  0.06571  0.09393  Biso   1.000  H
  H676     1.0000 0.47375  0.06571  0.09390  Biso   1.000  H
  C633     1.0000 0.38105  0.11311  0.02281  Biso   1.000  C
  C634     1.0000 0.09297  0.22349  0.09082  Biso   1.000  C
  H677     1.0000 0.14916  0.23339  0.95791  Biso   1.000  H
  H678     1.0000 0.15604  0.27078  0.99603  Biso   1.000  H
  H679     1.0000 0.14916  0.23343  0.95791  Biso   1.000  H
  H680     1.0000 0.15604  0.27082  0.99603  Biso   1.000  H
  N420     1.0000 0.19506  0.19811  0.01270  Biso   1.000  N
  C635     1.0000 0.34047  0.10361  0.12841  Biso   1.000  C
  H681     1.0000 0.38103  0.11221  0.99232  Biso   1.000  H
  H682     1.0000 0.38103  0.11218  0.99232  Biso   1.000  H
  N421     1.0000 0.30518  0.14061  0.02931  Biso   1.000  N
  H683     1.0000 0.43366  0.13291  0.03641  Biso   1.000  H
  H684     1.0000 0.43366  0.13287  0.03641  Biso   1.000  H
  N422     1.0000 0.16386  0.19009  0.08332  Biso   1.000  N
  H685     1.0000 0.11500  0.25908  0.09403  Biso   1.000  H
  H686     1.0000 0.07648  0.21391  0.11692  Biso   1.000  H
  H687     1.0000 0.11500  0.25912  0.09403  Biso   1.000  H
  C636     1.0000 0.24623  0.16291  0.99681  Biso   1.000  C
  C637     1.0000 0.22529  0.20749  0.05732  Biso   1.000  C
  C638     1.0000 0.22529  0.20753  0.05732  Biso   1.000  C
  N423     1.0000 0.27799  0.13639  0.10140  Biso   1.000  N
  H688     1.0000 0.31928  0.09712  0.15482  Biso   1.000  H
  H689     1.0000 0.39718  0.12238  0.13550  Biso   1.000  H
  N424     1.0000 0.27799  0.13643  0.10140  Biso   1.000  N
  H690     1.0000 0.39718  0.12242  0.13550  Biso   1.000  H
  C639     1.0000 0.30379  0.16928  0.06881  Biso   1.000  C
  C640     1.0000 0.20166  0.15281  0.11142  Biso   1.000  C
  O238     1.0000 0.24021  0.15121  0.95989  Biso   1.000  O
  H691     1.0000 0.24347  0.24469  0.06313  Biso   1.000  H
  H692     1.0000 0.24347  0.24473  0.06313  Biso   1.000  H
  H693     1.0000 0.36019  0.18809  0.07933  Biso   1.000  H
  H694     1.0000 0.36018  0.18809  0.07930  Biso   1.000  H
  H695     1.0000 0.36019  0.18813  0.07933  Biso   1.000  H
  H696     1.0000 0.36018  0.18813  0.07930  Biso   1.000  H
  O239     1.0000 0.17047  0.13760  0.14135  Biso   1.000  O
  O240     1.0000 0.17047  0.13756  0.14135  Biso   1.000  O
  O241     1.0000 0.63121  0.64489  0.75400  Biso   1.000  O
  C641     1.0000 0.61245  0.62197  0.71921  Biso   1.000  C
  N425     1.0000 0.64774  0.57641  0.70982  Biso   1.000  N
  N426     1.0000 0.55352  0.63950  0.68561  Biso   1.000  N
  C642     1.0000 0.61352  0.56088  0.66652  Biso   1.000  C
  C643     1.0000 0.72251  0.55227  0.73500  Biso   1.000  C
  C644     1.0000 0.54785  0.60629  0.64941  Biso   1.000  C
  C645     1.0000 0.51562  0.69199  0.68300  Biso   1.000  C
  N427     1.0000 0.55593  0.51469  0.66250  Biso   1.000  N
  H697     1.0000 0.66115  0.55720  0.64982  Biso   1.000  H
  N428     1.0000 0.70614  0.50499  0.75560  Biso   1.000  N
  H698     1.0000 0.74984  0.57770  0.75661  Biso   1.000  H
  H699     1.0000 0.76565  0.54480  0.71692  Biso   1.000  H
  N429     1.0000 0.46533  0.57930  0.63770  Biso   1.000  N
  H700     1.0000 0.56479  0.62491  0.62510  Biso   1.000  H
  N430     1.0000 0.42325  0.69218  0.68451  Biso   1.000  N
  H701     1.0000 0.54765  0.71330  0.70652  Biso   1.000  H
  H702     1.0000 0.52404  0.70849  0.65641  Biso   1.000  H
  C646     1.0000 0.47322  0.52658  0.64372  Biso   1.000  C
  C647     1.0000 0.59066  0.46239  0.66542  Biso   1.000  C
  C648     1.0000 0.70083  0.45430  0.73510  Biso   1.000  C
  C649     1.0000 0.71884  0.50029  0.79812  Biso   1.000  C
  C650     1.0000 0.39005  0.60250  0.61091  Biso   1.000  C
  C651     1.0000 0.35532  0.68557  0.64711  Biso   1.000  C
  C652     1.0000 0.39145  0.71408  0.71660  Biso   1.000  C
  O242     1.0000 0.41359  0.49407  0.63399  Biso   1.000  O
  N431     1.0000 0.61624  0.44358  0.70822  Biso   1.000  N
  H703     1.0000 0.64245  0.46138  0.65170  Biso   1.000  H
  H704     1.0000 0.54582  0.43849  0.64982  Biso   1.000  H
  C653     1.0000 0.70331  0.41499  0.77139  Biso   1.000  C
  H705     1.0000 0.75052  0.44870  0.71999  Biso   1.000  H
  N432     1.0000 0.71536  0.44808  0.80791  Biso   1.000  N
  O243     1.0000 0.73466  0.53589  0.82346  Biso   1.000  O
  N433     1.0000 0.33601  0.63210  0.63477  Biso   1.000  N
  H706     1.0000 0.35405  0.57461  0.59502  Biso   1.000  H
  H707     1.0000 0.41023  0.62600  0.59050  Biso   1.000  H
  H708     1.0000 0.36684  0.70747  0.62309  Biso   1.000  H
  C654     1.0000 0.26995  0.70309  0.66241  Biso   1.000  C
  N434     1.0000 0.30201  0.71819  0.70611  Biso   1.000  N
  O244     1.0000 0.43522  0.72770  0.75045  Biso   1.000  O
  C655     1.0000 0.57080  0.40541  0.72461  Biso   1.000  C
  N435     1.0000 0.61846  0.38980  0.76172  Biso   1.000  N
  H709     1.0000 0.75233  0.38917  0.77281  Biso   1.000  H
  C656     1.0000 0.74273  0.42829  0.85102  Biso   1.000  C
  C657     1.0000 0.25654  0.61708  0.63920  Biso   1.000  C
  N436     1.0000 0.21683  0.65659  0.65701  Biso   1.000  N
  H710     1.0000 0.24029  0.73278  0.64529  Biso   1.000  H
  C658     1.0000 0.25263  0.75198  0.72841  Biso   1.000  C
  O245     1.0000 0.49825  0.38827  0.70721  Biso   1.000  O
  C659     1.0000 0.59804  0.34290  0.78251  Biso   1.000  C
  N437     1.0000 0.66881  0.40889  0.86820  Biso   1.000  N
  H711     1.0000 0.78571  0.39969  0.85102  Biso   1.000  H
  H712     1.0000 0.77226  0.45668  0.86911  Biso   1.000  H
  O246     1.0000 0.22056  0.57500  0.62834  Biso   1.000  O
  C660     1.0000 0.12422  0.65678  0.65710  Biso   1.000  C
  N438     1.0000 0.18495  0.72668  0.74540  Biso   1.000  N
  H713     1.0000 0.29372  0.76880  0.75171  Biso   1.000  H
  H714     1.0000 0.22550  0.77999  0.70910  Biso   1.000  H
  N439     1.0000 0.57105  0.35268  0.82211  Biso   1.000  N
  H715     1.0000 0.55031  0.32401  0.76370  Biso   1.000  H
  H716     1.0000 0.65033  0.31998  0.78760  Biso   1.000  H
  C661     1.0000 0.63193  0.35780  0.86120  Biso   1.000  C
  C662     1.0000 0.63794  0.43490  0.89973  Biso   1.000  C
  N440     1.0000 0.10561  0.66050  0.69962  Biso   1.000  N
  H717     1.0000 0.09773  0.62428  0.64372  Biso   1.000  H
  H718     1.0000 0.09664  0.68671  0.64021  Biso   1.000  H
  C663     1.0000 0.10469  0.71240  0.71889  Biso   1.000  C
  C664     1.0000 0.17365  0.73540  0.78540  Biso   1.000  C
  C665     1.0000 0.48864  0.33739  0.82710  Biso   1.000  C
  H719     1.0000 0.67790  0.32988  0.86500  Biso   1.000  H
  C666     1.0000 0.57174  0.35378  0.89401  Biso   1.000  C
  N441     1.0000 0.57631  0.40361  0.91250  Biso   1.000  N
  O247     1.0000 0.66225  0.47890  0.91376  Biso   1.000  O
  C667     1.0000 0.04661  0.62698  0.71271  Biso   1.000  C
  H720     1.0000 0.08392  0.73990  0.69742  Biso   1.000  H
  C668     1.0000 0.04174  0.70528  0.74882  Biso   1.000  C
  N442     1.0000 0.09261  0.71827  0.78851  Biso   1.000  N
  O248     1.0000 0.23012  0.75269  0.81382  Biso   1.000  O
  O249     1.0000 0.42730  0.32401  0.79925  Biso   1.000  O
  N443     1.0000 0.48705  0.34161  0.86930  Biso   1.000  N
  H721     1.0000 0.59221  0.32601  0.91521  Biso   1.000  H
  C669     1.0000 0.54484  0.41518  0.95122  Biso   1.000  C
  O250     1.0000 0.02846  0.58368  0.69858  Biso   1.000  O
  N444     1.0000 0.01463  0.65170  0.74452  Biso   1.000  N
  H722     1.0000 0.99013  0.72930  0.74141  Biso   1.000  H
  C670     1.0000 0.05354  0.73047  0.82672  Biso   1.000  C
  C671     1.0000 0.41994  0.31498  0.88610  Biso   1.000  C
  N445     1.0000 0.45082  0.41820  0.94522  Biso   1.000  N
  H723     1.0000 0.56582  0.38769  0.97223  Biso   1.000  H
  H724     1.0000 0.57013  0.44890  0.96271  Biso   1.000  H
  C672     1.0000 0.93326  0.63320  0.75642  Biso   1.000  C
  N446     1.0000 0.02904  0.68440  0.84631  Biso   1.000  N
  H725     1.0000 0.09686  0.75030  0.84722  Biso   1.000  H
  H726     1.0000 0.00116  0.75288  0.81821  Biso   1.000  H
  N447     1.0000 0.36512  0.35041  0.90560  Biso   1.000  N
  H727     1.0000 0.44791  0.28920  0.90720  Biso   1.000  H
  H728     1.0000 0.38191  0.29550  0.86321  Biso   1.000  H
  C673     1.0000 0.39465  0.37259  0.94573  Biso   1.000  C
  C674     1.0000 0.40943  0.46349  0.95480  Biso   1.000  C
  N448     1.0000 0.94723  0.61920  0.80000  Biso   1.000  N
  H729     1.0000 0.88823  0.66109  0.75080  Biso   1.000  H
  H730     1.0000 0.91093  0.60250  0.73912  Biso   1.000  H
  C675     1.0000 0.94831  0.65628  0.83410  Biso   1.000  C
  C676     1.0000 0.06903  0.67368  0.88732  Biso   1.000  C
  C677     1.0000 0.27560  0.35350  0.89200  Biso   1.000  C
  C678     1.0000 0.30934  0.39590  0.95681  Biso   1.000  C
  H731     1.0000 0.42225  0.34588  0.96670  Biso   1.000  H
  N449     1.0000 0.32750  0.45109  0.95970  Biso   1.000  N
  O251     1.0000 0.44355  0.50659  0.95844  Biso   1.000  O
  C679     1.0000 0.94336  0.56690  0.81190  Biso   1.000  C
  H732     1.0000 0.89675  0.68037  0.82842  Biso   1.000  H
  C680     1.0000 0.94395  0.61881  0.87212  Biso   1.000  C
  N450     1.0000 0.02133  0.63527  0.90302  Biso   1.000  N
  O252     1.0000 0.13291  0.69437  0.90720  Biso   1.000  O
  O253     1.0000 0.23353  0.33391  0.85950  Biso   1.000  O
  N451     1.0000 0.24301  0.38100  0.92101  Biso   1.000  N
  H733     1.0000 0.29685  0.38139  0.98372  Biso   1.000  H
  C681     1.0000 0.28075  0.48641  0.98341  Biso   1.000  C
  O254     1.0000 0.93882  0.52908  0.78979  Biso   1.000  O
  N452     1.0000 0.95062  0.56639  0.85482  Biso   1.000  N
  H734     1.0000 0.88833  0.62350  0.88302  Biso   1.000  H
  C682     1.0000 0.04885  0.61137  0.94281  Biso   1.000  C
  C683     1.0000 0.15014  0.38088  0.92302  Biso   1.000  C
  N453     1.0000 0.19691  0.50331  0.95923  Biso   1.000  N
  H735     1.0000 0.31776  0.51739  0.99232  Biso   1.000  H
  H736     1.0000 0.27068  0.46830  0.00912  Biso   1.000  H
  C684     1.0000 0.92963  0.51887  0.87611  Biso   1.000  C
  N454     1.0000 0.09091  0.56170  0.94180  Biso   1.000  N
  H737     1.0000 0.08981  0.63539  0.96080  Biso   1.000  H
  H738     1.0000 0.99693  0.60680  0.95602  Biso   1.000  H
  N455     1.0000 0.10953  0.43630  0.91991  Biso   1.000  N
  H739     1.0000 0.14256  0.36481  0.94981  Biso   1.000  H
  H740     1.0000 0.11804  0.35917  0.89982  Biso   1.000  H
  C685     1.0000 0.11704  0.47198  0.95430  Biso   1.000  C
  C686     1.0000 0.17972  0.55368  0.95442  Biso   1.000  C
  N456     1.0000 0.00536  0.49317  0.90032  Biso   1.000  N
  H741     1.0000 0.88871  0.52791  0.89492  Biso   1.000  H
  H742     1.0000 0.89915  0.49407  0.85470  Biso   1.000  H
  C687     1.0000 0.04706  0.51097  0.94202  Biso   1.000  C
  C688     1.0000 0.04216  0.44839  0.89021  Biso   1.000  C
  H743     1.0000 0.11166  0.45379  0.98092  Biso   1.000  H
  O255     1.0000 0.23297  0.59068  0.96143  Biso   1.000  O
  H744     1.0000 0.00481  0.51097  0.96171  Biso   1.000  H
  O256     1.0000 0.01553  0.42379  0.85652  Biso   1.000  O
  O257     1.0000 0.71384  0.63911  0.62645  Biso   1.000  O
  C689     1.0000 0.75232  0.64677  0.59832  Biso   1.000  C
  N457     1.0000 0.82329  0.62029  0.58940  Biso   1.000  N
  N458     1.0000 0.73434  0.68690  0.56871  Biso   1.000  N
  C690     1.0000 0.87282  0.58611  0.62090  Biso   1.000  C
  C691     1.0000 0.86392  0.64658  0.55891  Biso   1.000  C
  C692     1.0000 0.67224  0.72840  0.57292  Biso   1.000  C
  C693     1.0000 0.79925  0.69148  0.54271  Biso   1.000  C
  N459     1.0000 0.87392  0.53190  0.60771  Biso   1.000  N
  H745     1.0000 0.93405  0.59898  0.62821  Biso   1.000  H
  H746     1.0000 0.84735  0.58779  0.64661  Biso   1.000  H
  N460     1.0000 0.86674  0.61708  0.52202  Biso   1.000  N
  H747     1.0000 0.92324  0.66038  0.57191  Biso   1.000  H
  N461     1.0000 0.59372  0.72750  0.54029  Biso   1.000  N
  H748     1.0000 0.70172  0.76258  0.57220  Biso   1.000  H
  H749     1.0000 0.65492  0.72508  0.60061  Biso   1.000  H
  N462     1.0000 0.76863  0.67779  0.49872  Biso   1.000  N
  H750     1.0000 0.82875  0.72641  0.54591  Biso   1.000  H
  C694     1.0000 0.93364  0.51257  0.58212  Biso   1.000  C
  C695     1.0000 0.83303  0.49278  0.62482  Biso   1.000  C
  C696     1.0000 0.93053  0.57469  0.52092  Biso   1.000  C
  C697     1.0000 0.81250  0.63688  0.48729  Biso   1.000  C
  C698     1.0000 0.59220  0.74960  0.49850  Biso   1.000  C
  C699     1.0000 0.51440  0.71827  0.54880  Biso   1.000  C
  C700     1.0000 0.71960  0.71377  0.46911  Biso   1.000  C
  C701     1.0000 0.91822  0.45328  0.58221  Biso   1.000  C
  N463     1.0000 0.90934  0.52587  0.53750  Biso   1.000  N
  H751     1.0000 0.99591  0.52200  0.59411  Biso   1.000  H
  N464     1.0000 0.85464  0.44710  0.60881  Biso   1.000  N
  O258     1.0000 0.78623  0.49849  0.65035  Biso   1.000  O
  H752     1.0000 0.98834  0.58619  0.53690  Biso   1.000  H
  H753     1.0000 0.93669  0.56929  0.49140  Biso   1.000  H
  O259     1.0000 0.80702  0.61978  0.45172  Biso   1.000  O
  C702     1.0000 0.49233  0.75249  0.47982  Biso   1.000  C
  N465     1.0000 0.62549  0.71487  0.47062  Biso   1.000  N
  H754     1.0000 0.62072  0.78480  0.49991  Biso   1.000  H
  N466     1.0000 0.45270  0.72879  0.51232  Biso   1.000  N
  O260     1.0000 0.49704  0.70290  0.58155  Biso   1.000  O
  H755     1.0000 0.74422  0.74940  0.47492  Biso   1.000  H
  H756     1.0000 0.72673  0.70388  0.44041  Biso   1.000  H
  N467     1.0000 0.88832  0.44061  0.53891  Biso   1.000  N
  H757     1.0000 0.97379  0.43431  0.59389  Biso   1.000  H
  C703     1.0000 0.88993  0.48320  0.51301  Biso   1.000  C
  C704     1.0000 0.84052  0.39641  0.62840  Biso   1.000  C
  N468     1.0000 0.48348  0.72238  0.44179  Biso   1.000  N
  H758     1.0000 0.47232  0.78938  0.47410  Biso   1.000  H
  C705     1.0000 0.56149  0.70219  0.43580  Biso   1.000  C
  C706     1.0000 0.36040  0.73489  0.51351  Biso   1.000  C
  C707     1.0000 0.88110  0.38690  0.52280  Biso   1.000  C
  O261     1.0000 0.87624  0.48238  0.47479  Biso   1.000  O
  N469     1.0000 0.77803  0.36359  0.60140  Biso   1.000  N
  H759     1.0000 0.81932  0.40290  0.65481  Biso   1.000  H
  H760     1.0000 0.89722  0.37760  0.63550  Biso   1.000  H
  C708     1.0000 0.40704  0.72347  0.40920  Biso   1.000  C
  O262     1.0000 0.57351  0.67830  0.40531  Biso   1.000  O
  N470     1.0000 0.30493  0.69809  0.48729  Biso   1.000  N
  H761     1.0000 0.35091  0.73337  0.54211  Biso   1.000  H
  H762     1.0000 0.34403  0.77080  0.50400  Biso   1.000  H
  N471     1.0000 0.80522  0.35941  0.52930  Biso   1.000  N
  H763     1.0000 0.93370  0.36707  0.53640  Biso   1.000  H
  H764     1.0000 0.88100  0.38780  0.49231  Biso   1.000  H
  C709     1.0000 0.80384  0.33070  0.56880  Biso   1.000  C
  C710     1.0000 0.70170  0.34721  0.61141  Biso   1.000  C
  N472     1.0000 0.33614  0.69007  0.41670  Biso   1.000  N
  H765     1.0000 0.38501  0.75910  0.40600  Biso   1.000  H
  H766     1.0000 0.42352  0.71389  0.38311  Biso   1.000  H
  C711     1.0000 0.27471  0.70747  0.44270  Biso   1.000  C
  C712     1.0000 0.25383  0.66289  0.50321  Biso   1.000  C
  C713     1.0000 0.74621  0.33708  0.49680  Biso   1.000  C
  C714     1.0000 0.72533  0.29249  0.55731  Biso   1.000  C
  H767     1.0000 0.86022  0.31189  0.57929  Biso   1.000  H
  N473     1.0000 0.66390  0.30989  0.58331  Biso   1.000  N
  O263     1.0000 0.67051  0.36238  0.64134  Biso   1.000  O
  C715     1.0000 0.29835  0.65279  0.38860  Biso   1.000  C
  C716     1.0000 0.19621  0.66930  0.43121  Biso   1.000  C
  H768     1.0000 0.25654  0.74467  0.43689  Biso   1.000  H
  N474     1.0000 0.19482  0.64059  0.47071  Biso   1.000  N
  O264     1.0000 0.25979  0.65119  0.54014  Biso   1.000  O
  N475     1.0000 0.69510  0.30191  0.51269  Biso   1.000  N
  O265     1.0000 0.74019  0.34881  0.45988  Biso   1.000  O
  H769     1.0000 0.74351  0.25529  0.56312  Biso   1.000  H
  C717     1.0000 0.59301  0.27649  0.59082  Biso   1.000  C
  N476     1.0000 0.22201  0.63641  0.39862  Biso   1.000  N
  O266     1.0000 0.32953  0.63758  0.35868  Biso   1.000  O
  H770     1.0000 0.13981  0.68807  0.42069  Biso   1.000  H
  C718     1.0000 0.11895  0.61310  0.47721  Biso   1.000  C
  C719     1.0000 0.63965  0.26511  0.48651  Biso   1.000  C
  N477     1.0000 0.51650  0.27758  0.55822  Biso   1.000  N
  H771     1.0000 0.61504  0.24090  0.59402  Biso   1.000  H
  H772     1.0000 0.57652  0.28611  0.61691  Biso   1.000  H
  C720     1.0000 0.15953  0.60359  0.37161  Biso   1.000  C
  N478     1.0000 0.11173  0.55939  0.46110  Biso   1.000  N
  H773     1.0000 0.06634  0.63289  0.46362  Biso   1.000  H
  H774     1.0000 0.11904  0.61220  0.50770  Biso   1.000  H
  N479     1.0000 0.54735  0.27121  0.48770  Biso   1.000  N
  H775     1.0000 0.64913  0.26659  0.45790  Biso   1.000  H
  H776     1.0000 0.65602  0.22920  0.49602  Biso   1.000  H
  C721     1.0000 0.50772  0.24751  0.52020  Biso   1.000  C
  C722     1.0000 0.43856  0.29781  0.56422  Biso   1.000  C
  N480     1.0000 0.14540  0.55290  0.39121  Biso   1.000  N
  H777     1.0000 0.18072  0.59710  0.34521  Biso   1.000  H
  H778     1.0000 0.10283  0.62240  0.36452  Biso   1.000  H
  C723     1.0000 0.08183  0.54668  0.41780  Biso   1.000  C
  C724     1.0000 0.11011  0.51680  0.48701  Biso   1.000  C
  C725     1.0000 0.48564  0.28169  0.45121  Biso   1.000  C
  C726     1.0000 0.40785  0.25040  0.50151  Biso   1.000  C
  H779     1.0000 0.52772  0.21058  0.52591  Biso   1.000  H
  N481     1.0000 0.37449  0.28509  0.52940  Biso   1.000  N
  O267     1.0000 0.42654  0.32170  0.59471  Biso   1.000  O
  C727     1.0000 0.16702  0.50718  0.37519  Biso   1.000  C
  C728     1.0000 0.06640  0.48739  0.41790  Biso   1.000  C
  H780     1.0000 0.02624  0.56569  0.40609  Biso   1.000  H
  N482     1.0000 0.09071  0.47409  0.46252  Biso   1.000  N
  O268     1.0000 0.12380  0.51758  0.52522  Biso   1.000  O
  N483     1.0000 0.40631  0.27250  0.45969  Biso   1.000  N
  O269     1.0000 0.50299  0.29710  0.41843  Biso   1.000  O
  H781     1.0000 0.37932  0.21520  0.50010  Biso   1.000  H
  C729     1.0000 0.28045  0.28619  0.53090  Biso   1.000  C
  N484     1.0000 0.12613  0.46810  0.39231  Biso   1.000  N
  O270     1.0000 0.21382  0.50151  0.34967  Biso   1.000  O
  H782     1.0000 0.00413  0.47800  0.40590  Biso   1.000  H
  C730     1.0000 0.06951  0.42527  0.47910  Biso   1.000  C
  C731     1.0000 0.32780  0.27160  0.42710  Biso   1.000  C
  N485     1.0000 0.23142  0.32221  0.50130  Biso   1.000  N
  H783     1.0000 0.25583  0.25060  0.52510  Biso   1.000  H
  H784     1.0000 0.27332  0.29608  0.55960  Biso   1.000  H
  C732     1.0000 0.12723  0.41389  0.37912  Biso   1.000  C
  N486     1.0000 0.13331  0.38288  0.47800  Biso   1.000  N
  H785     1.0000 0.01170  0.41378  0.46311  Biso   1.000  H
  H786     1.0000 0.06329  0.43067  0.50861  Biso   1.000  H
  N487     1.0000 0.26570  0.31310  0.43131  Biso   1.000  N
  H787     1.0000 0.29833  0.23738  0.42782  Biso   1.000  H
  H788     1.0000 0.34513  0.27489  0.39940  Biso   1.000  H
  C733     1.0000 0.20079  0.30848  0.45730  Biso   1.000  C
  C734     1.0000 0.18753  0.36309  0.51269  Biso   1.000  C
  N488     1.0000 0.17669  0.37971  0.41061  Biso   1.000  N
  H789     1.0000 0.06599  0.40099  0.37180  Biso   1.000  H
  H790     1.0000 0.15269  0.41221  0.35340  Biso   1.000  H
  C735     1.0000 0.13613  0.35339  0.44110  Biso   1.000  C
  C736     1.0000 0.24773  0.35319  0.40170  Biso   1.000  C
  H791     1.0000 0.17129  0.27359  0.45410  Biso   1.000  H
  O271     1.0000 0.19302  0.38018  0.54830  Biso   1.000  O
  H792     1.0000 0.07680  0.33958  0.42810  Biso   1.000  H
  O272     1.0000 0.28619  0.36089  0.37353  Biso   1.000  O
  O273     1.0000 0.73295  0.90930  0.46142  Biso   1.000  O
  C737     1.0000 0.67970  0.94630  0.45442  Biso   1.000  C
  N489     1.0000 0.59089  0.93828  0.44179  Biso   1.000  N
  N490     1.0000 0.69695  0.99668  0.45922  Biso   1.000  N
  C738     1.0000 0.54883  0.88857  0.44280  Biso   1.000  C
  C739     1.0000 0.54703  0.98897  0.44201  Biso   1.000  C
  C740     1.0000 0.61703  0.02800  0.45432  Biso   1.000  C
  C741     1.0000 0.78073  0.01361  0.48340  Biso   1.000  C
  N491     1.0000 0.52130  0.86467  0.40301  Biso   1.000  N
  H793     1.0000 0.58980  0.86459  0.46082  Biso   1.000  H
  H794     1.0000 0.49691  0.89318  0.45602  Biso   1.000  H
  N492     1.0000 0.50534  0.00681  0.40031  Biso   1.000  N
  H795     1.0000 0.50479  0.98897  0.46170  Biso   1.000  H
  N493     1.0000 0.60951  0.06371  0.41991  Biso   1.000  N
  H796     1.0000 0.61164  0.04623  0.48092  Biso   1.000  H
  H797     1.0000 0.81773  0.98259  0.49231  Biso   1.000  H
  N494     1.0000 0.82748  0.04893  0.45969  Biso   1.000  N
  H798     1.0000 0.77073  0.03168  0.50911  Biso   1.000  H
  C742     1.0000 0.56901  0.82630  0.38731  Biso   1.000  C
  C743     1.0000 0.44393  0.88117  0.37212  Biso   1.000  C
  C744     1.0000 0.42961  0.98107  0.37610  Biso   1.000  C
  C745     1.0000 0.54214  0.05159  0.39020  Biso   1.000  C
  C746     1.0000 0.65012  0.11910  0.42302  Biso   1.000  C
  C747     1.0000 0.90941  0.03653  0.45479  Biso   1.000  C
  C748     1.0000 0.80932  0.10412  0.45680  Biso   1.000  C
  N495     1.0000 0.52901  0.81558  0.34631  Biso   1.000  N
  O274     1.0000 0.63289  0.80557  0.40719  Biso   1.000  O
  C749     1.0000 0.44829  0.84367  0.33409  Biso   1.000  C
  N496     1.0000 0.45060  0.93359  0.35482  Biso   1.000  N
  H799     1.0000 0.38831  0.87648  0.38301  Biso   1.000  H
  H800     1.0000 0.38869  0.97207  0.39491  Biso   1.000  H
  H801     1.0000 0.39913  0.00591  0.35469  Biso   1.000  H
  O275     1.0000 0.51551  0.07623  0.35651  Biso   1.000  O
  N497     1.0000 0.74299  0.11902  0.42101  Biso   1.000  N
  H802     1.0000 0.64254  0.13521  0.44980  Biso   1.000  H
  H803     1.0000 0.61802  0.14081  0.39981  Biso   1.000  H
  O276     1.0000 0.94353  0.99339  0.45843  Biso   1.000  O
  N498     1.0000 0.95080  0.08179  0.44522  Biso   1.000  N
  H804     1.0000 0.79683  0.11863  0.48371  Biso   1.000  H
  C750     1.0000 0.89463  0.12743  0.44572  Biso   1.000  C
  C751     1.0000 0.55351  0.76947  0.32671  Biso   1.000  C
  N499     1.0000 0.44720  0.88078  0.29999  Biso   1.000  N
  H805     1.0000 0.39673  0.81957  0.32841  Biso   1.000  H
  C752     1.0000 0.44333  0.93308  0.31189  Biso   1.000  C
  C753     1.0000 0.77564  0.14648  0.39199  Biso   1.000  C
  C754     1.0000 0.04482  0.08484  0.45121  Biso   1.000  C
  N500     1.0000 0.86511  0.14957  0.40562  Biso   1.000  N
  H806     1.0000 0.92222  0.15410  0.46669  Biso   1.000  H
  N501     1.0000 0.59259  0.78167  0.28850  Biso   1.000  N
  H807     1.0000 0.59683  0.74968  0.34722  Biso   1.000  H
  H808     1.0000 0.50114  0.74710  0.31820  Biso   1.000  H
  C755     1.0000 0.43323  0.86678  0.25641  Biso   1.000  C
  O277     1.0000 0.43881  0.97090  0.28982  Biso   1.000  O
  O278     1.0000 0.73351  0.16611  0.35949  Biso   1.000  O
  N502     1.0000 0.07629  0.09641  0.41250  Biso   1.000  N
  H809     1.0000 0.06579  0.11229  0.47222  Biso   1.000  H
  H810     1.0000 0.07010  0.05112  0.46270  Biso   1.000  H
  C756     1.0000 0.91992  0.18496  0.38609  Biso   1.000  C
  C757     1.0000 0.67362  0.76458  0.28539  Biso   1.000  C
  C758     1.0000 0.54172  0.79470  0.24881  Biso   1.000  C
  N503     1.0000 0.51461  0.84828  0.24451  Biso   1.000  N
  H811     1.0000 0.38820  0.83889  0.25079  Biso   1.000  H
  H812     1.0000 0.41091  0.89749  0.23911  Biso   1.000  H
  C759     1.0000 0.13792  0.06512  0.39972  Biso   1.000  C
  C760     1.0000 0.07172  0.14620  0.39400  Biso   1.000  C
  N504     1.0000 0.98703  0.15837  0.36929  Biso   1.000  N
  H813     1.0000 0.94788  0.21082  0.40719  Biso   1.000  H
  H814     1.0000 0.88189  0.20452  0.36320  Biso   1.000  H
  O279     1.0000 0.73010  0.74729  0.31381  Biso   1.000  O
  N505     1.0000 0.68493  0.77330  0.24539  Biso   1.000  N
  C761     1.0000 0.60468  0.78758  0.21892  Biso   1.000  C
  H815     1.0000 0.49011  0.77068  0.24140  Biso   1.000  H
  C762     1.0000 0.54659  0.87300  0.21270  Biso   1.000  C
  O280     1.0000 0.16223  0.02112  0.41375  Biso   1.000  O
  N506     1.0000 0.16879  0.09113  0.36819  Biso   1.000  N
  C763     1.0000 0.13190  0.14221  0.36119  Biso   1.000  C
  H816     1.0000 0.09219  0.17401  0.41520  Biso   1.000  H
  C764     1.0000 0.98862  0.16263  0.32709  Biso   1.000  C
  C765     1.0000 0.75261  0.74800  0.22840  Biso   1.000  C
  N507     1.0000 0.60558  0.83948  0.19961  Biso   1.000  N
  H817     1.0000 0.58389  0.76008  0.19741  Biso   1.000  H
  O281     1.0000 0.52844  0.91630  0.19857  Biso   1.000  O
  C766     1.0000 0.24271  0.07173  0.35102  Biso   1.000  C
  N508     1.0000 0.07103  0.14730  0.32210  Biso   1.000  N
  H818     1.0000 0.17788  0.17006  0.36499  Biso   1.000  H
  O282     1.0000 0.92728  0.17597  0.29924  Biso   1.000  O
  N509     1.0000 0.80199  0.78179  0.20611  Biso   1.000  N
  H819     1.0000 0.79370  0.73118  0.25170  Biso   1.000  H
  H820     1.0000 0.72548  0.71999  0.20909  Biso   1.000  H
  C767     1.0000 0.62419  0.84320  0.15709  Biso   1.000  C
  N510     1.0000 0.21533  0.05190  0.30790  Biso   1.000  N
  H821     1.0000 0.28575  0.10032  0.35102  Biso   1.000  H
  H822     1.0000 0.27224  0.04334  0.36910  Biso   1.000  H
  C768     1.0000 0.09802  0.15712  0.28250  Biso   1.000  C
  C769     1.0000 0.89143  0.78590  0.21659  Biso   1.000  C
  C770     1.0000 0.76993  0.79689  0.16240  Biso   1.000  C
  N511     1.0000 0.71680  0.84339  0.15700  Biso   1.000  N
  H823     1.0000 0.59771  0.87570  0.14372  Biso   1.000  H
  H824     1.0000 0.59662  0.81327  0.14020  Biso   1.000  H
  C771     1.0000 0.21882  0.99969  0.29811  Biso   1.000  C
  C772     1.0000 0.20330  0.08499  0.27142  Biso   1.000  C
  N512     1.0000 0.11843  0.11018  0.26172  Biso   1.000  N
  H825     1.0000 0.05029  0.17597  0.26369  Biso   1.000  H
  H826     1.0000 0.15031  0.17996  0.28759  Biso   1.000  H
  O283     1.0000 0.93519  0.77228  0.25044  Biso   1.000  O
  N513     1.0000 0.92323  0.80780  0.18450  Biso   1.000  N
  C773     1.0000 0.85530  0.81437  0.14711  Biso   1.000  C
  H827     1.0000 0.74028  0.76720  0.14532  Biso   1.000  H
  C774     1.0000 0.75652  0.88290  0.13919  Biso   1.000  C
  N514     1.0000 0.20612  0.99499  0.25559  Biso   1.000  N
  O284     1.0000 0.23464  0.96409  0.32345  Biso   1.000  O
  C775     1.0000 0.20081  0.04568  0.23509  Biso   1.000  C
  H828     1.0000 0.25231  0.11081  0.27280  Biso   1.000  H
  C776     1.0000 0.07078  0.09458  0.22460  Biso   1.000  C
  C777     1.0000 0.01560  0.80799  0.18300  Biso   1.000  C
  N515     1.0000 0.83599  0.86788  0.13477  Biso   1.000  N
  H829     1.0000 0.86681  0.79247  0.12309  Biso   1.000  H
  O285     1.0000 0.72053  0.92498  0.12833  Biso   1.000  O
  C778     1.0000 0.22248  0.94767  0.23499  Biso   1.000  C
  N516     1.0000 0.11621  0.05636  0.20821  Biso   1.000  N
  H830     1.0000 0.25051  0.05128  0.22002  Biso   1.000  H
  O286     1.0000 0.99823  0.11171  0.20721  Biso   1.000  O
  N517     1.0000 0.05349  0.86048  0.18560  Biso   1.000  N
  H831     1.0000 0.04763  0.78668  0.20652  Biso   1.000  H
  H832     1.0000 0.02402  0.79149  0.15640  Biso   1.000  H
  C779     1.0000 0.89003  0.89749  0.11090  Biso   1.000  C
  N518     1.0000 0.14772  0.92357  0.20981  Biso   1.000  N
  H833     1.0000 0.24982  0.92228  0.25660  Biso   1.000  H
  H834     1.0000 0.26563  0.95518  0.21691  Biso   1.000  H
  C780     1.0000 0.09064  0.03763  0.16541  Biso   1.000  C
  C781     1.0000 0.11243  0.87797  0.21920  Biso   1.000  C
  C782     1.0000 0.04783  0.89369  0.14940  Biso   1.000  C
  N519     1.0000 0.96531  0.92068  0.13769  Biso   1.000  N
  H835     1.0000 0.85403  0.92537  0.09502  Biso   1.000  H
  H836     1.0000 0.91021  0.87398  0.09049  Biso   1.000  H
  C783     1.0000 0.11350  0.93910  0.16651  Biso   1.000  C
  N520     1.0000 0.05590  0.98529  0.16249  Biso   1.000  N
  H837     1.0000 0.14242  0.03860  0.15169  Biso   1.000  H
  H838     1.0000 0.04580  0.06149  0.14981  Biso   1.000  H
  O287     1.0000 0.13119  0.85509  0.25399  Biso   1.000  O
  H839     1.0000 0.06483  0.87507  0.12510  Biso   1.000  H
  C784     1.0000 0.97320  0.97336  0.14372  Biso   1.000  C
  H840     1.0000 0.16113  0.94278  0.14981  Biso   1.000  H
  O288     1.0000 0.91363  0.00591  0.13398  Biso   1.000  O
  C785     1.0000 0.44653  0.23049  0.67330  Biso   1.000  C
  N521     1.0000 0.47103  0.18438  0.65371  Biso   1.000  N
  N522     1.0000 0.40745  0.21829  0.71152  Biso   1.000  N
  H841     1.0000 0.40321  0.25028  0.65280  Biso   1.000  H
  H842     1.0000 0.49891  0.25290  0.68181  Biso   1.000  H
  C786     1.0000 0.43103  0.17370  0.61270  Biso   1.000  C
  C787     1.0000 0.55175  0.15630  0.66592  Biso   1.000  C
  C788     1.0000 0.32642  0.23538  0.71462  Biso   1.000  C
  C789     1.0000 0.45833  0.20530  0.75120  Biso   1.000  C
  N523     1.0000 0.47874  0.13529  0.59700  Biso   1.000  N
  O289     1.0000 0.36714  0.19439  0.59279  Biso   1.000  O
  C790     1.0000 0.55612  0.11879  0.62790  Biso   1.000  C
  N524     1.0000 0.55284  0.11922  0.70002  Biso   1.000  N
  H843     1.0000 0.60332  0.18039  0.67161  Biso   1.000  H
  O290     1.0000 0.26995  0.25271  0.68621  Biso   1.000  O
  N525     1.0000 0.31511  0.22670  0.75460  Biso   1.000  N
  N526     1.0000 0.48543  0.15168  0.75551  Biso   1.000  N
  C791     1.0000 0.39530  0.21238  0.78110  Biso   1.000  C
  H844     1.0000 0.50994  0.22928  0.75862  Biso   1.000  H
  C792     1.0000 0.45122  0.11139  0.55722  Biso   1.000  C
  N527     1.0000 0.54945  0.06641  0.64520  Biso   1.000  N
  H845     1.0000 0.61174  0.12348  0.61700  Biso   1.000  H
  C793     1.0000 0.55671  0.06688  0.68812  Biso   1.000  C
  C794     1.0000 0.56681  0.13318  0.74361  Biso   1.000  C
  C795     1.0000 0.24744  0.25200  0.77161  Biso   1.000  C
  C796     1.0000 0.45345  0.12700  0.78731  Biso   1.000  C
  N528     1.0000 0.39446  0.16048  0.80041  Biso   1.000  N
  H846     1.0000 0.41615  0.23988  0.80261  Biso   1.000  H
  N529     1.0000 0.40910  0.06168  0.55822  Biso   1.000  N
  H847     1.0000 0.41024  0.13541  0.53919  Biso   1.000  H
  H848     1.0000 0.50314  0.10682  0.54400  Biso   1.000  H
  C797     1.0000 0.57044  0.01889  0.62391  Biso   1.000  C
  O291     1.0000 0.56123  0.02910  0.71020  Biso   1.000  O
  H849     1.0000 0.61183  0.16111  0.74920  Biso   1.000  H
  H850     1.0000 0.58914  0.10251  0.76091  Biso   1.000  H
  N530     1.0000 0.19806  0.21821  0.79391  Biso   1.000  N
  H851     1.0000 0.20635  0.26878  0.74832  Biso   1.000  H
  H852     1.0000 0.27456  0.28001  0.79093  Biso   1.000  H
  O292     1.0000 0.47161  0.08370  0.80144  Biso   1.000  O
  C798     1.0000 0.37585  0.15680  0.84292  Biso   1.000  C
  C799     1.0000 0.32035  0.05370  0.54560  Biso   1.000  C
  C800     1.0000 0.45301  0.01099  0.55800  Biso   1.000  C
  N531     1.0000 0.49470  0.99319  0.59970  Biso   1.000  N
  H853     1.0000 0.61129  0.02789  0.60510  Biso   1.000  H
  H854     1.0000 0.60090  0.99409  0.64529  Biso   1.000  H
  C801     1.0000 0.10862  0.21410  0.78342  Biso   1.000  C
  C802     1.0000 0.23012  0.20311  0.83762  Biso   1.000  C
  N532     1.0000 0.28324  0.15661  0.84302  Biso   1.000  N
  H855     1.0000 0.40234  0.12430  0.85630  Biso   1.000  H
  H856     1.0000 0.40342  0.18669  0.85982  Biso   1.000  H
  O293     1.0000 0.26710  0.09070  0.53860  Biso   1.000  O
  N533     1.0000 0.30309  0.00329  0.54080  Biso   1.000  N
  C803     1.0000 0.38301  0.97200  0.54569  Biso   1.000  C
  H857     1.0000 0.49519  0.01099  0.53832  Biso   1.000  H
  C804     1.0000 0.45790  0.94841  0.60981  Biso   1.000  C
  O294     1.0000 0.06485  0.22768  0.74957  Biso   1.000  O
  N534     1.0000 0.07682  0.19220  0.81551  Biso   1.000  N
  C805     1.0000 0.14475  0.18559  0.85291  Biso   1.000  C
  H858     1.0000 0.25970  0.23280  0.85470  Biso   1.000  H
  C806     1.0000 0.24353  0.11710  0.86082  Biso   1.000  C
  C807     1.0000 0.21932  0.98639  0.51662  Biso   1.000  C
  N535     1.0000 0.39054  0.93629  0.58011  Biso   1.000  N
  H859     1.0000 0.38841  0.95381  0.51910  Biso   1.000  H
  O295     1.0000 0.48454  0.92381  0.64350  Biso   1.000  O
  C808     1.0000 0.98445  0.19201  0.81702  Biso   1.000  C
  N536     1.0000 0.16406  0.13208  0.86525  Biso   1.000  N
  H860     1.0000 0.13322  0.20749  0.87690  Biso   1.000  H
  O296     1.0000 0.27951  0.07498  0.87169  Biso   1.000  O
  H861     1.0000 0.18231  0.01741  0.50770  Biso   1.000  H
  N537     1.0000 0.17249  0.95111  0.54029  Biso   1.000  N
  H862     1.0000 0.22932  0.96832  0.49090  Biso   1.000  H
  C809     1.0000 0.34993  0.88090  0.57700  Biso   1.000  C
  N538     1.0000 0.94655  0.13952  0.81441  Biso   1.000  N
  H863     1.0000 0.95242  0.21328  0.79350  Biso   1.000  H
  H864     1.0000 0.97602  0.20851  0.84361  Biso   1.000  H
  C810     1.0000 0.11002  0.10251  0.88911  Biso   1.000  C
  C811     1.0000 0.09063  0.96351  0.54519  Biso   1.000  C
  C812     1.0000 0.19073  0.89592  0.54321  Biso   1.000  C
  N539     1.0000 0.25705  0.88102  0.57901  Biso   1.000  N
  H865     1.0000 0.35750  0.86479  0.55022  Biso   1.000  H
  H866     1.0000 0.38203  0.85919  0.60020  Biso   1.000  H
  C813     1.0000 0.88762  0.12199  0.78081  Biso   1.000  C
  C814     1.0000 0.95222  0.10631  0.85062  Biso   1.000  C
  N540     1.0000 0.03473  0.07928  0.86230  Biso   1.000  N
  H867     1.0000 0.14602  0.07459  0.90500  Biso   1.000  H
  H868     1.0000 0.08984  0.12598  0.90952  Biso   1.000  H
  O297     1.0000 0.05652  0.00661  0.54158  Biso   1.000  O
  N541     1.0000 0.04924  0.91821  0.55480  Biso   1.000  N
  H869     1.0000 0.20322  0.88141  0.51630  Biso   1.000  H
  C815     1.0000 0.10542  0.87261  0.55430  Biso   1.000  C
  C816     1.0000 0.22441  0.85352  0.60802  Biso   1.000  C
  N542     1.0000 0.85233  0.07639  0.79020  Biso   1.000  N
  O298     1.0000 0.86885  0.14491  0.74602  Biso   1.000  O
  C817     1.0000 0.88654  0.06090  0.83350  Biso   1.000  C
  H870     1.0000 0.93521  0.12489  0.87492  Biso   1.000  H
  C818     1.0000 0.02685  0.02660  0.85630  Biso   1.000  C
  C819     1.0000 0.95522  0.91520  0.54880  Biso   1.000  C
  N543     1.0000 0.13494  0.85039  0.59440  Biso   1.000  N
  H871     1.0000 0.07781  0.84590  0.53329  Biso   1.000  H
  O299     1.0000 0.26654  0.83389  0.64052  Biso   1.000  O
  C820     1.0000 0.77756  0.05229  0.76502  Biso   1.000  C
  N544     1.0000 0.94414  0.01471  0.83752  Biso   1.000  N
  H872     1.0000 0.83892  0.05718  0.85021  Biso   1.000  H
  O300     1.0000 0.08641  0.99409  0.86603  Biso   1.000  O
  N545     1.0000 0.92376  0.90359  0.58752  Biso   1.000  N
  H873     1.0000 0.93419  0.88771  0.52780  Biso   1.000  H
  H874     1.0000 0.92994  0.94892  0.53731  Biso   1.000  H
  C821     1.0000 0.08012  0.81500  0.61389  Biso   1.000  C
  N546     1.0000 0.79393  0.00501  0.74442  Biso   1.000  N
  H875     1.0000 0.75023  0.07772  0.74342  Biso   1.000  H
  H876     1.0000 0.73442  0.04478  0.78311  Biso   1.000  H
  C822     1.0000 0.90941  0.96241  0.83460  Biso   1.000  C
  C823     1.0000 0.86212  0.93492  0.60030  Biso   1.000  C
  C824     1.0000 0.92832  0.85380  0.60601  Biso   1.000  C
  N547     1.0000 0.01301  0.84159  0.63069  Biso   1.000  N
  H877     1.0000 0.05215  0.78922  0.59279  Biso   1.000  H
  H878     1.0000 0.11816  0.79548  0.63682  Biso   1.000  H
  C825     1.0000 0.78122  0.00031  0.70191  Biso   1.000  C
  C826     1.0000 0.79922  0.95432  0.76489  Biso   1.000  C
  N548     1.0000 0.88383  0.94360  0.79180  Biso   1.000  N
  H879     1.0000 0.85762  0.96140  0.84832  Biso   1.000  H
  H880     1.0000 0.95425  0.93851  0.85021  Biso   1.000  H
  O301     1.0000 0.83782  0.97892  0.58626  Biso   1.000  O
  N549     1.0000 0.83125  0.90891  0.63182  Biso   1.000  N
  C827     1.0000 0.86813  0.85779  0.63879  Biso   1.000  C
  H881     1.0000 0.90786  0.82599  0.58482  Biso   1.000  H
  C828     1.0000 0.01141  0.83741  0.67289  Biso   1.000  C
  N550     1.0000 0.78471  0.94810  0.69211  Biso   1.000  N
  O302     1.0000 0.76541  0.03591  0.67657  Biso   1.000  O
  C829     1.0000 0.79674  0.91501  0.72860  Biso   1.000  C
  H882     1.0000 0.74954  0.94868  0.78000  Biso   1.000  H
  C830     1.0000 0.92920  0.90539  0.77541  Biso   1.000  C
  C831     1.0000 0.75734  0.92831  0.64900  Biso   1.000  C
  N551     1.0000 0.92902  0.85270  0.67792  Biso   1.000  N
  H883     1.0000 0.82209  0.82990  0.63499  Biso   1.000  H
  O303     1.0000 0.07270  0.82399  0.70078  Biso   1.000  O
  N552     1.0000 0.88161  0.88982  0.73830  Biso   1.000  N
  H884     1.0000 0.74774  0.88919  0.72722  Biso   1.000  H
  O304     1.0000 0.00182  0.88829  0.79281  Biso   1.000  O
  H885     1.0000 0.71430  0.89971  0.64900  Biso   1.000  H
  H886     1.0000 0.72780  0.95670  0.63091  Biso   1.000  H
  C832     1.0000 0.90203  0.84292  0.71751  Biso   1.000  C
  H887     1.0000 0.94976  0.82399  0.73632  Biso   1.000  H
  H888     1.0000 0.84972  0.82000  0.71239  Biso   1.000  H
  O305     1.0000 0.58639  0.50589  0.36603  Biso   1.000  O
  C833     1.0000 0.52683  0.47338  0.35629  Biso   1.000  C
  N553     1.0000 0.44412  0.48527  0.33751  Biso   1.000  N
  N554     1.0000 0.53470  0.42070  0.36229  Biso   1.000  N
  C834     1.0000 0.38652  0.43908  0.33350  Biso   1.000  C
  C835     1.0000 0.40938  0.53761  0.33459  Biso   1.000  C
  C836     1.0000 0.45220  0.39371  0.35061  Biso   1.000  C
  C837     1.0000 0.61000  0.39750  0.38910  Biso   1.000  C
  N555     1.0000 0.35231  0.42359  0.29020  Biso   1.000  N
  H889     1.0000 0.33890  0.44280  0.35020  Biso   1.000  H
  N556     1.0000 0.38381  0.55638  0.29180  Biso   1.000  N
  H890     1.0000 0.35760  0.53858  0.34832  Biso   1.000  H
  H891     1.0000 0.45422  0.56151  0.35020  Biso   1.000  H
  N557     1.0000 0.44653  0.36050  0.31440  Biso   1.000  N
  H892     1.0000 0.43519  0.37509  0.37491  Biso   1.000  H
  N558     1.0000 0.66403  0.36790  0.36524  Biso   1.000  N
  H893     1.0000 0.64599  0.42539  0.40499  Biso   1.000  H
  H894     1.0000 0.58982  0.37400  0.40951  Biso   1.000  H
  C838     1.0000 0.38759  0.37799  0.28081  Biso   1.000  C
  C839     1.0000 0.27754  0.44769  0.26501  Biso   1.000  C
  C840     1.0000 0.29921  0.54570  0.26492  Biso   1.000  C
  C841     1.0000 0.42924  0.59459  0.27541  Biso   1.000  C
  C842     1.0000 0.48443  0.30798  0.31701  Biso   1.000  C
  C843     1.0000 0.64473  0.31439  0.35290  Biso   1.000  C
  C844     1.0000 0.74351  0.38288  0.36081  Biso   1.000  C
  O306     1.0000 0.36883  0.35511  0.24602  Biso   1.000  O
  N559     1.0000 0.29390  0.49497  0.24441  Biso   1.000  N
  H895     1.0000 0.25021  0.42230  0.24341  Biso   1.000  H
  H896     1.0000 0.23440  0.45520  0.28310  Biso   1.000  H
  C845     1.0000 0.29672  0.58497  0.22859  Biso   1.000  C
  H897     1.0000 0.24952  0.55130  0.27999  Biso   1.000  H
  N560     1.0000 0.38159  0.61020  0.23829  Biso   1.000  N
  O307     1.0000 0.50179  0.61169  0.29280  Biso   1.000  O
  N561     1.0000 0.57679  0.30778  0.31550  Biso   1.000  N
  H898     1.0000 0.45240  0.28670  0.29349  Biso   1.000  H
  H899     1.0000 0.47600  0.29151  0.34361  Biso   1.000  H
  H900     1.0000 0.63320  0.29249  0.37689  Biso   1.000  H
  C846     1.0000 0.73009  0.29691  0.33761  Biso   1.000  C
  N562     1.0000 0.78322  0.34341  0.34301  Biso   1.000  N
  O308     1.0000 0.77949  0.42500  0.37168  Biso   1.000  O
  C847     1.0000 0.28120  0.49971  0.20190  Biso   1.000  C
  N563     1.0000 0.28469  0.55188  0.19210  Biso   1.000  N
  H901     1.0000 0.24771  0.61079  0.22721  Biso   1.000  H
  C848     1.0000 0.40200  0.65710  0.21751  Biso   1.000  C
  C849     1.0000 0.60860  0.28588  0.28341  Biso   1.000  C
  N564     1.0000 0.69803  0.28181  0.29390  Biso   1.000  N
  H902     1.0000 0.75974  0.26718  0.35469  Biso   1.000  H
  C850     1.0000 0.87583  0.34318  0.34292  Biso   1.000  C
  O309     1.0000 0.26539  0.46407  0.17656  Biso   1.000  O
  C851     1.0000 0.25731  0.57167  0.14899  Biso   1.000  C
  N565     1.0000 0.42900  0.64728  0.17791  Biso   1.000  N
  H903     1.0000 0.44974  0.67599  0.23631  Biso   1.000  H
  H904     1.0000 0.34970  0.67998  0.21239  Biso   1.000  H
  O310     1.0000 0.56483  0.27230  0.24956  Biso   1.000  O
  C852     1.0000 0.74742  0.24798  0.27161  Biso   1.000  C
  N566     1.0000 0.89444  0.33950  0.30040  Biso   1.000  N
  H905     1.0000 0.90232  0.37568  0.35629  Biso   1.000  H
  H906     1.0000 0.90340  0.31329  0.35981  Biso   1.000  H
  N567     1.0000 0.33123  0.59107  0.13182  Biso   1.000  N
  H907     1.0000 0.21428  0.60031  0.14899  Biso   1.000  H
  H908     1.0000 0.22778  0.54328  0.13091  Biso   1.000  H
  C853     1.0000 0.36811  0.64220  0.13879  Biso   1.000  C
  C854     1.0000 0.51140  0.66257  0.17292  Biso   1.000  C
  N568     1.0000 0.81508  0.27328  0.25459  Biso   1.000  N
  H909     1.0000 0.70633  0.23120  0.24831  Biso   1.000  H
  H910     1.0000 0.77454  0.22001  0.29092  Biso   1.000  H
  C855     1.0000 0.89528  0.28760  0.28109  Biso   1.000  C
  C856     1.0000 0.95343  0.37298  0.28731  Biso   1.000  C
  C857     1.0000 0.36210  0.56510  0.10029  Biso   1.000  C
  H911     1.0000 0.32213  0.67008  0.13499  Biso   1.000  H
  C858     1.0000 0.42830  0.64618  0.10601  Biso   1.000  C
  N569     1.0000 0.51300  0.65839  0.13072  Biso   1.000  N
  O311     1.0000 0.57268  0.67599  0.20077  Biso   1.000  O
  C859     1.0000 0.82640  0.26460  0.21462  Biso   1.000  C
  H912     1.0000 0.91613  0.26010  0.30260  Biso   1.000  H
  C860     1.0000 0.95830  0.29468  0.25120  Biso   1.000  C
  N570     1.0000 0.98541  0.34830  0.25550  Biso   1.000  N
  O312     1.0000 0.97159  0.41628  0.30144  Biso   1.000  O
  O313     1.0000 0.33780  0.52110  0.08625  Biso   1.000  O
  N571     1.0000 0.42373  0.59639  0.08751  Biso   1.000  N
  H913     1.0000 0.40783  0.67399  0.08481  Biso   1.000  H
  C861     1.0000 0.58009  0.68498  0.11389  Biso   1.000  C
  O314     1.0000 0.76992  0.24731  0.18620  Biso   1.000  O
  N572     1.0000 0.90743  0.28169  0.21151  Biso   1.000  N
  H914     1.0000 0.00991  0.27070  0.25861  Biso   1.000  H
  C862     1.0000 0.06679  0.36680  0.24360  Biso   1.000  C
  C863     1.0000 0.45520  0.58478  0.04880  Biso   1.000  C
  N573     1.0000 0.63491  0.64959  0.09439  Biso   1.000  N
  H915     1.0000 0.55213  0.71080  0.09279  Biso   1.000  H
  H916     1.0000 0.61813  0.70450  0.13681  Biso   1.000  H
  C864     1.0000 0.94651  0.26949  0.17329  Biso   1.000  C
  N574     1.0000 0.05282  0.38080  0.20002  Biso   1.000  N
  H917     1.0000 0.11181  0.33887  0.24919  Biso   1.000  H
  H918     1.0000 0.08911  0.39750  0.26090  Biso   1.000  H
  N575     1.0000 0.54922  0.58180  0.05479  Biso   1.000  N
  H919     1.0000 0.43416  0.61227  0.02779  Biso   1.000  H
  H920     1.0000 0.42992  0.55110  0.03730  Biso   1.000  H
  C865     1.0000 0.60540  0.62737  0.05429  Biso   1.000  C
  C866     1.0000 0.72438  0.64650  0.10801  Biso   1.000  C
  N576     1.0000 0.97101  0.31560  0.15370  Biso   1.000  N
  H921     1.0000 0.90319  0.24970  0.15279  Biso   1.000  H
  H922     1.0000 0.99888  0.24708  0.18180  Biso   1.000  H
  C867     1.0000 0.05173  0.34369  0.16592  Biso   1.000  C
  C868     1.0000 0.05669  0.43310  0.18812  Biso   1.000  C
  C869     1.0000 0.59062  0.53647  0.04522  Biso   1.000  C
  C870     1.0000 0.69071  0.60410  0.04321  Biso   1.000  C
  H923     1.0000 0.57780  0.65409  0.03332  Biso   1.000  H
  N577     1.0000 0.75703  0.61900  0.07900  Biso   1.000  N
  O315     1.0000 0.76652  0.66609  0.14051  Biso   1.000  O
  C871     1.0000 0.93101  0.32628  0.11269  Biso   1.000  C
  H924     1.0000 0.10330  0.31959  0.17160  Biso   1.000  H
  C872     1.0000 0.05610  0.38119  0.12789  Biso   1.000  C
  N578     1.0000 0.04943  0.43361  0.14519  Biso   1.000  N
  O316     1.0000 0.06121  0.47088  0.21019  Biso   1.000  O
  O317     1.0000 0.55649  0.49341  0.04157  Biso   1.000  O
  N579     1.0000 0.67246  0.54887  0.04029  Biso   1.000  N
  H925     1.0000 0.70319  0.61857  0.01630  Biso   1.000  H
  C873     1.0000 0.84991  0.61908  0.07699  Biso   1.000  C
  O318     1.0000 0.86712  0.30559  0.09279  Biso   1.000  O
  N580     1.0000 0.97872  0.36469  0.09699  Biso   1.000  N
  H926     1.0000 0.11172  0.37650  0.11700  Biso   1.000  H
  C874     1.0000 0.07041  0.48109  0.12390  Biso   1.000  C
  C875     1.0000 0.71930  0.51359  0.01661  Biso   1.000  C
  N581     1.0000 0.89052  0.56370  0.08010  Biso   1.000  N
  H927     1.0000 0.85748  0.63519  0.05021  Biso   1.000  H
  H928     1.0000 0.88200  0.64079  0.10020  Biso   1.000  H
  C876     1.0000 0.95119  0.38859  0.05721  Biso   1.000  C
  N582     1.0000 0.99468  0.50679  0.09969  Biso   1.000  N
  H929     1.0000 0.11127  0.47209  0.10509  Biso   1.000  H
  H930     1.0000 0.10089  0.50589  0.14532  Biso   1.000  H
  N583     1.0000 0.80307  0.49669  0.04079  Biso   1.000  N
  H931     1.0000 0.68229  0.48258  0.00769  Biso   1.000  H
  H932     1.0000 0.72936  0.53170  0.99089  Biso   1.000  H
  C877     1.0000 0.88299  0.52799  0.04569  Biso   1.000  C
  C878     1.0000 0.95788  0.55157  0.10980  Biso   1.000  C
  N584     1.0000 0.90914  0.43830  0.05821  Biso   1.000  N
  H933     1.0000 0.91022  0.36461  0.03919  Biso   1.000  H
  H934     1.0000 0.00311  0.39320  0.04399  Biso   1.000  H
  C879     1.0000 0.95299  0.48899  0.05800  Biso   1.000  C
  C880     1.0000 0.82033  0.44628  0.04559  Biso   1.000  C
  H935     1.0000 0.88839  0.54617  0.01909  Biso   1.000  H
  O319     1.0000 0.98451  0.57617  0.14350  Biso   1.000  O
  H936     1.0000 0.99523  0.48899  0.03831  Biso   1.000  H
  O320     1.0000 0.76708  0.40928  0.03859  Biso   1.000  O
