data_image0
_cell_length_a       25.783
_cell_length_b       25.783
_cell_length_c       25.689
_cell_angle_alpha    90
_cell_angle_beta     90
_cell_angle_gamma    90

_symmetry_space_group_name_H-M    "P 1"
_symmetry_int_tables_number       1

loop_
  _symmetry_equiv_pos_as_xyz
  'x, y, z'

loop_
  _atom_site_label
  _atom_site_occupancy
  _atom_site_fract_x
  _atom_site_fract_y
  _atom_site_fract_z
  _atom_site_thermal_displace_type
  _atom_site_B_iso_or_equiv
  _atom_site_type_symbol
  C1       1.0000 0.16181  0.24939  0.40340  Biso   1.000  C
  C2       1.0000 0.16018  0.30559  0.38880  Biso   1.000  C
  H1       1.0000 0.19629  0.24078  0.41691  Biso   1.000  H
  H2       1.0000 0.13571  0.24249  0.43030  Biso   1.000  H
  H3       1.0000 0.15448  0.22810  0.37269  Biso   1.000  H
  H4       1.0000 0.19629  0.24078  0.41687  Biso   1.000  H
  C3       1.0000 0.20622  0.31598  0.34665  Biso   1.000  C
  C4       1.0000 0.20622  0.31598  0.34661  Biso   1.000  C
  C5       1.0000 0.11271  0.32549  0.36541  Biso   1.000  C
  C6       1.0000 0.18268  0.34011  0.43801  Biso   1.000  C
  C7       1.0000 0.11271  0.32549  0.36537  Biso   1.000  C
  C8       1.0000 0.18268  0.34011  0.43797  Biso   1.000  C
  C9       1.0000 0.24369  0.27840  0.33707  Biso   1.000  C
  C10      1.0000 0.20773  0.36287  0.31998  Biso   1.000  C
  H5       1.0000 0.11740  0.36210  0.35630  Biso   1.000  H
  H6       1.0000 0.10468  0.30559  0.33388  Biso   1.000  H
  H7       1.0000 0.08409  0.32219  0.39021  Biso   1.000  H
  H8       1.0000 0.21541  0.32498  0.45011  Biso   1.000  H
  H9       1.0000 0.18861  0.37579  0.42660  Biso   1.000  H
  H10      1.0000 0.15739  0.33980  0.46650  Biso   1.000  H
  H11      1.0000 0.21541  0.32498  0.45008  Biso   1.000  H
  C11      1.0000 0.28267  0.28771  0.30091  Biso   1.000  C
  H12      1.0000 0.24268  0.24629  0.35529  Biso   1.000  H
  C12      1.0000 0.24671  0.37218  0.28378  Biso   1.000  C
  H13      1.0000 0.18210  0.38859  0.32648  Biso   1.000  H
  C13      1.0000 0.32238  0.24660  0.29079  Biso   1.000  C
  C14      1.0000 0.28418  0.33460  0.27420  Biso   1.000  C
  C15      1.0000 0.24660  0.42028  0.25439  Biso   1.000  C
  H14      1.0000 0.31928  0.21429  0.30838  Biso   1.000  H
  N1       1.0000 0.35849  0.25315  0.26089  Biso   1.000  N
  O1       1.0000 0.32312  0.34616  0.24069  Biso   1.000  O
  H15      1.0000 0.27468  0.42419  0.23080  Biso   1.000  H
  N2       1.0000 0.21871  0.45328  0.25521  Biso   1.000  N
  C16      1.0000 0.39561  0.21239  0.25260  Biso   1.000  C
  H16      1.0000 0.34391  0.32099  0.24049  Biso   1.000  H
  C17      1.0000 0.22751  0.49959  0.22442  Biso   1.000  C
  C18      1.0000 0.22751  0.49959  0.22438  Biso   1.000  C
  H17      1.0000 0.38789  0.18400  0.27798  Biso   1.000  H
  C19      1.0000 0.44909  0.23108  0.26280  Biso   1.000  C
  C20      1.0000 0.38820  0.19071  0.19822  Biso   1.000  C
  C21      1.0000 0.38820  0.19071  0.19818  Biso   1.000  C
  H18      1.0000 0.25718  0.49389  0.20009  Biso   1.000  H
  C22      1.0000 0.23620  0.54908  0.25591  Biso   1.000  C
  C23      1.0000 0.17391  0.50941  0.19078  Biso   1.000  C
  H19      1.0000 0.45150  0.24128  0.29989  Biso   1.000  H
  H20      1.0000 0.45499  0.26269  0.24170  Biso   1.000  H
  C24      1.0000 0.49009  0.19470  0.25178  Biso   1.000  C
  C25      1.0000 0.43079  0.15041  0.18230  Biso   1.000  C
  H21      1.0000 0.35368  0.17380  0.19612  Biso   1.000  H
  H22      1.0000 0.38851  0.21968  0.17291  Biso   1.000  H
  H23      1.0000 0.35368  0.17380  0.19608  Biso   1.000  H
  H24      1.0000 0.38851  0.21968  0.17288  Biso   1.000  H
  H25      1.0000 0.26568  0.54400  0.28000  Biso   1.000  H
  H26      1.0000 0.20490  0.55668  0.27701  Biso   1.000  H
  C26      1.0000 0.24741  0.59438  0.21990  Biso   1.000  C
  C27      1.0000 0.19090  0.55781  0.15368  Biso   1.000  C
  H27      1.0000 0.14459  0.51891  0.21379  Biso   1.000  H
  H28      1.0000 0.16441  0.47849  0.16999  Biso   1.000  H
  H29      1.0000 0.48718  0.16480  0.27638  Biso   1.000  H
  C28      1.0000 0.48788  0.17481  0.19752  Biso   1.000  C
  N3       1.0000 0.54261  0.21638  0.25560  Biso   1.000  N
  C29      1.0000 0.48788  0.17481  0.19748  Biso   1.000  C
  H30      1.0000 0.42540  0.11779  0.20269  Biso   1.000  H
  N4       1.0000 0.43110  0.13769  0.12780  Biso   1.000  N
  H31      1.0000 0.27879  0.58709  0.19822  Biso   1.000  H
  C30      1.0000 0.19990  0.60319  0.18498  Biso   1.000  C
  N5       1.0000 0.25528  0.64341  0.25178  Biso   1.000  N
  H32      1.0000 0.27879  0.58709  0.19818  Biso   1.000  H
  H33      1.0000 0.22278  0.54877  0.13348  Biso   1.000  H
  N6       1.0000 0.14541  0.56390  0.11748  Biso   1.000  N
  H34      1.0000 0.49610  0.20351  0.17319  Biso   1.000  H
  H35      1.0000 0.51468  0.14769  0.19312  Biso   1.000  H
  H36      1.0000 0.51468  0.14769  0.19308  Biso   1.000  H
  C31      1.0000 0.57790  0.19501  0.29199  Biso   1.000  C
  C32      1.0000 0.42140  0.09161  0.11472  Biso   1.000  C
  C33      1.0000 0.42140  0.09161  0.11468  Biso   1.000  C
  H37      1.0000 0.20579  0.63360  0.16221  Biso   1.000  H
  H38      1.0000 0.16910  0.61029  0.20678  Biso   1.000  H
  C34      1.0000 0.29729  0.66757  0.24559  Biso   1.000  C
  C35      1.0000 0.15301  0.56421  0.06711  Biso   1.000  C
  C36      1.0000 0.62448  0.22220  0.29799  Biso   1.000  C
  H39      1.0000 0.57049  0.16429  0.31099  Biso   1.000  H
  C37      1.0000 0.41950  0.08211  0.05691  Biso   1.000  C
  H40      1.0000 0.41570  0.06481  0.13940  Biso   1.000  H
  C38      1.0000 0.41950  0.08211  0.05687  Biso   1.000  C
  H41      1.0000 0.32029  0.65609  0.21908  Biso   1.000  H
  C39      1.0000 0.31238  0.71221  0.27689  Biso   1.000  C
  H42      1.0000 0.18710  0.56080  0.05349  Biso   1.000  H
  C40      1.0000 0.10910  0.56968  0.03211  Biso   1.000  C
  C41      1.0000 0.10910  0.56968  0.03208  Biso   1.000  C
  C42      1.0000 0.63918  0.26529  0.26899  Biso   1.000  C
  C43      1.0000 0.65811  0.20168  0.33489  Biso   1.000  C
  C44      1.0000 0.42838  0.12105  0.02059  Biso   1.000  C
  C45      1.0000 0.41268  0.03118  0.04048  Biso   1.000  C
  C46      1.0000 0.36078  0.73467  0.26899  Biso   1.000  C
  C47      1.0000 0.27879  0.73277  0.31379  Biso   1.000  C
  C48      1.0000 0.05822  0.57658  0.04850  Biso   1.000  C
  C49      1.0000 0.12105  0.57158  0.97941  Biso   1.000  C
  C50      1.0000 0.68758  0.28779  0.27689  Biso   1.000  C
  O2       1.0000 0.60955  0.28620  0.23084  Biso   1.000  O
  H43      1.0000 0.64810  0.17228  0.35478  Biso   1.000  H
  C51      1.0000 0.70647  0.22418  0.34283  Biso   1.000  C
  C52      1.0000 0.70647  0.22418  0.34279  Biso   1.000  C
  O3       1.0000 0.43622  0.17325  0.03379  Biso   1.000  O
  C53      1.0000 0.43028  0.10910  0.96789  Biso   1.000  C
  H44      1.0000 0.40659  0.00462  0.06540  Biso   1.000  H
  C54      1.0000 0.41458  0.01924  0.98782  Biso   1.000  C
  C55      1.0000 0.41458  0.01924  0.98778  Biso   1.000  C
  C56      1.0000 0.37552  0.77780  0.29799  Biso   1.000  C
  O4       1.0000 0.39045  0.71376  0.23084  Biso   1.000  O
  C57      1.0000 0.29353  0.77578  0.34283  Biso   1.000  C
  H45      1.0000 0.24570  0.71737  0.31920  Biso   1.000  H
  C58      1.0000 0.29353  0.77578  0.34279  Biso   1.000  C
  C59      1.0000 0.01924  0.58539  0.01218  Biso   1.000  C
  H46      1.0000 0.04999  0.57519  0.08451  Biso   1.000  H
  C60      1.0000 0.08211  0.58050  0.94309  Biso   1.000  C
  O5       1.0000 0.17325  0.56374  0.96621  Biso   1.000  O
  C61      1.0000 0.70267  0.33239  0.24559  Biso   1.000  C
  C62      1.0000 0.72121  0.26719  0.31379  Biso   1.000  C
  H47      1.0000 0.58271  0.26789  0.22881  Biso   1.000  H
  H48      1.0000 0.58271  0.26789  0.22877  Biso   1.000  H
  C63      1.0000 0.74289  0.20099  0.38709  Biso   1.000  C
  H49      1.0000 0.45278  0.17531  0.06182  Biso   1.000  H
  H50      1.0000 0.45278  0.17531  0.06178  Biso   1.000  H
  C64      1.0000 0.43579  0.15301  0.93289  Biso   1.000  C
  C65      1.0000 0.42338  0.05822  0.95150  Biso   1.000  C
  C66      1.0000 0.40810  0.96381  0.96672  Biso   1.000  C
  C67      1.0000 0.40810  0.96381  0.96668  Biso   1.000  C
  C68      1.0000 0.42210  0.80499  0.29199  Biso   1.000  C
  C69      1.0000 0.34189  0.79832  0.33489  Biso   1.000  C
  H51      1.0000 0.41729  0.73207  0.22881  Biso   1.000  H
  H52      1.0000 0.41729  0.73207  0.22877  Biso   1.000  H
  C70      1.0000 0.25711  0.79898  0.38709  Biso   1.000  C
  C71      1.0000 0.96381  0.59190  0.03328  Biso   1.000  C
  C72      1.0000 0.03118  0.58729  0.95952  Biso   1.000  C
  C73      1.0000 0.03118  0.58729  0.95948  Biso   1.000  C
  C74      1.0000 0.09161  0.57860  0.88528  Biso   1.000  C
  H53      1.0000 0.17531  0.54718  0.93818  Biso   1.000  H
  H54      1.0000 0.67967  0.34391  0.21908  Biso   1.000  H
  N7       1.0000 0.74468  0.35659  0.25178  Biso   1.000  N
  H55      1.0000 0.75430  0.28259  0.31920  Biso   1.000  H
  C75      1.0000 0.79277  0.23818  0.38779  Biso   1.000  C
  C76      1.0000 0.75189  0.14409  0.37911  Biso   1.000  C
  C77      1.0000 0.71768  0.20649  0.43680  Biso   1.000  C
  C78      1.0000 0.75189  0.14409  0.37907  Biso   1.000  C
  H56      1.0000 0.43920  0.18710  0.94651  Biso   1.000  H
  N8       1.0000 0.43610  0.14541  0.88252  Biso   1.000  N
  H57      1.0000 0.43920  0.18710  0.94648  Biso   1.000  H
  N9       1.0000 0.43610  0.14541  0.88248  Biso   1.000  N
  H58      1.0000 0.42478  0.04999  0.91549  Biso   1.000  H
  C79      1.0000 0.41907  0.94531  0.91459  Biso   1.000  C
  C80      1.0000 0.34531  0.95101  0.98151  Biso   1.000  C
  C81      1.0000 0.43428  0.92328  0.00969  Biso   1.000  C
  H59      1.0000 0.42951  0.83571  0.31099  Biso   1.000  H
  N10      1.0000 0.45739  0.78358  0.25560  Biso   1.000  N
  H60      1.0000 0.35190  0.82768  0.35478  Biso   1.000  H
  C82      1.0000 0.20719  0.76178  0.38779  Biso   1.000  C
  C83      1.0000 0.24811  0.85587  0.37911  Biso   1.000  C
  C84      1.0000 0.28228  0.79347  0.43680  Biso   1.000  C
  C85      1.0000 0.24811  0.85587  0.37907  Biso   1.000  C
  C86      1.0000 0.92328  0.56568  0.99031  Biso   1.000  C
  C87      1.0000 0.94531  0.58089  0.08541  Biso   1.000  C
  C88      1.0000 0.95101  0.65469  0.01849  Biso   1.000  C
  H61      1.0000 0.00462  0.59338  0.93460  Biso   1.000  H
  H62      1.0000 0.06481  0.58430  0.86060  Biso   1.000  H
  N11      1.0000 0.13769  0.56890  0.87220  Biso   1.000  N
  C89      1.0000 0.75259  0.40558  0.21990  Biso   1.000  C
  H63      1.0000 0.78187  0.27390  0.39480  Biso   1.000  H
  H64      1.0000 0.81678  0.22670  0.41508  Biso   1.000  H
  H65      1.0000 0.81030  0.23659  0.35389  Biso   1.000  H
  H66      1.0000 0.71838  0.12601  0.37822  Biso   1.000  H
  H67      1.0000 0.77008  0.13858  0.34610  Biso   1.000  H
  H68      1.0000 0.77287  0.13051  0.40780  Biso   1.000  H
  H69      1.0000 0.71838  0.12601  0.37818  Biso   1.000  H
  H70      1.0000 0.71051  0.24318  0.44338  Biso   1.000  H
  H71      1.0000 0.68510  0.18698  0.43661  Biso   1.000  H
  H72      1.0000 0.74037  0.19288  0.46421  Biso   1.000  H
  C90      1.0000 0.44219  0.19090  0.84632  Biso   1.000  C
  C91      1.0000 0.44219  0.19090  0.84628  Biso   1.000  C
  H73      1.0000 0.41171  0.90812  0.91261  Biso   1.000  H
  H74      1.0000 0.45569  0.95140  0.90650  Biso   1.000  H
  H75      1.0000 0.39728  0.96389  0.88960  Biso   1.000  H
  H76      1.0000 0.33650  0.91591  0.96999  Biso   1.000  H
  H77      1.0000 0.32281  0.97611  0.96380  Biso   1.000  H
  H78      1.0000 0.34030  0.95369  0.01919  Biso   1.000  H
  H79      1.0000 0.43118  0.88760  0.99689  Biso   1.000  H
  H80      1.0000 0.41620  0.92650  0.04301  Biso   1.000  H
  H81      1.0000 0.47109  0.93189  0.01448  Biso   1.000  H
  H82      1.0000 0.41620  0.92650  0.04298  Biso   1.000  H
  C92      1.0000 0.50991  0.80530  0.25178  Biso   1.000  C
  H83      1.0000 0.21809  0.72610  0.39480  Biso   1.000  H
  H84      1.0000 0.18318  0.77330  0.41508  Biso   1.000  H
  H85      1.0000 0.18970  0.76337  0.35389  Biso   1.000  H
  H86      1.0000 0.28158  0.87399  0.37822  Biso   1.000  H
  H87      1.0000 0.22988  0.86138  0.34610  Biso   1.000  H
  H88      1.0000 0.22709  0.86949  0.40780  Biso   1.000  H
  H89      1.0000 0.28158  0.87399  0.37818  Biso   1.000  H
  H90      1.0000 0.28949  0.75678  0.44338  Biso   1.000  H
  H91      1.0000 0.31490  0.81298  0.43661  Biso   1.000  H
  H92      1.0000 0.25959  0.80708  0.46421  Biso   1.000  H
  H93      1.0000 0.92650  0.58380  0.95699  Biso   1.000  H
  H94      1.0000 0.93189  0.52888  0.98552  Biso   1.000  H
  H95      1.0000 0.93189  0.52888  0.98548  Biso   1.000  H
  H96      1.0000 0.88760  0.56879  0.00311  Biso   1.000  H
  H97      1.0000 0.88760  0.56879  0.00308  Biso   1.000  H
  H98      1.0000 0.90812  0.58829  0.08739  Biso   1.000  H
  H99      1.0000 0.95140  0.54427  0.09350  Biso   1.000  H
  H100     1.0000 0.96389  0.60268  0.11040  Biso   1.000  H
  H101     1.0000 0.95369  0.65970  0.98081  Biso   1.000  H
  H102     1.0000 0.91591  0.66350  0.03001  Biso   1.000  H
  H103     1.0000 0.97611  0.67719  0.03620  Biso   1.000  H
  H104     1.0000 0.91591  0.66350  0.02997  Biso   1.000  H
  C93      1.0000 0.15041  0.56917  0.81770  Biso   1.000  C
  C94      1.0000 0.76380  0.45088  0.25591  Biso   1.000  C
  H105     1.0000 0.72117  0.41291  0.19822  Biso   1.000  H
  C95      1.0000 0.80010  0.39681  0.18498  Biso   1.000  C
  H106     1.0000 0.72117  0.41291  0.19818  Biso   1.000  H
  C96      1.0000 0.39681  0.19990  0.81502  Biso   1.000  C
  H107     1.0000 0.45119  0.22278  0.86652  Biso   1.000  H
  C97      1.0000 0.49059  0.17391  0.80922  Biso   1.000  C
  C98      1.0000 0.39681  0.19990  0.81498  Biso   1.000  C
  H108     1.0000 0.45119  0.22278  0.86648  Biso   1.000  H
  C99      1.0000 0.49059  0.17391  0.80918  Biso   1.000  C
  C100     1.0000 0.55091  0.76888  0.26280  Biso   1.000  C
  H109     1.0000 0.51278  0.83520  0.27638  Biso   1.000  H
  C101     1.0000 0.51208  0.82519  0.19752  Biso   1.000  C
  C102     1.0000 0.51208  0.82519  0.19748  Biso   1.000  C
  C103     1.0000 0.17481  0.51208  0.80248  Biso   1.000  C
  H110     1.0000 0.11779  0.57460  0.79731  Biso   1.000  H
  C104     1.0000 0.19071  0.61180  0.80178  Biso   1.000  C
  C105     1.0000 0.77249  0.50041  0.22442  Biso   1.000  C
  H111     1.0000 0.73428  0.45600  0.28000  Biso   1.000  H
  H112     1.0000 0.79510  0.44328  0.27701  Biso   1.000  H
  C106     1.0000 0.77249  0.50041  0.22438  Biso   1.000  C
  H113     1.0000 0.79421  0.36640  0.16221  Biso   1.000  H
  H114     1.0000 0.83090  0.38968  0.20678  Biso   1.000  H
  C107     1.0000 0.80910  0.44219  0.15368  Biso   1.000  C
  C108     1.0000 0.40558  0.24741  0.78010  Biso   1.000  C
  H115     1.0000 0.36640  0.20579  0.83779  Biso   1.000  H
  H116     1.0000 0.38968  0.16910  0.79322  Biso   1.000  H
  H117     1.0000 0.38968  0.16910  0.79318  Biso   1.000  H
  C109     1.0000 0.50041  0.22751  0.77558  Biso   1.000  C
  H118     1.0000 0.48109  0.14459  0.78621  Biso   1.000  H
  H119     1.0000 0.52151  0.16441  0.83001  Biso   1.000  H
  C110     1.0000 0.60439  0.78757  0.25260  Biso   1.000  C
  H120     1.0000 0.54850  0.75868  0.29989  Biso   1.000  H
  H121     1.0000 0.54501  0.73731  0.24170  Biso   1.000  H
  H122     1.0000 0.50390  0.79649  0.17319  Biso   1.000  H
  H123     1.0000 0.48528  0.85231  0.19312  Biso   1.000  H
  C111     1.0000 0.56917  0.84959  0.18230  Biso   1.000  C
  H124     1.0000 0.48528  0.85231  0.19308  Biso   1.000  H
  C112     1.0000 0.19470  0.50991  0.74822  Biso   1.000  C
  H125     1.0000 0.20351  0.50390  0.82681  Biso   1.000  H
  H126     1.0000 0.14769  0.48528  0.80688  Biso   1.000  H
  C113     1.0000 0.19470  0.50991  0.74818  Biso   1.000  C
  H127     1.0000 0.20351  0.50390  0.82677  Biso   1.000  H
  C114     1.0000 0.21239  0.60439  0.74740  Biso   1.000  C
  H128     1.0000 0.17380  0.64628  0.80388  Biso   1.000  H
  H129     1.0000 0.21968  0.61149  0.82709  Biso   1.000  H
  H130     1.0000 0.74278  0.50611  0.20009  Biso   1.000  H
  C115     1.0000 0.82609  0.49059  0.19078  Biso   1.000  C
  N12      1.0000 0.78129  0.54668  0.25521  Biso   1.000  N
  H131     1.0000 0.77718  0.45119  0.13348  Biso   1.000  H
  N13      1.0000 0.85459  0.43610  0.11748  Biso   1.000  N
  C116     1.0000 0.45088  0.23620  0.74409  Biso   1.000  C
  H132     1.0000 0.41291  0.27879  0.80178  Biso   1.000  H
  N14      1.0000 0.35659  0.25528  0.74822  Biso   1.000  N
  N15      1.0000 0.35659  0.25528  0.74818  Biso   1.000  N
  H133     1.0000 0.50611  0.25718  0.79991  Biso   1.000  H
  N16      1.0000 0.54668  0.21871  0.74479  Biso   1.000  N
  H134     1.0000 0.50611  0.25718  0.79988  Biso   1.000  H
  H135     1.0000 0.61211  0.81600  0.27798  Biso   1.000  H
  C117     1.0000 0.61180  0.80929  0.19822  Biso   1.000  C
  N17      1.0000 0.64151  0.74681  0.26089  Biso   1.000  N
  C118     1.0000 0.61180  0.80929  0.19818  Biso   1.000  C
  H136     1.0000 0.57460  0.88217  0.20269  Biso   1.000  H
  N18      1.0000 0.56890  0.86227  0.12780  Biso   1.000  N
  C119     1.0000 0.23108  0.55091  0.73720  Biso   1.000  C
  H137     1.0000 0.16480  0.51278  0.72362  Biso   1.000  H
  N19      1.0000 0.21638  0.45739  0.74440  Biso   1.000  N
  H138     1.0000 0.16480  0.51278  0.72358  Biso   1.000  H
  H139     1.0000 0.18400  0.61211  0.72202  Biso   1.000  H
  N20      1.0000 0.25315  0.64151  0.73911  Biso   1.000  N
  H140     1.0000 0.18400  0.61211  0.72198  Biso   1.000  H
  H141     1.0000 0.85537  0.48109  0.21379  Biso   1.000  H
  H142     1.0000 0.83559  0.52151  0.16999  Biso   1.000  H
  C120     1.0000 0.75340  0.57968  0.25439  Biso   1.000  C
  C121     1.0000 0.84699  0.43579  0.06711  Biso   1.000  C
  H143     1.0000 0.45600  0.26568  0.72000  Biso   1.000  H
  H144     1.0000 0.44328  0.20490  0.72299  Biso   1.000  H
  C122     1.0000 0.33239  0.29729  0.75441  Biso   1.000  C
  C123     1.0000 0.57968  0.24660  0.74561  Biso   1.000  C
  H145     1.0000 0.64628  0.82620  0.19612  Biso   1.000  H
  H146     1.0000 0.61149  0.78028  0.17291  Biso   1.000  H
  H147     1.0000 0.64628  0.82620  0.19608  Biso   1.000  H
  H148     1.0000 0.61149  0.78028  0.17288  Biso   1.000  H
  C124     1.0000 0.67758  0.75340  0.29079  Biso   1.000  C
  C125     1.0000 0.57860  0.90839  0.11472  Biso   1.000  C
  C126     1.0000 0.57860  0.90839  0.11468  Biso   1.000  C
  H149     1.0000 0.24128  0.54850  0.70011  Biso   1.000  H
  H150     1.0000 0.26269  0.54501  0.75830  Biso   1.000  H
  C127     1.0000 0.19501  0.42210  0.70801  Biso   1.000  C
  C128     1.0000 0.24660  0.67758  0.70921  Biso   1.000  C
  C129     1.0000 0.24660  0.67758  0.70918  Biso   1.000  C
  C130     1.0000 0.75329  0.62782  0.28378  Biso   1.000  C
  H151     1.0000 0.72528  0.57581  0.23080  Biso   1.000  H
  H152     1.0000 0.81290  0.43920  0.05349  Biso   1.000  H
  C131     1.0000 0.89090  0.43028  0.03211  Biso   1.000  C
  C132     1.0000 0.89090  0.43028  0.03208  Biso   1.000  C
  H153     1.0000 0.34391  0.32029  0.78092  Biso   1.000  H
  C133     1.0000 0.28779  0.31238  0.72311  Biso   1.000  C
  H154     1.0000 0.34391  0.32029  0.78088  Biso   1.000  H
  C134     1.0000 0.62782  0.24671  0.71622  Biso   1.000  C
  H155     1.0000 0.57581  0.27468  0.76920  Biso   1.000  H
  C135     1.0000 0.71733  0.71229  0.30091  Biso   1.000  C
  H156     1.0000 0.68068  0.78567  0.30838  Biso   1.000  H
  C136     1.0000 0.58050  0.91789  0.05691  Biso   1.000  C
  H157     1.0000 0.58430  0.93519  0.13940  Biso   1.000  H
  C137     1.0000 0.58050  0.91789  0.05687  Biso   1.000  C
  C138     1.0000 0.22220  0.37552  0.70201  Biso   1.000  C
  H158     1.0000 0.16429  0.42951  0.68901  Biso   1.000  H
  H159     1.0000 0.21429  0.68068  0.69162  Biso   1.000  H
  C139     1.0000 0.28771  0.71733  0.69909  Biso   1.000  C
  H160     1.0000 0.21429  0.68068  0.69158  Biso   1.000  H
  C140     1.0000 0.71578  0.66536  0.27420  Biso   1.000  C
  C141     1.0000 0.79227  0.63713  0.31998  Biso   1.000  C
  C142     1.0000 0.94178  0.42338  0.04850  Biso   1.000  C
  C143     1.0000 0.87891  0.42838  0.97941  Biso   1.000  C
  C144     1.0000 0.26529  0.36078  0.73101  Biso   1.000  C
  C145     1.0000 0.26719  0.27879  0.68621  Biso   1.000  C
  C146     1.0000 0.66536  0.28418  0.72580  Biso   1.000  C
  C147     1.0000 0.63713  0.20773  0.68002  Biso   1.000  C
  C148     1.0000 0.66536  0.28418  0.72576  Biso   1.000  C
  C149     1.0000 0.63713  0.20773  0.67998  Biso   1.000  C
  C150     1.0000 0.75627  0.72160  0.33707  Biso   1.000  C
  C151     1.0000 0.57158  0.87891  0.02059  Biso   1.000  C
  C152     1.0000 0.58729  0.96878  0.04048  Biso   1.000  C
  C153     1.0000 0.20168  0.34189  0.66511  Biso   1.000  C
  C154     1.0000 0.33460  0.71578  0.72580  Biso   1.000  C
  C155     1.0000 0.27840  0.75627  0.66293  Biso   1.000  C
  C156     1.0000 0.33460  0.71578  0.72576  Biso   1.000  C
  O6       1.0000 0.67684  0.65384  0.24069  Biso   1.000  O
  H161     1.0000 0.81790  0.61137  0.32648  Biso   1.000  H
  C157     1.0000 0.79378  0.68398  0.34665  Biso   1.000  C
  C158     1.0000 0.79378  0.68398  0.34661  Biso   1.000  C
  C159     1.0000 0.98076  0.41458  0.01218  Biso   1.000  C
  H162     1.0000 0.94997  0.42478  0.08451  Biso   1.000  H
  C160     1.0000 0.91789  0.41950  0.94309  Biso   1.000  C
  O7       1.0000 0.82675  0.43622  0.96621  Biso   1.000  O
  O8       1.0000 0.28620  0.39045  0.76916  Biso   1.000  O
  C161     1.0000 0.22418  0.29353  0.65717  Biso   1.000  C
  H163     1.0000 0.28259  0.24570  0.68080  Biso   1.000  H
  C162     1.0000 0.71229  0.28267  0.69909  Biso   1.000  C
  O9       1.0000 0.65384  0.32312  0.75931  Biso   1.000  O
  H164     1.0000 0.61137  0.18210  0.67352  Biso   1.000  H
  C163     1.0000 0.68398  0.20622  0.65335  Biso   1.000  C
  H165     1.0000 0.61137  0.18210  0.67348  Biso   1.000  H
  H166     1.0000 0.75728  0.75367  0.35529  Biso   1.000  H
  O10      1.0000 0.56374  0.82675  0.03379  Biso   1.000  O
  C164     1.0000 0.56968  0.89090  0.96789  Biso   1.000  C
  H167     1.0000 0.59338  0.99538  0.06540  Biso   1.000  H
  C165     1.0000 0.58539  0.98076  0.98782  Biso   1.000  C
  C166     1.0000 0.58539  0.98076  0.98778  Biso   1.000  C
  H168     1.0000 0.17228  0.35190  0.64522  Biso   1.000  H
  H169     1.0000 0.17228  0.35190  0.64518  Biso   1.000  H
  C167     1.0000 0.37218  0.75329  0.71622  Biso   1.000  C
  O11      1.0000 0.34616  0.67684  0.75931  Biso   1.000  O
  C168     1.0000 0.31598  0.79378  0.65335  Biso   1.000  C
  H170     1.0000 0.24629  0.75728  0.64471  Biso   1.000  H
  H171     1.0000 0.65609  0.67897  0.24049  Biso   1.000  H
  C169     1.0000 0.83978  0.69437  0.38880  Biso   1.000  C
  C170     1.0000 0.96878  0.41268  0.95952  Biso   1.000  C
  C171     1.0000 0.96878  0.41268  0.95948  Biso   1.000  C
  C172     1.0000 0.03619  0.40810  0.03328  Biso   1.000  C
  C173     1.0000 0.90839  0.42140  0.88528  Biso   1.000  C
  H172     1.0000 0.82469  0.45278  0.93818  Biso   1.000  H
  H173     1.0000 0.26789  0.41729  0.77119  Biso   1.000  H
  C174     1.0000 0.20099  0.25711  0.61291  Biso   1.000  C
  C175     1.0000 0.75340  0.32238  0.70921  Biso   1.000  C
  C176     1.0000 0.72160  0.24369  0.66293  Biso   1.000  C
  C177     1.0000 0.75340  0.32238  0.70918  Biso   1.000  C
  H174     1.0000 0.67897  0.34391  0.75951  Biso   1.000  H
  C178     1.0000 0.69437  0.16018  0.61120  Biso   1.000  C
  H175     1.0000 0.54718  0.82469  0.06182  Biso   1.000  H
  H176     1.0000 0.54718  0.82469  0.06178  Biso   1.000  H
  C179     1.0000 0.56421  0.84699  0.93289  Biso   1.000  C
  C180     1.0000 0.57658  0.94178  0.95150  Biso   1.000  C
  C181     1.0000 0.59190  0.03619  0.96672  Biso   1.000  C
  C182     1.0000 0.59190  0.03619  0.96668  Biso   1.000  C
  C183     1.0000 0.36287  0.79227  0.68002  Biso   1.000  C
  C184     1.0000 0.42028  0.75340  0.74561  Biso   1.000  C
  C185     1.0000 0.36287  0.79227  0.67998  Biso   1.000  C
  H177     1.0000 0.32099  0.65609  0.75951  Biso   1.000  H
  C186     1.0000 0.30559  0.83978  0.61120  Biso   1.000  C
  C187     1.0000 0.88729  0.67448  0.36541  Biso   1.000  C
  C188     1.0000 0.81728  0.65989  0.43801  Biso   1.000  C
  C189     1.0000 0.83819  0.75057  0.40340  Biso   1.000  C
  C190     1.0000 0.88729  0.67448  0.36537  Biso   1.000  C
  C191     1.0000 0.81728  0.65989  0.43797  Biso   1.000  C
  H178     1.0000 0.99538  0.40659  0.93460  Biso   1.000  H
  C192     1.0000 0.07668  0.43428  0.99031  Biso   1.000  C
  C193     1.0000 0.05469  0.41907  0.08541  Biso   1.000  C
  C194     1.0000 0.04899  0.34531  0.01849  Biso   1.000  C
  H179     1.0000 0.93519  0.41570  0.86060  Biso   1.000  H
  N21      1.0000 0.86227  0.43110  0.87220  Biso   1.000  N
  C195     1.0000 0.23818  0.20719  0.61221  Biso   1.000  C
  C196     1.0000 0.14409  0.24811  0.62089  Biso   1.000  C
  C197     1.0000 0.20649  0.28228  0.56320  Biso   1.000  C
  H180     1.0000 0.78567  0.31928  0.69162  Biso   1.000  H
  N22      1.0000 0.74681  0.35849  0.73911  Biso   1.000  N
  H181     1.0000 0.78567  0.31928  0.69158  Biso   1.000  H
  H182     1.0000 0.75367  0.24268  0.64471  Biso   1.000  H
  C198     1.0000 0.67448  0.11271  0.63459  Biso   1.000  C
  C199     1.0000 0.65989  0.18268  0.56199  Biso   1.000  C
  C200     1.0000 0.75057  0.16181  0.59660  Biso   1.000  C
  H183     1.0000 0.56080  0.81290  0.94651  Biso   1.000  H
  N23      1.0000 0.56390  0.85459  0.88252  Biso   1.000  N
  H184     1.0000 0.56080  0.81290  0.94648  Biso   1.000  H
  N24      1.0000 0.56390  0.85459  0.88248  Biso   1.000  N
  H185     1.0000 0.57519  0.94997  0.91549  Biso   1.000  H
  C201     1.0000 0.58089  0.05469  0.91459  Biso   1.000  C
  C202     1.0000 0.65469  0.04899  0.98151  Biso   1.000  C
  C203     1.0000 0.56568  0.07668  0.00969  Biso   1.000  C
  H186     1.0000 0.38859  0.81790  0.67352  Biso   1.000  H
  H187     1.0000 0.38859  0.81790  0.67348  Biso   1.000  H
  H188     1.0000 0.42419  0.72528  0.76920  Biso   1.000  H
  N25      1.0000 0.45328  0.78129  0.74479  Biso   1.000  N
  C204     1.0000 0.32549  0.88729  0.63459  Biso   1.000  C
  C205     1.0000 0.34011  0.81728  0.56199  Biso   1.000  C
  C206     1.0000 0.24939  0.83819  0.59660  Biso   1.000  C
  H189     1.0000 0.88260  0.63790  0.35630  Biso   1.000  H
  H190     1.0000 0.89528  0.69437  0.33388  Biso   1.000  H
  H191     1.0000 0.91587  0.67777  0.39021  Biso   1.000  H
  H192     1.0000 0.78459  0.67498  0.45011  Biso   1.000  H
  H193     1.0000 0.81139  0.62417  0.42660  Biso   1.000  H
  H194     1.0000 0.84257  0.66020  0.46650  Biso   1.000  H
  H195     1.0000 0.78459  0.67498  0.45008  Biso   1.000  H
  H196     1.0000 0.80367  0.75918  0.41691  Biso   1.000  H
  H197     1.0000 0.86429  0.75748  0.43030  Biso   1.000  H
  H198     1.0000 0.84548  0.77190  0.37269  Biso   1.000  H
  H199     1.0000 0.80367  0.75918  0.41687  Biso   1.000  H
  H200     1.0000 0.07350  0.41620  0.95699  Biso   1.000  H
  H201     1.0000 0.06807  0.47109  0.98552  Biso   1.000  H
  H202     1.0000 0.06807  0.47109  0.98548  Biso   1.000  H
  H203     1.0000 0.11240  0.43118  0.00311  Biso   1.000  H
  H204     1.0000 0.11240  0.43118  0.00308  Biso   1.000  H
  H205     1.0000 0.09188  0.41171  0.08739  Biso   1.000  H
  H206     1.0000 0.04860  0.45569  0.09350  Biso   1.000  H
  H207     1.0000 0.03607  0.39728  0.11040  Biso   1.000  H
  H208     1.0000 0.04627  0.34030  0.98081  Biso   1.000  H
  H209     1.0000 0.08409  0.33650  0.03001  Biso   1.000  H
  H210     1.0000 0.02389  0.32281  0.03620  Biso   1.000  H
  H211     1.0000 0.08409  0.33650  0.02997  Biso   1.000  H
  C207     1.0000 0.84959  0.43079  0.81770  Biso   1.000  C
  H212     1.0000 0.27390  0.21809  0.60520  Biso   1.000  H
  H213     1.0000 0.22670  0.18318  0.58492  Biso   1.000  H
  H214     1.0000 0.23659  0.18970  0.64611  Biso   1.000  H
  H215     1.0000 0.22670  0.18318  0.58488  Biso   1.000  H
  H216     1.0000 0.12601  0.28158  0.62178  Biso   1.000  H
  H217     1.0000 0.13858  0.22988  0.65390  Biso   1.000  H
  H218     1.0000 0.13051  0.22709  0.59220  Biso   1.000  H
  H219     1.0000 0.24318  0.28949  0.55662  Biso   1.000  H
  H220     1.0000 0.18698  0.31490  0.56339  Biso   1.000  H
  H221     1.0000 0.19288  0.25959  0.53579  Biso   1.000  H
  H222     1.0000 0.24318  0.28949  0.55658  Biso   1.000  H
  C208     1.0000 0.78757  0.39561  0.74740  Biso   1.000  C
  H223     1.0000 0.63790  0.11740  0.64370  Biso   1.000  H
  H224     1.0000 0.69437  0.10468  0.66612  Biso   1.000  H
  H225     1.0000 0.67777  0.08409  0.60979  Biso   1.000  H
  H226     1.0000 0.69437  0.10468  0.66608  Biso   1.000  H
  H227     1.0000 0.67498  0.21541  0.54989  Biso   1.000  H
  H228     1.0000 0.62417  0.18861  0.57340  Biso   1.000  H
  H229     1.0000 0.66020  0.15739  0.53350  Biso   1.000  H
  H230     1.0000 0.75918  0.19629  0.58309  Biso   1.000  H
  H231     1.0000 0.75748  0.13571  0.56970  Biso   1.000  H
  H232     1.0000 0.77190  0.15448  0.62731  Biso   1.000  H
  C209     1.0000 0.55781  0.80910  0.84632  Biso   1.000  C
  C210     1.0000 0.55781  0.80910  0.84628  Biso   1.000  C
  H233     1.0000 0.58829  0.09188  0.91261  Biso   1.000  H
  H234     1.0000 0.54427  0.04860  0.90650  Biso   1.000  H
  H235     1.0000 0.60268  0.03607  0.88960  Biso   1.000  H
  H236     1.0000 0.66350  0.08409  0.96999  Biso   1.000  H
  H237     1.0000 0.67719  0.02389  0.96380  Biso   1.000  H
  H238     1.0000 0.65970  0.04627  0.01919  Biso   1.000  H
  H239     1.0000 0.56879  0.11240  0.99689  Biso   1.000  H
  H240     1.0000 0.58380  0.07350  0.04301  Biso   1.000  H
  H241     1.0000 0.52888  0.06807  0.01448  Biso   1.000  H
  H242     1.0000 0.58380  0.07350  0.04298  Biso   1.000  H
  C211     1.0000 0.49959  0.77249  0.77558  Biso   1.000  C
  H243     1.0000 0.36210  0.88260  0.64370  Biso   1.000  H
  H244     1.0000 0.30559  0.89528  0.66612  Biso   1.000  H
  H245     1.0000 0.32219  0.91587  0.60979  Biso   1.000  H
  H246     1.0000 0.30559  0.89528  0.66608  Biso   1.000  H
  H247     1.0000 0.32498  0.78459  0.54989  Biso   1.000  H
  H248     1.0000 0.37579  0.81139  0.57340  Biso   1.000  H
  H249     1.0000 0.33980  0.84257  0.53350  Biso   1.000  H
  H250     1.0000 0.24078  0.80367  0.58309  Biso   1.000  H
  H251     1.0000 0.24249  0.86429  0.56970  Biso   1.000  H
  H252     1.0000 0.22810  0.84548  0.62731  Biso   1.000  H
  C212     1.0000 0.82519  0.48788  0.80248  Biso   1.000  C
  H253     1.0000 0.88217  0.42540  0.79731  Biso   1.000  H
  C213     1.0000 0.80929  0.38820  0.80178  Biso   1.000  C
  H254     1.0000 0.81600  0.38789  0.72202  Biso   1.000  H
  C214     1.0000 0.76888  0.44909  0.73720  Biso   1.000  C
  H255     1.0000 0.81600  0.38789  0.72198  Biso   1.000  H
  C215     1.0000 0.60319  0.80010  0.81502  Biso   1.000  C
  H256     1.0000 0.54877  0.77718  0.86652  Biso   1.000  H
  C216     1.0000 0.50941  0.82609  0.80922  Biso   1.000  C
  C217     1.0000 0.60319  0.80010  0.81498  Biso   1.000  C
  H257     1.0000 0.54877  0.77718  0.86648  Biso   1.000  H
  C218     1.0000 0.50941  0.82609  0.80918  Biso   1.000  C
  H258     1.0000 0.49389  0.74278  0.79991  Biso   1.000  H
  C219     1.0000 0.54908  0.76380  0.74409  Biso   1.000  C
  H259     1.0000 0.49389  0.74278  0.79988  Biso   1.000  H
  C220     1.0000 0.80530  0.49009  0.74822  Biso   1.000  C
  H260     1.0000 0.79649  0.49610  0.82681  Biso   1.000  H
  H261     1.0000 0.85231  0.51468  0.80688  Biso   1.000  H
  C221     1.0000 0.80530  0.49009  0.74818  Biso   1.000  C
  H262     1.0000 0.79649  0.49610  0.82677  Biso   1.000  H
  H263     1.0000 0.82620  0.35368  0.80388  Biso   1.000  H
  H264     1.0000 0.78028  0.38851  0.82709  Biso   1.000  H
  H265     1.0000 0.75868  0.45150  0.70011  Biso   1.000  H
  H266     1.0000 0.73731  0.45499  0.75830  Biso   1.000  H
  C222     1.0000 0.59438  0.75259  0.78010  Biso   1.000  C
  H267     1.0000 0.63360  0.79421  0.83779  Biso   1.000  H
  H268     1.0000 0.61029  0.83090  0.79322  Biso   1.000  H
  H269     1.0000 0.61029  0.83090  0.79318  Biso   1.000  H
  H270     1.0000 0.51891  0.85537  0.78621  Biso   1.000  H
  H271     1.0000 0.47849  0.83559  0.83001  Biso   1.000  H
  H272     1.0000 0.54400  0.73428  0.72000  Biso   1.000  H
  H273     1.0000 0.55668  0.79510  0.72299  Biso   1.000  H
  H274     1.0000 0.83520  0.48718  0.72362  Biso   1.000  H
  N26      1.0000 0.78358  0.54261  0.74440  Biso   1.000  N
  H275     1.0000 0.83520  0.48718  0.72358  Biso   1.000  H
  H276     1.0000 0.58709  0.72117  0.80178  Biso   1.000  H
  N27      1.0000 0.64341  0.74468  0.74822  Biso   1.000  N
  N28      1.0000 0.64341  0.74468  0.74818  Biso   1.000  N
  C223     1.0000 0.80499  0.57790  0.70801  Biso   1.000  C
  C224     1.0000 0.66757  0.70267  0.75441  Biso   1.000  C
  C225     1.0000 0.77780  0.62448  0.70201  Biso   1.000  C
  H277     1.0000 0.83571  0.57049  0.68901  Biso   1.000  H
  C226     1.0000 0.71221  0.68758  0.72311  Biso   1.000  C
  H278     1.0000 0.65609  0.67967  0.78092  Biso   1.000  H
  H279     1.0000 0.65609  0.67967  0.78088  Biso   1.000  H
  C227     1.0000 0.73467  0.63918  0.73101  Biso   1.000  C
  C228     1.0000 0.79832  0.65811  0.66511  Biso   1.000  C
  C229     1.0000 0.73277  0.72121  0.68621  Biso   1.000  C
  O12      1.0000 0.71376  0.60955  0.76916  Biso   1.000  O
  H280     1.0000 0.82768  0.64810  0.64522  Biso   1.000  H
  C230     1.0000 0.77578  0.70647  0.65717  Biso   1.000  C
  H281     1.0000 0.82768  0.64810  0.64518  Biso   1.000  H
  H282     1.0000 0.71737  0.75430  0.68080  Biso   1.000  H
  H283     1.0000 0.73207  0.58271  0.77119  Biso   1.000  H
  C231     1.0000 0.79898  0.74289  0.61291  Biso   1.000  C
  C232     1.0000 0.76178  0.79277  0.61221  Biso   1.000  C
  C233     1.0000 0.85587  0.75189  0.62089  Biso   1.000  C
  C234     1.0000 0.79347  0.71768  0.56320  Biso   1.000  C
  H284     1.0000 0.72610  0.78187  0.60520  Biso   1.000  H
  H285     1.0000 0.77330  0.81678  0.58492  Biso   1.000  H
  H286     1.0000 0.76337  0.81030  0.64611  Biso   1.000  H
  H287     1.0000 0.77330  0.81678  0.58488  Biso   1.000  H
  H288     1.0000 0.87399  0.71838  0.62178  Biso   1.000  H
  H289     1.0000 0.86138  0.77008  0.65390  Biso   1.000  H
  H290     1.0000 0.86949  0.77287  0.59220  Biso   1.000  H
  H291     1.0000 0.75678  0.71051  0.55662  Biso   1.000  H
  H292     1.0000 0.81298  0.68510  0.56339  Biso   1.000  H
  H293     1.0000 0.80708  0.74037  0.53579  Biso   1.000  H
  H294     1.0000 0.75678  0.71051  0.55658  Biso   1.000  H
  C235     1.0000 0.16181  0.24939  0.40340  Biso   1.000  C
  C236     1.0000 0.16018  0.30559  0.38880  Biso   1.000  C
  H295     1.0000 0.13571  0.24249  0.43030  Biso   1.000  H
  H296     1.0000 0.15448  0.22810  0.37269  Biso   1.000  H
  H297     1.0000 0.19629  0.24078  0.41691  Biso   1.000  H
  H298     1.0000 0.19629  0.24078  0.41687  Biso   1.000  H
  C237     1.0000 0.20622  0.31598  0.34665  Biso   1.000  C
  C238     1.0000 0.20622  0.31598  0.34661  Biso   1.000  C
  C239     1.0000 0.11271  0.32549  0.36541  Biso   1.000  C
  C240     1.0000 0.18268  0.34011  0.43801  Biso   1.000  C
  C241     1.0000 0.11271  0.32549  0.36537  Biso   1.000  C
  C242     1.0000 0.18268  0.34011  0.43797  Biso   1.000  C
  C243     1.0000 0.24369  0.27840  0.33707  Biso   1.000  C
  C244     1.0000 0.20773  0.36287  0.31998  Biso   1.000  C
  H299     1.0000 0.11740  0.36210  0.35630  Biso   1.000  H
  H300     1.0000 0.10468  0.30559  0.33388  Biso   1.000  H
  H301     1.0000 0.08409  0.32219  0.39021  Biso   1.000  H
  H302     1.0000 0.18861  0.37579  0.42660  Biso   1.000  H
  H303     1.0000 0.15739  0.33980  0.46650  Biso   1.000  H
  H304     1.0000 0.21541  0.32498  0.45011  Biso   1.000  H
  H305     1.0000 0.21541  0.32498  0.45008  Biso   1.000  H
  C245     1.0000 0.28267  0.28771  0.30091  Biso   1.000  C
  H306     1.0000 0.24268  0.24629  0.35529  Biso   1.000  H
  C246     1.0000 0.24671  0.37218  0.28378  Biso   1.000  C
  H307     1.0000 0.18210  0.38859  0.32648  Biso   1.000  H
  C247     1.0000 0.32238  0.24660  0.29079  Biso   1.000  C
  C248     1.0000 0.28418  0.33460  0.27420  Biso   1.000  C
  C249     1.0000 0.24660  0.42028  0.25439  Biso   1.000  C
  H308     1.0000 0.31928  0.21429  0.30838  Biso   1.000  H
  N29      1.0000 0.35849  0.25315  0.26089  Biso   1.000  N
  O13      1.0000 0.32312  0.34616  0.24069  Biso   1.000  O
  H309     1.0000 0.27468  0.42419  0.23080  Biso   1.000  H
  N30      1.0000 0.21871  0.45328  0.25521  Biso   1.000  N
  C250     1.0000 0.39561  0.21239  0.25260  Biso   1.000  C
  H310     1.0000 0.34391  0.32099  0.24049  Biso   1.000  H
  C251     1.0000 0.22751  0.49959  0.22442  Biso   1.000  C
  C252     1.0000 0.22751  0.49959  0.22438  Biso   1.000  C
  H311     1.0000 0.38789  0.18400  0.27798  Biso   1.000  H
  C253     1.0000 0.44909  0.23108  0.26280  Biso   1.000  C
  C254     1.0000 0.38820  0.19071  0.19822  Biso   1.000  C
  C255     1.0000 0.38820  0.19071  0.19818  Biso   1.000  C
  H312     1.0000 0.25718  0.49389  0.20009  Biso   1.000  H
  C256     1.0000 0.23620  0.54908  0.25591  Biso   1.000  C
  C257     1.0000 0.17391  0.50941  0.19078  Biso   1.000  C
  H313     1.0000 0.45150  0.24128  0.29989  Biso   1.000  H
  H314     1.0000 0.45499  0.26269  0.24170  Biso   1.000  H
  C258     1.0000 0.49009  0.19470  0.25178  Biso   1.000  C
  C259     1.0000 0.43079  0.15041  0.18230  Biso   1.000  C
  H315     1.0000 0.35368  0.17380  0.19612  Biso   1.000  H
  H316     1.0000 0.38851  0.21968  0.17291  Biso   1.000  H
  H317     1.0000 0.35368  0.17380  0.19608  Biso   1.000  H
  H318     1.0000 0.38851  0.21968  0.17288  Biso   1.000  H
  H319     1.0000 0.26568  0.54400  0.28000  Biso   1.000  H
  H320     1.0000 0.20490  0.55668  0.27701  Biso   1.000  H
  C260     1.0000 0.24741  0.59438  0.21990  Biso   1.000  C
  C261     1.0000 0.19090  0.55781  0.15368  Biso   1.000  C
  H321     1.0000 0.14459  0.51891  0.21379  Biso   1.000  H
  H322     1.0000 0.16441  0.47849  0.16999  Biso   1.000  H
  H323     1.0000 0.48718  0.16480  0.27638  Biso   1.000  H
  N31      1.0000 0.54261  0.21638  0.25560  Biso   1.000  N
  C262     1.0000 0.48788  0.17481  0.19752  Biso   1.000  C
  C263     1.0000 0.48788  0.17481  0.19748  Biso   1.000  C
  H324     1.0000 0.42540  0.11779  0.20269  Biso   1.000  H
  N32      1.0000 0.43110  0.13769  0.12780  Biso   1.000  N
  C264     1.0000 0.19990  0.60319  0.18498  Biso   1.000  C
  N33      1.0000 0.25528  0.64341  0.25178  Biso   1.000  N
  H325     1.0000 0.27879  0.58709  0.19822  Biso   1.000  H
  H326     1.0000 0.27879  0.58709  0.19818  Biso   1.000  H
  H327     1.0000 0.22278  0.54877  0.13348  Biso   1.000  H
  N34      1.0000 0.14541  0.56390  0.11748  Biso   1.000  N
  C265     1.0000 0.57790  0.19501  0.29199  Biso   1.000  C
  H328     1.0000 0.49610  0.20351  0.17319  Biso   1.000  H
  H329     1.0000 0.51468  0.14769  0.19312  Biso   1.000  H
  H330     1.0000 0.51468  0.14769  0.19308  Biso   1.000  H
  C266     1.0000 0.42140  0.09161  0.11472  Biso   1.000  C
  C267     1.0000 0.42140  0.09161  0.11468  Biso   1.000  C
  H331     1.0000 0.20579  0.63360  0.16221  Biso   1.000  H
  H332     1.0000 0.16910  0.61029  0.20678  Biso   1.000  H
  C268     1.0000 0.29729  0.66757  0.24559  Biso   1.000  C
  C269     1.0000 0.15301  0.56421  0.06711  Biso   1.000  C
  C270     1.0000 0.62448  0.22220  0.29799  Biso   1.000  C
  H333     1.0000 0.57049  0.16429  0.31099  Biso   1.000  H
  H334     1.0000 0.41570  0.06481  0.13940  Biso   1.000  H
  C271     1.0000 0.41950  0.08211  0.05691  Biso   1.000  C
  C272     1.0000 0.41950  0.08211  0.05687  Biso   1.000  C
  H335     1.0000 0.32029  0.65609  0.21908  Biso   1.000  H
  C273     1.0000 0.31238  0.71221  0.27689  Biso   1.000  C
  H336     1.0000 0.18710  0.56080  0.05349  Biso   1.000  H
  C274     1.0000 0.10910  0.56968  0.03211  Biso   1.000  C
  C275     1.0000 0.10910  0.56968  0.03208  Biso   1.000  C
  C276     1.0000 0.63918  0.26529  0.26899  Biso   1.000  C
  C277     1.0000 0.65811  0.20168  0.33489  Biso   1.000  C
  C278     1.0000 0.42838  0.12105  0.02059  Biso   1.000  C
  C279     1.0000 0.41268  0.03118  0.04048  Biso   1.000  C
  C280     1.0000 0.36078  0.73467  0.26899  Biso   1.000  C
  C281     1.0000 0.27879  0.73277  0.31379  Biso   1.000  C
  C282     1.0000 0.05822  0.57658  0.04850  Biso   1.000  C
  C283     1.0000 0.12105  0.57158  0.97941  Biso   1.000  C
  C284     1.0000 0.68758  0.28779  0.27689  Biso   1.000  C
  O14      1.0000 0.60955  0.28620  0.23084  Biso   1.000  O
  H337     1.0000 0.64810  0.17228  0.35478  Biso   1.000  H
  C285     1.0000 0.70647  0.22418  0.34283  Biso   1.000  C
  C286     1.0000 0.70647  0.22418  0.34279  Biso   1.000  C
  O15      1.0000 0.43622  0.17325  0.03379  Biso   1.000  O
  C287     1.0000 0.43028  0.10910  0.96789  Biso   1.000  C
  H338     1.0000 0.40659  0.00462  0.06540  Biso   1.000  H
  C288     1.0000 0.41458  0.01924  0.98782  Biso   1.000  C
  C289     1.0000 0.41458  0.01924  0.98778  Biso   1.000  C
  C290     1.0000 0.37552  0.77780  0.29799  Biso   1.000  C
  O16      1.0000 0.39045  0.71376  0.23084  Biso   1.000  O
  H339     1.0000 0.24570  0.71737  0.31920  Biso   1.000  H
  C291     1.0000 0.29353  0.77578  0.34283  Biso   1.000  C
  C292     1.0000 0.29353  0.77578  0.34279  Biso   1.000  C
  C293     1.0000 0.01924  0.58539  0.01218  Biso   1.000  C
  H340     1.0000 0.04999  0.57519  0.08451  Biso   1.000  H
  C294     1.0000 0.08211  0.58050  0.94309  Biso   1.000  C
  O17      1.0000 0.17325  0.56374  0.96621  Biso   1.000  O
  C295     1.0000 0.70267  0.33239  0.24559  Biso   1.000  C
  C296     1.0000 0.72121  0.26719  0.31379  Biso   1.000  C
  H341     1.0000 0.58271  0.26789  0.22881  Biso   1.000  H
  H342     1.0000 0.58271  0.26789  0.22877  Biso   1.000  H
  C297     1.0000 0.74289  0.20099  0.38709  Biso   1.000  C
  H343     1.0000 0.45278  0.17531  0.06182  Biso   1.000  H
  H344     1.0000 0.45278  0.17531  0.06178  Biso   1.000  H
  C298     1.0000 0.43579  0.15301  0.93289  Biso   1.000  C
  C299     1.0000 0.42338  0.05822  0.95150  Biso   1.000  C
  C300     1.0000 0.40810  0.96381  0.96672  Biso   1.000  C
  C301     1.0000 0.40810  0.96381  0.96668  Biso   1.000  C
  C302     1.0000 0.42210  0.80499  0.29199  Biso   1.000  C
  C303     1.0000 0.34189  0.79832  0.33489  Biso   1.000  C
  H345     1.0000 0.41729  0.73207  0.22881  Biso   1.000  H
  H346     1.0000 0.41729  0.73207  0.22877  Biso   1.000  H
  C304     1.0000 0.25711  0.79898  0.38709  Biso   1.000  C
  C305     1.0000 0.96381  0.59190  0.03328  Biso   1.000  C
  C306     1.0000 0.03118  0.58729  0.95952  Biso   1.000  C
  C307     1.0000 0.03118  0.58729  0.95948  Biso   1.000  C
  C308     1.0000 0.09161  0.57860  0.88528  Biso   1.000  C
  H347     1.0000 0.17531  0.54718  0.93818  Biso   1.000  H
  H348     1.0000 0.67967  0.34391  0.21908  Biso   1.000  H
  N35      1.0000 0.74468  0.35659  0.25178  Biso   1.000  N
  H349     1.0000 0.75430  0.28259  0.31920  Biso   1.000  H
  C309     1.0000 0.79277  0.23818  0.38779  Biso   1.000  C
  C310     1.0000 0.71768  0.20649  0.43680  Biso   1.000  C
  C311     1.0000 0.75189  0.14409  0.37911  Biso   1.000  C
  C312     1.0000 0.75189  0.14409  0.37907  Biso   1.000  C
  H350     1.0000 0.43920  0.18710  0.94651  Biso   1.000  H
  N36      1.0000 0.43610  0.14541  0.88252  Biso   1.000  N
  H351     1.0000 0.43920  0.18710  0.94648  Biso   1.000  H
  N37      1.0000 0.43610  0.14541  0.88248  Biso   1.000  N
  H352     1.0000 0.42478  0.04999  0.91549  Biso   1.000  H
  C313     1.0000 0.41907  0.94531  0.91459  Biso   1.000  C
  C314     1.0000 0.34531  0.95101  0.98151  Biso   1.000  C
  C315     1.0000 0.43428  0.92328  0.00969  Biso   1.000  C
  H353     1.0000 0.42951  0.83571  0.31099  Biso   1.000  H
  N38      1.0000 0.45739  0.78358  0.25560  Biso   1.000  N
  H354     1.0000 0.35190  0.82768  0.35478  Biso   1.000  H
  C316     1.0000 0.20719  0.76178  0.38779  Biso   1.000  C
  C317     1.0000 0.28228  0.79347  0.43680  Biso   1.000  C
  C318     1.0000 0.24811  0.85587  0.37911  Biso   1.000  C
  C319     1.0000 0.24811  0.85587  0.37907  Biso   1.000  C
  C320     1.0000 0.92328  0.56568  0.99031  Biso   1.000  C
  C321     1.0000 0.94531  0.58089  0.08541  Biso   1.000  C
  C322     1.0000 0.95101  0.65469  0.01849  Biso   1.000  C
  H355     1.0000 0.00462  0.59338  0.93460  Biso   1.000  H
  H356     1.0000 0.06481  0.58430  0.86060  Biso   1.000  H
  N39      1.0000 0.13769  0.56890  0.87220  Biso   1.000  N
  C323     1.0000 0.75259  0.40558  0.21990  Biso   1.000  C
  H357     1.0000 0.78187  0.27390  0.39480  Biso   1.000  H
  H358     1.0000 0.81678  0.22670  0.41508  Biso   1.000  H
  H359     1.0000 0.81030  0.23659  0.35389  Biso   1.000  H
  H360     1.0000 0.71051  0.24318  0.44338  Biso   1.000  H
  H361     1.0000 0.68510  0.18698  0.43661  Biso   1.000  H
  H362     1.0000 0.74037  0.19288  0.46421  Biso   1.000  H
  H363     1.0000 0.77008  0.13858  0.34610  Biso   1.000  H
  H364     1.0000 0.77287  0.13051  0.40780  Biso   1.000  H
  H365     1.0000 0.71838  0.12601  0.37822  Biso   1.000  H
  H366     1.0000 0.71838  0.12601  0.37818  Biso   1.000  H
  C324     1.0000 0.44219  0.19090  0.84632  Biso   1.000  C
  C325     1.0000 0.44219  0.19090  0.84628  Biso   1.000  C
  H367     1.0000 0.41171  0.90812  0.91261  Biso   1.000  H
  H368     1.0000 0.45569  0.95140  0.90650  Biso   1.000  H
  H369     1.0000 0.39728  0.96389  0.88960  Biso   1.000  H
  H370     1.0000 0.33650  0.91591  0.96999  Biso   1.000  H
  H371     1.0000 0.32281  0.97611  0.96380  Biso   1.000  H
  H372     1.0000 0.34030  0.95369  0.01919  Biso   1.000  H
  H373     1.0000 0.43118  0.88760  0.99689  Biso   1.000  H
  H374     1.0000 0.41620  0.92650  0.04301  Biso   1.000  H
  H375     1.0000 0.47109  0.93189  0.01448  Biso   1.000  H
  H376     1.0000 0.41620  0.92650  0.04298  Biso   1.000  H
  C326     1.0000 0.50991  0.80530  0.25178  Biso   1.000  C
  H377     1.0000 0.21809  0.72610  0.39480  Biso   1.000  H
  H378     1.0000 0.18318  0.77330  0.41508  Biso   1.000  H
  H379     1.0000 0.18970  0.76337  0.35389  Biso   1.000  H
  H380     1.0000 0.28949  0.75678  0.44338  Biso   1.000  H
  H381     1.0000 0.31490  0.81298  0.43661  Biso   1.000  H
  H382     1.0000 0.25959  0.80708  0.46421  Biso   1.000  H
  H383     1.0000 0.22988  0.86138  0.34610  Biso   1.000  H
  H384     1.0000 0.22709  0.86949  0.40780  Biso   1.000  H
  H385     1.0000 0.28158  0.87399  0.37822  Biso   1.000  H
  H386     1.0000 0.28158  0.87399  0.37818  Biso   1.000  H
  H387     1.0000 0.92650  0.58380  0.95699  Biso   1.000  H
  H388     1.0000 0.93189  0.52888  0.98552  Biso   1.000  H
  H389     1.0000 0.93189  0.52888  0.98548  Biso   1.000  H
  H390     1.0000 0.88760  0.56879  0.00311  Biso   1.000  H
  H391     1.0000 0.88760  0.56879  0.00308  Biso   1.000  H
  H392     1.0000 0.90812  0.58829  0.08739  Biso   1.000  H
  H393     1.0000 0.95140  0.54427  0.09350  Biso   1.000  H
  H394     1.0000 0.96389  0.60268  0.11040  Biso   1.000  H
  H395     1.0000 0.95369  0.65970  0.98081  Biso   1.000  H
  H396     1.0000 0.91591  0.66350  0.03001  Biso   1.000  H
  H397     1.0000 0.97611  0.67719  0.03620  Biso   1.000  H
  H398     1.0000 0.91591  0.66350  0.02997  Biso   1.000  H
  C327     1.0000 0.15041  0.56917  0.81770  Biso   1.000  C
  C328     1.0000 0.76380  0.45088  0.25591  Biso   1.000  C
  C329     1.0000 0.80010  0.39681  0.18498  Biso   1.000  C
  H399     1.0000 0.72117  0.41291  0.19822  Biso   1.000  H
  H400     1.0000 0.72117  0.41291  0.19818  Biso   1.000  H
  C330     1.0000 0.39681  0.19990  0.81502  Biso   1.000  C
  H401     1.0000 0.45119  0.22278  0.86652  Biso   1.000  H
  C331     1.0000 0.49059  0.17391  0.80922  Biso   1.000  C
  C332     1.0000 0.39681  0.19990  0.81498  Biso   1.000  C
  H402     1.0000 0.45119  0.22278  0.86648  Biso   1.000  H
  C333     1.0000 0.49059  0.17391  0.80918  Biso   1.000  C
  C334     1.0000 0.55091  0.76888  0.26280  Biso   1.000  C
  H403     1.0000 0.51278  0.83520  0.27638  Biso   1.000  H
  C335     1.0000 0.51208  0.82519  0.19752  Biso   1.000  C
  C336     1.0000 0.51208  0.82519  0.19748  Biso   1.000  C
  C337     1.0000 0.17481  0.51208  0.80248  Biso   1.000  C
  H404     1.0000 0.11779  0.57460  0.79731  Biso   1.000  H
  C338     1.0000 0.19071  0.61180  0.80178  Biso   1.000  C
  H405     1.0000 0.73428  0.45600  0.28000  Biso   1.000  H
  H406     1.0000 0.79510  0.44328  0.27701  Biso   1.000  H
  C339     1.0000 0.77249  0.50041  0.22442  Biso   1.000  C
  C340     1.0000 0.77249  0.50041  0.22438  Biso   1.000  C
  H407     1.0000 0.79421  0.36640  0.16221  Biso   1.000  H
  H408     1.0000 0.83090  0.38968  0.20678  Biso   1.000  H
  C341     1.0000 0.80910  0.44219  0.15368  Biso   1.000  C
  C342     1.0000 0.40558  0.24741  0.78010  Biso   1.000  C
  H409     1.0000 0.36640  0.20579  0.83779  Biso   1.000  H
  H410     1.0000 0.38968  0.16910  0.79322  Biso   1.000  H
  H411     1.0000 0.38968  0.16910  0.79318  Biso   1.000  H
  C343     1.0000 0.50041  0.22751  0.77558  Biso   1.000  C
  H412     1.0000 0.48109  0.14459  0.78621  Biso   1.000  H
  H413     1.0000 0.52151  0.16441  0.83001  Biso   1.000  H
  C344     1.0000 0.60439  0.78757  0.25260  Biso   1.000  C
  H414     1.0000 0.54850  0.75868  0.29989  Biso   1.000  H
  H415     1.0000 0.54501  0.73731  0.24170  Biso   1.000  H
  H416     1.0000 0.50390  0.79649  0.17319  Biso   1.000  H
  C345     1.0000 0.56917  0.84959  0.18230  Biso   1.000  C
  H417     1.0000 0.48528  0.85231  0.19312  Biso   1.000  H
  H418     1.0000 0.48528  0.85231  0.19308  Biso   1.000  H
  C346     1.0000 0.19470  0.50991  0.74822  Biso   1.000  C
  H419     1.0000 0.20351  0.50390  0.82681  Biso   1.000  H
  H420     1.0000 0.14769  0.48528  0.80688  Biso   1.000  H
  C347     1.0000 0.19470  0.50991  0.74818  Biso   1.000  C
  H421     1.0000 0.20351  0.50390  0.82677  Biso   1.000  H
  C348     1.0000 0.21239  0.60439  0.74740  Biso   1.000  C
  H422     1.0000 0.17380  0.64628  0.80388  Biso   1.000  H
  H423     1.0000 0.21968  0.61149  0.82709  Biso   1.000  H
  H424     1.0000 0.74278  0.50611  0.20009  Biso   1.000  H
  C349     1.0000 0.82609  0.49059  0.19078  Biso   1.000  C
  N40      1.0000 0.78129  0.54668  0.25521  Biso   1.000  N
  H425     1.0000 0.77718  0.45119  0.13348  Biso   1.000  H
  N41      1.0000 0.85459  0.43610  0.11748  Biso   1.000  N
  C350     1.0000 0.45088  0.23620  0.74409  Biso   1.000  C
  H426     1.0000 0.41291  0.27879  0.80178  Biso   1.000  H
  N42      1.0000 0.35659  0.25528  0.74822  Biso   1.000  N
  N43      1.0000 0.35659  0.25528  0.74818  Biso   1.000  N
  H427     1.0000 0.50611  0.25718  0.79991  Biso   1.000  H
  N44      1.0000 0.54668  0.21871  0.74479  Biso   1.000  N
  H428     1.0000 0.50611  0.25718  0.79988  Biso   1.000  H
  H429     1.0000 0.61211  0.81600  0.27798  Biso   1.000  H
  N45      1.0000 0.64151  0.74681  0.26089  Biso   1.000  N
  C351     1.0000 0.61180  0.80929  0.19822  Biso   1.000  C
  C352     1.0000 0.61180  0.80929  0.19818  Biso   1.000  C
  H430     1.0000 0.57460  0.88217  0.20269  Biso   1.000  H
  N46      1.0000 0.56890  0.86227  0.12780  Biso   1.000  N
  C353     1.0000 0.23108  0.55091  0.73720  Biso   1.000  C
  H431     1.0000 0.16480  0.51278  0.72362  Biso   1.000  H
  N47      1.0000 0.21638  0.45739  0.74440  Biso   1.000  N
  H432     1.0000 0.16480  0.51278  0.72358  Biso   1.000  H
  H433     1.0000 0.18400  0.61211  0.72202  Biso   1.000  H
  N48      1.0000 0.25315  0.64151  0.73911  Biso   1.000  N
  H434     1.0000 0.18400  0.61211  0.72198  Biso   1.000  H
  H435     1.0000 0.85537  0.48109  0.21379  Biso   1.000  H
  H436     1.0000 0.83559  0.52151  0.16999  Biso   1.000  H
  C354     1.0000 0.75340  0.57968  0.25439  Biso   1.000  C
  C355     1.0000 0.84699  0.43579  0.06711  Biso   1.000  C
  H437     1.0000 0.45600  0.26568  0.72000  Biso   1.000  H
  H438     1.0000 0.44328  0.20490  0.72299  Biso   1.000  H
  C356     1.0000 0.33239  0.29729  0.75441  Biso   1.000  C
  C357     1.0000 0.57968  0.24660  0.74561  Biso   1.000  C
  C358     1.0000 0.67758  0.75340  0.29079  Biso   1.000  C
  H439     1.0000 0.64628  0.82620  0.19612  Biso   1.000  H
  H440     1.0000 0.61149  0.78028  0.17291  Biso   1.000  H
  H441     1.0000 0.64628  0.82620  0.19608  Biso   1.000  H
  H442     1.0000 0.61149  0.78028  0.17288  Biso   1.000  H
  C359     1.0000 0.57860  0.90839  0.11472  Biso   1.000  C
  C360     1.0000 0.57860  0.90839  0.11468  Biso   1.000  C
  H443     1.0000 0.24128  0.54850  0.70011  Biso   1.000  H
  H444     1.0000 0.26269  0.54501  0.75830  Biso   1.000  H
  C361     1.0000 0.19501  0.42210  0.70801  Biso   1.000  C
  C362     1.0000 0.24660  0.67758  0.70921  Biso   1.000  C
  C363     1.0000 0.24660  0.67758  0.70918  Biso   1.000  C
  C364     1.0000 0.75329  0.62782  0.28378  Biso   1.000  C
  H445     1.0000 0.72528  0.57581  0.23080  Biso   1.000  H
  H446     1.0000 0.81290  0.43920  0.05349  Biso   1.000  H
  C365     1.0000 0.89090  0.43028  0.03211  Biso   1.000  C
  C366     1.0000 0.89090  0.43028  0.03208  Biso   1.000  C
  H447     1.0000 0.34391  0.32029  0.78092  Biso   1.000  H
  C367     1.0000 0.28779  0.31238  0.72311  Biso   1.000  C
  H448     1.0000 0.34391  0.32029  0.78088  Biso   1.000  H
  C368     1.0000 0.62782  0.24671  0.71622  Biso   1.000  C
  H449     1.0000 0.57581  0.27468  0.76920  Biso   1.000  H
  C369     1.0000 0.71733  0.71229  0.30091  Biso   1.000  C
  H450     1.0000 0.68068  0.78567  0.30838  Biso   1.000  H
  H451     1.0000 0.58430  0.93519  0.13940  Biso   1.000  H
  C370     1.0000 0.58050  0.91789  0.05691  Biso   1.000  C
  C371     1.0000 0.58050  0.91789  0.05687  Biso   1.000  C
  C372     1.0000 0.22220  0.37552  0.70201  Biso   1.000  C
  H452     1.0000 0.16429  0.42951  0.68901  Biso   1.000  H
  H453     1.0000 0.21429  0.68068  0.69162  Biso   1.000  H
  C373     1.0000 0.28771  0.71733  0.69909  Biso   1.000  C
  H454     1.0000 0.21429  0.68068  0.69158  Biso   1.000  H
  C374     1.0000 0.71578  0.66536  0.27420  Biso   1.000  C
  C375     1.0000 0.79227  0.63713  0.31998  Biso   1.000  C
  C376     1.0000 0.94178  0.42338  0.04850  Biso   1.000  C
  C377     1.0000 0.87891  0.42838  0.97941  Biso   1.000  C
  C378     1.0000 0.26529  0.36078  0.73101  Biso   1.000  C
  C379     1.0000 0.26719  0.27879  0.68621  Biso   1.000  C
  C380     1.0000 0.66536  0.28418  0.72580  Biso   1.000  C
  C381     1.0000 0.63713  0.20773  0.68002  Biso   1.000  C
  C382     1.0000 0.66536  0.28418  0.72576  Biso   1.000  C
  C383     1.0000 0.63713  0.20773  0.67998  Biso   1.000  C
  C384     1.0000 0.75627  0.72160  0.33707  Biso   1.000  C
  C385     1.0000 0.57158  0.87891  0.02059  Biso   1.000  C
  C386     1.0000 0.58729  0.96878  0.04048  Biso   1.000  C
  C387     1.0000 0.20168  0.34189  0.66511  Biso   1.000  C
  C388     1.0000 0.33460  0.71578  0.72580  Biso   1.000  C
  C389     1.0000 0.27840  0.75627  0.66293  Biso   1.000  C
  C390     1.0000 0.33460  0.71578  0.72576  Biso   1.000  C
  O18      1.0000 0.67684  0.65384  0.24069  Biso   1.000  O
  H455     1.0000 0.81790  0.61137  0.32648  Biso   1.000  H
  C391     1.0000 0.79378  0.68398  0.34665  Biso   1.000  C
  C392     1.0000 0.79378  0.68398  0.34661  Biso   1.000  C
  C393     1.0000 0.98076  0.41458  0.01218  Biso   1.000  C
  H456     1.0000 0.94997  0.42478  0.08451  Biso   1.000  H
  C394     1.0000 0.91789  0.41950  0.94309  Biso   1.000  C
  O19      1.0000 0.82675  0.43622  0.96621  Biso   1.000  O
  O20      1.0000 0.28620  0.39045  0.76916  Biso   1.000  O
  C395     1.0000 0.22418  0.29353  0.65717  Biso   1.000  C
  H457     1.0000 0.28259  0.24570  0.68080  Biso   1.000  H
  C396     1.0000 0.71229  0.28267  0.69909  Biso   1.000  C
  O21      1.0000 0.65384  0.32312  0.75931  Biso   1.000  O
  H458     1.0000 0.61137  0.18210  0.67352  Biso   1.000  H
  C397     1.0000 0.68398  0.20622  0.65335  Biso   1.000  C
  H459     1.0000 0.61137  0.18210  0.67348  Biso   1.000  H
  H460     1.0000 0.75728  0.75367  0.35529  Biso   1.000  H
  O22      1.0000 0.56374  0.82675  0.03379  Biso   1.000  O
  C398     1.0000 0.56968  0.89090  0.96789  Biso   1.000  C
  H461     1.0000 0.59338  0.99538  0.06540  Biso   1.000  H
  C399     1.0000 0.58539  0.98076  0.98782  Biso   1.000  C
  C400     1.0000 0.58539  0.98076  0.98778  Biso   1.000  C
  H462     1.0000 0.17228  0.35190  0.64522  Biso   1.000  H
  H463     1.0000 0.17228  0.35190  0.64518  Biso   1.000  H
  C401     1.0000 0.37218  0.75329  0.71622  Biso   1.000  C
  O23      1.0000 0.34616  0.67684  0.75931  Biso   1.000  O
  C402     1.0000 0.31598  0.79378  0.65335  Biso   1.000  C
  H464     1.0000 0.24629  0.75728  0.64471  Biso   1.000  H
  H465     1.0000 0.65609  0.67897  0.24049  Biso   1.000  H
  C403     1.0000 0.83978  0.69437  0.38880  Biso   1.000  C
  C404     1.0000 0.96878  0.41268  0.95952  Biso   1.000  C
  C405     1.0000 0.96878  0.41268  0.95948  Biso   1.000  C
  C406     1.0000 0.03619  0.40810  0.03328  Biso   1.000  C
  C407     1.0000 0.90839  0.42140  0.88528  Biso   1.000  C
  H466     1.0000 0.82469  0.45278  0.93818  Biso   1.000  H
  H467     1.0000 0.26789  0.41729  0.77119  Biso   1.000  H
  C408     1.0000 0.20099  0.25711  0.61291  Biso   1.000  C
  C409     1.0000 0.75340  0.32238  0.70921  Biso   1.000  C
  C410     1.0000 0.72160  0.24369  0.66293  Biso   1.000  C
  C411     1.0000 0.75340  0.32238  0.70918  Biso   1.000  C
  H468     1.0000 0.67897  0.34391  0.75951  Biso   1.000  H
  C412     1.0000 0.69437  0.16018  0.61120  Biso   1.000  C
  H469     1.0000 0.54718  0.82469  0.06182  Biso   1.000  H
  H470     1.0000 0.54718  0.82469  0.06178  Biso   1.000  H
  C413     1.0000 0.56421  0.84699  0.93289  Biso   1.000  C
  C414     1.0000 0.57658  0.94178  0.95150  Biso   1.000  C
  C415     1.0000 0.59190  0.03619  0.96672  Biso   1.000  C
  C416     1.0000 0.59190  0.03619  0.96668  Biso   1.000  C
  C417     1.0000 0.36287  0.79227  0.68002  Biso   1.000  C
  C418     1.0000 0.42028  0.75340  0.74561  Biso   1.000  C
  C419     1.0000 0.36287  0.79227  0.67998  Biso   1.000  C
  H471     1.0000 0.32099  0.65609  0.75951  Biso   1.000  H
  C420     1.0000 0.30559  0.83978  0.61120  Biso   1.000  C
  C421     1.0000 0.83819  0.75057  0.40340  Biso   1.000  C
  C422     1.0000 0.88729  0.67448  0.36541  Biso   1.000  C
  C423     1.0000 0.81728  0.65989  0.43801  Biso   1.000  C
  C424     1.0000 0.88729  0.67448  0.36537  Biso   1.000  C
  C425     1.0000 0.81728  0.65989  0.43797  Biso   1.000  C
  H472     1.0000 0.99538  0.40659  0.93460  Biso   1.000  H
  C426     1.0000 0.07668  0.43428  0.99031  Biso   1.000  C
  C427     1.0000 0.05469  0.41907  0.08541  Biso   1.000  C
  C428     1.0000 0.04899  0.34531  0.01849  Biso   1.000  C
  H473     1.0000 0.93519  0.41570  0.86060  Biso   1.000  H
  N49      1.0000 0.86227  0.43110  0.87220  Biso   1.000  N
  C429     1.0000 0.23818  0.20719  0.61221  Biso   1.000  C
  C430     1.0000 0.14409  0.24811  0.62089  Biso   1.000  C
  C431     1.0000 0.20649  0.28228  0.56320  Biso   1.000  C
  H474     1.0000 0.78567  0.31928  0.69162  Biso   1.000  H
  N50      1.0000 0.74681  0.35849  0.73911  Biso   1.000  N
  H475     1.0000 0.78567  0.31928  0.69158  Biso   1.000  H
  H476     1.0000 0.75367  0.24268  0.64471  Biso   1.000  H
  C432     1.0000 0.67448  0.11271  0.63459  Biso   1.000  C
  C433     1.0000 0.65989  0.18268  0.56199  Biso   1.000  C
  C434     1.0000 0.75057  0.16181  0.59660  Biso   1.000  C
  H477     1.0000 0.56080  0.81290  0.94651  Biso   1.000  H
  N51      1.0000 0.56390  0.85459  0.88252  Biso   1.000  N
  H478     1.0000 0.56080  0.81290  0.94648  Biso   1.000  H
  N52      1.0000 0.56390  0.85459  0.88248  Biso   1.000  N
  H479     1.0000 0.57519  0.94997  0.91549  Biso   1.000  H
  C435     1.0000 0.58089  0.05469  0.91459  Biso   1.000  C
  C436     1.0000 0.65469  0.04899  0.98151  Biso   1.000  C
  C437     1.0000 0.56568  0.07668  0.00969  Biso   1.000  C
  H480     1.0000 0.38859  0.81790  0.67352  Biso   1.000  H
  H481     1.0000 0.38859  0.81790  0.67348  Biso   1.000  H
  H482     1.0000 0.42419  0.72528  0.76920  Biso   1.000  H
  N53      1.0000 0.45328  0.78129  0.74479  Biso   1.000  N
  C438     1.0000 0.32549  0.88729  0.63459  Biso   1.000  C
  C439     1.0000 0.34011  0.81728  0.56199  Biso   1.000  C
  C440     1.0000 0.24939  0.83819  0.59660  Biso   1.000  C
  H483     1.0000 0.86429  0.75748  0.43030  Biso   1.000  H
  H484     1.0000 0.84548  0.77190  0.37269  Biso   1.000  H
  H485     1.0000 0.80367  0.75918  0.41691  Biso   1.000  H
  H486     1.0000 0.80367  0.75918  0.41687  Biso   1.000  H
  H487     1.0000 0.88260  0.63790  0.35630  Biso   1.000  H
  H488     1.0000 0.89528  0.69437  0.33388  Biso   1.000  H
  H489     1.0000 0.91587  0.67777  0.39021  Biso   1.000  H
  H490     1.0000 0.81139  0.62417  0.42660  Biso   1.000  H
  H491     1.0000 0.84257  0.66020  0.46650  Biso   1.000  H
  H492     1.0000 0.78459  0.67498  0.45011  Biso   1.000  H
  H493     1.0000 0.78459  0.67498  0.45008  Biso   1.000  H
  H494     1.0000 0.07350  0.41620  0.95699  Biso   1.000  H
  H495     1.0000 0.06807  0.47109  0.98552  Biso   1.000  H
  H496     1.0000 0.06807  0.47109  0.98548  Biso   1.000  H
  H497     1.0000 0.11240  0.43118  0.00311  Biso   1.000  H
  H498     1.0000 0.11240  0.43118  0.00308  Biso   1.000  H
  H499     1.0000 0.09188  0.41171  0.08739  Biso   1.000  H
  H500     1.0000 0.04860  0.45569  0.09350  Biso   1.000  H
  H501     1.0000 0.03607  0.39728  0.11040  Biso   1.000  H
  H502     1.0000 0.04627  0.34030  0.98081  Biso   1.000  H
  H503     1.0000 0.08409  0.33650  0.03001  Biso   1.000  H
  H504     1.0000 0.02389  0.32281  0.03620  Biso   1.000  H
  H505     1.0000 0.08409  0.33650  0.02997  Biso   1.000  H
  C441     1.0000 0.84959  0.43079  0.81770  Biso   1.000  C
  H506     1.0000 0.27390  0.21809  0.60520  Biso   1.000  H
  H507     1.0000 0.22670  0.18318  0.58492  Biso   1.000  H
  H508     1.0000 0.23659  0.18970  0.64611  Biso   1.000  H
  H509     1.0000 0.22670  0.18318  0.58488  Biso   1.000  H
  H510     1.0000 0.12601  0.28158  0.62178  Biso   1.000  H
  H511     1.0000 0.13858  0.22988  0.65390  Biso   1.000  H
  H512     1.0000 0.13051  0.22709  0.59220  Biso   1.000  H
  H513     1.0000 0.24318  0.28949  0.55662  Biso   1.000  H
  H514     1.0000 0.18698  0.31490  0.56339  Biso   1.000  H
  H515     1.0000 0.19288  0.25959  0.53579  Biso   1.000  H
  H516     1.0000 0.24318  0.28949  0.55658  Biso   1.000  H
  C442     1.0000 0.78757  0.39561  0.74740  Biso   1.000  C
  H517     1.0000 0.63790  0.11740  0.64370  Biso   1.000  H
  H518     1.0000 0.69437  0.10468  0.66612  Biso   1.000  H
  H519     1.0000 0.67777  0.08409  0.60979  Biso   1.000  H
  H520     1.0000 0.69437  0.10468  0.66608  Biso   1.000  H
  H521     1.0000 0.67498  0.21541  0.54989  Biso   1.000  H
  H522     1.0000 0.62417  0.18861  0.57340  Biso   1.000  H
  H523     1.0000 0.66020  0.15739  0.53350  Biso   1.000  H
  H524     1.0000 0.75918  0.19629  0.58309  Biso   1.000  H
  H525     1.0000 0.75748  0.13571  0.56970  Biso   1.000  H
  H526     1.0000 0.77190  0.15448  0.62731  Biso   1.000  H
  C443     1.0000 0.55781  0.80910  0.84632  Biso   1.000  C
  C444     1.0000 0.55781  0.80910  0.84628  Biso   1.000  C
  H527     1.0000 0.58829  0.09188  0.91261  Biso   1.000  H
  H528     1.0000 0.54427  0.04860  0.90650  Biso   1.000  H
  H529     1.0000 0.60268  0.03607  0.88960  Biso   1.000  H
  H530     1.0000 0.66350  0.08409  0.96999  Biso   1.000  H
  H531     1.0000 0.67719  0.02389  0.96380  Biso   1.000  H
  H532     1.0000 0.65970  0.04627  0.01919  Biso   1.000  H
  H533     1.0000 0.56879  0.11240  0.99689  Biso   1.000  H
  H534     1.0000 0.58380  0.07350  0.04301  Biso   1.000  H
  H535     1.0000 0.52888  0.06807  0.01448  Biso   1.000  H
  H536     1.0000 0.58380  0.07350  0.04298  Biso   1.000  H
  C445     1.0000 0.49959  0.77249  0.77558  Biso   1.000  C
  H537     1.0000 0.36210  0.88260  0.64370  Biso   1.000  H
  H538     1.0000 0.30559  0.89528  0.66612  Biso   1.000  H
  H539     1.0000 0.32219  0.91587  0.60979  Biso   1.000  H
  H540     1.0000 0.30559  0.89528  0.66608  Biso   1.000  H
  H541     1.0000 0.32498  0.78459  0.54989  Biso   1.000  H
  H542     1.0000 0.37579  0.81139  0.57340  Biso   1.000  H
  H543     1.0000 0.33980  0.84257  0.53350  Biso   1.000  H
  H544     1.0000 0.24078  0.80367  0.58309  Biso   1.000  H
  H545     1.0000 0.24249  0.86429  0.56970  Biso   1.000  H
  H546     1.0000 0.22810  0.84548  0.62731  Biso   1.000  H
  C446     1.0000 0.82519  0.48788  0.80248  Biso   1.000  C
  H547     1.0000 0.88217  0.42540  0.79731  Biso   1.000  H
  C447     1.0000 0.80929  0.38820  0.80178  Biso   1.000  C
  H548     1.0000 0.81600  0.38789  0.72202  Biso   1.000  H
  C448     1.0000 0.76888  0.44909  0.73720  Biso   1.000  C
  H549     1.0000 0.81600  0.38789  0.72198  Biso   1.000  H
  C449     1.0000 0.60319  0.80010  0.81502  Biso   1.000  C
  H550     1.0000 0.54877  0.77718  0.86652  Biso   1.000  H
  C450     1.0000 0.50941  0.82609  0.80922  Biso   1.000  C
  C451     1.0000 0.60319  0.80010  0.81498  Biso   1.000  C
  H551     1.0000 0.54877  0.77718  0.86648  Biso   1.000  H
  C452     1.0000 0.50941  0.82609  0.80918  Biso   1.000  C
  H552     1.0000 0.49389  0.74278  0.79991  Biso   1.000  H
  C453     1.0000 0.54908  0.76380  0.74409  Biso   1.000  C
  H553     1.0000 0.49389  0.74278  0.79988  Biso   1.000  H
  C454     1.0000 0.80530  0.49009  0.74822  Biso   1.000  C
  H554     1.0000 0.79649  0.49610  0.82681  Biso   1.000  H
  H555     1.0000 0.85231  0.51468  0.80688  Biso   1.000  H
  C455     1.0000 0.80530  0.49009  0.74818  Biso   1.000  C
  H556     1.0000 0.79649  0.49610  0.82677  Biso   1.000  H
  H557     1.0000 0.82620  0.35368  0.80388  Biso   1.000  H
  H558     1.0000 0.78028  0.38851  0.82709  Biso   1.000  H
  H559     1.0000 0.75868  0.45150  0.70011  Biso   1.000  H
  H560     1.0000 0.73731  0.45499  0.75830  Biso   1.000  H
  C456     1.0000 0.59438  0.75259  0.78010  Biso   1.000  C
  H561     1.0000 0.63360  0.79421  0.83779  Biso   1.000  H
  H562     1.0000 0.61029  0.83090  0.79322  Biso   1.000  H
  H563     1.0000 0.61029  0.83090  0.79318  Biso   1.000  H
  H564     1.0000 0.51891  0.85537  0.78621  Biso   1.000  H
  H565     1.0000 0.47849  0.83559  0.83001  Biso   1.000  H
  H566     1.0000 0.54400  0.73428  0.72000  Biso   1.000  H
  H567     1.0000 0.55668  0.79510  0.72299  Biso   1.000  H
  H568     1.0000 0.83520  0.48718  0.72362  Biso   1.000  H
  N54      1.0000 0.78358  0.54261  0.74440  Biso   1.000  N
  H569     1.0000 0.83520  0.48718  0.72358  Biso   1.000  H
  H570     1.0000 0.58709  0.72117  0.80178  Biso   1.000  H
  N55      1.0000 0.64341  0.74468  0.74822  Biso   1.000  N
  N56      1.0000 0.64341  0.74468  0.74818  Biso   1.000  N
  C457     1.0000 0.80499  0.57790  0.70801  Biso   1.000  C
  C458     1.0000 0.66757  0.70267  0.75441  Biso   1.000  C
  C459     1.0000 0.77780  0.62448  0.70201  Biso   1.000  C
  H571     1.0000 0.83571  0.57049  0.68901  Biso   1.000  H
  C460     1.0000 0.71221  0.68758  0.72311  Biso   1.000  C
  H572     1.0000 0.65609  0.67967  0.78092  Biso   1.000  H
  H573     1.0000 0.65609  0.67967  0.78088  Biso   1.000  H
  C461     1.0000 0.73467  0.63918  0.73101  Biso   1.000  C
  C462     1.0000 0.79832  0.65811  0.66511  Biso   1.000  C
  C463     1.0000 0.73277  0.72121  0.68621  Biso   1.000  C
  O24      1.0000 0.71376  0.60955  0.76916  Biso   1.000  O
  H574     1.0000 0.82768  0.64810  0.64522  Biso   1.000  H
  C464     1.0000 0.77578  0.70647  0.65717  Biso   1.000  C
  H575     1.0000 0.82768  0.64810  0.64518  Biso   1.000  H
  H576     1.0000 0.71737  0.75430  0.68080  Biso   1.000  H
  H577     1.0000 0.73207  0.58271  0.77119  Biso   1.000  H
  C465     1.0000 0.79898  0.74289  0.61291  Biso   1.000  C
  C466     1.0000 0.76178  0.79277  0.61221  Biso   1.000  C
  C467     1.0000 0.85587  0.75189  0.62089  Biso   1.000  C
  C468     1.0000 0.79347  0.71768  0.56320  Biso   1.000  C
  H578     1.0000 0.72610  0.78187  0.60520  Biso   1.000  H
  H579     1.0000 0.77330  0.81678  0.58492  Biso   1.000  H
  H580     1.0000 0.76337  0.81030  0.64611  Biso   1.000  H
  H581     1.0000 0.77330  0.81678  0.58488  Biso   1.000  H
  H582     1.0000 0.87399  0.71838  0.62178  Biso   1.000  H
  H583     1.0000 0.86138  0.77008  0.65390  Biso   1.000  H
  H584     1.0000 0.86949  0.77287  0.59220  Biso   1.000  H
  H585     1.0000 0.75678  0.71051  0.55662  Biso   1.000  H
  H586     1.0000 0.81298  0.68510  0.56339  Biso   1.000  H
  H587     1.0000 0.80708  0.74037  0.53579  Biso   1.000  H
  H588     1.0000 0.75678  0.71051  0.55658  Biso   1.000  H
  O25      1.0000 0.10953  0.21378  0.26918  Biso   1.000  O
  C469     1.0000 0.13920  0.23469  0.23099  Biso   1.000  C
  H589     1.0000 0.08269  0.23209  0.27121  Biso   1.000  H
  C470     1.0000 0.18760  0.21223  0.22309  Biso   1.000  C
  C471     1.0000 0.18760  0.21219  0.22309  Biso   1.000  C
  C472     1.0000 0.18757  0.21223  0.22309  Biso   1.000  C
  C473     1.0000 0.18757  0.21219  0.22309  Biso   1.000  C
  C474     1.0000 0.12450  0.27778  0.20199  Biso   1.000  C
  C475     1.0000 0.12446  0.27778  0.20199  Biso   1.000  C
  C476     1.0000 0.22119  0.23279  0.18619  Biso   1.000  C
  C477     1.0000 0.20269  0.16759  0.25439  Biso   1.000  C
  C478     1.0000 0.15809  0.29830  0.16509  Biso   1.000  C
  C479     1.0000 0.07788  0.30501  0.20799  Biso   1.000  C
  C480     1.0000 0.07788  0.30497  0.20799  Biso   1.000  C
  C481     1.0000 0.20649  0.27580  0.15719  Biso   1.000  C
  H590     1.0000 0.25431  0.21739  0.18082  Biso   1.000  H
  C482     1.0000 0.20649  0.27576  0.15719  Biso   1.000  C
  C483     1.0000 0.20645  0.27580  0.15719  Biso   1.000  C
  H591     1.0000 0.25428  0.21739  0.18082  Biso   1.000  H
  C484     1.0000 0.20645  0.27576  0.15719  Biso   1.000  C
  H592     1.0000 0.17969  0.15611  0.28090  Biso   1.000  H
  N57      1.0000 0.24470  0.14339  0.24820  Biso   1.000  N
  H593     1.0000 0.17969  0.15607  0.28090  Biso   1.000  H
  H594     1.0000 0.14808  0.32770  0.14520  Biso   1.000  H
  H595     1.0000 0.07051  0.33569  0.18899  Biso   1.000  H
  N58      1.0000 0.04259  0.28360  0.24438  Biso   1.000  N
  H596     1.0000 0.07047  0.33569  0.18899  Biso   1.000  H
  C485     1.0000 0.24291  0.29900  0.11289  Biso   1.000  C
  C486     1.0000 0.24287  0.29900  0.11289  Biso   1.000  C
  C487     1.0000 0.25261  0.09440  0.28008  Biso   1.000  C
  C488     1.0000 0.25261  0.09436  0.28008  Biso   1.000  C
  C489     1.0000 0.25257  0.09440  0.28008  Biso   1.000  C
  C490     1.0000 0.25257  0.09436  0.28008  Biso   1.000  C
  C491     1.0000 0.99011  0.30528  0.24820  Biso   1.000  C
  C492     1.0000 0.99007  0.30528  0.24820  Biso   1.000  C
  C493     1.0000 0.29279  0.26180  0.11219  Biso   1.000  C
  C494     1.0000 0.25191  0.35589  0.12091  Biso   1.000  C
  C495     1.0000 0.21770  0.29349  0.06322  Biso   1.000  C
  C496     1.0000 0.29279  0.26176  0.11219  Biso   1.000  C
  C497     1.0000 0.25187  0.35589  0.12091  Biso   1.000  C
  C498     1.0000 0.21766  0.29349  0.06322  Biso   1.000  C
  C499     1.0000 0.26378  0.04910  0.24411  Biso   1.000  C
  H597     1.0000 0.22119  0.08711  0.30180  Biso   1.000  H
  C500     1.0000 0.30008  0.10321  0.31500  Biso   1.000  C
  H598     1.0000 0.22119  0.08707  0.30180  Biso   1.000  H
  C501     1.0000 0.30008  0.10317  0.31500  Biso   1.000  C
  C502     1.0000 0.94911  0.26890  0.23718  Biso   1.000  C
  H599     1.0000 0.98720  0.33518  0.22360  Biso   1.000  H
  C503     1.0000 0.98790  0.32521  0.30250  Biso   1.000  C
  C504     1.0000 0.98790  0.32518  0.30250  Biso   1.000  C
  C505     1.0000 0.94907  0.26890  0.23718  Biso   1.000  C
  H600     1.0000 0.28189  0.22608  0.10518  Biso   1.000  H
  H601     1.0000 0.31680  0.27328  0.08490  Biso   1.000  H
  H602     1.0000 0.31028  0.26339  0.14609  Biso   1.000  H
  H603     1.0000 0.21840  0.37401  0.12180  Biso   1.000  H
  H604     1.0000 0.27010  0.36140  0.15392  Biso   1.000  H
  H605     1.0000 0.27289  0.36951  0.09222  Biso   1.000  H
  H606     1.0000 0.21840  0.37397  0.12180  Biso   1.000  H
  H607     1.0000 0.27010  0.36136  0.15392  Biso   1.000  H
  H608     1.0000 0.27289  0.36947  0.09222  Biso   1.000  H
  H609     1.0000 0.27006  0.36140  0.15392  Biso   1.000  H
  H610     1.0000 0.27006  0.36136  0.15392  Biso   1.000  H
  H611     1.0000 0.21049  0.25680  0.05660  Biso   1.000  H
  H612     1.0000 0.18508  0.31300  0.06341  Biso   1.000  H
  H613     1.0000 0.24039  0.30710  0.03581  Biso   1.000  H
  H614     1.0000 0.24039  0.30706  0.03581  Biso   1.000  H
  H615     1.0000 0.23430  0.04398  0.22002  Biso   1.000  H
  H616     1.0000 0.29508  0.05670  0.22301  Biso   1.000  H
  H617     1.0000 0.29508  0.05667  0.22301  Biso   1.000  H
  H618     1.0000 0.23426  0.04398  0.22002  Biso   1.000  H
  C506     1.0000 0.27251  0.99961  0.27560  Biso   1.000  C
  C507     1.0000 0.27251  0.99957  0.27560  Biso   1.000  C
  C508     1.0000 0.27247  0.99961  0.27560  Biso   1.000  C
  C509     1.0000 0.27247  0.99957  0.27560  Biso   1.000  C
  H619     1.0000 0.29419  0.13362  0.33781  Biso   1.000  H
  H620     1.0000 0.33088  0.11031  0.29320  Biso   1.000  H
  C510     1.0000 0.30908  0.05779  0.34630  Biso   1.000  C
  H621     1.0000 0.29419  0.13358  0.33781  Biso   1.000  H
  H622     1.0000 0.33088  0.11027  0.29320  Biso   1.000  H
  C511     1.0000 0.89559  0.28759  0.24738  Biso   1.000  C
  H623     1.0000 0.95152  0.25870  0.20009  Biso   1.000  H
  H624     1.0000 0.95501  0.23729  0.25828  Biso   1.000  H
  H625     1.0000 0.95148  0.25870  0.20009  Biso   1.000  H
  H626     1.0000 0.95497  0.23729  0.25828  Biso   1.000  H
  H627     1.0000 0.01470  0.35229  0.30690  Biso   1.000  H
  H628     1.0000 0.99608  0.29651  0.32679  Biso   1.000  H
  C512     1.0000 0.93081  0.34961  0.31768  Biso   1.000  C
  H629     1.0000 0.99608  0.29647  0.32679  Biso   1.000  H
  C513     1.0000 0.93081  0.34957  0.31768  Biso   1.000  C
  C514     1.0000 0.93077  0.34961  0.31768  Biso   1.000  C
  C515     1.0000 0.93077  0.34957  0.31768  Biso   1.000  C
  C516     1.0000 0.32611  0.00939  0.30920  Biso   1.000  C
  C517     1.0000 0.32607  0.00939  0.30920  Biso   1.000  C
  H630     1.0000 0.24280  0.99391  0.29989  Biso   1.000  H
  N59      1.0000 0.28131  0.95330  0.24481  Biso   1.000  N
  H631     1.0000 0.24280  0.99387  0.29989  Biso   1.000  H
  N60      1.0000 0.28127  0.95330  0.24481  Biso   1.000  N
  H632     1.0000 0.27720  0.04879  0.36650  Biso   1.000  H
  N61      1.0000 0.35461  0.06392  0.38250  Biso   1.000  N
  N62      1.0000 0.35461  0.06388  0.38250  Biso   1.000  N
  N63      1.0000 0.35457  0.06392  0.38250  Biso   1.000  N
  N64      1.0000 0.35457  0.06388  0.38250  Biso   1.000  N
  H633     1.0000 0.88791  0.31598  0.22200  Biso   1.000  H
  C518     1.0000 0.88822  0.30931  0.30180  Biso   1.000  C
  N65      1.0000 0.85851  0.24683  0.23909  Biso   1.000  N
  C519     1.0000 0.88822  0.30927  0.30180  Biso   1.000  C
  H634     1.0000 0.88787  0.31598  0.22200  Biso   1.000  H
  C520     1.0000 0.88818  0.30931  0.30180  Biso   1.000  C
  N66      1.0000 0.85847  0.24683  0.23909  Biso   1.000  N
  C521     1.0000 0.88818  0.30927  0.30180  Biso   1.000  C
  H635     1.0000 0.92542  0.38219  0.29729  Biso   1.000  H
  N67      1.0000 0.93112  0.36229  0.37218  Biso   1.000  N
  H636     1.0000 0.92538  0.38219  0.29729  Biso   1.000  H
  N68      1.0000 0.93108  0.36229  0.37218  Biso   1.000  N
  H637     1.0000 0.35539  0.01889  0.28619  Biso   1.000  H
  H638     1.0000 0.33561  0.97851  0.32999  Biso   1.000  H
  H639     1.0000 0.33561  0.97847  0.32999  Biso   1.000  H
  H640     1.0000 0.33557  0.97851  0.32999  Biso   1.000  H
  H641     1.0000 0.33557  0.97847  0.32999  Biso   1.000  H
  C522     1.0000 0.25338  0.92030  0.24559  Biso   1.000  C
  C523     1.0000 0.34701  0.06419  0.43291  Biso   1.000  C
  C524     1.0000 0.34697  0.06419  0.43291  Biso   1.000  C
  H642     1.0000 0.85370  0.32618  0.30390  Biso   1.000  H
  H643     1.0000 0.88849  0.28030  0.32710  Biso   1.000  H
  H644     1.0000 0.88849  0.28026  0.32710  Biso   1.000  H
  C525     1.0000 0.82240  0.25338  0.20919  Biso   1.000  C
  C526     1.0000 0.92138  0.40841  0.38530  Biso   1.000  C
  C527     1.0000 0.92138  0.40837  0.38530  Biso   1.000  C
  C528     1.0000 0.25331  0.87216  0.21624  Biso   1.000  C
  H645     1.0000 0.22530  0.92421  0.26918  Biso   1.000  H
  H646     1.0000 0.22530  0.92417  0.26918  Biso   1.000  H
  C529     1.0000 0.25327  0.87216  0.21624  Biso   1.000  C
  H647     1.0000 0.22526  0.92421  0.26918  Biso   1.000  H
  H648     1.0000 0.22526  0.92417  0.26918  Biso   1.000  H
  H649     1.0000 0.31288  0.06082  0.44649  Biso   1.000  H
  C530     1.0000 0.39088  0.06970  0.46790  Biso   1.000  C
  H650     1.0000 0.31288  0.06078  0.44649  Biso   1.000  H
  H651     1.0000 0.81930  0.28569  0.19160  Biso   1.000  H
  C531     1.0000 0.78265  0.21227  0.19911  Biso   1.000  C
  C532     1.0000 0.91952  0.41791  0.44311  Biso   1.000  C
  H652     1.0000 0.91572  0.43521  0.36058  Biso   1.000  H
  C533     1.0000 0.91952  0.41787  0.44311  Biso   1.000  C
  H653     1.0000 0.91572  0.43517  0.36058  Biso   1.000  H
  C534     1.0000 0.91948  0.41791  0.44311  Biso   1.000  C
  H654     1.0000 0.91568  0.43521  0.36058  Biso   1.000  H
  C535     1.0000 0.91948  0.41787  0.44311  Biso   1.000  C
  H655     1.0000 0.91568  0.43517  0.36058  Biso   1.000  H
  C536     1.0000 0.21580  0.83462  0.22578  Biso   1.000  C
  C537     1.0000 0.29229  0.86286  0.18000  Biso   1.000  C
  C538     1.0000 0.21580  0.83458  0.22578  Biso   1.000  C
  C539     1.0000 0.21576  0.83462  0.22578  Biso   1.000  C
  C540     1.0000 0.29225  0.86286  0.18000  Biso   1.000  C
  C541     1.0000 0.21576  0.83458  0.22578  Biso   1.000  C
  C542     1.0000 0.37893  0.07160  0.52061  Biso   1.000  C
  C543     1.0000 0.44180  0.07660  0.45148  Biso   1.000  C
  C544     1.0000 0.37889  0.07160  0.52061  Biso   1.000  C
  C545     1.0000 0.44176  0.07660  0.45148  Biso   1.000  C
  C546     1.0000 0.78420  0.16538  0.22578  Biso   1.000  C
  C547     1.0000 0.74371  0.22158  0.16291  Biso   1.000  C
  C548     1.0000 0.92840  0.37893  0.47939  Biso   1.000  C
  C549     1.0000 0.91269  0.46880  0.45950  Biso   1.000  C
  C550     1.0000 0.92840  0.37889  0.47939  Biso   1.000  C
  C551     1.0000 0.91269  0.46876  0.45950  Biso   1.000  C
  C552     1.0000 0.21735  0.78773  0.19911  Biso   1.000  C
  O26      1.0000 0.17686  0.84614  0.25929  Biso   1.000  O
  C553     1.0000 0.21735  0.78769  0.19911  Biso   1.000  C
  C554     1.0000 0.21731  0.78773  0.19911  Biso   1.000  C
  C555     1.0000 0.21731  0.78769  0.19911  Biso   1.000  C
  H656     1.0000 0.31788  0.88861  0.17350  Biso   1.000  H
  C556     1.0000 0.29376  0.81600  0.15337  Biso   1.000  C
  H657     1.0000 0.31788  0.88857  0.17350  Biso   1.000  H
  C557     1.0000 0.41791  0.08048  0.55689  Biso   1.000  C
  O27      1.0000 0.32673  0.06376  0.53381  Biso   1.000  O
  O28      1.0000 0.32673  0.06372  0.53381  Biso   1.000  O
  C558     1.0000 0.41787  0.08048  0.55689  Biso   1.000  C
  C559     1.0000 0.48074  0.08541  0.48780  Biso   1.000  C
  H658     1.0000 0.44999  0.07520  0.41551  Biso   1.000  H
  C560     1.0000 0.48074  0.08537  0.48780  Biso   1.000  C
  H659     1.0000 0.44999  0.07517  0.41551  Biso   1.000  H
  C561     1.0000 0.74669  0.12784  0.21624  Biso   1.000  C
  O29      1.0000 0.82314  0.15386  0.25929  Biso   1.000  O
  C562     1.0000 0.74669  0.12780  0.21624  Biso   1.000  C
  O30      1.0000 0.82314  0.15382  0.25929  Biso   1.000  O
  O31      1.0000 0.82310  0.15386  0.25929  Biso   1.000  O
  O32      1.0000 0.82310  0.15382  0.25929  Biso   1.000  O
  C563     1.0000 0.70624  0.18400  0.15337  Biso   1.000  C
  H660     1.0000 0.74270  0.25369  0.14469  Biso   1.000  H
  C564     1.0000 0.70620  0.18400  0.15337  Biso   1.000  C
  C565     1.0000 0.93030  0.39088  0.53210  Biso   1.000  C
  O33      1.0000 0.93624  0.32673  0.46619  Biso   1.000  O
  H661     1.0000 0.90661  0.49540  0.43458  Biso   1.000  H
  C566     1.0000 0.91459  0.48074  0.51220  Biso   1.000  C
  H662     1.0000 0.90661  0.49537  0.43458  Biso   1.000  H
  C567     1.0000 0.17760  0.74662  0.20919  Biso   1.000  C
  C568     1.0000 0.25629  0.77842  0.16291  Biso   1.000  C
  C569     1.0000 0.17760  0.74658  0.20919  Biso   1.000  C
  C570     1.0000 0.25629  0.77838  0.16291  Biso   1.000  C
  H663     1.0000 0.15611  0.82101  0.25949  Biso   1.000  H
  H664     1.0000 0.15607  0.82101  0.25949  Biso   1.000  H
  C571     1.0000 0.33980  0.80561  0.11121  Biso   1.000  C
  C572     1.0000 0.33980  0.80557  0.11121  Biso   1.000  C
  C573     1.0000 0.40841  0.07862  0.61470  Biso   1.000  C
  C574     1.0000 0.46880  0.08731  0.54050  Biso   1.000  C
  C575     1.0000 0.40841  0.07858  0.61470  Biso   1.000  C
  C576     1.0000 0.46880  0.08727  0.54050  Biso   1.000  C
  C577     1.0000 0.40837  0.07862  0.61470  Biso   1.000  C
  C578     1.0000 0.46876  0.08731  0.54050  Biso   1.000  C
  C579     1.0000 0.40837  0.07858  0.61470  Biso   1.000  C
  C580     1.0000 0.46876  0.08727  0.54050  Biso   1.000  C
  H665     1.0000 0.32471  0.04720  0.56180  Biso   1.000  H
  H666     1.0000 0.32467  0.04720  0.56180  Biso   1.000  H
  C581     1.0000 0.53621  0.09188  0.46670  Biso   1.000  C
  C582     1.0000 0.53617  0.09188  0.46670  Biso   1.000  C
  C583     1.0000 0.70771  0.13714  0.18000  Biso   1.000  C
  C584     1.0000 0.74662  0.07970  0.24559  Biso   1.000  C
  C585     1.0000 0.70771  0.13711  0.18000  Biso   1.000  C
  C586     1.0000 0.74662  0.07966  0.24559  Biso   1.000  C
  C587     1.0000 0.74658  0.07970  0.24559  Biso   1.000  C
  C588     1.0000 0.74658  0.07966  0.24559  Biso   1.000  C
  H667     1.0000 0.84389  0.17899  0.25949  Biso   1.000  H
  C589     1.0000 0.66020  0.19439  0.11121  Biso   1.000  C
  C590     1.0000 0.93581  0.34701  0.56709  Biso   1.000  C
  C591     1.0000 0.92340  0.44180  0.54848  Biso   1.000  C
  C592     1.0000 0.93581  0.34697  0.56709  Biso   1.000  C
  C593     1.0000 0.92340  0.44176  0.54848  Biso   1.000  C
  C594     1.0000 0.93577  0.34701  0.56709  Biso   1.000  C
  C595     1.0000 0.93577  0.34697  0.56709  Biso   1.000  C
  H668     1.0000 0.95280  0.32471  0.43820  Biso   1.000  H
  H669     1.0000 0.95280  0.32467  0.43820  Biso   1.000  H
  C596     1.0000 0.90812  0.53621  0.53330  Biso   1.000  C
  C597     1.0000 0.90812  0.53617  0.53330  Biso   1.000  C
  C598     1.0000 0.90808  0.53621  0.53330  Biso   1.000  C
  C599     1.0000 0.90808  0.53617  0.53330  Biso   1.000  C
  H670     1.0000 0.18070  0.71431  0.19160  Biso   1.000  H
  N69      1.0000 0.14149  0.75317  0.23909  Biso   1.000  N
  H671     1.0000 0.25730  0.74631  0.14469  Biso   1.000  H
  H672     1.0000 0.25726  0.74631  0.14469  Biso   1.000  H
  C600     1.0000 0.38731  0.82551  0.13461  Biso   1.000  C
  C601     1.0000 0.31730  0.84009  0.06201  Biso   1.000  C
  C602     1.0000 0.33821  0.74941  0.09662  Biso   1.000  C
  C603     1.0000 0.33821  0.74937  0.09662  Biso   1.000  C
  C604     1.0000 0.38727  0.82551  0.13461  Biso   1.000  C
  C605     1.0000 0.31726  0.84009  0.06201  Biso   1.000  C
  C606     1.0000 0.33817  0.74941  0.09662  Biso   1.000  C
  C607     1.0000 0.33817  0.74937  0.09662  Biso   1.000  C
  H673     1.0000 0.43521  0.08428  0.63938  Biso   1.000  H
  N70      1.0000 0.36229  0.06888  0.62778  Biso   1.000  N
  H674     1.0000 0.43517  0.08428  0.63938  Biso   1.000  H
  H675     1.0000 0.49540  0.09339  0.56538  Biso   1.000  H
  H676     1.0000 0.49537  0.09339  0.56538  Biso   1.000  H
  C608     1.0000 0.55471  0.08091  0.41461  Biso   1.000  C
  C609     1.0000 0.54901  0.15471  0.48149  Biso   1.000  C
  C610     1.0000 0.57670  0.06570  0.50971  Biso   1.000  C
  C611     1.0000 0.55471  0.08087  0.41461  Biso   1.000  C
  C612     1.0000 0.54901  0.15468  0.48149  Biso   1.000  C
  C613     1.0000 0.55467  0.08091  0.41461  Biso   1.000  C
  C614     1.0000 0.54897  0.15471  0.48149  Biso   1.000  C
  C615     1.0000 0.57666  0.06570  0.50971  Biso   1.000  C
  C616     1.0000 0.55467  0.08087  0.41461  Biso   1.000  C
  C617     1.0000 0.54897  0.15468  0.48149  Biso   1.000  C
  H677     1.0000 0.68212  0.11139  0.17350  Biso   1.000  H
  H678     1.0000 0.68208  0.11139  0.17350  Biso   1.000  H
  H679     1.0000 0.77470  0.07579  0.26918  Biso   1.000  H
  N71      1.0000 0.71869  0.04670  0.24481  Biso   1.000  N
  C618     1.0000 0.61269  0.17449  0.13461  Biso   1.000  C
  C619     1.0000 0.68270  0.15991  0.06201  Biso   1.000  C
  C620     1.0000 0.66179  0.25059  0.09662  Biso   1.000  C
  C621     1.0000 0.68270  0.15987  0.06201  Biso   1.000  C
  H680     1.0000 0.93918  0.31288  0.55351  Biso   1.000  H
  N72      1.0000 0.93608  0.35461  0.61750  Biso   1.000  N
  N73      1.0000 0.93608  0.35457  0.61750  Biso   1.000  N
  H681     1.0000 0.92480  0.44999  0.58449  Biso   1.000  H
  C622     1.0000 0.91909  0.55471  0.58539  Biso   1.000  C
  C623     1.0000 0.84529  0.54901  0.51851  Biso   1.000  C
  C624     1.0000 0.93430  0.57670  0.49029  Biso   1.000  C
  C625     1.0000 0.91909  0.55467  0.58539  Biso   1.000  C
  C626     1.0000 0.84529  0.54897  0.51851  Biso   1.000  C
  C627     1.0000 0.93430  0.57666  0.49029  Biso   1.000  C
  C628     1.0000 0.10441  0.71241  0.24738  Biso   1.000  C
  C629     1.0000 0.10437  0.71241  0.24738  Biso   1.000  C
  H682     1.0000 0.38258  0.86212  0.14368  Biso   1.000  H
  H683     1.0000 0.39530  0.80561  0.16610  Biso   1.000  H
  H684     1.0000 0.41589  0.82221  0.10981  Biso   1.000  H
  H685     1.0000 0.38258  0.86208  0.14368  Biso   1.000  H
  H686     1.0000 0.39530  0.80557  0.16610  Biso   1.000  H
  H687     1.0000 0.41589  0.82217  0.10981  Biso   1.000  H
  H688     1.0000 0.39526  0.80561  0.16610  Biso   1.000  H
  H689     1.0000 0.39526  0.80557  0.16610  Biso   1.000  H
  H690     1.0000 0.28461  0.82500  0.04990  Biso   1.000  H
  H691     1.0000 0.31141  0.87581  0.07342  Biso   1.000  H
  H692     1.0000 0.34259  0.83982  0.03352  Biso   1.000  H
  H693     1.0000 0.31141  0.87577  0.07342  Biso   1.000  H
  H694     1.0000 0.34259  0.83978  0.03352  Biso   1.000  H
  H695     1.0000 0.28457  0.82500  0.04990  Biso   1.000  H
  H696     1.0000 0.31137  0.87581  0.07342  Biso   1.000  H
  H697     1.0000 0.31137  0.87577  0.07342  Biso   1.000  H
  H698     1.0000 0.30369  0.74080  0.08311  Biso   1.000  H
  H699     1.0000 0.36431  0.74250  0.06972  Biso   1.000  H
  H700     1.0000 0.34550  0.72812  0.12729  Biso   1.000  H
  H701     1.0000 0.34550  0.72808  0.12729  Biso   1.000  H
  H702     1.0000 0.36427  0.74250  0.06972  Biso   1.000  H
  H703     1.0000 0.34546  0.72812  0.12729  Biso   1.000  H
  H704     1.0000 0.34546  0.72808  0.12729  Biso   1.000  H
  C630     1.0000 0.34961  0.06919  0.68228  Biso   1.000  C
  C631     1.0000 0.34957  0.06919  0.68228  Biso   1.000  C
  H705     1.0000 0.59190  0.08831  0.41259  Biso   1.000  H
  H706     1.0000 0.54858  0.04429  0.40648  Biso   1.000  H
  H707     1.0000 0.53609  0.10270  0.38958  Biso   1.000  H
  H708     1.0000 0.59190  0.08828  0.41259  Biso   1.000  H
  H709     1.0000 0.53609  0.10266  0.38958  Biso   1.000  H
  H710     1.0000 0.59186  0.08831  0.41259  Biso   1.000  H
  H711     1.0000 0.59186  0.08828  0.41259  Biso   1.000  H
  H712     1.0000 0.58411  0.16348  0.47001  Biso   1.000  H
  H713     1.0000 0.52391  0.17721  0.46378  Biso   1.000  H
  H714     1.0000 0.54629  0.15968  0.51921  Biso   1.000  H
  H715     1.0000 0.52391  0.17717  0.46378  Biso   1.000  H
  H716     1.0000 0.58407  0.16348  0.47001  Biso   1.000  H
  H717     1.0000 0.52387  0.17721  0.46378  Biso   1.000  H
  H718     1.0000 0.52387  0.17717  0.46378  Biso   1.000  H
  H719     1.0000 0.61238  0.06881  0.49691  Biso   1.000  H
  H720     1.0000 0.57348  0.08381  0.54300  Biso   1.000  H
  H721     1.0000 0.56809  0.02890  0.51450  Biso   1.000  H
  H722     1.0000 0.61238  0.06877  0.49691  Biso   1.000  H
  H723     1.0000 0.57348  0.08378  0.54300  Biso   1.000  H
  C632     1.0000 0.72749  0.00039  0.27560  Biso   1.000  C
  H724     1.0000 0.61742  0.13788  0.14368  Biso   1.000  H
  H725     1.0000 0.60470  0.19439  0.16610  Biso   1.000  H
  H726     1.0000 0.58411  0.17779  0.10981  Biso   1.000  H
  H727     1.0000 0.61738  0.13788  0.14368  Biso   1.000  H
  H728     1.0000 0.71539  0.17500  0.04990  Biso   1.000  H
  H729     1.0000 0.68859  0.12419  0.07342  Biso   1.000  H
  H730     1.0000 0.65741  0.16018  0.03352  Biso   1.000  H
  H731     1.0000 0.65737  0.16018  0.03352  Biso   1.000  H
  H732     1.0000 0.69631  0.25920  0.08311  Biso   1.000  H
  H733     1.0000 0.63569  0.25750  0.06972  Biso   1.000  H
  H734     1.0000 0.65450  0.27188  0.12729  Biso   1.000  H
  H735     1.0000 0.69631  0.25916  0.08311  Biso   1.000  H
  H736     1.0000 0.69627  0.25920  0.08311  Biso   1.000  H
  H737     1.0000 0.69627  0.25916  0.08311  Biso   1.000  H
  C633     1.0000 0.94221  0.30908  0.65370  Biso   1.000  C
  C634     1.0000 0.94217  0.30908  0.65370  Biso   1.000  C
  H738     1.0000 0.91169  0.59190  0.58741  Biso   1.000  H
  H739     1.0000 0.95571  0.54858  0.59348  Biso   1.000  H
  H740     1.0000 0.89730  0.53609  0.61038  Biso   1.000  H
  H741     1.0000 0.91169  0.59186  0.58741  Biso   1.000  H
  H742     1.0000 0.95567  0.54858  0.59348  Biso   1.000  H
  H743     1.0000 0.83652  0.58411  0.52999  Biso   1.000  H
  H744     1.0000 0.82279  0.52391  0.53618  Biso   1.000  H
  H745     1.0000 0.84032  0.54629  0.48079  Biso   1.000  H
  H746     1.0000 0.83652  0.58407  0.52999  Biso   1.000  H
  H747     1.0000 0.82279  0.52387  0.53618  Biso   1.000  H
  H748     1.0000 0.83648  0.58411  0.52999  Biso   1.000  H
  H749     1.0000 0.84028  0.54629  0.48079  Biso   1.000  H
  H750     1.0000 0.83648  0.58407  0.52999  Biso   1.000  H
  H751     1.0000 0.93119  0.61238  0.50309  Biso   1.000  H
  H752     1.0000 0.91619  0.57348  0.45700  Biso   1.000  H
  H753     1.0000 0.97110  0.56809  0.48550  Biso   1.000  H
  H754     1.0000 0.97107  0.56809  0.48550  Biso   1.000  H
  H755     1.0000 0.11209  0.68402  0.22200  Biso   1.000  H
  C635     1.0000 0.05089  0.73110  0.23718  Biso   1.000  C
  C636     1.0000 0.11178  0.69069  0.30180  Biso   1.000  C
  H756     1.0000 0.11209  0.68398  0.22200  Biso   1.000  H
  C637     1.0000 0.32521  0.01210  0.69750  Biso   1.000  C
  H757     1.0000 0.38219  0.07458  0.70271  Biso   1.000  H
  C638     1.0000 0.30931  0.11178  0.69820  Biso   1.000  C
  C639     1.0000 0.32518  0.01210  0.69750  Biso   1.000  C
  C640     1.0000 0.30927  0.11178  0.69820  Biso   1.000  C
  C641     1.0000 0.73622  0.95090  0.24411  Biso   1.000  C
  C642     1.0000 0.67389  0.99061  0.30920  Biso   1.000  C
  C643     1.0000 0.67389  0.99058  0.30920  Biso   1.000  C
  C644     1.0000 0.73618  0.95090  0.24411  Biso   1.000  C
  H758     1.0000 0.75720  0.00609  0.29989  Biso   1.000  H
  C645     1.0000 0.89679  0.30008  0.68500  Biso   1.000  C
  H759     1.0000 0.95121  0.27720  0.63350  Biso   1.000  H
  C646     1.0000 0.99061  0.32611  0.69080  Biso   1.000  C
  C647     1.0000 0.99061  0.32607  0.69080  Biso   1.000  C
  H760     1.0000 0.95117  0.27720  0.63350  Biso   1.000  H
  C648     1.0000 0.99058  0.32611  0.69080  Biso   1.000  C
  C649     1.0000 0.99058  0.32607  0.69080  Biso   1.000  C
  H761     1.0000 0.04848  0.74130  0.20009  Biso   1.000  H
  H762     1.0000 0.04499  0.76271  0.25828  Biso   1.000  H
  C650     1.0000 0.00989  0.69472  0.24820  Biso   1.000  C
  H763     1.0000 0.04499  0.76267  0.25828  Biso   1.000  H
  C651     1.0000 0.00989  0.69468  0.24820  Biso   1.000  C
  C652     1.0000 0.06919  0.65039  0.31768  Biso   1.000  C
  H764     1.0000 0.14630  0.67382  0.30390  Biso   1.000  H
  H765     1.0000 0.11151  0.71970  0.32710  Biso   1.000  H
  H766     1.0000 0.14630  0.67378  0.30390  Biso   1.000  H
  H767     1.0000 0.11147  0.71970  0.32710  Biso   1.000  H
  C653     1.0000 0.30528  0.00989  0.75180  Biso   1.000  C
  H768     1.0000 0.29651  0.00392  0.67321  Biso   1.000  H
  H769     1.0000 0.29651  0.00388  0.67321  Biso   1.000  H
  H770     1.0000 0.29647  0.00392  0.67321  Biso   1.000  H
  H771     1.0000 0.29647  0.00388  0.67321  Biso   1.000  H
  H772     1.0000 0.35229  0.98530  0.69310  Biso   1.000  H
  C654     1.0000 0.28759  0.10441  0.75258  Biso   1.000  C
  H773     1.0000 0.32618  0.14630  0.69610  Biso   1.000  H
  H774     1.0000 0.28030  0.11151  0.67290  Biso   1.000  H
  C655     1.0000 0.28759  0.10437  0.75258  Biso   1.000  C
  H775     1.0000 0.28030  0.11147  0.67290  Biso   1.000  H
  H776     1.0000 0.28026  0.11151  0.67290  Biso   1.000  H
  H777     1.0000 0.28026  0.11147  0.67290  Biso   1.000  H
  H778     1.0000 0.76570  0.95602  0.22002  Biso   1.000  H
  H779     1.0000 0.70492  0.94330  0.22301  Biso   1.000  H
  C656     1.0000 0.74739  0.90560  0.28008  Biso   1.000  C
  H780     1.0000 0.76570  0.95598  0.22002  Biso   1.000  H
  H781     1.0000 0.70488  0.94330  0.22301  Biso   1.000  H
  C657     1.0000 0.69092  0.94221  0.34630  Biso   1.000  C
  H782     1.0000 0.64461  0.98111  0.28619  Biso   1.000  H
  C658     1.0000 0.69092  0.94217  0.34630  Biso   1.000  C
  H783     1.0000 0.64461  0.98107  0.28619  Biso   1.000  H
  C659     1.0000 0.69088  0.94221  0.34630  Biso   1.000  C
  H784     1.0000 0.64457  0.98111  0.28619  Biso   1.000  H
  C660     1.0000 0.69088  0.94217  0.34630  Biso   1.000  C
  H785     1.0000 0.64457  0.98107  0.28619  Biso   1.000  H
  H786     1.0000 0.66439  0.02149  0.32999  Biso   1.000  H
  C661     1.0000 0.90560  0.25261  0.71988  Biso   1.000  C
  H787     1.0000 0.86638  0.29419  0.66219  Biso   1.000  H
  H788     1.0000 0.88969  0.33088  0.70680  Biso   1.000  H
  C662     1.0000 0.90560  0.25257  0.71988  Biso   1.000  C
  C663     1.0000 0.00039  0.27251  0.72440  Biso   1.000  C
  H789     1.0000 0.02149  0.33561  0.66998  Biso   1.000  H
  C664     1.0000 0.00039  0.27247  0.72440  Biso   1.000  C
  H790     1.0000 0.02149  0.33557  0.66998  Biso   1.000  H
  H791     1.0000 0.98111  0.35539  0.71381  Biso   1.000  H
  H792     1.0000 0.98107  0.35539  0.71381  Biso   1.000  H
  N74      1.0000 0.95741  0.71640  0.24438  Biso   1.000  N
  N75      1.0000 0.95738  0.71640  0.24438  Biso   1.000  N
  H793     1.0000 0.01280  0.66482  0.22360  Biso   1.000  H
  C665     1.0000 0.01210  0.67479  0.30250  Biso   1.000  C
  H794     1.0000 0.01280  0.66478  0.22360  Biso   1.000  H
  H795     1.0000 0.07458  0.61781  0.29729  Biso   1.000  H
  N76      1.0000 0.06888  0.63771  0.37218  Biso   1.000  N
  H796     1.0000 0.07458  0.61777  0.29729  Biso   1.000  H
  C666     1.0000 0.26890  0.05089  0.76278  Biso   1.000  C
  H797     1.0000 0.33518  0.01280  0.77640  Biso   1.000  H
  N77      1.0000 0.28360  0.95741  0.75558  Biso   1.000  N
  N78      1.0000 0.28360  0.95738  0.75558  Biso   1.000  N
  H798     1.0000 0.31598  0.11209  0.77800  Biso   1.000  H
  N79      1.0000 0.24683  0.14149  0.76091  Biso   1.000  N
  H799     1.0000 0.77881  0.91289  0.30180  Biso   1.000  H
  C667     1.0000 0.69992  0.89679  0.31500  Biso   1.000  C
  N80      1.0000 0.75530  0.85661  0.24820  Biso   1.000  N
  N81      1.0000 0.75530  0.85657  0.24820  Biso   1.000  N
  H800     1.0000 0.77877  0.91289  0.30180  Biso   1.000  H
  C668     1.0000 0.69988  0.89679  0.31500  Biso   1.000  C
  H801     1.0000 0.72280  0.95121  0.36650  Biso   1.000  H
  N82      1.0000 0.64539  0.93608  0.38250  Biso   1.000  N
  H802     1.0000 0.72280  0.95117  0.36650  Biso   1.000  H
  C669     1.0000 0.95090  0.26378  0.75589  Biso   1.000  C
  H803     1.0000 0.91289  0.22119  0.69820  Biso   1.000  H
  N83      1.0000 0.85661  0.24470  0.75180  Biso   1.000  N
  N84      1.0000 0.85657  0.24470  0.75180  Biso   1.000  N
  H804     1.0000 0.00609  0.24280  0.70011  Biso   1.000  H
  N85      1.0000 0.04670  0.28131  0.75519  Biso   1.000  N
  N86      1.0000 0.04670  0.28127  0.75519  Biso   1.000  N
  C670     1.0000 0.92212  0.69499  0.20799  Biso   1.000  C
  C671     1.0000 0.92208  0.69499  0.20799  Biso   1.000  C
  H805     1.0000 0.98530  0.64771  0.30690  Biso   1.000  H
  H806     1.0000 0.98530  0.64767  0.30690  Biso   1.000  H
  H807     1.0000 0.00392  0.70349  0.32679  Biso   1.000  H
  H808     1.0000 0.00388  0.70349  0.32679  Biso   1.000  H
  C672     1.0000 0.07862  0.59159  0.38530  Biso   1.000  C
  C673     1.0000 0.07858  0.59159  0.38530  Biso   1.000  C
  H809     1.0000 0.25870  0.04848  0.79988  Biso   1.000  H
  H810     1.0000 0.23729  0.04499  0.74168  Biso   1.000  H
  C674     1.0000 0.30501  0.92212  0.79201  Biso   1.000  C
  C675     1.0000 0.30501  0.92208  0.79201  Biso   1.000  C
  C676     1.0000 0.30497  0.92212  0.79201  Biso   1.000  C
  C677     1.0000 0.30497  0.92208  0.79201  Biso   1.000  C
  C678     1.0000 0.25338  0.17760  0.79081  Biso   1.000  C
  H811     1.0000 0.70581  0.86638  0.33781  Biso   1.000  H
  H812     1.0000 0.66912  0.88969  0.29320  Biso   1.000  H
  H813     1.0000 0.70578  0.86638  0.33781  Biso   1.000  H
  H814     1.0000 0.66908  0.88969  0.29320  Biso   1.000  H
  C679     1.0000 0.79731  0.83241  0.25439  Biso   1.000  C
  C680     1.0000 0.79731  0.83237  0.25439  Biso   1.000  C
  C681     1.0000 0.79727  0.83241  0.25439  Biso   1.000  C
  C682     1.0000 0.79727  0.83237  0.25439  Biso   1.000  C
  C683     1.0000 0.65299  0.93581  0.43291  Biso   1.000  C
  C684     1.0000 0.65299  0.93577  0.43291  Biso   1.000  C
  H815     1.0000 0.95602  0.23430  0.77998  Biso   1.000  H
  H816     1.0000 0.94330  0.29508  0.77699  Biso   1.000  H
  H817     1.0000 0.95602  0.23426  0.77998  Biso   1.000  H
  H818     1.0000 0.95598  0.23430  0.77998  Biso   1.000  H
  H819     1.0000 0.95598  0.23426  0.77998  Biso   1.000  H
  C685     1.0000 0.83241  0.20269  0.74561  Biso   1.000  C
  C686     1.0000 0.83237  0.20269  0.74561  Biso   1.000  C
  C687     1.0000 0.07970  0.25338  0.75441  Biso   1.000  C
  C688     1.0000 0.07966  0.25338  0.75441  Biso   1.000  C
  C689     1.0000 0.87550  0.72222  0.20199  Biso   1.000  C
  H820     1.0000 0.92949  0.66431  0.18899  Biso   1.000  H
  C690     1.0000 0.87550  0.72218  0.20199  Biso   1.000  C
  H821     1.0000 0.92949  0.66427  0.18899  Biso   1.000  H
  C691     1.0000 0.08048  0.58209  0.44311  Biso   1.000  C
  H822     1.0000 0.08428  0.56479  0.36058  Biso   1.000  H
  H823     1.0000 0.33569  0.92949  0.81101  Biso   1.000  H
  C692     1.0000 0.27778  0.87550  0.79801  Biso   1.000  C
  H824     1.0000 0.28569  0.18070  0.80840  Biso   1.000  H
  C693     1.0000 0.21227  0.21735  0.80089  Biso   1.000  C
  C694     1.0000 0.21227  0.21731  0.80089  Biso   1.000  C
  C695     1.0000 0.81240  0.78777  0.22309  Biso   1.000  C
  H825     1.0000 0.82031  0.84389  0.28090  Biso   1.000  H
  H826     1.0000 0.82027  0.84389  0.28090  Biso   1.000  H
  H827     1.0000 0.68712  0.93918  0.44649  Biso   1.000  H
  C696     1.0000 0.60912  0.93030  0.46790  Biso   1.000  C
  H828     1.0000 0.68708  0.93918  0.44649  Biso   1.000  H
  C697     1.0000 0.60908  0.93030  0.46790  Biso   1.000  C
  H829     1.0000 0.84389  0.17969  0.71910  Biso   1.000  H
  C698     1.0000 0.78777  0.18760  0.77691  Biso   1.000  C
  C699     1.0000 0.78777  0.18757  0.77691  Biso   1.000  C
  C700     1.0000 0.12784  0.25331  0.78376  Biso   1.000  C
  C701     1.0000 0.12784  0.25327  0.78376  Biso   1.000  C
  C702     1.0000 0.12780  0.25331  0.78376  Biso   1.000  C
  C703     1.0000 0.12780  0.25327  0.78376  Biso   1.000  C
  H830     1.0000 0.07579  0.22530  0.73078  Biso   1.000  H
  H831     1.0000 0.07579  0.22526  0.73078  Biso   1.000  H
  C704     1.0000 0.86080  0.76531  0.23099  Biso   1.000  C
  C705     1.0000 0.84191  0.70170  0.16509  Biso   1.000  C
  C706     1.0000 0.86080  0.76527  0.23099  Biso   1.000  C
  C707     1.0000 0.84191  0.70166  0.16509  Biso   1.000  C
  C708     1.0000 0.86076  0.76531  0.23099  Biso   1.000  C
  C709     1.0000 0.84187  0.70170  0.16509  Biso   1.000  C
  C710     1.0000 0.86076  0.76527  0.23099  Biso   1.000  C
  C711     1.0000 0.84187  0.70166  0.16509  Biso   1.000  C
  C712     1.0000 0.07160  0.62107  0.47939  Biso   1.000  C
  C713     1.0000 0.08731  0.53120  0.45950  Biso   1.000  C
  C714     1.0000 0.08727  0.53120  0.45950  Biso   1.000  C
  C715     1.0000 0.23469  0.86080  0.76901  Biso   1.000  C
  C716     1.0000 0.29830  0.84191  0.83491  Biso   1.000  C
  C717     1.0000 0.23469  0.86076  0.76901  Biso   1.000  C
  C718     1.0000 0.29830  0.84187  0.83491  Biso   1.000  C
  C719     1.0000 0.16538  0.21580  0.77422  Biso   1.000  C
  C720     1.0000 0.22158  0.25629  0.83705  Biso   1.000  C
  C721     1.0000 0.16538  0.21576  0.77422  Biso   1.000  C
  C722     1.0000 0.77881  0.76721  0.18619  Biso   1.000  C
  C723     1.0000 0.77881  0.76717  0.18619  Biso   1.000  C
  C724     1.0000 0.77877  0.76721  0.18619  Biso   1.000  C
  C725     1.0000 0.77877  0.76717  0.18619  Biso   1.000  C
  C726     1.0000 0.62107  0.92840  0.52061  Biso   1.000  C
  C727     1.0000 0.55820  0.92340  0.45148  Biso   1.000  C
  C728     1.0000 0.76531  0.13920  0.76901  Biso   1.000  C
  C729     1.0000 0.76721  0.22119  0.81381  Biso   1.000  C
  C730     1.0000 0.76527  0.13920  0.76901  Biso   1.000  C
  C731     1.0000 0.76717  0.22119  0.81381  Biso   1.000  C
  C732     1.0000 0.13714  0.29229  0.82000  Biso   1.000  C
  C733     1.0000 0.13714  0.29225  0.82000  Biso   1.000  C
  C734     1.0000 0.13711  0.29229  0.82000  Biso   1.000  C
  C735     1.0000 0.13711  0.29225  0.82000  Biso   1.000  C
  O34      1.0000 0.89047  0.78622  0.26918  Biso   1.000  O
  O35      1.0000 0.89043  0.78622  0.26918  Biso   1.000  O
  H832     1.0000 0.85192  0.67230  0.14520  Biso   1.000  H
  C736     1.0000 0.79351  0.72420  0.15719  Biso   1.000  C
  H833     1.0000 0.85188  0.67230  0.14520  Biso   1.000  H
  C737     1.0000 0.06970  0.60912  0.53210  Biso   1.000  C
  O36      1.0000 0.06376  0.67327  0.46619  Biso   1.000  O
  C738     1.0000 0.06970  0.60908  0.53210  Biso   1.000  C
  O37      1.0000 0.06376  0.67323  0.46619  Biso   1.000  O
  O38      1.0000 0.06372  0.67327  0.46619  Biso   1.000  O
  O39      1.0000 0.06372  0.67323  0.46619  Biso   1.000  O
  H834     1.0000 0.09339  0.50460  0.43458  Biso   1.000  H
  C739     1.0000 0.08541  0.51926  0.51220  Biso   1.000  C
  C740     1.0000 0.08541  0.51922  0.51220  Biso   1.000  C
  C741     1.0000 0.08537  0.51926  0.51220  Biso   1.000  C
  C742     1.0000 0.08537  0.51922  0.51220  Biso   1.000  C
  C743     1.0000 0.21223  0.81240  0.77691  Biso   1.000  C
  O40      1.0000 0.21378  0.89047  0.73082  Biso   1.000  O
  O41      1.0000 0.21378  0.89043  0.73082  Biso   1.000  O
  C744     1.0000 0.21219  0.81240  0.77691  Biso   1.000  C
  H835     1.0000 0.32770  0.85192  0.85480  Biso   1.000  H
  C745     1.0000 0.27580  0.79351  0.84281  Biso   1.000  C
  H836     1.0000 0.32770  0.85188  0.85480  Biso   1.000  H
  C746     1.0000 0.27576  0.79351  0.84281  Biso   1.000  C
  O42      1.0000 0.15386  0.17686  0.74071  Biso   1.000  O
  O43      1.0000 0.15382  0.17686  0.74071  Biso   1.000  O
  C747     1.0000 0.18400  0.29376  0.84663  Biso   1.000  C
  H837     1.0000 0.25369  0.25730  0.85531  Biso   1.000  H
  H838     1.0000 0.25369  0.25726  0.85531  Biso   1.000  H
  H839     1.0000 0.74569  0.78261  0.18082  Biso   1.000  H
  H840     1.0000 0.74569  0.78257  0.18082  Biso   1.000  H
  C748     1.0000 0.58209  0.91952  0.55689  Biso   1.000  C
  O44      1.0000 0.67327  0.93624  0.53381  Biso   1.000  O
  C749     1.0000 0.58209  0.91948  0.55689  Biso   1.000  C
  O45      1.0000 0.67323  0.93624  0.53381  Biso   1.000  O
  C750     1.0000 0.51926  0.91459  0.48780  Biso   1.000  C
  H841     1.0000 0.55001  0.92480  0.41551  Biso   1.000  H
  C751     1.0000 0.51922  0.91459  0.48780  Biso   1.000  C
  H842     1.0000 0.54997  0.92480  0.41551  Biso   1.000  H
  C752     1.0000 0.72222  0.12450  0.79801  Biso   1.000  C
  O46      1.0000 0.78622  0.10953  0.73082  Biso   1.000  O
  C753     1.0000 0.72222  0.12446  0.79801  Biso   1.000  C
  C754     1.0000 0.72218  0.12450  0.79801  Biso   1.000  C
  C755     1.0000 0.72218  0.12446  0.79801  Biso   1.000  C
  C756     1.0000 0.72420  0.20649  0.84281  Biso   1.000  C
  H843     1.0000 0.78261  0.25431  0.81918  Biso   1.000  H
  C757     1.0000 0.72420  0.20645  0.84281  Biso   1.000  C
  H844     1.0000 0.78261  0.25428  0.81918  Biso   1.000  H
  H845     1.0000 0.78257  0.25431  0.81918  Biso   1.000  H
  H846     1.0000 0.78257  0.25428  0.81918  Biso   1.000  H
  H847     1.0000 0.11139  0.31788  0.82650  Biso   1.000  H
  H848     1.0000 0.91731  0.76791  0.27121  Biso   1.000  H
  H849     1.0000 0.91731  0.76787  0.27121  Biso   1.000  H
  H850     1.0000 0.91727  0.76791  0.27121  Biso   1.000  H
  H851     1.0000 0.91727  0.76787  0.27121  Biso   1.000  H
  C758     1.0000 0.75709  0.70100  0.11289  Biso   1.000  C
  C759     1.0000 0.06419  0.65299  0.56709  Biso   1.000  C
  C760     1.0000 0.07660  0.55820  0.54848  Biso   1.000  C
  H852     1.0000 0.04720  0.67529  0.43820  Biso   1.000  H
  C761     1.0000 0.09188  0.46379  0.53330  Biso   1.000  C
  C762     1.0000 0.16759  0.79731  0.74561  Biso   1.000  C
  C763     1.0000 0.23279  0.77881  0.81381  Biso   1.000  C
  C764     1.0000 0.16759  0.79727  0.74561  Biso   1.000  C
  C765     1.0000 0.23279  0.77877  0.81381  Biso   1.000  C
  H853     1.0000 0.23209  0.91731  0.72879  Biso   1.000  H
  H854     1.0000 0.23209  0.91727  0.72879  Biso   1.000  H
  C766     1.0000 0.29900  0.75709  0.88711  Biso   1.000  C
  H855     1.0000 0.17899  0.15611  0.74051  Biso   1.000  H
  H856     1.0000 0.17899  0.15607  0.74051  Biso   1.000  H
  C767     1.0000 0.19439  0.33980  0.88879  Biso   1.000  C
  C768     1.0000 0.59159  0.92138  0.61470  Biso   1.000  C
  C769     1.0000 0.53120  0.91269  0.54050  Biso   1.000  C
  H857     1.0000 0.67529  0.95280  0.56180  Biso   1.000  H
  C770     1.0000 0.46379  0.90812  0.46670  Biso   1.000  C
  C771     1.0000 0.46379  0.90808  0.46670  Biso   1.000  C
  C772     1.0000 0.70170  0.15809  0.83491  Biso   1.000  C
  C773     1.0000 0.69499  0.07788  0.79201  Biso   1.000  C
  C774     1.0000 0.70166  0.15809  0.83491  Biso   1.000  C
  H858     1.0000 0.76791  0.08269  0.72879  Biso   1.000  H
  H859     1.0000 0.76787  0.08269  0.72879  Biso   1.000  H
  C775     1.0000 0.70100  0.24291  0.88711  Biso   1.000  C
  C776     1.0000 0.70100  0.24287  0.88711  Biso   1.000  C
  C777     1.0000 0.70721  0.73820  0.11219  Biso   1.000  C
  C778     1.0000 0.74809  0.64411  0.12091  Biso   1.000  C
  C779     1.0000 0.78230  0.70651  0.06322  Biso   1.000  C
  C780     1.0000 0.78230  0.70647  0.06322  Biso   1.000  C
  C781     1.0000 0.70717  0.73820  0.11219  Biso   1.000  C
  H860     1.0000 0.06082  0.68712  0.55351  Biso   1.000  H
  N87      1.0000 0.06392  0.64539  0.61750  Biso   1.000  N
  H861     1.0000 0.06082  0.68708  0.55351  Biso   1.000  H
  H862     1.0000 0.06078  0.68712  0.55351  Biso   1.000  H
  N88      1.0000 0.06388  0.64539  0.61750  Biso   1.000  N
  H863     1.0000 0.06078  0.68708  0.55351  Biso   1.000  H
  H864     1.0000 0.07520  0.55001  0.58449  Biso   1.000  H
  H865     1.0000 0.07520  0.54997  0.58449  Biso   1.000  H
  H866     1.0000 0.07517  0.55001  0.58449  Biso   1.000  H
  H867     1.0000 0.07517  0.54997  0.58449  Biso   1.000  H
  C782     1.0000 0.08091  0.44529  0.58539  Biso   1.000  C
  C783     1.0000 0.15471  0.45099  0.51851  Biso   1.000  C
  C784     1.0000 0.06570  0.42330  0.49029  Biso   1.000  C
  C785     1.0000 0.08087  0.44529  0.58539  Biso   1.000  C
  C786     1.0000 0.15468  0.45099  0.51851  Biso   1.000  C
  H868     1.0000 0.15611  0.82031  0.71910  Biso   1.000  H
  N89      1.0000 0.14339  0.75530  0.75180  Biso   1.000  N
  H869     1.0000 0.15611  0.82027  0.71910  Biso   1.000  H
  H870     1.0000 0.15607  0.82031  0.71910  Biso   1.000  H
  H871     1.0000 0.15607  0.82027  0.71910  Biso   1.000  H
  H872     1.0000 0.21739  0.74569  0.81918  Biso   1.000  H
  C787     1.0000 0.26180  0.70721  0.88781  Biso   1.000  C
  C788     1.0000 0.35589  0.74809  0.87909  Biso   1.000  C
  C789     1.0000 0.29349  0.78230  0.93678  Biso   1.000  C
  C790     1.0000 0.26180  0.70717  0.88781  Biso   1.000  C
  C791     1.0000 0.26176  0.70721  0.88781  Biso   1.000  C
  C792     1.0000 0.26176  0.70717  0.88781  Biso   1.000  C
  C793     1.0000 0.17449  0.38731  0.86539  Biso   1.000  C
  C794     1.0000 0.15991  0.31730  0.93799  Biso   1.000  C
  C795     1.0000 0.25059  0.33821  0.90338  Biso   1.000  C
  C796     1.0000 0.17449  0.38727  0.86539  Biso   1.000  C
  C797     1.0000 0.15991  0.31726  0.93799  Biso   1.000  C
  C798     1.0000 0.25059  0.33817  0.90338  Biso   1.000  C
  C799     1.0000 0.15987  0.31730  0.93799  Biso   1.000  C
  C800     1.0000 0.15987  0.31726  0.93799  Biso   1.000  C
  H873     1.0000 0.56479  0.91572  0.63938  Biso   1.000  H
  N90      1.0000 0.63771  0.93112  0.62778  Biso   1.000  N
  H874     1.0000 0.56479  0.91568  0.63938  Biso   1.000  H
  N91      1.0000 0.63771  0.93108  0.62778  Biso   1.000  N
  H875     1.0000 0.50460  0.90661  0.56538  Biso   1.000  H
  C801     1.0000 0.44529  0.91909  0.41461  Biso   1.000  C
  C802     1.0000 0.45099  0.84529  0.48149  Biso   1.000  C
  C803     1.0000 0.42330  0.93430  0.50971  Biso   1.000  C
  H876     1.0000 0.67230  0.14808  0.85480  Biso   1.000  H
  H877     1.0000 0.66431  0.07051  0.81101  Biso   1.000  H
  N92      1.0000 0.71640  0.04259  0.75558  Biso   1.000  N
  H878     1.0000 0.66431  0.07047  0.81101  Biso   1.000  H
  H879     1.0000 0.66427  0.07051  0.81101  Biso   1.000  H
  H880     1.0000 0.66427  0.07047  0.81101  Biso   1.000  H
  C804     1.0000 0.73820  0.29279  0.88781  Biso   1.000  C
  C805     1.0000 0.64411  0.25191  0.87909  Biso   1.000  C
  C806     1.0000 0.70651  0.21770  0.93678  Biso   1.000  C
  C807     1.0000 0.64411  0.25187  0.87909  Biso   1.000  C
  C808     1.0000 0.70651  0.21766  0.93678  Biso   1.000  C
  C809     1.0000 0.70647  0.21770  0.93678  Biso   1.000  C
  C810     1.0000 0.70647  0.21766  0.93678  Biso   1.000  C
  H881     1.0000 0.71811  0.77392  0.10518  Biso   1.000  H
  H882     1.0000 0.68320  0.72672  0.08490  Biso   1.000  H
  H883     1.0000 0.68972  0.73661  0.14609  Biso   1.000  H
  H884     1.0000 0.71811  0.77388  0.10518  Biso   1.000  H
  H885     1.0000 0.68320  0.72668  0.08490  Biso   1.000  H
  H886     1.0000 0.68972  0.73657  0.14609  Biso   1.000  H
  H887     1.0000 0.71807  0.77392  0.10518  Biso   1.000  H
  H888     1.0000 0.68968  0.73661  0.14609  Biso   1.000  H
  H889     1.0000 0.71807  0.77388  0.10518  Biso   1.000  H
  H890     1.0000 0.68968  0.73657  0.14609  Biso   1.000  H
  H891     1.0000 0.78160  0.62599  0.12180  Biso   1.000  H
  H892     1.0000 0.72990  0.63860  0.15392  Biso   1.000  H
  H893     1.0000 0.72711  0.63049  0.09222  Biso   1.000  H
  H894     1.0000 0.78951  0.74320  0.05660  Biso   1.000  H
  H895     1.0000 0.81492  0.68700  0.06341  Biso   1.000  H
  H896     1.0000 0.75961  0.69290  0.03581  Biso   1.000  H
  H897     1.0000 0.78947  0.74320  0.05660  Biso   1.000  H
  H898     1.0000 0.81488  0.68700  0.06341  Biso   1.000  H
  H899     1.0000 0.75957  0.69290  0.03581  Biso   1.000  H
  C811     1.0000 0.05779  0.69092  0.65370  Biso   1.000  C
  C812     1.0000 0.05779  0.69088  0.65370  Biso   1.000  C
  H900     1.0000 0.08831  0.40810  0.58741  Biso   1.000  H
  H901     1.0000 0.04429  0.45142  0.59348  Biso   1.000  H
  H902     1.0000 0.10270  0.46391  0.61038  Biso   1.000  H
  H903     1.0000 0.04429  0.45138  0.59348  Biso   1.000  H
  H904     1.0000 0.08828  0.40810  0.58741  Biso   1.000  H
  H905     1.0000 0.10266  0.46391  0.61038  Biso   1.000  H
  H906     1.0000 0.16348  0.41589  0.52999  Biso   1.000  H
  H907     1.0000 0.17721  0.47609  0.53618  Biso   1.000  H
  H908     1.0000 0.15968  0.45371  0.48079  Biso   1.000  H
  H909     1.0000 0.17717  0.47609  0.53618  Biso   1.000  H
  H910     1.0000 0.06881  0.38762  0.50309  Biso   1.000  H
  H911     1.0000 0.08381  0.42652  0.45700  Biso   1.000  H
  H912     1.0000 0.02890  0.43191  0.48550  Biso   1.000  H
  H913     1.0000 0.06881  0.38758  0.50309  Biso   1.000  H
  H914     1.0000 0.08381  0.42648  0.45700  Biso   1.000  H
  H915     1.0000 0.06877  0.38762  0.50309  Biso   1.000  H
  H916     1.0000 0.08378  0.42652  0.45700  Biso   1.000  H
  H917     1.0000 0.06877  0.38758  0.50309  Biso   1.000  H
  H918     1.0000 0.08378  0.42648  0.45700  Biso   1.000  H
  C813     1.0000 0.09440  0.74739  0.71988  Biso   1.000  C
  C814     1.0000 0.09436  0.74739  0.71988  Biso   1.000  C
  H919     1.0000 0.22608  0.71811  0.89478  Biso   1.000  H
  H920     1.0000 0.27328  0.68320  0.91510  Biso   1.000  H
  H921     1.0000 0.26339  0.68972  0.85391  Biso   1.000  H
  H922     1.0000 0.22608  0.71807  0.89478  Biso   1.000  H
  H923     1.0000 0.26339  0.68968  0.85391  Biso   1.000  H
  H924     1.0000 0.37401  0.78160  0.87820  Biso   1.000  H
  H925     1.0000 0.36140  0.72990  0.84608  Biso   1.000  H
  H926     1.0000 0.36951  0.72711  0.90778  Biso   1.000  H
  H927     1.0000 0.37397  0.78160  0.87820  Biso   1.000  H
  H928     1.0000 0.36136  0.72990  0.84608  Biso   1.000  H
  H929     1.0000 0.36947  0.72711  0.90778  Biso   1.000  H
  H930     1.0000 0.25680  0.78951  0.94340  Biso   1.000  H
  H931     1.0000 0.31300  0.81492  0.93659  Biso   1.000  H
  H932     1.0000 0.30710  0.75961  0.96419  Biso   1.000  H
  H933     1.0000 0.25680  0.78947  0.94340  Biso   1.000  H
  H934     1.0000 0.31300  0.81488  0.93659  Biso   1.000  H
  H935     1.0000 0.30710  0.75957  0.96419  Biso   1.000  H
  H936     1.0000 0.30706  0.75961  0.96419  Biso   1.000  H
  H937     1.0000 0.30706  0.75957  0.96419  Biso   1.000  H
  H938     1.0000 0.13788  0.38258  0.85628  Biso   1.000  H
  H939     1.0000 0.19439  0.39530  0.83390  Biso   1.000  H
  H940     1.0000 0.17779  0.41589  0.89019  Biso   1.000  H
  H941     1.0000 0.19439  0.39526  0.83390  Biso   1.000  H
  H942     1.0000 0.17500  0.28461  0.95010  Biso   1.000  H
  H943     1.0000 0.12419  0.31141  0.92658  Biso   1.000  H
  H944     1.0000 0.16018  0.34259  0.96648  Biso   1.000  H
  H945     1.0000 0.17500  0.28457  0.95010  Biso   1.000  H
  H946     1.0000 0.12419  0.31137  0.92658  Biso   1.000  H
  H947     1.0000 0.25920  0.30369  0.91689  Biso   1.000  H
  H948     1.0000 0.25750  0.36431  0.93028  Biso   1.000  H
  H949     1.0000 0.27188  0.34550  0.87271  Biso   1.000  H
  H950     1.0000 0.25750  0.36427  0.93028  Biso   1.000  H
  H951     1.0000 0.27188  0.34546  0.87271  Biso   1.000  H
  H952     1.0000 0.25916  0.30369  0.91689  Biso   1.000  H
  C815     1.0000 0.65039  0.93081  0.68228  Biso   1.000  C
  C816     1.0000 0.65039  0.93077  0.68228  Biso   1.000  C
  H953     1.0000 0.40810  0.91169  0.41259  Biso   1.000  H
  H954     1.0000 0.45142  0.95571  0.40648  Biso   1.000  H
  H955     1.0000 0.46391  0.89730  0.38958  Biso   1.000  H
  H956     1.0000 0.45142  0.95567  0.40648  Biso   1.000  H
  H957     1.0000 0.45138  0.95571  0.40648  Biso   1.000  H
  H958     1.0000 0.45138  0.95567  0.40648  Biso   1.000  H
  H959     1.0000 0.41589  0.83652  0.47001  Biso   1.000  H
  H960     1.0000 0.47609  0.82279  0.46378  Biso   1.000  H
  H961     1.0000 0.45371  0.84032  0.51921  Biso   1.000  H
  H962     1.0000 0.41589  0.83648  0.47001  Biso   1.000  H
  H963     1.0000 0.45371  0.84028  0.51921  Biso   1.000  H
  H964     1.0000 0.38762  0.93119  0.49691  Biso   1.000  H
  H965     1.0000 0.42652  0.91619  0.54300  Biso   1.000  H
  H966     1.0000 0.43191  0.97110  0.51450  Biso   1.000  H
  H967     1.0000 0.43191  0.97107  0.51450  Biso   1.000  H
  H968     1.0000 0.38758  0.93119  0.49691  Biso   1.000  H
  H969     1.0000 0.42648  0.91619  0.54300  Biso   1.000  H
  C817     1.0000 0.69472  0.99011  0.75180  Biso   1.000  C
  C818     1.0000 0.69472  0.99007  0.75180  Biso   1.000  C
  C819     1.0000 0.69468  0.99011  0.75180  Biso   1.000  C
  C820     1.0000 0.69468  0.99007  0.75180  Biso   1.000  C
  H970     1.0000 0.77392  0.28189  0.89478  Biso   1.000  H
  H971     1.0000 0.72672  0.31680  0.91510  Biso   1.000  H
  H972     1.0000 0.73661  0.31028  0.85391  Biso   1.000  H
  H973     1.0000 0.77388  0.28189  0.89478  Biso   1.000  H
  H974     1.0000 0.72668  0.31680  0.91510  Biso   1.000  H
  H975     1.0000 0.73657  0.31028  0.85391  Biso   1.000  H
  H976     1.0000 0.62599  0.21840  0.87820  Biso   1.000  H
  H977     1.0000 0.63860  0.27010  0.84608  Biso   1.000  H
  H978     1.0000 0.63049  0.27289  0.90778  Biso   1.000  H
  H979     1.0000 0.63860  0.27006  0.84608  Biso   1.000  H
  H980     1.0000 0.74320  0.21049  0.94340  Biso   1.000  H
  H981     1.0000 0.68700  0.18508  0.93659  Biso   1.000  H
  H982     1.0000 0.69290  0.24039  0.96419  Biso   1.000  H
  C821     1.0000 0.10321  0.69992  0.68500  Biso   1.000  C
  H983     1.0000 0.04879  0.72280  0.63350  Biso   1.000  H
  C822     1.0000 0.00939  0.67389  0.69080  Biso   1.000  C
  C823     1.0000 0.10321  0.69988  0.68500  Biso   1.000  C
  C824     1.0000 0.10317  0.69992  0.68500  Biso   1.000  C
  C825     1.0000 0.10317  0.69988  0.68500  Biso   1.000  C
  C826     1.0000 0.04910  0.73622  0.75589  Biso   1.000  C
  H984     1.0000 0.08711  0.77881  0.69820  Biso   1.000  H
  C827     1.0000 0.04910  0.73618  0.75589  Biso   1.000  C
  H985     1.0000 0.08711  0.77877  0.69820  Biso   1.000  H
  H986     1.0000 0.08707  0.77881  0.69820  Biso   1.000  H
  H987     1.0000 0.08707  0.77877  0.69820  Biso   1.000  H
  C828     1.0000 0.67479  0.98790  0.69750  Biso   1.000  C
  H988     1.0000 0.61781  0.92542  0.70271  Biso   1.000  H
  C829     1.0000 0.69069  0.88822  0.69820  Biso   1.000  C
  H989     1.0000 0.61781  0.92538  0.70271  Biso   1.000  H
  C830     1.0000 0.69069  0.88818  0.69820  Biso   1.000  C
  H990     1.0000 0.61777  0.92542  0.70271  Biso   1.000  H
  H991     1.0000 0.61777  0.92538  0.70271  Biso   1.000  H
  C831     1.0000 0.73110  0.94911  0.76278  Biso   1.000  C
  H992     1.0000 0.66482  0.98720  0.77640  Biso   1.000  H
  C832     1.0000 0.73110  0.94907  0.76278  Biso   1.000  C
  H993     1.0000 0.66478  0.98720  0.77640  Biso   1.000  H
  H994     1.0000 0.13362  0.70581  0.66219  Biso   1.000  H
  H995     1.0000 0.11031  0.66912  0.70680  Biso   1.000  H
  H996     1.0000 0.13362  0.70578  0.66219  Biso   1.000  H
  H997     1.0000 0.11031  0.66908  0.70680  Biso   1.000  H
  H998     1.0000 0.13358  0.70581  0.66219  Biso   1.000  H
  H999     1.0000 0.11027  0.66912  0.70680  Biso   1.000  H
  H1000    1.0000 0.13358  0.70578  0.66219  Biso   1.000  H
  H1001    1.0000 0.11027  0.66908  0.70680  Biso   1.000  H
  C833     1.0000 0.99961  0.72749  0.72440  Biso   1.000  C
  H1002    1.0000 0.97851  0.66439  0.66998  Biso   1.000  H
  C834     1.0000 0.99957  0.72749  0.72440  Biso   1.000  C
  H1003    1.0000 0.97847  0.66439  0.66998  Biso   1.000  H
  H1004    1.0000 0.01889  0.64461  0.71381  Biso   1.000  H
  H1005    1.0000 0.01889  0.64457  0.71381  Biso   1.000  H
  H1006    1.0000 0.04398  0.76570  0.77998  Biso   1.000  H
  H1007    1.0000 0.05670  0.70492  0.77699  Biso   1.000  H
  H1008    1.0000 0.05670  0.70488  0.77699  Biso   1.000  H
  H1009    1.0000 0.05667  0.70492  0.77699  Biso   1.000  H
  H1010    1.0000 0.05667  0.70488  0.77699  Biso   1.000  H
  H1011    1.0000 0.70349  0.99608  0.67321  Biso   1.000  H
  H1012    1.0000 0.64771  0.01470  0.69310  Biso   1.000  H
  H1013    1.0000 0.64767  0.01470  0.69310  Biso   1.000  H
  C835     1.0000 0.71241  0.89559  0.75258  Biso   1.000  C
  H1014    1.0000 0.67382  0.85370  0.69610  Biso   1.000  H
  H1015    1.0000 0.71970  0.88849  0.67290  Biso   1.000  H
  H1016    1.0000 0.67378  0.85370  0.69610  Biso   1.000  H
  H1017    1.0000 0.74130  0.95152  0.79988  Biso   1.000  H
  H1018    1.0000 0.76271  0.95501  0.74168  Biso   1.000  H
  H1019    1.0000 0.74130  0.95148  0.79988  Biso   1.000  H
  H1020    1.0000 0.76271  0.95497  0.74168  Biso   1.000  H
  H1021    1.0000 0.76267  0.95501  0.74168  Biso   1.000  H
  H1022    1.0000 0.76267  0.95497  0.74168  Biso   1.000  H
  H1023    1.0000 0.99391  0.75720  0.70011  Biso   1.000  H
  N93      1.0000 0.95330  0.71869  0.75519  Biso   1.000  N
  H1024    1.0000 0.99387  0.75720  0.70011  Biso   1.000  H
  H1025    1.0000 0.68402  0.88791  0.77800  Biso   1.000  H
  N94      1.0000 0.75317  0.85851  0.76091  Biso   1.000  N
  H1026    1.0000 0.68402  0.88787  0.77800  Biso   1.000  H
  N95      1.0000 0.75317  0.85847  0.76091  Biso   1.000  N
  H1027    1.0000 0.68398  0.88791  0.77800  Biso   1.000  H
  H1028    1.0000 0.68398  0.88787  0.77800  Biso   1.000  H
  C836     1.0000 0.92030  0.74662  0.75441  Biso   1.000  C
  C837     1.0000 0.92030  0.74658  0.75441  Biso   1.000  C
  C838     1.0000 0.74662  0.82240  0.79081  Biso   1.000  C
  C839     1.0000 0.74658  0.82240  0.79081  Biso   1.000  C
  C840     1.0000 0.87216  0.74669  0.78376  Biso   1.000  C
  H1029    1.0000 0.92421  0.77470  0.73078  Biso   1.000  H
  H1030    1.0000 0.92417  0.77470  0.73078  Biso   1.000  H
  C841     1.0000 0.78773  0.78265  0.80089  Biso   1.000  C
  C842     1.0000 0.78769  0.78265  0.80089  Biso   1.000  C
  H1031    1.0000 0.71431  0.81930  0.80840  Biso   1.000  H
  C843     1.0000 0.83462  0.78420  0.77422  Biso   1.000  C
  C844     1.0000 0.86286  0.70771  0.82000  Biso   1.000  C
  C845     1.0000 0.83458  0.78420  0.77422  Biso   1.000  C
  C846     1.0000 0.77842  0.74371  0.83705  Biso   1.000  C
  C847     1.0000 0.77838  0.74371  0.83705  Biso   1.000  C
  O47      1.0000 0.84614  0.82314  0.74071  Biso   1.000  O
  O48      1.0000 0.84614  0.82310  0.74071  Biso   1.000  O
  H1032    1.0000 0.88861  0.68212  0.82650  Biso   1.000  H
  C848     1.0000 0.81600  0.70624  0.84663  Biso   1.000  C
  H1033    1.0000 0.88861  0.68208  0.82650  Biso   1.000  H
  C849     1.0000 0.81600  0.70620  0.84663  Biso   1.000  C
  H1034    1.0000 0.88857  0.68212  0.82650  Biso   1.000  H
  H1035    1.0000 0.88857  0.68208  0.82650  Biso   1.000  H
  H1036    1.0000 0.74631  0.74270  0.85531  Biso   1.000  H
  H1037    1.0000 0.82101  0.84389  0.74051  Biso   1.000  H
  C850     1.0000 0.80561  0.66020  0.88879  Biso   1.000  C
  C851     1.0000 0.80557  0.66020  0.88879  Biso   1.000  C
  C852     1.0000 0.82551  0.61269  0.86539  Biso   1.000  C
  C853     1.0000 0.84009  0.68270  0.93799  Biso   1.000  C
  C854     1.0000 0.74941  0.66179  0.90338  Biso   1.000  C
  C855     1.0000 0.74937  0.66179  0.90338  Biso   1.000  C
  H1038    1.0000 0.86212  0.61742  0.85628  Biso   1.000  H
  H1039    1.0000 0.80561  0.60470  0.83390  Biso   1.000  H
  H1040    1.0000 0.82221  0.58411  0.89019  Biso   1.000  H
  H1041    1.0000 0.86212  0.61738  0.85628  Biso   1.000  H
  H1042    1.0000 0.86208  0.61742  0.85628  Biso   1.000  H
  H1043    1.0000 0.80557  0.60470  0.83390  Biso   1.000  H
  H1044    1.0000 0.82217  0.58411  0.89019  Biso   1.000  H
  H1045    1.0000 0.86208  0.61738  0.85628  Biso   1.000  H
  H1046    1.0000 0.82500  0.71539  0.95010  Biso   1.000  H
  H1047    1.0000 0.87581  0.68859  0.92658  Biso   1.000  H
  H1048    1.0000 0.83982  0.65741  0.96648  Biso   1.000  H
  H1049    1.0000 0.83982  0.65737  0.96648  Biso   1.000  H
  H1050    1.0000 0.87577  0.68859  0.92658  Biso   1.000  H
  H1051    1.0000 0.83978  0.65741  0.96648  Biso   1.000  H
  H1052    1.0000 0.83978  0.65737  0.96648  Biso   1.000  H
  H1053    1.0000 0.74080  0.69631  0.91689  Biso   1.000  H
  H1054    1.0000 0.74250  0.63569  0.93028  Biso   1.000  H
  H1055    1.0000 0.72812  0.65450  0.87271  Biso   1.000  H
  H1056    1.0000 0.74080  0.69627  0.91689  Biso   1.000  H
  H1057    1.0000 0.72808  0.65450  0.87271  Biso   1.000  H
  O49      1.0000 0.10953  0.21378  0.26918  Biso   1.000  O
  C856     1.0000 0.13920  0.23469  0.23099  Biso   1.000  C
  H1058    1.0000 0.08269  0.23209  0.27121  Biso   1.000  H
  C857     1.0000 0.18760  0.21223  0.22309  Biso   1.000  C
  C858     1.0000 0.18760  0.21219  0.22309  Biso   1.000  C
  C859     1.0000 0.18757  0.21223  0.22309  Biso   1.000  C
  C860     1.0000 0.18757  0.21219  0.22309  Biso   1.000  C
  C861     1.0000 0.12450  0.27778  0.20199  Biso   1.000  C
  C862     1.0000 0.12446  0.27778  0.20199  Biso   1.000  C
  C863     1.0000 0.22119  0.23279  0.18619  Biso   1.000  C
  C864     1.0000 0.20269  0.16759  0.25439  Biso   1.000  C
  C865     1.0000 0.15809  0.29830  0.16509  Biso   1.000  C
  C866     1.0000 0.07788  0.30501  0.20799  Biso   1.000  C
  C867     1.0000 0.07788  0.30497  0.20799  Biso   1.000  C
  H1059    1.0000 0.25431  0.21739  0.18082  Biso   1.000  H
  H1060    1.0000 0.25428  0.21739  0.18082  Biso   1.000  H
  C868     1.0000 0.20649  0.27580  0.15719  Biso   1.000  C
  C869     1.0000 0.20649  0.27576  0.15719  Biso   1.000  C
  C870     1.0000 0.20645  0.27580  0.15719  Biso   1.000  C
  C871     1.0000 0.20645  0.27576  0.15719  Biso   1.000  C
  N96      1.0000 0.24470  0.14339  0.24820  Biso   1.000  N
  H1061    1.0000 0.17969  0.15611  0.28090  Biso   1.000  H
  H1062    1.0000 0.17969  0.15607  0.28090  Biso   1.000  H
  H1063    1.0000 0.14808  0.32770  0.14520  Biso   1.000  H
  H1064    1.0000 0.07051  0.33569  0.18899  Biso   1.000  H
  N97      1.0000 0.04259  0.28360  0.24438  Biso   1.000  N
  H1065    1.0000 0.07047  0.33569  0.18899  Biso   1.000  H
  C872     1.0000 0.24291  0.29900  0.11289  Biso   1.000  C
  C873     1.0000 0.24287  0.29900  0.11289  Biso   1.000  C
  C874     1.0000 0.25261  0.09440  0.28008  Biso   1.000  C
  C875     1.0000 0.25261  0.09436  0.28008  Biso   1.000  C
  C876     1.0000 0.25257  0.09440  0.28008  Biso   1.000  C
  C877     1.0000 0.25257  0.09436  0.28008  Biso   1.000  C
  C878     1.0000 0.99011  0.30528  0.24820  Biso   1.000  C
  C879     1.0000 0.99007  0.30528  0.24820  Biso   1.000  C
  C880     1.0000 0.25191  0.35589  0.12091  Biso   1.000  C
  C881     1.0000 0.21770  0.29349  0.06322  Biso   1.000  C
  C882     1.0000 0.29279  0.26180  0.11219  Biso   1.000  C
  C883     1.0000 0.29279  0.26176  0.11219  Biso   1.000  C
  C884     1.0000 0.25187  0.35589  0.12091  Biso   1.000  C
  C885     1.0000 0.21766  0.29349  0.06322  Biso   1.000  C
  C886     1.0000 0.26378  0.04910  0.24411  Biso   1.000  C
  H1066    1.0000 0.22119  0.08711  0.30180  Biso   1.000  H
  C887     1.0000 0.30008  0.10321  0.31500  Biso   1.000  C
  H1067    1.0000 0.22119  0.08707  0.30180  Biso   1.000  H
  C888     1.0000 0.30008  0.10317  0.31500  Biso   1.000  C
  C889     1.0000 0.94911  0.26890  0.23718  Biso   1.000  C
  H1068    1.0000 0.98720  0.33518  0.22360  Biso   1.000  H
  C890     1.0000 0.98790  0.32521  0.30250  Biso   1.000  C
  C891     1.0000 0.98790  0.32518  0.30250  Biso   1.000  C
  C892     1.0000 0.94907  0.26890  0.23718  Biso   1.000  C
  H1069    1.0000 0.21840  0.37401  0.12180  Biso   1.000  H
  H1070    1.0000 0.27289  0.36951  0.09222  Biso   1.000  H
  H1071    1.0000 0.21840  0.37397  0.12180  Biso   1.000  H
  H1072    1.0000 0.27289  0.36947  0.09222  Biso   1.000  H
  H1073    1.0000 0.27010  0.36140  0.15392  Biso   1.000  H
  H1074    1.0000 0.27010  0.36136  0.15392  Biso   1.000  H
  H1075    1.0000 0.27006  0.36140  0.15392  Biso   1.000  H
  H1076    1.0000 0.27006  0.36136  0.15392  Biso   1.000  H
  H1077    1.0000 0.21049  0.25680  0.05660  Biso   1.000  H
  H1078    1.0000 0.18508  0.31300  0.06341  Biso   1.000  H
  H1079    1.0000 0.24039  0.30710  0.03581  Biso   1.000  H
  H1080    1.0000 0.24039  0.30706  0.03581  Biso   1.000  H
  H1081    1.0000 0.28189  0.22608  0.10518  Biso   1.000  H
  H1082    1.0000 0.31680  0.27328  0.08490  Biso   1.000  H
  H1083    1.0000 0.31028  0.26339  0.14609  Biso   1.000  H
  H1084    1.0000 0.23430  0.04398  0.22002  Biso   1.000  H
  H1085    1.0000 0.29508  0.05670  0.22301  Biso   1.000  H
  H1086    1.0000 0.23426  0.04398  0.22002  Biso   1.000  H
  H1087    1.0000 0.29508  0.05667  0.22301  Biso   1.000  H
  C893     1.0000 0.27251  0.99961  0.27560  Biso   1.000  C
  C894     1.0000 0.27251  0.99957  0.27560  Biso   1.000  C
  C895     1.0000 0.27247  0.99961  0.27560  Biso   1.000  C
  C896     1.0000 0.27247  0.99957  0.27560  Biso   1.000  C
  C897     1.0000 0.30908  0.05779  0.34630  Biso   1.000  C
  H1088    1.0000 0.29419  0.13362  0.33781  Biso   1.000  H
  H1089    1.0000 0.33088  0.11031  0.29320  Biso   1.000  H
  H1090    1.0000 0.29419  0.13358  0.33781  Biso   1.000  H
  H1091    1.0000 0.33088  0.11027  0.29320  Biso   1.000  H
  C898     1.0000 0.89559  0.28759  0.24738  Biso   1.000  C
  H1092    1.0000 0.95152  0.25870  0.20009  Biso   1.000  H
  H1093    1.0000 0.95501  0.23729  0.25828  Biso   1.000  H
  H1094    1.0000 0.95148  0.25870  0.20009  Biso   1.000  H
  H1095    1.0000 0.95497  0.23729  0.25828  Biso   1.000  H
  H1096    1.0000 0.01470  0.35229  0.30690  Biso   1.000  H
  H1097    1.0000 0.99608  0.29651  0.32679  Biso   1.000  H
  C899     1.0000 0.93081  0.34961  0.31768  Biso   1.000  C
  H1098    1.0000 0.99608  0.29647  0.32679  Biso   1.000  H
  C900     1.0000 0.93081  0.34957  0.31768  Biso   1.000  C
  C901     1.0000 0.93077  0.34961  0.31768  Biso   1.000  C
  C902     1.0000 0.93077  0.34957  0.31768  Biso   1.000  C
  C903     1.0000 0.32611  0.00939  0.30920  Biso   1.000  C
  C904     1.0000 0.32607  0.00939  0.30920  Biso   1.000  C
  H1099    1.0000 0.24280  0.99391  0.29989  Biso   1.000  H
  N98      1.0000 0.28131  0.95330  0.24481  Biso   1.000  N
  H1100    1.0000 0.24280  0.99387  0.29989  Biso   1.000  H
  N99      1.0000 0.28127  0.95330  0.24481  Biso   1.000  N
  H1101    1.0000 0.27720  0.04879  0.36650  Biso   1.000  H
  N100     1.0000 0.35461  0.06392  0.38250  Biso   1.000  N
  N101     1.0000 0.35461  0.06388  0.38250  Biso   1.000  N
  N102     1.0000 0.35457  0.06392  0.38250  Biso   1.000  N
  N103     1.0000 0.35457  0.06388  0.38250  Biso   1.000  N
  H1102    1.0000 0.88791  0.31598  0.22200  Biso   1.000  H
  C905     1.0000 0.88822  0.30931  0.30180  Biso   1.000  C
  N104     1.0000 0.85851  0.24683  0.23909  Biso   1.000  N
  C906     1.0000 0.88822  0.30927  0.30180  Biso   1.000  C
  H1103    1.0000 0.88787  0.31598  0.22200  Biso   1.000  H
  C907     1.0000 0.88818  0.30931  0.30180  Biso   1.000  C
  N105     1.0000 0.85847  0.24683  0.23909  Biso   1.000  N
  C908     1.0000 0.88818  0.30927  0.30180  Biso   1.000  C
  H1104    1.0000 0.92542  0.38219  0.29729  Biso   1.000  H
  N106     1.0000 0.93112  0.36229  0.37218  Biso   1.000  N
  H1105    1.0000 0.92538  0.38219  0.29729  Biso   1.000  H
  N107     1.0000 0.93108  0.36229  0.37218  Biso   1.000  N
  H1106    1.0000 0.35539  0.01889  0.28619  Biso   1.000  H
  H1107    1.0000 0.33561  0.97851  0.32999  Biso   1.000  H
  H1108    1.0000 0.33561  0.97847  0.32999  Biso   1.000  H
  H1109    1.0000 0.33557  0.97851  0.32999  Biso   1.000  H
  H1110    1.0000 0.33557  0.97847  0.32999  Biso   1.000  H
  C909     1.0000 0.25338  0.92030  0.24559  Biso   1.000  C
  C910     1.0000 0.34701  0.06419  0.43291  Biso   1.000  C
  C911     1.0000 0.34697  0.06419  0.43291  Biso   1.000  C
  H1111    1.0000 0.85370  0.32618  0.30390  Biso   1.000  H
  H1112    1.0000 0.88849  0.28030  0.32710  Biso   1.000  H
  H1113    1.0000 0.88849  0.28026  0.32710  Biso   1.000  H
  C912     1.0000 0.82240  0.25338  0.20919  Biso   1.000  C
  C913     1.0000 0.92138  0.40841  0.38530  Biso   1.000  C
  C914     1.0000 0.92138  0.40837  0.38530  Biso   1.000  C
  C915     1.0000 0.25331  0.87216  0.21624  Biso   1.000  C
  H1114    1.0000 0.22530  0.92421  0.26918  Biso   1.000  H
  H1115    1.0000 0.22530  0.92417  0.26918  Biso   1.000  H
  C916     1.0000 0.25327  0.87216  0.21624  Biso   1.000  C
  H1116    1.0000 0.22526  0.92421  0.26918  Biso   1.000  H
  H1117    1.0000 0.22526  0.92417  0.26918  Biso   1.000  H
  C917     1.0000 0.39088  0.06970  0.46790  Biso   1.000  C
  H1118    1.0000 0.31288  0.06082  0.44649  Biso   1.000  H
  H1119    1.0000 0.31288  0.06078  0.44649  Biso   1.000  H
  H1120    1.0000 0.81930  0.28569  0.19160  Biso   1.000  H
  C918     1.0000 0.78265  0.21227  0.19911  Biso   1.000  C
  C919     1.0000 0.91952  0.41791  0.44311  Biso   1.000  C
  H1121    1.0000 0.91572  0.43521  0.36058  Biso   1.000  H
  C920     1.0000 0.91952  0.41787  0.44311  Biso   1.000  C
  H1122    1.0000 0.91572  0.43517  0.36058  Biso   1.000  H
  C921     1.0000 0.91948  0.41791  0.44311  Biso   1.000  C
  H1123    1.0000 0.91568  0.43521  0.36058  Biso   1.000  H
  C922     1.0000 0.91948  0.41787  0.44311  Biso   1.000  C
  H1124    1.0000 0.91568  0.43517  0.36058  Biso   1.000  H
  C923     1.0000 0.21580  0.83462  0.22578  Biso   1.000  C
  C924     1.0000 0.29229  0.86286  0.18000  Biso   1.000  C
  C925     1.0000 0.21580  0.83458  0.22578  Biso   1.000  C
  C926     1.0000 0.21576  0.83462  0.22578  Biso   1.000  C
  C927     1.0000 0.29225  0.86286  0.18000  Biso   1.000  C
  C928     1.0000 0.21576  0.83458  0.22578  Biso   1.000  C
  C929     1.0000 0.37893  0.07160  0.52061  Biso   1.000  C
  C930     1.0000 0.44180  0.07660  0.45148  Biso   1.000  C
  C931     1.0000 0.37889  0.07160  0.52061  Biso   1.000  C
  C932     1.0000 0.44176  0.07660  0.45148  Biso   1.000  C
  C933     1.0000 0.78420  0.16538  0.22578  Biso   1.000  C
  C934     1.0000 0.74371  0.22158  0.16291  Biso   1.000  C
  C935     1.0000 0.92840  0.37893  0.47939  Biso   1.000  C
  C936     1.0000 0.91269  0.46880  0.45950  Biso   1.000  C
  C937     1.0000 0.92840  0.37889  0.47939  Biso   1.000  C
  C938     1.0000 0.91269  0.46876  0.45950  Biso   1.000  C
  C939     1.0000 0.21735  0.78773  0.19911  Biso   1.000  C
  O50      1.0000 0.17686  0.84614  0.25929  Biso   1.000  O
  C940     1.0000 0.21735  0.78769  0.19911  Biso   1.000  C
  C941     1.0000 0.21731  0.78773  0.19911  Biso   1.000  C
  C942     1.0000 0.21731  0.78769  0.19911  Biso   1.000  C
  H1125    1.0000 0.31788  0.88861  0.17350  Biso   1.000  H
  C943     1.0000 0.29376  0.81600  0.15337  Biso   1.000  C
  H1126    1.0000 0.31788  0.88857  0.17350  Biso   1.000  H
  C944     1.0000 0.41791  0.08048  0.55689  Biso   1.000  C
  O51      1.0000 0.32673  0.06376  0.53381  Biso   1.000  O
  C945     1.0000 0.41787  0.08048  0.55689  Biso   1.000  C
  O52      1.0000 0.32673  0.06372  0.53381  Biso   1.000  O
  C946     1.0000 0.48074  0.08541  0.48780  Biso   1.000  C
  H1127    1.0000 0.44999  0.07520  0.41551  Biso   1.000  H
  C947     1.0000 0.48074  0.08537  0.48780  Biso   1.000  C
  H1128    1.0000 0.44999  0.07517  0.41551  Biso   1.000  H
  C948     1.0000 0.74669  0.12784  0.21624  Biso   1.000  C
  O53      1.0000 0.82314  0.15386  0.25929  Biso   1.000  O
  C949     1.0000 0.74669  0.12780  0.21624  Biso   1.000  C
  O54      1.0000 0.82314  0.15382  0.25929  Biso   1.000  O
  O55      1.0000 0.82310  0.15386  0.25929  Biso   1.000  O
  O56      1.0000 0.82310  0.15382  0.25929  Biso   1.000  O
  C950     1.0000 0.70624  0.18400  0.15337  Biso   1.000  C
  H1129    1.0000 0.74270  0.25369  0.14469  Biso   1.000  H
  C951     1.0000 0.70620  0.18400  0.15337  Biso   1.000  C
  C952     1.0000 0.93030  0.39088  0.53210  Biso   1.000  C
  O57      1.0000 0.93624  0.32673  0.46619  Biso   1.000  O
  H1130    1.0000 0.90661  0.49540  0.43458  Biso   1.000  H
  C953     1.0000 0.91459  0.48074  0.51220  Biso   1.000  C
  H1131    1.0000 0.90661  0.49537  0.43458  Biso   1.000  H
  C954     1.0000 0.17760  0.74662  0.20919  Biso   1.000  C
  C955     1.0000 0.25629  0.77842  0.16291  Biso   1.000  C
  C956     1.0000 0.17760  0.74658  0.20919  Biso   1.000  C
  C957     1.0000 0.25629  0.77838  0.16291  Biso   1.000  C
  H1132    1.0000 0.15611  0.82101  0.25949  Biso   1.000  H
  H1133    1.0000 0.15607  0.82101  0.25949  Biso   1.000  H
  C958     1.0000 0.33980  0.80561  0.11121  Biso   1.000  C
  C959     1.0000 0.33980  0.80557  0.11121  Biso   1.000  C
  C960     1.0000 0.40841  0.07862  0.61470  Biso   1.000  C
  C961     1.0000 0.46880  0.08731  0.54050  Biso   1.000  C
  C962     1.0000 0.40841  0.07858  0.61470  Biso   1.000  C
  C963     1.0000 0.46880  0.08727  0.54050  Biso   1.000  C
  C964     1.0000 0.40837  0.07862  0.61470  Biso   1.000  C
  C965     1.0000 0.46876  0.08731  0.54050  Biso   1.000  C
  C966     1.0000 0.40837  0.07858  0.61470  Biso   1.000  C
  C967     1.0000 0.46876  0.08727  0.54050  Biso   1.000  C
  H1134    1.0000 0.32471  0.04720  0.56180  Biso   1.000  H
  H1135    1.0000 0.32467  0.04720  0.56180  Biso   1.000  H
  C968     1.0000 0.53621  0.09188  0.46670  Biso   1.000  C
  C969     1.0000 0.53617  0.09188  0.46670  Biso   1.000  C
  C970     1.0000 0.70771  0.13714  0.18000  Biso   1.000  C
  C971     1.0000 0.74662  0.07970  0.24559  Biso   1.000  C
  C972     1.0000 0.70771  0.13711  0.18000  Biso   1.000  C
  C973     1.0000 0.74662  0.07966  0.24559  Biso   1.000  C
  C974     1.0000 0.74658  0.07970  0.24559  Biso   1.000  C
  C975     1.0000 0.74658  0.07966  0.24559  Biso   1.000  C
  H1136    1.0000 0.84389  0.17899  0.25949  Biso   1.000  H
  C976     1.0000 0.66020  0.19439  0.11121  Biso   1.000  C
  C977     1.0000 0.93581  0.34701  0.56709  Biso   1.000  C
  C978     1.0000 0.92340  0.44180  0.54848  Biso   1.000  C
  C979     1.0000 0.93581  0.34697  0.56709  Biso   1.000  C
  C980     1.0000 0.92340  0.44176  0.54848  Biso   1.000  C
  C981     1.0000 0.93577  0.34701  0.56709  Biso   1.000  C
  C982     1.0000 0.93577  0.34697  0.56709  Biso   1.000  C
  H1137    1.0000 0.95280  0.32471  0.43820  Biso   1.000  H
  H1138    1.0000 0.95280  0.32467  0.43820  Biso   1.000  H
  C983     1.0000 0.90812  0.53621  0.53330  Biso   1.000  C
  C984     1.0000 0.90812  0.53617  0.53330  Biso   1.000  C
  C985     1.0000 0.90808  0.53621  0.53330  Biso   1.000  C
  C986     1.0000 0.90808  0.53617  0.53330  Biso   1.000  C
  H1139    1.0000 0.18070  0.71431  0.19160  Biso   1.000  H
  N108     1.0000 0.14149  0.75317  0.23909  Biso   1.000  N
  H1140    1.0000 0.25730  0.74631  0.14469  Biso   1.000  H
  H1141    1.0000 0.25726  0.74631  0.14469  Biso   1.000  H
  C987     1.0000 0.38731  0.82551  0.13461  Biso   1.000  C
  C988     1.0000 0.31730  0.84009  0.06201  Biso   1.000  C
  C989     1.0000 0.33821  0.74941  0.09662  Biso   1.000  C
  C990     1.0000 0.33821  0.74937  0.09662  Biso   1.000  C
  C991     1.0000 0.38727  0.82551  0.13461  Biso   1.000  C
  C992     1.0000 0.31726  0.84009  0.06201  Biso   1.000  C
  C993     1.0000 0.33817  0.74941  0.09662  Biso   1.000  C
  C994     1.0000 0.33817  0.74937  0.09662  Biso   1.000  C
  H1142    1.0000 0.43521  0.08428  0.63938  Biso   1.000  H
  N109     1.0000 0.36229  0.06888  0.62778  Biso   1.000  N
  H1143    1.0000 0.43517  0.08428  0.63938  Biso   1.000  H
  H1144    1.0000 0.49540  0.09339  0.56538  Biso   1.000  H
  H1145    1.0000 0.49537  0.09339  0.56538  Biso   1.000  H
  C995     1.0000 0.57670  0.06570  0.50971  Biso   1.000  C
  C996     1.0000 0.57666  0.06570  0.50971  Biso   1.000  C
  C997     1.0000 0.55471  0.08091  0.41461  Biso   1.000  C
  C998     1.0000 0.54901  0.15471  0.48149  Biso   1.000  C
  C999     1.0000 0.55471  0.08087  0.41461  Biso   1.000  C
  C1000    1.0000 0.54901  0.15468  0.48149  Biso   1.000  C
  C1001    1.0000 0.55467  0.08091  0.41461  Biso   1.000  C
  C1002    1.0000 0.54897  0.15471  0.48149  Biso   1.000  C
  C1003    1.0000 0.55467  0.08087  0.41461  Biso   1.000  C
  C1004    1.0000 0.54897  0.15468  0.48149  Biso   1.000  C
  H1146    1.0000 0.68212  0.11139  0.17350  Biso   1.000  H
  H1147    1.0000 0.68208  0.11139  0.17350  Biso   1.000  H
  H1148    1.0000 0.77470  0.07579  0.26918  Biso   1.000  H
  N110     1.0000 0.71869  0.04670  0.24481  Biso   1.000  N
  C1005    1.0000 0.61269  0.17449  0.13461  Biso   1.000  C
  C1006    1.0000 0.68270  0.15991  0.06201  Biso   1.000  C
  C1007    1.0000 0.66179  0.25059  0.09662  Biso   1.000  C
  C1008    1.0000 0.68270  0.15987  0.06201  Biso   1.000  C
  H1149    1.0000 0.93918  0.31288  0.55351  Biso   1.000  H
  N111     1.0000 0.93608  0.35461  0.61750  Biso   1.000  N
  N112     1.0000 0.93608  0.35457  0.61750  Biso   1.000  N
  H1150    1.0000 0.92480  0.44999  0.58449  Biso   1.000  H
  C1009    1.0000 0.91909  0.55471  0.58539  Biso   1.000  C
  C1010    1.0000 0.84529  0.54901  0.51851  Biso   1.000  C
  C1011    1.0000 0.93430  0.57670  0.49029  Biso   1.000  C
  C1012    1.0000 0.91909  0.55467  0.58539  Biso   1.000  C
  C1013    1.0000 0.84529  0.54897  0.51851  Biso   1.000  C
  C1014    1.0000 0.93430  0.57666  0.49029  Biso   1.000  C
  C1015    1.0000 0.10441  0.71241  0.24738  Biso   1.000  C
  C1016    1.0000 0.10437  0.71241  0.24738  Biso   1.000  C
  H1151    1.0000 0.38258  0.86212  0.14368  Biso   1.000  H
  H1152    1.0000 0.39530  0.80561  0.16610  Biso   1.000  H
  H1153    1.0000 0.41589  0.82221  0.10981  Biso   1.000  H
  H1154    1.0000 0.38258  0.86208  0.14368  Biso   1.000  H
  H1155    1.0000 0.39530  0.80557  0.16610  Biso   1.000  H
  H1156    1.0000 0.41589  0.82217  0.10981  Biso   1.000  H
  H1157    1.0000 0.39526  0.80561  0.16610  Biso   1.000  H
  H1158    1.0000 0.39526  0.80557  0.16610  Biso   1.000  H
  H1159    1.0000 0.28461  0.82500  0.04990  Biso   1.000  H
  H1160    1.0000 0.31141  0.87581  0.07342  Biso   1.000  H
  H1161    1.0000 0.34259  0.83982  0.03352  Biso   1.000  H
  H1162    1.0000 0.31141  0.87577  0.07342  Biso   1.000  H
  H1163    1.0000 0.34259  0.83978  0.03352  Biso   1.000  H
  H1164    1.0000 0.28457  0.82500  0.04990  Biso   1.000  H
  H1165    1.0000 0.31137  0.87581  0.07342  Biso   1.000  H
  H1166    1.0000 0.31137  0.87577  0.07342  Biso   1.000  H
  H1167    1.0000 0.30369  0.74080  0.08311  Biso   1.000  H
  H1168    1.0000 0.36431  0.74250  0.06972  Biso   1.000  H
  H1169    1.0000 0.34550  0.72812  0.12729  Biso   1.000  H
  H1170    1.0000 0.34550  0.72808  0.12729  Biso   1.000  H
  H1171    1.0000 0.36427  0.74250  0.06972  Biso   1.000  H
  H1172    1.0000 0.34546  0.72812  0.12729  Biso   1.000  H
  H1173    1.0000 0.34546  0.72808  0.12729  Biso   1.000  H
  C1017    1.0000 0.34961  0.06919  0.68228  Biso   1.000  C
  C1018    1.0000 0.34957  0.06919  0.68228  Biso   1.000  C
  H1174    1.0000 0.56809  0.02890  0.51450  Biso   1.000  H
  H1175    1.0000 0.61238  0.06881  0.49691  Biso   1.000  H
  H1176    1.0000 0.57348  0.08381  0.54300  Biso   1.000  H
  H1177    1.0000 0.61238  0.06877  0.49691  Biso   1.000  H
  H1178    1.0000 0.57348  0.08378  0.54300  Biso   1.000  H
  H1179    1.0000 0.54858  0.04429  0.40648  Biso   1.000  H
  H1180    1.0000 0.53609  0.10270  0.38958  Biso   1.000  H
  H1181    1.0000 0.53609  0.10266  0.38958  Biso   1.000  H
  H1182    1.0000 0.59190  0.08831  0.41259  Biso   1.000  H
  H1183    1.0000 0.59190  0.08828  0.41259  Biso   1.000  H
  H1184    1.0000 0.59186  0.08831  0.41259  Biso   1.000  H
  H1185    1.0000 0.59186  0.08828  0.41259  Biso   1.000  H
  H1186    1.0000 0.58411  0.16348  0.47001  Biso   1.000  H
  H1187    1.0000 0.54629  0.15968  0.51921  Biso   1.000  H
  H1188    1.0000 0.58407  0.16348  0.47001  Biso   1.000  H
  H1189    1.0000 0.52391  0.17721  0.46378  Biso   1.000  H
  H1190    1.0000 0.52391  0.17717  0.46378  Biso   1.000  H
  H1191    1.0000 0.52387  0.17721  0.46378  Biso   1.000  H
  H1192    1.0000 0.52387  0.17717  0.46378  Biso   1.000  H
  C1019    1.0000 0.72749  0.00039  0.27560  Biso   1.000  C
  H1193    1.0000 0.61742  0.13788  0.14368  Biso   1.000  H
  H1194    1.0000 0.60470  0.19439  0.16610  Biso   1.000  H
  H1195    1.0000 0.58411  0.17779  0.10981  Biso   1.000  H
  H1196    1.0000 0.61738  0.13788  0.14368  Biso   1.000  H
  H1197    1.0000 0.71539  0.17500  0.04990  Biso   1.000  H
  H1198    1.0000 0.68859  0.12419  0.07342  Biso   1.000  H
  H1199    1.0000 0.65741  0.16018  0.03352  Biso   1.000  H
  H1200    1.0000 0.65737  0.16018  0.03352  Biso   1.000  H
  H1201    1.0000 0.69631  0.25920  0.08311  Biso   1.000  H
  H1202    1.0000 0.63569  0.25750  0.06972  Biso   1.000  H
  H1203    1.0000 0.65450  0.27188  0.12729  Biso   1.000  H
  H1204    1.0000 0.69631  0.25916  0.08311  Biso   1.000  H
  H1205    1.0000 0.69627  0.25920  0.08311  Biso   1.000  H
  H1206    1.0000 0.69627  0.25916  0.08311  Biso   1.000  H
  C1020    1.0000 0.94221  0.30908  0.65370  Biso   1.000  C
  C1021    1.0000 0.94217  0.30908  0.65370  Biso   1.000  C
  H1207    1.0000 0.91169  0.59190  0.58741  Biso   1.000  H
  H1208    1.0000 0.95571  0.54858  0.59348  Biso   1.000  H
  H1209    1.0000 0.89730  0.53609  0.61038  Biso   1.000  H
  H1210    1.0000 0.91169  0.59186  0.58741  Biso   1.000  H
  H1211    1.0000 0.95567  0.54858  0.59348  Biso   1.000  H
  H1212    1.0000 0.83652  0.58411  0.52999  Biso   1.000  H
  H1213    1.0000 0.82279  0.52391  0.53618  Biso   1.000  H
  H1214    1.0000 0.84032  0.54629  0.48079  Biso   1.000  H
  H1215    1.0000 0.83652  0.58407  0.52999  Biso   1.000  H
  H1216    1.0000 0.82279  0.52387  0.53618  Biso   1.000  H
  H1217    1.0000 0.83648  0.58411  0.52999  Biso   1.000  H
  H1218    1.0000 0.84028  0.54629  0.48079  Biso   1.000  H
  H1219    1.0000 0.83648  0.58407  0.52999  Biso   1.000  H
  H1220    1.0000 0.93119  0.61238  0.50309  Biso   1.000  H
  H1221    1.0000 0.91619  0.57348  0.45700  Biso   1.000  H
  H1222    1.0000 0.97110  0.56809  0.48550  Biso   1.000  H
  H1223    1.0000 0.97107  0.56809  0.48550  Biso   1.000  H
  H1224    1.0000 0.11209  0.68402  0.22200  Biso   1.000  H
  C1022    1.0000 0.05089  0.73110  0.23718  Biso   1.000  C
  C1023    1.0000 0.11178  0.69069  0.30180  Biso   1.000  C
  H1225    1.0000 0.11209  0.68398  0.22200  Biso   1.000  H
  C1024    1.0000 0.32521  0.01210  0.69750  Biso   1.000  C
  H1226    1.0000 0.38219  0.07458  0.70271  Biso   1.000  H
  C1025    1.0000 0.30931  0.11178  0.69820  Biso   1.000  C
  C1026    1.0000 0.32518  0.01210  0.69750  Biso   1.000  C
  C1027    1.0000 0.30927  0.11178  0.69820  Biso   1.000  C
  C1028    1.0000 0.73622  0.95090  0.24411  Biso   1.000  C
  C1029    1.0000 0.67389  0.99061  0.30920  Biso   1.000  C
  C1030    1.0000 0.67389  0.99058  0.30920  Biso   1.000  C
  C1031    1.0000 0.73618  0.95090  0.24411  Biso   1.000  C
  H1227    1.0000 0.75720  0.00609  0.29989  Biso   1.000  H
  C1032    1.0000 0.89679  0.30008  0.68500  Biso   1.000  C
  H1228    1.0000 0.95121  0.27720  0.63350  Biso   1.000  H
  C1033    1.0000 0.99061  0.32611  0.69080  Biso   1.000  C
  C1034    1.0000 0.99061  0.32607  0.69080  Biso   1.000  C
  H1229    1.0000 0.95117  0.27720  0.63350  Biso   1.000  H
  C1035    1.0000 0.99058  0.32611  0.69080  Biso   1.000  C
  C1036    1.0000 0.99058  0.32607  0.69080  Biso   1.000  C
  H1230    1.0000 0.04848  0.74130  0.20009  Biso   1.000  H
  H1231    1.0000 0.04499  0.76271  0.25828  Biso   1.000  H
  C1037    1.0000 0.00989  0.69472  0.24820  Biso   1.000  C
  H1232    1.0000 0.04499  0.76267  0.25828  Biso   1.000  H
  C1038    1.0000 0.00989  0.69468  0.24820  Biso   1.000  C
  C1039    1.0000 0.06919  0.65039  0.31768  Biso   1.000  C
  H1233    1.0000 0.14630  0.67382  0.30390  Biso   1.000  H
  H1234    1.0000 0.11151  0.71970  0.32710  Biso   1.000  H
  H1235    1.0000 0.14630  0.67378  0.30390  Biso   1.000  H
  H1236    1.0000 0.11147  0.71970  0.32710  Biso   1.000  H
  C1040    1.0000 0.30528  0.00989  0.75180  Biso   1.000  C
  H1237    1.0000 0.35229  0.98530  0.69310  Biso   1.000  H
  H1238    1.0000 0.29651  0.00392  0.67321  Biso   1.000  H
  H1239    1.0000 0.29651  0.00388  0.67321  Biso   1.000  H
  H1240    1.0000 0.29647  0.00392  0.67321  Biso   1.000  H
  H1241    1.0000 0.29647  0.00388  0.67321  Biso   1.000  H
  H1242    1.0000 0.32618  0.14630  0.69610  Biso   1.000  H
  C1041    1.0000 0.28759  0.10441  0.75258  Biso   1.000  C
  C1042    1.0000 0.28759  0.10437  0.75258  Biso   1.000  C
  H1243    1.0000 0.28030  0.11151  0.67290  Biso   1.000  H
  H1244    1.0000 0.28030  0.11147  0.67290  Biso   1.000  H
  H1245    1.0000 0.28026  0.11151  0.67290  Biso   1.000  H
  H1246    1.0000 0.28026  0.11147  0.67290  Biso   1.000  H
  H1247    1.0000 0.76570  0.95602  0.22002  Biso   1.000  H
  H1248    1.0000 0.70492  0.94330  0.22301  Biso   1.000  H
  C1043    1.0000 0.74739  0.90560  0.28008  Biso   1.000  C
  H1249    1.0000 0.76570  0.95598  0.22002  Biso   1.000  H
  H1250    1.0000 0.70488  0.94330  0.22301  Biso   1.000  H
  C1044    1.0000 0.69092  0.94221  0.34630  Biso   1.000  C
  H1251    1.0000 0.64461  0.98111  0.28619  Biso   1.000  H
  C1045    1.0000 0.69092  0.94217  0.34630  Biso   1.000  C
  H1252    1.0000 0.64461  0.98107  0.28619  Biso   1.000  H
  C1046    1.0000 0.69088  0.94221  0.34630  Biso   1.000  C
  H1253    1.0000 0.64457  0.98111  0.28619  Biso   1.000  H
  C1047    1.0000 0.69088  0.94217  0.34630  Biso   1.000  C
  H1254    1.0000 0.64457  0.98107  0.28619  Biso   1.000  H
  H1255    1.0000 0.66439  0.02149  0.32999  Biso   1.000  H
  C1048    1.0000 0.90560  0.25261  0.71988  Biso   1.000  C
  H1256    1.0000 0.86638  0.29419  0.66219  Biso   1.000  H
  H1257    1.0000 0.88969  0.33088  0.70680  Biso   1.000  H
  C1049    1.0000 0.90560  0.25257  0.71988  Biso   1.000  C
  C1050    1.0000 0.00039  0.27251  0.72440  Biso   1.000  C
  H1258    1.0000 0.02149  0.33561  0.66998  Biso   1.000  H
  C1051    1.0000 0.00039  0.27247  0.72440  Biso   1.000  C
  H1259    1.0000 0.02149  0.33557  0.66998  Biso   1.000  H
  H1260    1.0000 0.98111  0.35539  0.71381  Biso   1.000  H
  H1261    1.0000 0.98107  0.35539  0.71381  Biso   1.000  H
  N113     1.0000 0.95741  0.71640  0.24438  Biso   1.000  N
  N114     1.0000 0.95738  0.71640  0.24438  Biso   1.000  N
  H1262    1.0000 0.01280  0.66482  0.22360  Biso   1.000  H
  C1052    1.0000 0.01210  0.67479  0.30250  Biso   1.000  C
  H1263    1.0000 0.01280  0.66478  0.22360  Biso   1.000  H
  H1264    1.0000 0.07458  0.61781  0.29729  Biso   1.000  H
  N115     1.0000 0.06888  0.63771  0.37218  Biso   1.000  N
  H1265    1.0000 0.07458  0.61777  0.29729  Biso   1.000  H
  C1053    1.0000 0.26890  0.05089  0.76278  Biso   1.000  C
  H1266    1.0000 0.33518  0.01280  0.77640  Biso   1.000  H
  N116     1.0000 0.28360  0.95741  0.75558  Biso   1.000  N
  N117     1.0000 0.28360  0.95738  0.75558  Biso   1.000  N
  H1267    1.0000 0.31598  0.11209  0.77800  Biso   1.000  H
  N118     1.0000 0.24683  0.14149  0.76091  Biso   1.000  N
  H1268    1.0000 0.77881  0.91289  0.30180  Biso   1.000  H
  C1054    1.0000 0.69992  0.89679  0.31500  Biso   1.000  C
  N119     1.0000 0.75530  0.85661  0.24820  Biso   1.000  N
  N120     1.0000 0.75530  0.85657  0.24820  Biso   1.000  N
  H1269    1.0000 0.77877  0.91289  0.30180  Biso   1.000  H
  C1055    1.0000 0.69988  0.89679  0.31500  Biso   1.000  C
  H1270    1.0000 0.72280  0.95121  0.36650  Biso   1.000  H
  N121     1.0000 0.64539  0.93608  0.38250  Biso   1.000  N
  H1271    1.0000 0.72280  0.95117  0.36650  Biso   1.000  H
  C1056    1.0000 0.95090  0.26378  0.75589  Biso   1.000  C
  H1272    1.0000 0.91289  0.22119  0.69820  Biso   1.000  H
  N122     1.0000 0.85661  0.24470  0.75180  Biso   1.000  N
  N123     1.0000 0.85657  0.24470  0.75180  Biso   1.000  N
  H1273    1.0000 0.00609  0.24280  0.70011  Biso   1.000  H
  N124     1.0000 0.04670  0.28131  0.75519  Biso   1.000  N
  N125     1.0000 0.04670  0.28127  0.75519  Biso   1.000  N
  C1057    1.0000 0.92212  0.69499  0.20799  Biso   1.000  C
  C1058    1.0000 0.92208  0.69499  0.20799  Biso   1.000  C
  H1274    1.0000 0.98530  0.64771  0.30690  Biso   1.000  H
  H1275    1.0000 0.98530  0.64767  0.30690  Biso   1.000  H
  H1276    1.0000 0.00392  0.70349  0.32679  Biso   1.000  H
  H1277    1.0000 0.00388  0.70349  0.32679  Biso   1.000  H
  C1059    1.0000 0.07862  0.59159  0.38530  Biso   1.000  C
  C1060    1.0000 0.07858  0.59159  0.38530  Biso   1.000  C
  H1278    1.0000 0.25870  0.04848  0.79988  Biso   1.000  H
  H1279    1.0000 0.23729  0.04499  0.74168  Biso   1.000  H
  C1061    1.0000 0.30501  0.92212  0.79201  Biso   1.000  C
  C1062    1.0000 0.30501  0.92208  0.79201  Biso   1.000  C
  C1063    1.0000 0.30497  0.92212  0.79201  Biso   1.000  C
  C1064    1.0000 0.30497  0.92208  0.79201  Biso   1.000  C
  C1065    1.0000 0.25338  0.17760  0.79081  Biso   1.000  C
  H1280    1.0000 0.70581  0.86638  0.33781  Biso   1.000  H
  H1281    1.0000 0.66912  0.88969  0.29320  Biso   1.000  H
  H1282    1.0000 0.70578  0.86638  0.33781  Biso   1.000  H
  H1283    1.0000 0.66908  0.88969  0.29320  Biso   1.000  H
  C1066    1.0000 0.79731  0.83241  0.25439  Biso   1.000  C
  C1067    1.0000 0.79731  0.83237  0.25439  Biso   1.000  C
  C1068    1.0000 0.79727  0.83241  0.25439  Biso   1.000  C
  C1069    1.0000 0.79727  0.83237  0.25439  Biso   1.000  C
  C1070    1.0000 0.65299  0.93581  0.43291  Biso   1.000  C
  C1071    1.0000 0.65299  0.93577  0.43291  Biso   1.000  C
  H1284    1.0000 0.95602  0.23430  0.77998  Biso   1.000  H
  H1285    1.0000 0.94330  0.29508  0.77699  Biso   1.000  H
  H1286    1.0000 0.95602  0.23426  0.77998  Biso   1.000  H
  H1287    1.0000 0.95598  0.23430  0.77998  Biso   1.000  H
  H1288    1.0000 0.95598  0.23426  0.77998  Biso   1.000  H
  C1072    1.0000 0.83241  0.20269  0.74561  Biso   1.000  C
  C1073    1.0000 0.83237  0.20269  0.74561  Biso   1.000  C
  C1074    1.0000 0.07970  0.25338  0.75441  Biso   1.000  C
  C1075    1.0000 0.07966  0.25338  0.75441  Biso   1.000  C
  C1076    1.0000 0.87550  0.72222  0.20199  Biso   1.000  C
  H1289    1.0000 0.92949  0.66431  0.18899  Biso   1.000  H
  C1077    1.0000 0.87550  0.72218  0.20199  Biso   1.000  C
  H1290    1.0000 0.92949  0.66427  0.18899  Biso   1.000  H
  C1078    1.0000 0.08048  0.58209  0.44311  Biso   1.000  C
  H1291    1.0000 0.08428  0.56479  0.36058  Biso   1.000  H
  H1292    1.0000 0.33569  0.92949  0.81101  Biso   1.000  H
  C1079    1.0000 0.27778  0.87550  0.79801  Biso   1.000  C
  H1293    1.0000 0.28569  0.18070  0.80840  Biso   1.000  H
  C1080    1.0000 0.21227  0.21735  0.80089  Biso   1.000  C
  C1081    1.0000 0.21227  0.21731  0.80089  Biso   1.000  C
  C1082    1.0000 0.81240  0.78777  0.22309  Biso   1.000  C
  H1294    1.0000 0.82031  0.84389  0.28090  Biso   1.000  H
  H1295    1.0000 0.82027  0.84389  0.28090  Biso   1.000  H
  H1296    1.0000 0.68712  0.93918  0.44649  Biso   1.000  H
  C1083    1.0000 0.60912  0.93030  0.46790  Biso   1.000  C
  H1297    1.0000 0.68708  0.93918  0.44649  Biso   1.000  H
  C1084    1.0000 0.60908  0.93030  0.46790  Biso   1.000  C
  H1298    1.0000 0.84389  0.17969  0.71910  Biso   1.000  H
  C1085    1.0000 0.78777  0.18760  0.77691  Biso   1.000  C
  C1086    1.0000 0.78777  0.18757  0.77691  Biso   1.000  C
  C1087    1.0000 0.12784  0.25331  0.78376  Biso   1.000  C
  C1088    1.0000 0.12784  0.25327  0.78376  Biso   1.000  C
  C1089    1.0000 0.12780  0.25331  0.78376  Biso   1.000  C
  C1090    1.0000 0.12780  0.25327  0.78376  Biso   1.000  C
  H1299    1.0000 0.07579  0.22530  0.73078  Biso   1.000  H
  H1300    1.0000 0.07579  0.22526  0.73078  Biso   1.000  H
  C1091    1.0000 0.86080  0.76531  0.23099  Biso   1.000  C
  C1092    1.0000 0.84191  0.70170  0.16509  Biso   1.000  C
  C1093    1.0000 0.86080  0.76527  0.23099  Biso   1.000  C
  C1094    1.0000 0.84191  0.70166  0.16509  Biso   1.000  C
  C1095    1.0000 0.86076  0.76531  0.23099  Biso   1.000  C
  C1096    1.0000 0.84187  0.70170  0.16509  Biso   1.000  C
  C1097    1.0000 0.86076  0.76527  0.23099  Biso   1.000  C
  C1098    1.0000 0.84187  0.70166  0.16509  Biso   1.000  C
  C1099    1.0000 0.07160  0.62107  0.47939  Biso   1.000  C
  C1100    1.0000 0.08731  0.53120  0.45950  Biso   1.000  C
  C1101    1.0000 0.08727  0.53120  0.45950  Biso   1.000  C
  C1102    1.0000 0.23469  0.86080  0.76901  Biso   1.000  C
  C1103    1.0000 0.29830  0.84191  0.83491  Biso   1.000  C
  C1104    1.0000 0.23469  0.86076  0.76901  Biso   1.000  C
  C1105    1.0000 0.29830  0.84187  0.83491  Biso   1.000  C
  C1106    1.0000 0.22158  0.25629  0.83705  Biso   1.000  C
  C1107    1.0000 0.16538  0.21580  0.77422  Biso   1.000  C
  C1108    1.0000 0.16538  0.21576  0.77422  Biso   1.000  C
  C1109    1.0000 0.77881  0.76721  0.18619  Biso   1.000  C
  C1110    1.0000 0.77881  0.76717  0.18619  Biso   1.000  C
  C1111    1.0000 0.77877  0.76721  0.18619  Biso   1.000  C
  C1112    1.0000 0.77877  0.76717  0.18619  Biso   1.000  C
  C1113    1.0000 0.62107  0.92840  0.52061  Biso   1.000  C
  C1114    1.0000 0.55820  0.92340  0.45148  Biso   1.000  C
  C1115    1.0000 0.76531  0.13920  0.76901  Biso   1.000  C
  C1116    1.0000 0.76721  0.22119  0.81381  Biso   1.000  C
  C1117    1.0000 0.76527  0.13920  0.76901  Biso   1.000  C
  C1118    1.0000 0.76717  0.22119  0.81381  Biso   1.000  C
  C1119    1.0000 0.13714  0.29229  0.82000  Biso   1.000  C
  C1120    1.0000 0.13714  0.29225  0.82000  Biso   1.000  C
  C1121    1.0000 0.13711  0.29229  0.82000  Biso   1.000  C
  C1122    1.0000 0.13711  0.29225  0.82000  Biso   1.000  C
  O58      1.0000 0.89047  0.78622  0.26918  Biso   1.000  O
  O59      1.0000 0.89043  0.78622  0.26918  Biso   1.000  O
  H1301    1.0000 0.85192  0.67230  0.14520  Biso   1.000  H
  C1123    1.0000 0.79351  0.72420  0.15719  Biso   1.000  C
  H1302    1.0000 0.85188  0.67230  0.14520  Biso   1.000  H
  C1124    1.0000 0.06970  0.60912  0.53210  Biso   1.000  C
  O60      1.0000 0.06376  0.67327  0.46619  Biso   1.000  O
  C1125    1.0000 0.06970  0.60908  0.53210  Biso   1.000  C
  O61      1.0000 0.06376  0.67323  0.46619  Biso   1.000  O
  O62      1.0000 0.06372  0.67327  0.46619  Biso   1.000  O
  O63      1.0000 0.06372  0.67323  0.46619  Biso   1.000  O
  H1303    1.0000 0.09339  0.50460  0.43458  Biso   1.000  H
  C1126    1.0000 0.08541  0.51926  0.51220  Biso   1.000  C
  C1127    1.0000 0.08541  0.51922  0.51220  Biso   1.000  C
  C1128    1.0000 0.08537  0.51926  0.51220  Biso   1.000  C
  C1129    1.0000 0.08537  0.51922  0.51220  Biso   1.000  C
  C1130    1.0000 0.21223  0.81240  0.77691  Biso   1.000  C
  O64      1.0000 0.21378  0.89047  0.73082  Biso   1.000  O
  O65      1.0000 0.21378  0.89043  0.73082  Biso   1.000  O
  C1131    1.0000 0.21219  0.81240  0.77691  Biso   1.000  C
  H1304    1.0000 0.32770  0.85192  0.85480  Biso   1.000  H
  C1132    1.0000 0.27580  0.79351  0.84281  Biso   1.000  C
  H1305    1.0000 0.32770  0.85188  0.85480  Biso   1.000  H
  C1133    1.0000 0.27576  0.79351  0.84281  Biso   1.000  C
  C1134    1.0000 0.18400  0.29376  0.84663  Biso   1.000  C
  H1306    1.0000 0.25369  0.25730  0.85531  Biso   1.000  H
  H1307    1.0000 0.25369  0.25726  0.85531  Biso   1.000  H
  O66      1.0000 0.15386  0.17686  0.74071  Biso   1.000  O
  O67      1.0000 0.15382  0.17686  0.74071  Biso   1.000  O
  H1308    1.0000 0.74569  0.78261  0.18082  Biso   1.000  H
  H1309    1.0000 0.74569  0.78257  0.18082  Biso   1.000  H
  C1135    1.0000 0.58209  0.91952  0.55689  Biso   1.000  C
  O68      1.0000 0.67327  0.93624  0.53381  Biso   1.000  O
  C1136    1.0000 0.58209  0.91948  0.55689  Biso   1.000  C
  O69      1.0000 0.67323  0.93624  0.53381  Biso   1.000  O
  C1137    1.0000 0.51926  0.91459  0.48780  Biso   1.000  C
  H1310    1.0000 0.55001  0.92480  0.41551  Biso   1.000  H
  C1138    1.0000 0.51922  0.91459  0.48780  Biso   1.000  C
  H1311    1.0000 0.54997  0.92480  0.41551  Biso   1.000  H
  C1139    1.0000 0.72222  0.12450  0.79801  Biso   1.000  C
  O70      1.0000 0.78622  0.10953  0.73082  Biso   1.000  O
  C1140    1.0000 0.72222  0.12446  0.79801  Biso   1.000  C
  C1141    1.0000 0.72218  0.12450  0.79801  Biso   1.000  C
  C1142    1.0000 0.72218  0.12446  0.79801  Biso   1.000  C
  C1143    1.0000 0.72420  0.20649  0.84281  Biso   1.000  C
  H1312    1.0000 0.78261  0.25431  0.81918  Biso   1.000  H
  C1144    1.0000 0.72420  0.20645  0.84281  Biso   1.000  C
  H1313    1.0000 0.78261  0.25428  0.81918  Biso   1.000  H
  H1314    1.0000 0.78257  0.25431  0.81918  Biso   1.000  H
  H1315    1.0000 0.78257  0.25428  0.81918  Biso   1.000  H
  H1316    1.0000 0.11139  0.31788  0.82650  Biso   1.000  H
  H1317    1.0000 0.91731  0.76791  0.27121  Biso   1.000  H
  H1318    1.0000 0.91731  0.76787  0.27121  Biso   1.000  H
  H1319    1.0000 0.91727  0.76791  0.27121  Biso   1.000  H
  H1320    1.0000 0.91727  0.76787  0.27121  Biso   1.000  H
  C1145    1.0000 0.75709  0.70100  0.11289  Biso   1.000  C
  C1146    1.0000 0.06419  0.65299  0.56709  Biso   1.000  C
  C1147    1.0000 0.07660  0.55820  0.54848  Biso   1.000  C
  H1321    1.0000 0.04720  0.67529  0.43820  Biso   1.000  H
  C1148    1.0000 0.09188  0.46379  0.53330  Biso   1.000  C
  C1149    1.0000 0.16759  0.79731  0.74561  Biso   1.000  C
  C1150    1.0000 0.23279  0.77881  0.81381  Biso   1.000  C
  C1151    1.0000 0.16759  0.79727  0.74561  Biso   1.000  C
  C1152    1.0000 0.23279  0.77877  0.81381  Biso   1.000  C
  H1322    1.0000 0.23209  0.91731  0.72879  Biso   1.000  H
  H1323    1.0000 0.23209  0.91727  0.72879  Biso   1.000  H
  C1153    1.0000 0.29900  0.75709  0.88711  Biso   1.000  C
  C1154    1.0000 0.19439  0.33980  0.88879  Biso   1.000  C
  H1324    1.0000 0.17899  0.15611  0.74051  Biso   1.000  H
  H1325    1.0000 0.17899  0.15607  0.74051  Biso   1.000  H
  C1155    1.0000 0.59159  0.92138  0.61470  Biso   1.000  C
  C1156    1.0000 0.53120  0.91269  0.54050  Biso   1.000  C
  H1326    1.0000 0.67529  0.95280  0.56180  Biso   1.000  H
  C1157    1.0000 0.46379  0.90812  0.46670  Biso   1.000  C
  C1158    1.0000 0.46379  0.90808  0.46670  Biso   1.000  C
  C1159    1.0000 0.70170  0.15809  0.83491  Biso   1.000  C
  C1160    1.0000 0.69499  0.07788  0.79201  Biso   1.000  C
  C1161    1.0000 0.70166  0.15809  0.83491  Biso   1.000  C
  H1327    1.0000 0.76791  0.08269  0.72879  Biso   1.000  H
  H1328    1.0000 0.76787  0.08269  0.72879  Biso   1.000  H
  C1162    1.0000 0.70100  0.24291  0.88711  Biso   1.000  C
  C1163    1.0000 0.70100  0.24287  0.88711  Biso   1.000  C
  C1164    1.0000 0.70721  0.73820  0.11219  Biso   1.000  C
  C1165    1.0000 0.74809  0.64411  0.12091  Biso   1.000  C
  C1166    1.0000 0.78230  0.70651  0.06322  Biso   1.000  C
  C1167    1.0000 0.78230  0.70647  0.06322  Biso   1.000  C
  C1168    1.0000 0.70717  0.73820  0.11219  Biso   1.000  C
  H1329    1.0000 0.06082  0.68712  0.55351  Biso   1.000  H
  N126     1.0000 0.06392  0.64539  0.61750  Biso   1.000  N
  H1330    1.0000 0.06082  0.68708  0.55351  Biso   1.000  H
  H1331    1.0000 0.06078  0.68712  0.55351  Biso   1.000  H
  N127     1.0000 0.06388  0.64539  0.61750  Biso   1.000  N
  H1332    1.0000 0.06078  0.68708  0.55351  Biso   1.000  H
  H1333    1.0000 0.07520  0.55001  0.58449  Biso   1.000  H
  H1334    1.0000 0.07520  0.54997  0.58449  Biso   1.000  H
  H1335    1.0000 0.07517  0.55001  0.58449  Biso   1.000  H
  H1336    1.0000 0.07517  0.54997  0.58449  Biso   1.000  H
  C1169    1.0000 0.08091  0.44529  0.58539  Biso   1.000  C
  C1170    1.0000 0.15471  0.45099  0.51851  Biso   1.000  C
  C1171    1.0000 0.06570  0.42330  0.49029  Biso   1.000  C
  C1172    1.0000 0.08087  0.44529  0.58539  Biso   1.000  C
  C1173    1.0000 0.15468  0.45099  0.51851  Biso   1.000  C
  H1337    1.0000 0.15611  0.82031  0.71910  Biso   1.000  H
  N128     1.0000 0.14339  0.75530  0.75180  Biso   1.000  N
  H1338    1.0000 0.15611  0.82027  0.71910  Biso   1.000  H
  H1339    1.0000 0.15607  0.82031  0.71910  Biso   1.000  H
  H1340    1.0000 0.15607  0.82027  0.71910  Biso   1.000  H
  H1341    1.0000 0.21739  0.74569  0.81918  Biso   1.000  H
  C1174    1.0000 0.26180  0.70721  0.88781  Biso   1.000  C
  C1175    1.0000 0.35589  0.74809  0.87909  Biso   1.000  C
  C1176    1.0000 0.29349  0.78230  0.93678  Biso   1.000  C
  C1177    1.0000 0.26180  0.70717  0.88781  Biso   1.000  C
  C1178    1.0000 0.26176  0.70721  0.88781  Biso   1.000  C
  C1179    1.0000 0.26176  0.70717  0.88781  Biso   1.000  C
  C1180    1.0000 0.17449  0.38731  0.86539  Biso   1.000  C
  C1181    1.0000 0.25059  0.33821  0.90338  Biso   1.000  C
  C1182    1.0000 0.17449  0.38727  0.86539  Biso   1.000  C
  C1183    1.0000 0.25059  0.33817  0.90338  Biso   1.000  C
  C1184    1.0000 0.15991  0.31730  0.93799  Biso   1.000  C
  C1185    1.0000 0.15991  0.31726  0.93799  Biso   1.000  C
  C1186    1.0000 0.15987  0.31730  0.93799  Biso   1.000  C
  C1187    1.0000 0.15987  0.31726  0.93799  Biso   1.000  C
  H1342    1.0000 0.56479  0.91572  0.63938  Biso   1.000  H
  N129     1.0000 0.63771  0.93112  0.62778  Biso   1.000  N
  H1343    1.0000 0.56479  0.91568  0.63938  Biso   1.000  H
  N130     1.0000 0.63771  0.93108  0.62778  Biso   1.000  N
  H1344    1.0000 0.50460  0.90661  0.56538  Biso   1.000  H
  C1188    1.0000 0.44529  0.91909  0.41461  Biso   1.000  C
  C1189    1.0000 0.45099  0.84529  0.48149  Biso   1.000  C
  C1190    1.0000 0.42330  0.93430  0.50971  Biso   1.000  C
  H1345    1.0000 0.67230  0.14808  0.85480  Biso   1.000  H
  H1346    1.0000 0.66431  0.07051  0.81101  Biso   1.000  H
  N131     1.0000 0.71640  0.04259  0.75558  Biso   1.000  N
  H1347    1.0000 0.66431  0.07047  0.81101  Biso   1.000  H
  H1348    1.0000 0.66427  0.07051  0.81101  Biso   1.000  H
  H1349    1.0000 0.66427  0.07047  0.81101  Biso   1.000  H
  C1191    1.0000 0.73820  0.29279  0.88781  Biso   1.000  C
  C1192    1.0000 0.64411  0.25191  0.87909  Biso   1.000  C
  C1193    1.0000 0.70651  0.21770  0.93678  Biso   1.000  C
  C1194    1.0000 0.64411  0.25187  0.87909  Biso   1.000  C
  C1195    1.0000 0.70651  0.21766  0.93678  Biso   1.000  C
  C1196    1.0000 0.70647  0.21770  0.93678  Biso   1.000  C
  C1197    1.0000 0.70647  0.21766  0.93678  Biso   1.000  C
  H1350    1.0000 0.71811  0.77392  0.10518  Biso   1.000  H
  H1351    1.0000 0.68320  0.72672  0.08490  Biso   1.000  H
  H1352    1.0000 0.68972  0.73661  0.14609  Biso   1.000  H
  H1353    1.0000 0.71811  0.77388  0.10518  Biso   1.000  H
  H1354    1.0000 0.68320  0.72668  0.08490  Biso   1.000  H
  H1355    1.0000 0.68972  0.73657  0.14609  Biso   1.000  H
  H1356    1.0000 0.71807  0.77392  0.10518  Biso   1.000  H
  H1357    1.0000 0.68968  0.73661  0.14609  Biso   1.000  H
  H1358    1.0000 0.71807  0.77388  0.10518  Biso   1.000  H
  H1359    1.0000 0.68968  0.73657  0.14609  Biso   1.000  H
  H1360    1.0000 0.78160  0.62599  0.12180  Biso   1.000  H
  H1361    1.0000 0.72990  0.63860  0.15392  Biso   1.000  H
  H1362    1.0000 0.72711  0.63049  0.09222  Biso   1.000  H
  H1363    1.0000 0.78951  0.74320  0.05660  Biso   1.000  H
  H1364    1.0000 0.81492  0.68700  0.06341  Biso   1.000  H
  H1365    1.0000 0.75961  0.69290  0.03581  Biso   1.000  H
  H1366    1.0000 0.78947  0.74320  0.05660  Biso   1.000  H
  H1367    1.0000 0.81488  0.68700  0.06341  Biso   1.000  H
  H1368    1.0000 0.75957  0.69290  0.03581  Biso   1.000  H
  C1198    1.0000 0.05779  0.69092  0.65370  Biso   1.000  C
  C1199    1.0000 0.05779  0.69088  0.65370  Biso   1.000  C
  H1369    1.0000 0.08831  0.40810  0.58741  Biso   1.000  H
  H1370    1.0000 0.04429  0.45142  0.59348  Biso   1.000  H
  H1371    1.0000 0.10270  0.46391  0.61038  Biso   1.000  H
  H1372    1.0000 0.04429  0.45138  0.59348  Biso   1.000  H
  H1373    1.0000 0.08828  0.40810  0.58741  Biso   1.000  H
  H1374    1.0000 0.10266  0.46391  0.61038  Biso   1.000  H
  H1375    1.0000 0.16348  0.41589  0.52999  Biso   1.000  H
  H1376    1.0000 0.17721  0.47609  0.53618  Biso   1.000  H
  H1377    1.0000 0.15968  0.45371  0.48079  Biso   1.000  H
  H1378    1.0000 0.17717  0.47609  0.53618  Biso   1.000  H
  H1379    1.0000 0.06881  0.38762  0.50309  Biso   1.000  H
  H1380    1.0000 0.08381  0.42652  0.45700  Biso   1.000  H
  H1381    1.0000 0.02890  0.43191  0.48550  Biso   1.000  H
  H1382    1.0000 0.06881  0.38758  0.50309  Biso   1.000  H
  H1383    1.0000 0.08381  0.42648  0.45700  Biso   1.000  H
  H1384    1.0000 0.06877  0.38762  0.50309  Biso   1.000  H
  H1385    1.0000 0.08378  0.42652  0.45700  Biso   1.000  H
  H1386    1.0000 0.06877  0.38758  0.50309  Biso   1.000  H
  H1387    1.0000 0.08378  0.42648  0.45700  Biso   1.000  H
  C1200    1.0000 0.09440  0.74739  0.71988  Biso   1.000  C
  C1201    1.0000 0.09436  0.74739  0.71988  Biso   1.000  C
  H1388    1.0000 0.22608  0.71811  0.89478  Biso   1.000  H
  H1389    1.0000 0.27328  0.68320  0.91510  Biso   1.000  H
  H1390    1.0000 0.26339  0.68972  0.85391  Biso   1.000  H
  H1391    1.0000 0.22608  0.71807  0.89478  Biso   1.000  H
  H1392    1.0000 0.26339  0.68968  0.85391  Biso   1.000  H
  H1393    1.0000 0.37401  0.78160  0.87820  Biso   1.000  H
  H1394    1.0000 0.36140  0.72990  0.84608  Biso   1.000  H
  H1395    1.0000 0.36951  0.72711  0.90778  Biso   1.000  H
  H1396    1.0000 0.37397  0.78160  0.87820  Biso   1.000  H
  H1397    1.0000 0.36136  0.72990  0.84608  Biso   1.000  H
  H1398    1.0000 0.36947  0.72711  0.90778  Biso   1.000  H
  H1399    1.0000 0.25680  0.78951  0.94340  Biso   1.000  H
  H1400    1.0000 0.31300  0.81492  0.93659  Biso   1.000  H
  H1401    1.0000 0.30710  0.75961  0.96419  Biso   1.000  H
  H1402    1.0000 0.25680  0.78947  0.94340  Biso   1.000  H
  H1403    1.0000 0.31300  0.81488  0.93659  Biso   1.000  H
  H1404    1.0000 0.30710  0.75957  0.96419  Biso   1.000  H
  H1405    1.0000 0.30706  0.75961  0.96419  Biso   1.000  H
  H1406    1.0000 0.30706  0.75957  0.96419  Biso   1.000  H
  H1407    1.0000 0.13788  0.38258  0.85628  Biso   1.000  H
  H1408    1.0000 0.17779  0.41589  0.89019  Biso   1.000  H
  H1409    1.0000 0.19439  0.39530  0.83390  Biso   1.000  H
  H1410    1.0000 0.19439  0.39526  0.83390  Biso   1.000  H
  H1411    1.0000 0.25920  0.30369  0.91689  Biso   1.000  H
  H1412    1.0000 0.25750  0.36431  0.93028  Biso   1.000  H
  H1413    1.0000 0.27188  0.34550  0.87271  Biso   1.000  H
  H1414    1.0000 0.25916  0.30369  0.91689  Biso   1.000  H
  H1415    1.0000 0.25750  0.36427  0.93028  Biso   1.000  H
  H1416    1.0000 0.27188  0.34546  0.87271  Biso   1.000  H
  H1417    1.0000 0.16018  0.34259  0.96648  Biso   1.000  H
  H1418    1.0000 0.17500  0.28461  0.95010  Biso   1.000  H
  H1419    1.0000 0.12419  0.31141  0.92658  Biso   1.000  H
  H1420    1.0000 0.17500  0.28457  0.95010  Biso   1.000  H
  H1421    1.0000 0.12419  0.31137  0.92658  Biso   1.000  H
  C1202    1.0000 0.65039  0.93081  0.68228  Biso   1.000  C
  C1203    1.0000 0.65039  0.93077  0.68228  Biso   1.000  C
  H1422    1.0000 0.40810  0.91169  0.41259  Biso   1.000  H
  H1423    1.0000 0.45142  0.95571  0.40648  Biso   1.000  H
  H1424    1.0000 0.46391  0.89730  0.38958  Biso   1.000  H
  H1425    1.0000 0.45142  0.95567  0.40648  Biso   1.000  H
  H1426    1.0000 0.45138  0.95571  0.40648  Biso   1.000  H
  H1427    1.0000 0.45138  0.95567  0.40648  Biso   1.000  H
  H1428    1.0000 0.41589  0.83652  0.47001  Biso   1.000  H
  H1429    1.0000 0.47609  0.82279  0.46378  Biso   1.000  H
  H1430    1.0000 0.45371  0.84032  0.51921  Biso   1.000  H
  H1431    1.0000 0.41589  0.83648  0.47001  Biso   1.000  H
  H1432    1.0000 0.45371  0.84028  0.51921  Biso   1.000  H
  H1433    1.0000 0.38762  0.93119  0.49691  Biso   1.000  H
  H1434    1.0000 0.42652  0.91619  0.54300  Biso   1.000  H
  H1435    1.0000 0.43191  0.97110  0.51450  Biso   1.000  H
  H1436    1.0000 0.43191  0.97107  0.51450  Biso   1.000  H
  H1437    1.0000 0.38758  0.93119  0.49691  Biso   1.000  H
  H1438    1.0000 0.42648  0.91619  0.54300  Biso   1.000  H
  C1204    1.0000 0.69472  0.99011  0.75180  Biso   1.000  C
  C1205    1.0000 0.69472  0.99007  0.75180  Biso   1.000  C
  C1206    1.0000 0.69468  0.99011  0.75180  Biso   1.000  C
  C1207    1.0000 0.69468  0.99007  0.75180  Biso   1.000  C
  H1439    1.0000 0.77392  0.28189  0.89478  Biso   1.000  H
  H1440    1.0000 0.72672  0.31680  0.91510  Biso   1.000  H
  H1441    1.0000 0.73661  0.31028  0.85391  Biso   1.000  H
  H1442    1.0000 0.77388  0.28189  0.89478  Biso   1.000  H
  H1443    1.0000 0.72668  0.31680  0.91510  Biso   1.000  H
  H1444    1.0000 0.73657  0.31028  0.85391  Biso   1.000  H
  H1445    1.0000 0.62599  0.21840  0.87820  Biso   1.000  H
  H1446    1.0000 0.63860  0.27010  0.84608  Biso   1.000  H
  H1447    1.0000 0.63049  0.27289  0.90778  Biso   1.000  H
  H1448    1.0000 0.63860  0.27006  0.84608  Biso   1.000  H
  H1449    1.0000 0.74320  0.21049  0.94340  Biso   1.000  H
  H1450    1.0000 0.68700  0.18508  0.93659  Biso   1.000  H
  H1451    1.0000 0.69290  0.24039  0.96419  Biso   1.000  H
  C1208    1.0000 0.10321  0.69992  0.68500  Biso   1.000  C
  H1452    1.0000 0.04879  0.72280  0.63350  Biso   1.000  H
  C1209    1.0000 0.00939  0.67389  0.69080  Biso   1.000  C
  C1210    1.0000 0.10321  0.69988  0.68500  Biso   1.000  C
  C1211    1.0000 0.10317  0.69992  0.68500  Biso   1.000  C
  C1212    1.0000 0.10317  0.69988  0.68500  Biso   1.000  C
  C1213    1.0000 0.04910  0.73622  0.75589  Biso   1.000  C
  H1453    1.0000 0.08711  0.77881  0.69820  Biso   1.000  H
  C1214    1.0000 0.04910  0.73618  0.75589  Biso   1.000  C
  H1454    1.0000 0.08711  0.77877  0.69820  Biso   1.000  H
  H1455    1.0000 0.08707  0.77881  0.69820  Biso   1.000  H
  H1456    1.0000 0.08707  0.77877  0.69820  Biso   1.000  H
  C1215    1.0000 0.67479  0.98790  0.69750  Biso   1.000  C
  H1457    1.0000 0.61781  0.92542  0.70271  Biso   1.000  H
  C1216    1.0000 0.69069  0.88822  0.69820  Biso   1.000  C
  H1458    1.0000 0.61781  0.92538  0.70271  Biso   1.000  H
  C1217    1.0000 0.69069  0.88818  0.69820  Biso   1.000  C
  H1459    1.0000 0.61777  0.92542  0.70271  Biso   1.000  H
  H1460    1.0000 0.61777  0.92538  0.70271  Biso   1.000  H
  C1218    1.0000 0.73110  0.94911  0.76278  Biso   1.000  C
  H1461    1.0000 0.66482  0.98720  0.77640  Biso   1.000  H
  C1219    1.0000 0.73110  0.94907  0.76278  Biso   1.000  C
  H1462    1.0000 0.66478  0.98720  0.77640  Biso   1.000  H
  H1463    1.0000 0.13362  0.70581  0.66219  Biso   1.000  H
  H1464    1.0000 0.11031  0.66912  0.70680  Biso   1.000  H
  H1465    1.0000 0.13362  0.70578  0.66219  Biso   1.000  H
  H1466    1.0000 0.11031  0.66908  0.70680  Biso   1.000  H
  H1467    1.0000 0.13358  0.70581  0.66219  Biso   1.000  H
  H1468    1.0000 0.11027  0.66912  0.70680  Biso   1.000  H
  H1469    1.0000 0.13358  0.70578  0.66219  Biso   1.000  H
  H1470    1.0000 0.11027  0.66908  0.70680  Biso   1.000  H
  C1220    1.0000 0.99961  0.72749  0.72440  Biso   1.000  C
  H1471    1.0000 0.97851  0.66439  0.66998  Biso   1.000  H
  C1221    1.0000 0.99957  0.72749  0.72440  Biso   1.000  C
  H1472    1.0000 0.97847  0.66439  0.66998  Biso   1.000  H
  H1473    1.0000 0.01889  0.64461  0.71381  Biso   1.000  H
  H1474    1.0000 0.01889  0.64457  0.71381  Biso   1.000  H
  H1475    1.0000 0.04398  0.76570  0.77998  Biso   1.000  H
  H1476    1.0000 0.05670  0.70492  0.77699  Biso   1.000  H
  H1477    1.0000 0.05670  0.70488  0.77699  Biso   1.000  H
  H1478    1.0000 0.05667  0.70492  0.77699  Biso   1.000  H
  H1479    1.0000 0.05667  0.70488  0.77699  Biso   1.000  H
  H1480    1.0000 0.70349  0.99608  0.67321  Biso   1.000  H
  H1481    1.0000 0.64771  0.01470  0.69310  Biso   1.000  H
  H1482    1.0000 0.64767  0.01470  0.69310  Biso   1.000  H
  C1222    1.0000 0.71241  0.89559  0.75258  Biso   1.000  C
  H1483    1.0000 0.67382  0.85370  0.69610  Biso   1.000  H
  H1484    1.0000 0.71970  0.88849  0.67290  Biso   1.000  H
  H1485    1.0000 0.67378  0.85370  0.69610  Biso   1.000  H
  H1486    1.0000 0.74130  0.95152  0.79988  Biso   1.000  H
  H1487    1.0000 0.76271  0.95501  0.74168  Biso   1.000  H
  H1488    1.0000 0.74130  0.95148  0.79988  Biso   1.000  H
  H1489    1.0000 0.76271  0.95497  0.74168  Biso   1.000  H
  H1490    1.0000 0.76267  0.95501  0.74168  Biso   1.000  H
  H1491    1.0000 0.76267  0.95497  0.74168  Biso   1.000  H
  H1492    1.0000 0.99391  0.75720  0.70011  Biso   1.000  H
  N132     1.0000 0.95330  0.71869  0.75519  Biso   1.000  N
  H1493    1.0000 0.99387  0.75720  0.70011  Biso   1.000  H
  H1494    1.0000 0.68402  0.88791  0.77800  Biso   1.000  H
  N133     1.0000 0.75317  0.85851  0.76091  Biso   1.000  N
  H1495    1.0000 0.68402  0.88787  0.77800  Biso   1.000  H
  N134     1.0000 0.75317  0.85847  0.76091  Biso   1.000  N
  H1496    1.0000 0.68398  0.88791  0.77800  Biso   1.000  H
  H1497    1.0000 0.68398  0.88787  0.77800  Biso   1.000  H
  C1223    1.0000 0.92030  0.74662  0.75441  Biso   1.000  C
  C1224    1.0000 0.92030  0.74658  0.75441  Biso   1.000  C
  C1225    1.0000 0.74662  0.82240  0.79081  Biso   1.000  C
  C1226    1.0000 0.74658  0.82240  0.79081  Biso   1.000  C
  C1227    1.0000 0.87216  0.74669  0.78376  Biso   1.000  C
  H1498    1.0000 0.92421  0.77470  0.73078  Biso   1.000  H
  H1499    1.0000 0.92417  0.77470  0.73078  Biso   1.000  H
  C1228    1.0000 0.78773  0.78265  0.80089  Biso   1.000  C
  C1229    1.0000 0.78769  0.78265  0.80089  Biso   1.000  C
  H1500    1.0000 0.71431  0.81930  0.80840  Biso   1.000  H
  C1230    1.0000 0.83462  0.78420  0.77422  Biso   1.000  C
  C1231    1.0000 0.86286  0.70771  0.82000  Biso   1.000  C
  C1232    1.0000 0.83458  0.78420  0.77422  Biso   1.000  C
  C1233    1.0000 0.77842  0.74371  0.83705  Biso   1.000  C
  C1234    1.0000 0.77838  0.74371  0.83705  Biso   1.000  C
  O71      1.0000 0.84614  0.82314  0.74071  Biso   1.000  O
  O72      1.0000 0.84614  0.82310  0.74071  Biso   1.000  O
  H1501    1.0000 0.88861  0.68212  0.82650  Biso   1.000  H
  C1235    1.0000 0.81600  0.70624  0.84663  Biso   1.000  C
  H1502    1.0000 0.88861  0.68208  0.82650  Biso   1.000  H
  C1236    1.0000 0.81600  0.70620  0.84663  Biso   1.000  C
  H1503    1.0000 0.88857  0.68212  0.82650  Biso   1.000  H
  H1504    1.0000 0.88857  0.68208  0.82650  Biso   1.000  H
  H1505    1.0000 0.74631  0.74270  0.85531  Biso   1.000  H
  H1506    1.0000 0.82101  0.84389  0.74051  Biso   1.000  H
  C1237    1.0000 0.80561  0.66020  0.88879  Biso   1.000  C
  C1238    1.0000 0.80557  0.66020  0.88879  Biso   1.000  C
  C1239    1.0000 0.82551  0.61269  0.86539  Biso   1.000  C
  C1240    1.0000 0.84009  0.68270  0.93799  Biso   1.000  C
  C1241    1.0000 0.74941  0.66179  0.90338  Biso   1.000  C
  C1242    1.0000 0.74937  0.66179  0.90338  Biso   1.000  C
  H1507    1.0000 0.86212  0.61742  0.85628  Biso   1.000  H
  H1508    1.0000 0.80561  0.60470  0.83390  Biso   1.000  H
  H1509    1.0000 0.82221  0.58411  0.89019  Biso   1.000  H
  H1510    1.0000 0.86212  0.61738  0.85628  Biso   1.000  H
  H1511    1.0000 0.86208  0.61742  0.85628  Biso   1.000  H
  H1512    1.0000 0.80557  0.60470  0.83390  Biso   1.000  H
  H1513    1.0000 0.82217  0.58411  0.89019  Biso   1.000  H
  H1514    1.0000 0.86208  0.61738  0.85628  Biso   1.000  H
  H1515    1.0000 0.82500  0.71539  0.95010  Biso   1.000  H
  H1516    1.0000 0.87581  0.68859  0.92658  Biso   1.000  H
  H1517    1.0000 0.83982  0.65741  0.96648  Biso   1.000  H
  H1518    1.0000 0.83982  0.65737  0.96648  Biso   1.000  H
  H1519    1.0000 0.87577  0.68859  0.92658  Biso   1.000  H
  H1520    1.0000 0.83978  0.65741  0.96648  Biso   1.000  H
  H1521    1.0000 0.83978  0.65737  0.96648  Biso   1.000  H
  H1522    1.0000 0.74080  0.69631  0.91689  Biso   1.000  H
  H1523    1.0000 0.74250  0.63569  0.93028  Biso   1.000  H
  H1524    1.0000 0.72812  0.65450  0.87271  Biso   1.000  H
  H1525    1.0000 0.74080  0.69627  0.91689  Biso   1.000  H
  H1526    1.0000 0.72808  0.65450  0.87271  Biso   1.000  H
  O73      1.0000 0.10953  0.21378  0.26918  Biso   1.000  O
  C1243    1.0000 0.13920  0.23469  0.23099  Biso   1.000  C
  H1527    1.0000 0.08269  0.23209  0.27121  Biso   1.000  H
  C1244    1.0000 0.18760  0.21223  0.22309  Biso   1.000  C
  C1245    1.0000 0.18760  0.21219  0.22309  Biso   1.000  C
  C1246    1.0000 0.18757  0.21223  0.22309  Biso   1.000  C
  C1247    1.0000 0.18757  0.21219  0.22309  Biso   1.000  C
  C1248    1.0000 0.12450  0.27778  0.20199  Biso   1.000  C
  C1249    1.0000 0.12446  0.27778  0.20199  Biso   1.000  C
  C1250    1.0000 0.22119  0.23279  0.18619  Biso   1.000  C
  C1251    1.0000 0.20269  0.16759  0.25439  Biso   1.000  C
  C1252    1.0000 0.15809  0.29830  0.16509  Biso   1.000  C
  C1253    1.0000 0.07788  0.30501  0.20799  Biso   1.000  C
  C1254    1.0000 0.07788  0.30497  0.20799  Biso   1.000  C
  C1255    1.0000 0.20649  0.27580  0.15719  Biso   1.000  C
  H1528    1.0000 0.25431  0.21739  0.18082  Biso   1.000  H
  C1256    1.0000 0.20649  0.27576  0.15719  Biso   1.000  C
  C1257    1.0000 0.20645  0.27580  0.15719  Biso   1.000  C
  H1529    1.0000 0.25428  0.21739  0.18082  Biso   1.000  H
  C1258    1.0000 0.20645  0.27576  0.15719  Biso   1.000  C
  N135     1.0000 0.24470  0.14339  0.24820  Biso   1.000  N
  H1530    1.0000 0.17969  0.15611  0.28090  Biso   1.000  H
  H1531    1.0000 0.17969  0.15607  0.28090  Biso   1.000  H
  H1532    1.0000 0.14808  0.32770  0.14520  Biso   1.000  H
  N136     1.0000 0.04259  0.28360  0.24438  Biso   1.000  N
  H1533    1.0000 0.07051  0.33569  0.18899  Biso   1.000  H
  H1534    1.0000 0.07047  0.33569  0.18899  Biso   1.000  H
  C1259    1.0000 0.24291  0.29900  0.11289  Biso   1.000  C
  C1260    1.0000 0.24287  0.29900  0.11289  Biso   1.000  C
  C1261    1.0000 0.25261  0.09440  0.28008  Biso   1.000  C
  C1262    1.0000 0.25261  0.09436  0.28008  Biso   1.000  C
  C1263    1.0000 0.25257  0.09440  0.28008  Biso   1.000  C
  C1264    1.0000 0.25257  0.09436  0.28008  Biso   1.000  C
  C1265    1.0000 0.99011  0.30528  0.24820  Biso   1.000  C
  C1266    1.0000 0.99007  0.30528  0.24820  Biso   1.000  C
  C1267    1.0000 0.29279  0.26180  0.11219  Biso   1.000  C
  C1268    1.0000 0.25191  0.35589  0.12091  Biso   1.000  C
  C1269    1.0000 0.21770  0.29349  0.06322  Biso   1.000  C
  C1270    1.0000 0.29279  0.26176  0.11219  Biso   1.000  C
  C1271    1.0000 0.25187  0.35589  0.12091  Biso   1.000  C
  C1272    1.0000 0.21766  0.29349  0.06322  Biso   1.000  C
  C1273    1.0000 0.26378  0.04910  0.24411  Biso   1.000  C
  H1535    1.0000 0.22119  0.08711  0.30180  Biso   1.000  H
  C1274    1.0000 0.30008  0.10321  0.31500  Biso   1.000  C
  H1536    1.0000 0.22119  0.08707  0.30180  Biso   1.000  H
  C1275    1.0000 0.30008  0.10317  0.31500  Biso   1.000  C
  C1276    1.0000 0.94911  0.26890  0.23718  Biso   1.000  C
  H1537    1.0000 0.98720  0.33518  0.22360  Biso   1.000  H
  C1277    1.0000 0.98790  0.32521  0.30250  Biso   1.000  C
  C1278    1.0000 0.98790  0.32518  0.30250  Biso   1.000  C
  C1279    1.0000 0.94907  0.26890  0.23718  Biso   1.000  C
  H1538    1.0000 0.28189  0.22608  0.10518  Biso   1.000  H
  H1539    1.0000 0.31680  0.27328  0.08490  Biso   1.000  H
  H1540    1.0000 0.31028  0.26339  0.14609  Biso   1.000  H
  H1541    1.0000 0.21840  0.37401  0.12180  Biso   1.000  H
  H1542    1.0000 0.27010  0.36140  0.15392  Biso   1.000  H
  H1543    1.0000 0.27289  0.36951  0.09222  Biso   1.000  H
  H1544    1.0000 0.21840  0.37397  0.12180  Biso   1.000  H
  H1545    1.0000 0.27010  0.36136  0.15392  Biso   1.000  H
  H1546    1.0000 0.27289  0.36947  0.09222  Biso   1.000  H
  H1547    1.0000 0.27006  0.36140  0.15392  Biso   1.000  H
  H1548    1.0000 0.27006  0.36136  0.15392  Biso   1.000  H
  H1549    1.0000 0.21049  0.25680  0.05660  Biso   1.000  H
  H1550    1.0000 0.18508  0.31300  0.06341  Biso   1.000  H
  H1551    1.0000 0.24039  0.30710  0.03581  Biso   1.000  H
  H1552    1.0000 0.24039  0.30706  0.03581  Biso   1.000  H
  C1280    1.0000 0.27251  0.99961  0.27560  Biso   1.000  C
  C1281    1.0000 0.27251  0.99957  0.27560  Biso   1.000  C
  C1282    1.0000 0.27247  0.99961  0.27560  Biso   1.000  C
  C1283    1.0000 0.27247  0.99957  0.27560  Biso   1.000  C
  H1553    1.0000 0.23430  0.04398  0.22002  Biso   1.000  H
  H1554    1.0000 0.29508  0.05670  0.22301  Biso   1.000  H
  H1555    1.0000 0.29508  0.05667  0.22301  Biso   1.000  H
  H1556    1.0000 0.23426  0.04398  0.22002  Biso   1.000  H
  C1284    1.0000 0.30908  0.05779  0.34630  Biso   1.000  C
  H1557    1.0000 0.29419  0.13362  0.33781  Biso   1.000  H
  H1558    1.0000 0.33088  0.11031  0.29320  Biso   1.000  H
  H1559    1.0000 0.29419  0.13358  0.33781  Biso   1.000  H
  H1560    1.0000 0.33088  0.11027  0.29320  Biso   1.000  H
  C1285    1.0000 0.89559  0.28759  0.24738  Biso   1.000  C
  H1561    1.0000 0.95152  0.25870  0.20009  Biso   1.000  H
  H1562    1.0000 0.95501  0.23729  0.25828  Biso   1.000  H
  H1563    1.0000 0.95148  0.25870  0.20009  Biso   1.000  H
  H1564    1.0000 0.95497  0.23729  0.25828  Biso   1.000  H
  H1565    1.0000 0.01470  0.35229  0.30690  Biso   1.000  H
  H1566    1.0000 0.99608  0.29651  0.32679  Biso   1.000  H
  C1286    1.0000 0.93081  0.34961  0.31768  Biso   1.000  C
  H1567    1.0000 0.99608  0.29647  0.32679  Biso   1.000  H
  C1287    1.0000 0.93081  0.34957  0.31768  Biso   1.000  C
  C1288    1.0000 0.93077  0.34961  0.31768  Biso   1.000  C
  C1289    1.0000 0.93077  0.34957  0.31768  Biso   1.000  C
  H1568    1.0000 0.24280  0.99391  0.29989  Biso   1.000  H
  N137     1.0000 0.28131  0.95330  0.24481  Biso   1.000  N
  H1569    1.0000 0.24280  0.99387  0.29989  Biso   1.000  H
  N138     1.0000 0.28127  0.95330  0.24481  Biso   1.000  N
  C1290    1.0000 0.32611  0.00939  0.30920  Biso   1.000  C
  C1291    1.0000 0.32607  0.00939  0.30920  Biso   1.000  C
  H1570    1.0000 0.27720  0.04879  0.36650  Biso   1.000  H
  N139     1.0000 0.35461  0.06392  0.38250  Biso   1.000  N
  N140     1.0000 0.35461  0.06388  0.38250  Biso   1.000  N
  N141     1.0000 0.35457  0.06392  0.38250  Biso   1.000  N
  N142     1.0000 0.35457  0.06388  0.38250  Biso   1.000  N
  H1571    1.0000 0.88791  0.31598  0.22200  Biso   1.000  H
  C1292    1.0000 0.88822  0.30931  0.30180  Biso   1.000  C
  N143     1.0000 0.85851  0.24683  0.23909  Biso   1.000  N
  C1293    1.0000 0.88822  0.30927  0.30180  Biso   1.000  C
  H1572    1.0000 0.88787  0.31598  0.22200  Biso   1.000  H
  C1294    1.0000 0.88818  0.30931  0.30180  Biso   1.000  C
  N144     1.0000 0.85847  0.24683  0.23909  Biso   1.000  N
  C1295    1.0000 0.88818  0.30927  0.30180  Biso   1.000  C
  H1573    1.0000 0.92542  0.38219  0.29729  Biso   1.000  H
  N145     1.0000 0.93112  0.36229  0.37218  Biso   1.000  N
  H1574    1.0000 0.92538  0.38219  0.29729  Biso   1.000  H
  N146     1.0000 0.93108  0.36229  0.37218  Biso   1.000  N
  C1296    1.0000 0.25338  0.92030  0.24559  Biso   1.000  C
  H1575    1.0000 0.35539  0.01889  0.28619  Biso   1.000  H
  H1576    1.0000 0.33561  0.97851  0.32999  Biso   1.000  H
  H1577    1.0000 0.33561  0.97847  0.32999  Biso   1.000  H
  H1578    1.0000 0.33557  0.97851  0.32999  Biso   1.000  H
  H1579    1.0000 0.33557  0.97847  0.32999  Biso   1.000  H
  C1297    1.0000 0.34701  0.06419  0.43291  Biso   1.000  C
  C1298    1.0000 0.34697  0.06419  0.43291  Biso   1.000  C
  H1580    1.0000 0.85370  0.32618  0.30390  Biso   1.000  H
  H1581    1.0000 0.88849  0.28030  0.32710  Biso   1.000  H
  H1582    1.0000 0.88849  0.28026  0.32710  Biso   1.000  H
  C1299    1.0000 0.82240  0.25338  0.20919  Biso   1.000  C
  C1300    1.0000 0.92138  0.40841  0.38530  Biso   1.000  C
  C1301    1.0000 0.92138  0.40837  0.38530  Biso   1.000  C
  C1302    1.0000 0.25331  0.87216  0.21624  Biso   1.000  C
  H1583    1.0000 0.22530  0.92421  0.26918  Biso   1.000  H
  H1584    1.0000 0.22530  0.92417  0.26918  Biso   1.000  H
  C1303    1.0000 0.25327  0.87216  0.21624  Biso   1.000  C
  H1585    1.0000 0.22526  0.92421  0.26918  Biso   1.000  H
  H1586    1.0000 0.22526  0.92417  0.26918  Biso   1.000  H
  C1304    1.0000 0.39088  0.06970  0.46790  Biso   1.000  C
  H1587    1.0000 0.31288  0.06082  0.44649  Biso   1.000  H
  H1588    1.0000 0.31288  0.06078  0.44649  Biso   1.000  H
  H1589    1.0000 0.81930  0.28569  0.19160  Biso   1.000  H
  C1305    1.0000 0.78265  0.21227  0.19911  Biso   1.000  C
  C1306    1.0000 0.91952  0.41791  0.44311  Biso   1.000  C
  H1590    1.0000 0.91572  0.43521  0.36058  Biso   1.000  H
  C1307    1.0000 0.91952  0.41787  0.44311  Biso   1.000  C
  H1591    1.0000 0.91572  0.43517  0.36058  Biso   1.000  H
  C1308    1.0000 0.91948  0.41791  0.44311  Biso   1.000  C
  H1592    1.0000 0.91568  0.43521  0.36058  Biso   1.000  H
  C1309    1.0000 0.91948  0.41787  0.44311  Biso   1.000  C
  H1593    1.0000 0.91568  0.43517  0.36058  Biso   1.000  H
  C1310    1.0000 0.21580  0.83462  0.22578  Biso   1.000  C
  C1311    1.0000 0.29229  0.86286  0.18000  Biso   1.000  C
  C1312    1.0000 0.21580  0.83458  0.22578  Biso   1.000  C
  C1313    1.0000 0.21576  0.83462  0.22578  Biso   1.000  C
  C1314    1.0000 0.29225  0.86286  0.18000  Biso   1.000  C
  C1315    1.0000 0.21576  0.83458  0.22578  Biso   1.000  C
  C1316    1.0000 0.37893  0.07160  0.52061  Biso   1.000  C
  C1317    1.0000 0.44180  0.07660  0.45148  Biso   1.000  C
  C1318    1.0000 0.37889  0.07160  0.52061  Biso   1.000  C
  C1319    1.0000 0.44176  0.07660  0.45148  Biso   1.000  C
  C1320    1.0000 0.78420  0.16538  0.22578  Biso   1.000  C
  C1321    1.0000 0.74371  0.22158  0.16291  Biso   1.000  C
  C1322    1.0000 0.92840  0.37893  0.47939  Biso   1.000  C
  C1323    1.0000 0.91269  0.46880  0.45950  Biso   1.000  C
  C1324    1.0000 0.92840  0.37889  0.47939  Biso   1.000  C
  C1325    1.0000 0.91269  0.46876  0.45950  Biso   1.000  C
  C1326    1.0000 0.21735  0.78773  0.19911  Biso   1.000  C
  O74      1.0000 0.17686  0.84614  0.25929  Biso   1.000  O
  C1327    1.0000 0.21735  0.78769  0.19911  Biso   1.000  C
  C1328    1.0000 0.21731  0.78773  0.19911  Biso   1.000  C
  C1329    1.0000 0.21731  0.78769  0.19911  Biso   1.000  C
  H1594    1.0000 0.31788  0.88861  0.17350  Biso   1.000  H
  C1330    1.0000 0.29376  0.81600  0.15337  Biso   1.000  C
  H1595    1.0000 0.31788  0.88857  0.17350  Biso   1.000  H
  C1331    1.0000 0.41791  0.08048  0.55689  Biso   1.000  C
  O75      1.0000 0.32673  0.06376  0.53381  Biso   1.000  O
  O76      1.0000 0.32673  0.06372  0.53381  Biso   1.000  O
  C1332    1.0000 0.41787  0.08048  0.55689  Biso   1.000  C
  C1333    1.0000 0.48074  0.08541  0.48780  Biso   1.000  C
  H1596    1.0000 0.44999  0.07520  0.41551  Biso   1.000  H
  C1334    1.0000 0.48074  0.08537  0.48780  Biso   1.000  C
  H1597    1.0000 0.44999  0.07517  0.41551  Biso   1.000  H
  C1335    1.0000 0.74669  0.12784  0.21624  Biso   1.000  C
  O77      1.0000 0.82314  0.15386  0.25929  Biso   1.000  O
  C1336    1.0000 0.74669  0.12780  0.21624  Biso   1.000  C
  O78      1.0000 0.82314  0.15382  0.25929  Biso   1.000  O
  O79      1.0000 0.82310  0.15386  0.25929  Biso   1.000  O
  O80      1.0000 0.82310  0.15382  0.25929  Biso   1.000  O
  C1337    1.0000 0.70624  0.18400  0.15337  Biso   1.000  C
  H1598    1.0000 0.74270  0.25369  0.14469  Biso   1.000  H
  C1338    1.0000 0.70620  0.18400  0.15337  Biso   1.000  C
  C1339    1.0000 0.93030  0.39088  0.53210  Biso   1.000  C
  O81      1.0000 0.93624  0.32673  0.46619  Biso   1.000  O
  H1599    1.0000 0.90661  0.49540  0.43458  Biso   1.000  H
  C1340    1.0000 0.91459  0.48074  0.51220  Biso   1.000  C
  H1600    1.0000 0.90661  0.49537  0.43458  Biso   1.000  H
  C1341    1.0000 0.17760  0.74662  0.20919  Biso   1.000  C
  C1342    1.0000 0.25629  0.77842  0.16291  Biso   1.000  C
  C1343    1.0000 0.17760  0.74658  0.20919  Biso   1.000  C
  C1344    1.0000 0.25629  0.77838  0.16291  Biso   1.000  C
  H1601    1.0000 0.15611  0.82101  0.25949  Biso   1.000  H
  H1602    1.0000 0.15607  0.82101  0.25949  Biso   1.000  H
  C1345    1.0000 0.33980  0.80561  0.11121  Biso   1.000  C
  C1346    1.0000 0.33980  0.80557  0.11121  Biso   1.000  C
  C1347    1.0000 0.40841  0.07862  0.61470  Biso   1.000  C
  C1348    1.0000 0.46880  0.08731  0.54050  Biso   1.000  C
  C1349    1.0000 0.40841  0.07858  0.61470  Biso   1.000  C
  C1350    1.0000 0.46880  0.08727  0.54050  Biso   1.000  C
  C1351    1.0000 0.40837  0.07862  0.61470  Biso   1.000  C
  C1352    1.0000 0.46876  0.08731  0.54050  Biso   1.000  C
  C1353    1.0000 0.40837  0.07858  0.61470  Biso   1.000  C
  C1354    1.0000 0.46876  0.08727  0.54050  Biso   1.000  C
  H1603    1.0000 0.32471  0.04720  0.56180  Biso   1.000  H
  H1604    1.0000 0.32467  0.04720  0.56180  Biso   1.000  H
  C1355    1.0000 0.53621  0.09188  0.46670  Biso   1.000  C
  C1356    1.0000 0.53617  0.09188  0.46670  Biso   1.000  C
  C1357    1.0000 0.70771  0.13714  0.18000  Biso   1.000  C
  C1358    1.0000 0.74662  0.07970  0.24559  Biso   1.000  C
  C1359    1.0000 0.70771  0.13711  0.18000  Biso   1.000  C
  C1360    1.0000 0.74662  0.07966  0.24559  Biso   1.000  C
  C1361    1.0000 0.74658  0.07970  0.24559  Biso   1.000  C
  C1362    1.0000 0.74658  0.07966  0.24559  Biso   1.000  C
  H1605    1.0000 0.84389  0.17899  0.25949  Biso   1.000  H
  C1363    1.0000 0.66020  0.19439  0.11121  Biso   1.000  C
  C1364    1.0000 0.93581  0.34701  0.56709  Biso   1.000  C
  C1365    1.0000 0.92340  0.44180  0.54848  Biso   1.000  C
  C1366    1.0000 0.93581  0.34697  0.56709  Biso   1.000  C
  C1367    1.0000 0.92340  0.44176  0.54848  Biso   1.000  C
  C1368    1.0000 0.93577  0.34701  0.56709  Biso   1.000  C
  C1369    1.0000 0.93577  0.34697  0.56709  Biso   1.000  C
  H1606    1.0000 0.95280  0.32471  0.43820  Biso   1.000  H
  H1607    1.0000 0.95280  0.32467  0.43820  Biso   1.000  H
  C1370    1.0000 0.90812  0.53621  0.53330  Biso   1.000  C
  C1371    1.0000 0.90812  0.53617  0.53330  Biso   1.000  C
  C1372    1.0000 0.90808  0.53621  0.53330  Biso   1.000  C
  C1373    1.0000 0.90808  0.53617  0.53330  Biso   1.000  C
  H1608    1.0000 0.18070  0.71431  0.19160  Biso   1.000  H
  N147     1.0000 0.14149  0.75317  0.23909  Biso   1.000  N
  H1609    1.0000 0.25730  0.74631  0.14469  Biso   1.000  H
  H1610    1.0000 0.25726  0.74631  0.14469  Biso   1.000  H
  C1374    1.0000 0.38731  0.82551  0.13461  Biso   1.000  C
  C1375    1.0000 0.31730  0.84009  0.06201  Biso   1.000  C
  C1376    1.0000 0.33821  0.74941  0.09662  Biso   1.000  C
  C1377    1.0000 0.33821  0.74937  0.09662  Biso   1.000  C
  C1378    1.0000 0.38727  0.82551  0.13461  Biso   1.000  C
  C1379    1.0000 0.31726  0.84009  0.06201  Biso   1.000  C
  C1380    1.0000 0.33817  0.74941  0.09662  Biso   1.000  C
  C1381    1.0000 0.33817  0.74937  0.09662  Biso   1.000  C
  N148     1.0000 0.36229  0.06888  0.62778  Biso   1.000  N
  H1611    1.0000 0.43521  0.08428  0.63938  Biso   1.000  H
  H1612    1.0000 0.43517  0.08428  0.63938  Biso   1.000  H
  H1613    1.0000 0.49540  0.09339  0.56538  Biso   1.000  H
  H1614    1.0000 0.49537  0.09339  0.56538  Biso   1.000  H
  C1382    1.0000 0.55471  0.08091  0.41461  Biso   1.000  C
  C1383    1.0000 0.54901  0.15471  0.48149  Biso   1.000  C
  C1384    1.0000 0.57670  0.06570  0.50971  Biso   1.000  C
  C1385    1.0000 0.55471  0.08087  0.41461  Biso   1.000  C
  C1386    1.0000 0.54901  0.15468  0.48149  Biso   1.000  C
  C1387    1.0000 0.55467  0.08091  0.41461  Biso   1.000  C
  C1388    1.0000 0.54897  0.15471  0.48149  Biso   1.000  C
  C1389    1.0000 0.57666  0.06570  0.50971  Biso   1.000  C
  C1390    1.0000 0.55467  0.08087  0.41461  Biso   1.000  C
  C1391    1.0000 0.54897  0.15468  0.48149  Biso   1.000  C
  H1615    1.0000 0.68212  0.11139  0.17350  Biso   1.000  H
  H1616    1.0000 0.68208  0.11139  0.17350  Biso   1.000  H
  H1617    1.0000 0.77470  0.07579  0.26918  Biso   1.000  H
  N149     1.0000 0.71869  0.04670  0.24481  Biso   1.000  N
  C1392    1.0000 0.61269  0.17449  0.13461  Biso   1.000  C
  C1393    1.0000 0.68270  0.15991  0.06201  Biso   1.000  C
  C1394    1.0000 0.66179  0.25059  0.09662  Biso   1.000  C
  C1395    1.0000 0.68270  0.15987  0.06201  Biso   1.000  C
  H1618    1.0000 0.93918  0.31288  0.55351  Biso   1.000  H
  N150     1.0000 0.93608  0.35461  0.61750  Biso   1.000  N
  N151     1.0000 0.93608  0.35457  0.61750  Biso   1.000  N
  H1619    1.0000 0.92480  0.44999  0.58449  Biso   1.000  H
  C1396    1.0000 0.91909  0.55471  0.58539  Biso   1.000  C
  C1397    1.0000 0.84529  0.54901  0.51851  Biso   1.000  C
  C1398    1.0000 0.93430  0.57670  0.49029  Biso   1.000  C
  C1399    1.0000 0.91909  0.55467  0.58539  Biso   1.000  C
  C1400    1.0000 0.84529  0.54897  0.51851  Biso   1.000  C
  C1401    1.0000 0.93430  0.57666  0.49029  Biso   1.000  C
  C1402    1.0000 0.10441  0.71241  0.24738  Biso   1.000  C
  C1403    1.0000 0.10437  0.71241  0.24738  Biso   1.000  C
  H1620    1.0000 0.38258  0.86212  0.14368  Biso   1.000  H
  H1621    1.0000 0.39530  0.80561  0.16610  Biso   1.000  H
  H1622    1.0000 0.41589  0.82221  0.10981  Biso   1.000  H
  H1623    1.0000 0.38258  0.86208  0.14368  Biso   1.000  H
  H1624    1.0000 0.39530  0.80557  0.16610  Biso   1.000  H
  H1625    1.0000 0.41589  0.82217  0.10981  Biso   1.000  H
  H1626    1.0000 0.39526  0.80561  0.16610  Biso   1.000  H
  H1627    1.0000 0.39526  0.80557  0.16610  Biso   1.000  H
  H1628    1.0000 0.28461  0.82500  0.04990  Biso   1.000  H
  H1629    1.0000 0.31141  0.87581  0.07342  Biso   1.000  H
  H1630    1.0000 0.34259  0.83982  0.03352  Biso   1.000  H
  H1631    1.0000 0.31141  0.87577  0.07342  Biso   1.000  H
  H1632    1.0000 0.34259  0.83978  0.03352  Biso   1.000  H
  H1633    1.0000 0.28457  0.82500  0.04990  Biso   1.000  H
  H1634    1.0000 0.31137  0.87581  0.07342  Biso   1.000  H
  H1635    1.0000 0.31137  0.87577  0.07342  Biso   1.000  H
  H1636    1.0000 0.30369  0.74080  0.08311  Biso   1.000  H
  H1637    1.0000 0.36431  0.74250  0.06972  Biso   1.000  H
  H1638    1.0000 0.34550  0.72812  0.12729  Biso   1.000  H
  H1639    1.0000 0.34550  0.72808  0.12729  Biso   1.000  H
  H1640    1.0000 0.36427  0.74250  0.06972  Biso   1.000  H
  H1641    1.0000 0.34546  0.72812  0.12729  Biso   1.000  H
  H1642    1.0000 0.34546  0.72808  0.12729  Biso   1.000  H
  C1404    1.0000 0.34961  0.06919  0.68228  Biso   1.000  C
  C1405    1.0000 0.34957  0.06919  0.68228  Biso   1.000  C
  H1643    1.0000 0.54858  0.04429  0.40648  Biso   1.000  H
  H1644    1.0000 0.59190  0.08831  0.41259  Biso   1.000  H
  H1645    1.0000 0.53609  0.10270  0.38958  Biso   1.000  H
  H1646    1.0000 0.59190  0.08828  0.41259  Biso   1.000  H
  H1647    1.0000 0.53609  0.10266  0.38958  Biso   1.000  H
  H1648    1.0000 0.59186  0.08831  0.41259  Biso   1.000  H
  H1649    1.0000 0.59186  0.08828  0.41259  Biso   1.000  H
  H1650    1.0000 0.54629  0.15968  0.51921  Biso   1.000  H
  H1651    1.0000 0.58411  0.16348  0.47001  Biso   1.000  H
  H1652    1.0000 0.52391  0.17721  0.46378  Biso   1.000  H
  H1653    1.0000 0.52391  0.17717  0.46378  Biso   1.000  H
  H1654    1.0000 0.58407  0.16348  0.47001  Biso   1.000  H
  H1655    1.0000 0.52387  0.17721  0.46378  Biso   1.000  H
  H1656    1.0000 0.52387  0.17717  0.46378  Biso   1.000  H
  H1657    1.0000 0.56809  0.02890  0.51450  Biso   1.000  H
  H1658    1.0000 0.61238  0.06881  0.49691  Biso   1.000  H
  H1659    1.0000 0.57348  0.08381  0.54300  Biso   1.000  H
  H1660    1.0000 0.61238  0.06877  0.49691  Biso   1.000  H
  H1661    1.0000 0.57348  0.08378  0.54300  Biso   1.000  H
  C1406    1.0000 0.72749  0.00039  0.27560  Biso   1.000  C
  H1662    1.0000 0.61742  0.13788  0.14368  Biso   1.000  H
  H1663    1.0000 0.60470  0.19439  0.16610  Biso   1.000  H
  H1664    1.0000 0.58411  0.17779  0.10981  Biso   1.000  H
  H1665    1.0000 0.61738  0.13788  0.14368  Biso   1.000  H
  H1666    1.0000 0.71539  0.17500  0.04990  Biso   1.000  H
  H1667    1.0000 0.68859  0.12419  0.07342  Biso   1.000  H
  H1668    1.0000 0.65741  0.16018  0.03352  Biso   1.000  H
  H1669    1.0000 0.65737  0.16018  0.03352  Biso   1.000  H
  H1670    1.0000 0.69631  0.25920  0.08311  Biso   1.000  H
  H1671    1.0000 0.63569  0.25750  0.06972  Biso   1.000  H
  H1672    1.0000 0.65450  0.27188  0.12729  Biso   1.000  H
  H1673    1.0000 0.69631  0.25916  0.08311  Biso   1.000  H
  H1674    1.0000 0.69627  0.25920  0.08311  Biso   1.000  H
  H1675    1.0000 0.69627  0.25916  0.08311  Biso   1.000  H
  C1407    1.0000 0.94221  0.30908  0.65370  Biso   1.000  C
  C1408    1.0000 0.94217  0.30908  0.65370  Biso   1.000  C
  H1676    1.0000 0.91169  0.59190  0.58741  Biso   1.000  H
  H1677    1.0000 0.95571  0.54858  0.59348  Biso   1.000  H
  H1678    1.0000 0.89730  0.53609  0.61038  Biso   1.000  H
  H1679    1.0000 0.91169  0.59186  0.58741  Biso   1.000  H
  H1680    1.0000 0.95567  0.54858  0.59348  Biso   1.000  H
  H1681    1.0000 0.83652  0.58411  0.52999  Biso   1.000  H
  H1682    1.0000 0.82279  0.52391  0.53618  Biso   1.000  H
  H1683    1.0000 0.84032  0.54629  0.48079  Biso   1.000  H
  H1684    1.0000 0.83652  0.58407  0.52999  Biso   1.000  H
  H1685    1.0000 0.82279  0.52387  0.53618  Biso   1.000  H
  H1686    1.0000 0.83648  0.58411  0.52999  Biso   1.000  H
  H1687    1.0000 0.84028  0.54629  0.48079  Biso   1.000  H
  H1688    1.0000 0.83648  0.58407  0.52999  Biso   1.000  H
  H1689    1.0000 0.93119  0.61238  0.50309  Biso   1.000  H
  H1690    1.0000 0.91619  0.57348  0.45700  Biso   1.000  H
  H1691    1.0000 0.97110  0.56809  0.48550  Biso   1.000  H
  H1692    1.0000 0.97107  0.56809  0.48550  Biso   1.000  H
  H1693    1.0000 0.11209  0.68402  0.22200  Biso   1.000  H
  C1409    1.0000 0.05089  0.73110  0.23718  Biso   1.000  C
  C1410    1.0000 0.11178  0.69069  0.30180  Biso   1.000  C
  H1694    1.0000 0.11209  0.68398  0.22200  Biso   1.000  H
  H1695    1.0000 0.38219  0.07458  0.70271  Biso   1.000  H
  C1411    1.0000 0.32521  0.01210  0.69750  Biso   1.000  C
  C1412    1.0000 0.30931  0.11178  0.69820  Biso   1.000  C
  C1413    1.0000 0.32518  0.01210  0.69750  Biso   1.000  C
  C1414    1.0000 0.30927  0.11178  0.69820  Biso   1.000  C
  C1415    1.0000 0.73622  0.95090  0.24411  Biso   1.000  C
  C1416    1.0000 0.67389  0.99061  0.30920  Biso   1.000  C
  C1417    1.0000 0.67389  0.99058  0.30920  Biso   1.000  C
  C1418    1.0000 0.73618  0.95090  0.24411  Biso   1.000  C
  H1696    1.0000 0.75720  0.00609  0.29989  Biso   1.000  H
  C1419    1.0000 0.89679  0.30008  0.68500  Biso   1.000  C
  H1697    1.0000 0.95121  0.27720  0.63350  Biso   1.000  H
  C1420    1.0000 0.99061  0.32611  0.69080  Biso   1.000  C
  C1421    1.0000 0.99061  0.32607  0.69080  Biso   1.000  C
  H1698    1.0000 0.95117  0.27720  0.63350  Biso   1.000  H
  C1422    1.0000 0.99058  0.32611  0.69080  Biso   1.000  C
  C1423    1.0000 0.99058  0.32607  0.69080  Biso   1.000  C
  H1699    1.0000 0.04848  0.74130  0.20009  Biso   1.000  H
  H1700    1.0000 0.04499  0.76271  0.25828  Biso   1.000  H
  C1424    1.0000 0.00989  0.69472  0.24820  Biso   1.000  C
  H1701    1.0000 0.04499  0.76267  0.25828  Biso   1.000  H
  C1425    1.0000 0.00989  0.69468  0.24820  Biso   1.000  C
  C1426    1.0000 0.06919  0.65039  0.31768  Biso   1.000  C
  H1702    1.0000 0.14630  0.67382  0.30390  Biso   1.000  H
  H1703    1.0000 0.11151  0.71970  0.32710  Biso   1.000  H
  H1704    1.0000 0.14630  0.67378  0.30390  Biso   1.000  H
  H1705    1.0000 0.11147  0.71970  0.32710  Biso   1.000  H
  C1427    1.0000 0.30528  0.00989  0.75180  Biso   1.000  C
  H1706    1.0000 0.35229  0.98530  0.69310  Biso   1.000  H
  H1707    1.0000 0.29651  0.00392  0.67321  Biso   1.000  H
  H1708    1.0000 0.29651  0.00388  0.67321  Biso   1.000  H
  H1709    1.0000 0.29647  0.00392  0.67321  Biso   1.000  H
  H1710    1.0000 0.29647  0.00388  0.67321  Biso   1.000  H
  H1711    1.0000 0.32618  0.14630  0.69610  Biso   1.000  H
  C1428    1.0000 0.28759  0.10441  0.75258  Biso   1.000  C
  H1712    1.0000 0.28030  0.11151  0.67290  Biso   1.000  H
  C1429    1.0000 0.28759  0.10437  0.75258  Biso   1.000  C
  H1713    1.0000 0.28030  0.11147  0.67290  Biso   1.000  H
  H1714    1.0000 0.28026  0.11151  0.67290  Biso   1.000  H
  H1715    1.0000 0.28026  0.11147  0.67290  Biso   1.000  H
  H1716    1.0000 0.76570  0.95602  0.22002  Biso   1.000  H
  H1717    1.0000 0.70492  0.94330  0.22301  Biso   1.000  H
  C1430    1.0000 0.74739  0.90560  0.28008  Biso   1.000  C
  H1718    1.0000 0.76570  0.95598  0.22002  Biso   1.000  H
  H1719    1.0000 0.70488  0.94330  0.22301  Biso   1.000  H
  C1431    1.0000 0.69092  0.94221  0.34630  Biso   1.000  C
  H1720    1.0000 0.64461  0.98111  0.28619  Biso   1.000  H
  C1432    1.0000 0.69092  0.94217  0.34630  Biso   1.000  C
  H1721    1.0000 0.64461  0.98107  0.28619  Biso   1.000  H
  C1433    1.0000 0.69088  0.94221  0.34630  Biso   1.000  C
  H1722    1.0000 0.64457  0.98111  0.28619  Biso   1.000  H
  C1434    1.0000 0.69088  0.94217  0.34630  Biso   1.000  C
  H1723    1.0000 0.64457  0.98107  0.28619  Biso   1.000  H
  H1724    1.0000 0.66439  0.02149  0.32999  Biso   1.000  H
  C1435    1.0000 0.90560  0.25261  0.71988  Biso   1.000  C
  H1725    1.0000 0.86638  0.29419  0.66219  Biso   1.000  H
  H1726    1.0000 0.88969  0.33088  0.70680  Biso   1.000  H
  C1436    1.0000 0.90560  0.25257  0.71988  Biso   1.000  C
  H1727    1.0000 0.98111  0.35539  0.71381  Biso   1.000  H
  H1728    1.0000 0.98107  0.35539  0.71381  Biso   1.000  H
  C1437    1.0000 0.00039  0.27251  0.72440  Biso   1.000  C
  H1729    1.0000 0.02149  0.33561  0.66998  Biso   1.000  H
  C1438    1.0000 0.00039  0.27247  0.72440  Biso   1.000  C
  H1730    1.0000 0.02149  0.33557  0.66998  Biso   1.000  H
  N152     1.0000 0.95741  0.71640  0.24438  Biso   1.000  N
  N153     1.0000 0.95738  0.71640  0.24438  Biso   1.000  N
  H1731    1.0000 0.01280  0.66482  0.22360  Biso   1.000  H
  C1439    1.0000 0.01210  0.67479  0.30250  Biso   1.000  C
  H1732    1.0000 0.01280  0.66478  0.22360  Biso   1.000  H
  H1733    1.0000 0.07458  0.61781  0.29729  Biso   1.000  H
  N154     1.0000 0.06888  0.63771  0.37218  Biso   1.000  N
  H1734    1.0000 0.07458  0.61777  0.29729  Biso   1.000  H
  C1440    1.0000 0.26890  0.05089  0.76278  Biso   1.000  C
  H1735    1.0000 0.33518  0.01280  0.77640  Biso   1.000  H
  N155     1.0000 0.28360  0.95741  0.75558  Biso   1.000  N
  N156     1.0000 0.28360  0.95738  0.75558  Biso   1.000  N
  H1736    1.0000 0.31598  0.11209  0.77800  Biso   1.000  H
  N157     1.0000 0.24683  0.14149  0.76091  Biso   1.000  N
  H1737    1.0000 0.77881  0.91289  0.30180  Biso   1.000  H
  C1441    1.0000 0.69992  0.89679  0.31500  Biso   1.000  C
  N158     1.0000 0.75530  0.85661  0.24820  Biso   1.000  N
  N159     1.0000 0.75530  0.85657  0.24820  Biso   1.000  N
  H1738    1.0000 0.77877  0.91289  0.30180  Biso   1.000  H
  C1442    1.0000 0.69988  0.89679  0.31500  Biso   1.000  C
  H1739    1.0000 0.72280  0.95121  0.36650  Biso   1.000  H
  N160     1.0000 0.64539  0.93608  0.38250  Biso   1.000  N
  H1740    1.0000 0.72280  0.95117  0.36650  Biso   1.000  H
  C1443    1.0000 0.95090  0.26378  0.75589  Biso   1.000  C
  H1741    1.0000 0.91289  0.22119  0.69820  Biso   1.000  H
  N161     1.0000 0.85661  0.24470  0.75180  Biso   1.000  N
  N162     1.0000 0.85657  0.24470  0.75180  Biso   1.000  N
  H1742    1.0000 0.00609  0.24280  0.70011  Biso   1.000  H
  N163     1.0000 0.04670  0.28131  0.75519  Biso   1.000  N
  N164     1.0000 0.04670  0.28127  0.75519  Biso   1.000  N
  C1444    1.0000 0.92212  0.69499  0.20799  Biso   1.000  C
  C1445    1.0000 0.92208  0.69499  0.20799  Biso   1.000  C
  H1743    1.0000 0.98530  0.64771  0.30690  Biso   1.000  H
  H1744    1.0000 0.98530  0.64767  0.30690  Biso   1.000  H
  H1745    1.0000 0.00392  0.70349  0.32679  Biso   1.000  H
  H1746    1.0000 0.00388  0.70349  0.32679  Biso   1.000  H
  C1446    1.0000 0.07862  0.59159  0.38530  Biso   1.000  C
  C1447    1.0000 0.07858  0.59159  0.38530  Biso   1.000  C
  H1747    1.0000 0.25870  0.04848  0.79988  Biso   1.000  H
  H1748    1.0000 0.23729  0.04499  0.74168  Biso   1.000  H
  C1448    1.0000 0.30501  0.92212  0.79201  Biso   1.000  C
  C1449    1.0000 0.30501  0.92208  0.79201  Biso   1.000  C
  C1450    1.0000 0.30497  0.92212  0.79201  Biso   1.000  C
  C1451    1.0000 0.30497  0.92208  0.79201  Biso   1.000  C
  C1452    1.0000 0.25338  0.17760  0.79081  Biso   1.000  C
  H1749    1.0000 0.70581  0.86638  0.33781  Biso   1.000  H
  H1750    1.0000 0.66912  0.88969  0.29320  Biso   1.000  H
  H1751    1.0000 0.70578  0.86638  0.33781  Biso   1.000  H
  H1752    1.0000 0.66908  0.88969  0.29320  Biso   1.000  H
  C1453    1.0000 0.79731  0.83241  0.25439  Biso   1.000  C
  C1454    1.0000 0.79731  0.83237  0.25439  Biso   1.000  C
  C1455    1.0000 0.79727  0.83241  0.25439  Biso   1.000  C
  C1456    1.0000 0.79727  0.83237  0.25439  Biso   1.000  C
  C1457    1.0000 0.65299  0.93581  0.43291  Biso   1.000  C
  C1458    1.0000 0.65299  0.93577  0.43291  Biso   1.000  C
  H1753    1.0000 0.95602  0.23430  0.77998  Biso   1.000  H
  H1754    1.0000 0.94330  0.29508  0.77699  Biso   1.000  H
  H1755    1.0000 0.95602  0.23426  0.77998  Biso   1.000  H
  H1756    1.0000 0.95598  0.23430  0.77998  Biso   1.000  H
  H1757    1.0000 0.95598  0.23426  0.77998  Biso   1.000  H
  C1459    1.0000 0.83241  0.20269  0.74561  Biso   1.000  C
  C1460    1.0000 0.83237  0.20269  0.74561  Biso   1.000  C
  C1461    1.0000 0.07970  0.25338  0.75441  Biso   1.000  C
  C1462    1.0000 0.07966  0.25338  0.75441  Biso   1.000  C
  C1463    1.0000 0.87550  0.72222  0.20199  Biso   1.000  C
  H1758    1.0000 0.92949  0.66431  0.18899  Biso   1.000  H
  C1464    1.0000 0.87550  0.72218  0.20199  Biso   1.000  C
  H1759    1.0000 0.92949  0.66427  0.18899  Biso   1.000  H
  C1465    1.0000 0.08048  0.58209  0.44311  Biso   1.000  C
  H1760    1.0000 0.08428  0.56479  0.36058  Biso   1.000  H
  H1761    1.0000 0.33569  0.92949  0.81101  Biso   1.000  H
  C1466    1.0000 0.27778  0.87550  0.79801  Biso   1.000  C
  H1762    1.0000 0.28569  0.18070  0.80840  Biso   1.000  H
  C1467    1.0000 0.21227  0.21735  0.80089  Biso   1.000  C
  C1468    1.0000 0.21227  0.21731  0.80089  Biso   1.000  C
  C1469    1.0000 0.81240  0.78777  0.22309  Biso   1.000  C
  H1763    1.0000 0.82031  0.84389  0.28090  Biso   1.000  H
  H1764    1.0000 0.82027  0.84389  0.28090  Biso   1.000  H
  H1765    1.0000 0.68712  0.93918  0.44649  Biso   1.000  H
  C1470    1.0000 0.60912  0.93030  0.46790  Biso   1.000  C
  H1766    1.0000 0.68708  0.93918  0.44649  Biso   1.000  H
  C1471    1.0000 0.60908  0.93030  0.46790  Biso   1.000  C
  H1767    1.0000 0.84389  0.17969  0.71910  Biso   1.000  H
  C1472    1.0000 0.78777  0.18760  0.77691  Biso   1.000  C
  C1473    1.0000 0.78777  0.18757  0.77691  Biso   1.000  C
  C1474    1.0000 0.12784  0.25331  0.78376  Biso   1.000  C
  C1475    1.0000 0.12784  0.25327  0.78376  Biso   1.000  C
  C1476    1.0000 0.12780  0.25331  0.78376  Biso   1.000  C
  C1477    1.0000 0.12780  0.25327  0.78376  Biso   1.000  C
  H1768    1.0000 0.07579  0.22530  0.73078  Biso   1.000  H
  H1769    1.0000 0.07579  0.22526  0.73078  Biso   1.000  H
  C1478    1.0000 0.86080  0.76531  0.23099  Biso   1.000  C
  C1479    1.0000 0.84191  0.70170  0.16509  Biso   1.000  C
  C1480    1.0000 0.86080  0.76527  0.23099  Biso   1.000  C
  C1481    1.0000 0.84191  0.70166  0.16509  Biso   1.000  C
  C1482    1.0000 0.86076  0.76531  0.23099  Biso   1.000  C
  C1483    1.0000 0.84187  0.70170  0.16509  Biso   1.000  C
  C1484    1.0000 0.86076  0.76527  0.23099  Biso   1.000  C
  C1485    1.0000 0.84187  0.70166  0.16509  Biso   1.000  C
  C1486    1.0000 0.07160  0.62107  0.47939  Biso   1.000  C
  C1487    1.0000 0.08731  0.53120  0.45950  Biso   1.000  C
  C1488    1.0000 0.08727  0.53120  0.45950  Biso   1.000  C
  C1489    1.0000 0.23469  0.86080  0.76901  Biso   1.000  C
  C1490    1.0000 0.29830  0.84191  0.83491  Biso   1.000  C
  C1491    1.0000 0.23469  0.86076  0.76901  Biso   1.000  C
  C1492    1.0000 0.29830  0.84187  0.83491  Biso   1.000  C
  C1493    1.0000 0.22158  0.25629  0.83705  Biso   1.000  C
  C1494    1.0000 0.16538  0.21580  0.77422  Biso   1.000  C
  C1495    1.0000 0.16538  0.21576  0.77422  Biso   1.000  C
  C1496    1.0000 0.77881  0.76721  0.18619  Biso   1.000  C
  C1497    1.0000 0.77881  0.76717  0.18619  Biso   1.000  C
  C1498    1.0000 0.77877  0.76721  0.18619  Biso   1.000  C
  C1499    1.0000 0.77877  0.76717  0.18619  Biso   1.000  C
  C1500    1.0000 0.62107  0.92840  0.52061  Biso   1.000  C
  C1501    1.0000 0.55820  0.92340  0.45148  Biso   1.000  C
  C1502    1.0000 0.76531  0.13920  0.76901  Biso   1.000  C
  C1503    1.0000 0.76721  0.22119  0.81381  Biso   1.000  C
  C1504    1.0000 0.76527  0.13920  0.76901  Biso   1.000  C
  C1505    1.0000 0.76717  0.22119  0.81381  Biso   1.000  C
  C1506    1.0000 0.13714  0.29229  0.82000  Biso   1.000  C
  C1507    1.0000 0.13714  0.29225  0.82000  Biso   1.000  C
  C1508    1.0000 0.13711  0.29229  0.82000  Biso   1.000  C
  C1509    1.0000 0.13711  0.29225  0.82000  Biso   1.000  C
  O82      1.0000 0.89047  0.78622  0.26918  Biso   1.000  O
  O83      1.0000 0.89043  0.78622  0.26918  Biso   1.000  O
  H1770    1.0000 0.85192  0.67230  0.14520  Biso   1.000  H
  C1510    1.0000 0.79351  0.72420  0.15719  Biso   1.000  C
  H1771    1.0000 0.85188  0.67230  0.14520  Biso   1.000  H
  C1511    1.0000 0.06970  0.60912  0.53210  Biso   1.000  C
  O84      1.0000 0.06376  0.67327  0.46619  Biso   1.000  O
  C1512    1.0000 0.06970  0.60908  0.53210  Biso   1.000  C
  O85      1.0000 0.06376  0.67323  0.46619  Biso   1.000  O
  O86      1.0000 0.06372  0.67327  0.46619  Biso   1.000  O
  O87      1.0000 0.06372  0.67323  0.46619  Biso   1.000  O
  H1772    1.0000 0.09339  0.50460  0.43458  Biso   1.000  H
  C1513    1.0000 0.08541  0.51926  0.51220  Biso   1.000  C
  C1514    1.0000 0.08541  0.51922  0.51220  Biso   1.000  C
  C1515    1.0000 0.08537  0.51926  0.51220  Biso   1.000  C
  C1516    1.0000 0.08537  0.51922  0.51220  Biso   1.000  C
  C1517    1.0000 0.21223  0.81240  0.77691  Biso   1.000  C
  O88      1.0000 0.21378  0.89047  0.73082  Biso   1.000  O
  O89      1.0000 0.21378  0.89043  0.73082  Biso   1.000  O
  C1518    1.0000 0.21219  0.81240  0.77691  Biso   1.000  C
  H1773    1.0000 0.32770  0.85192  0.85480  Biso   1.000  H
  C1519    1.0000 0.27580  0.79351  0.84281  Biso   1.000  C
  H1774    1.0000 0.32770  0.85188  0.85480  Biso   1.000  H
  C1520    1.0000 0.27576  0.79351  0.84281  Biso   1.000  C
  C1521    1.0000 0.18400  0.29376  0.84663  Biso   1.000  C
  H1775    1.0000 0.25369  0.25730  0.85531  Biso   1.000  H
  H1776    1.0000 0.25369  0.25726  0.85531  Biso   1.000  H
  O90      1.0000 0.15386  0.17686  0.74071  Biso   1.000  O
  O91      1.0000 0.15382  0.17686  0.74071  Biso   1.000  O
  H1777    1.0000 0.74569  0.78261  0.18082  Biso   1.000  H
  H1778    1.0000 0.74569  0.78257  0.18082  Biso   1.000  H
  C1522    1.0000 0.58209  0.91952  0.55689  Biso   1.000  C
  O92      1.0000 0.67327  0.93624  0.53381  Biso   1.000  O
  C1523    1.0000 0.58209  0.91948  0.55689  Biso   1.000  C
  O93      1.0000 0.67323  0.93624  0.53381  Biso   1.000  O
  C1524    1.0000 0.51926  0.91459  0.48780  Biso   1.000  C
  H1779    1.0000 0.55001  0.92480  0.41551  Biso   1.000  H
  C1525    1.0000 0.51922  0.91459  0.48780  Biso   1.000  C
  H1780    1.0000 0.54997  0.92480  0.41551  Biso   1.000  H
  C1526    1.0000 0.72222  0.12450  0.79801  Biso   1.000  C
  O94      1.0000 0.78622  0.10953  0.73082  Biso   1.000  O
  C1527    1.0000 0.72222  0.12446  0.79801  Biso   1.000  C
  C1528    1.0000 0.72218  0.12450  0.79801  Biso   1.000  C
  C1529    1.0000 0.72218  0.12446  0.79801  Biso   1.000  C
  C1530    1.0000 0.72420  0.20649  0.84281  Biso   1.000  C
  H1781    1.0000 0.78261  0.25431  0.81918  Biso   1.000  H
  C1531    1.0000 0.72420  0.20645  0.84281  Biso   1.000  C
  H1782    1.0000 0.78261  0.25428  0.81918  Biso   1.000  H
  H1783    1.0000 0.78257  0.25431  0.81918  Biso   1.000  H
  H1784    1.0000 0.78257  0.25428  0.81918  Biso   1.000  H
  H1785    1.0000 0.11139  0.31788  0.82650  Biso   1.000  H
  H1786    1.0000 0.91731  0.76791  0.27121  Biso   1.000  H
  H1787    1.0000 0.91731  0.76787  0.27121  Biso   1.000  H
  H1788    1.0000 0.91727  0.76791  0.27121  Biso   1.000  H
  H1789    1.0000 0.91727  0.76787  0.27121  Biso   1.000  H
  C1532    1.0000 0.75709  0.70100  0.11289  Biso   1.000  C
  C1533    1.0000 0.06419  0.65299  0.56709  Biso   1.000  C
  C1534    1.0000 0.07660  0.55820  0.54848  Biso   1.000  C
  H1790    1.0000 0.04720  0.67529  0.43820  Biso   1.000  H
  C1535    1.0000 0.09188  0.46379  0.53330  Biso   1.000  C
  C1536    1.0000 0.16759  0.79731  0.74561  Biso   1.000  C
  C1537    1.0000 0.23279  0.77881  0.81381  Biso   1.000  C
  C1538    1.0000 0.16759  0.79727  0.74561  Biso   1.000  C
  C1539    1.0000 0.23279  0.77877  0.81381  Biso   1.000  C
  H1791    1.0000 0.23209  0.91731  0.72879  Biso   1.000  H
  H1792    1.0000 0.23209  0.91727  0.72879  Biso   1.000  H
  C1540    1.0000 0.29900  0.75709  0.88711  Biso   1.000  C
  C1541    1.0000 0.19439  0.33980  0.88879  Biso   1.000  C
  H1793    1.0000 0.17899  0.15611  0.74051  Biso   1.000  H
  H1794    1.0000 0.17899  0.15607  0.74051  Biso   1.000  H
  C1542    1.0000 0.59159  0.92138  0.61470  Biso   1.000  C
  C1543    1.0000 0.53120  0.91269  0.54050  Biso   1.000  C
  H1795    1.0000 0.67529  0.95280  0.56180  Biso   1.000  H
  C1544    1.0000 0.46379  0.90812  0.46670  Biso   1.000  C
  C1545    1.0000 0.46379  0.90808  0.46670  Biso   1.000  C
  C1546    1.0000 0.70170  0.15809  0.83491  Biso   1.000  C
  C1547    1.0000 0.69499  0.07788  0.79201  Biso   1.000  C
  C1548    1.0000 0.70166  0.15809  0.83491  Biso   1.000  C
  H1796    1.0000 0.76791  0.08269  0.72879  Biso   1.000  H
  H1797    1.0000 0.76787  0.08269  0.72879  Biso   1.000  H
  C1549    1.0000 0.70100  0.24291  0.88711  Biso   1.000  C
  C1550    1.0000 0.70100  0.24287  0.88711  Biso   1.000  C
  C1551    1.0000 0.70721  0.73820  0.11219  Biso   1.000  C
  C1552    1.0000 0.74809  0.64411  0.12091  Biso   1.000  C
  C1553    1.0000 0.78230  0.70651  0.06322  Biso   1.000  C
  C1554    1.0000 0.78230  0.70647  0.06322  Biso   1.000  C
  C1555    1.0000 0.70717  0.73820  0.11219  Biso   1.000  C
  H1798    1.0000 0.06082  0.68712  0.55351  Biso   1.000  H
  N165     1.0000 0.06392  0.64539  0.61750  Biso   1.000  N
  H1799    1.0000 0.06082  0.68708  0.55351  Biso   1.000  H
  H1800    1.0000 0.06078  0.68712  0.55351  Biso   1.000  H
  N166     1.0000 0.06388  0.64539  0.61750  Biso   1.000  N
  H1801    1.0000 0.06078  0.68708  0.55351  Biso   1.000  H
  H1802    1.0000 0.07520  0.55001  0.58449  Biso   1.000  H
  H1803    1.0000 0.07520  0.54997  0.58449  Biso   1.000  H
  H1804    1.0000 0.07517  0.55001  0.58449  Biso   1.000  H
  H1805    1.0000 0.07517  0.54997  0.58449  Biso   1.000  H
  C1556    1.0000 0.08091  0.44529  0.58539  Biso   1.000  C
  C1557    1.0000 0.15471  0.45099  0.51851  Biso   1.000  C
  C1558    1.0000 0.06570  0.42330  0.49029  Biso   1.000  C
  C1559    1.0000 0.08087  0.44529  0.58539  Biso   1.000  C
  C1560    1.0000 0.15468  0.45099  0.51851  Biso   1.000  C
  H1806    1.0000 0.15611  0.82031  0.71910  Biso   1.000  H
  N167     1.0000 0.14339  0.75530  0.75180  Biso   1.000  N
  H1807    1.0000 0.15611  0.82027  0.71910  Biso   1.000  H
  H1808    1.0000 0.15607  0.82031  0.71910  Biso   1.000  H
  H1809    1.0000 0.15607  0.82027  0.71910  Biso   1.000  H
  H1810    1.0000 0.21739  0.74569  0.81918  Biso   1.000  H
  C1561    1.0000 0.26180  0.70721  0.88781  Biso   1.000  C
  C1562    1.0000 0.35589  0.74809  0.87909  Biso   1.000  C
  C1563    1.0000 0.29349  0.78230  0.93678  Biso   1.000  C
  C1564    1.0000 0.26180  0.70717  0.88781  Biso   1.000  C
  C1565    1.0000 0.26176  0.70721  0.88781  Biso   1.000  C
  C1566    1.0000 0.26176  0.70717  0.88781  Biso   1.000  C
  C1567    1.0000 0.17449  0.38731  0.86539  Biso   1.000  C
  C1568    1.0000 0.15991  0.31730  0.93799  Biso   1.000  C
  C1569    1.0000 0.25059  0.33821  0.90338  Biso   1.000  C
  C1570    1.0000 0.17449  0.38727  0.86539  Biso   1.000  C
  C1571    1.0000 0.15991  0.31726  0.93799  Biso   1.000  C
  C1572    1.0000 0.25059  0.33817  0.90338  Biso   1.000  C
  C1573    1.0000 0.15987  0.31730  0.93799  Biso   1.000  C
  C1574    1.0000 0.15987  0.31726  0.93799  Biso   1.000  C
  H1811    1.0000 0.56479  0.91572  0.63938  Biso   1.000  H
  N168     1.0000 0.63771  0.93112  0.62778  Biso   1.000  N
  H1812    1.0000 0.56479  0.91568  0.63938  Biso   1.000  H
  N169     1.0000 0.63771  0.93108  0.62778  Biso   1.000  N
  H1813    1.0000 0.50460  0.90661  0.56538  Biso   1.000  H
  C1575    1.0000 0.44529  0.91909  0.41461  Biso   1.000  C
  C1576    1.0000 0.45099  0.84529  0.48149  Biso   1.000  C
  C1577    1.0000 0.42330  0.93430  0.50971  Biso   1.000  C
  H1814    1.0000 0.67230  0.14808  0.85480  Biso   1.000  H
  H1815    1.0000 0.66431  0.07051  0.81101  Biso   1.000  H
  N170     1.0000 0.71640  0.04259  0.75558  Biso   1.000  N
  H1816    1.0000 0.66431  0.07047  0.81101  Biso   1.000  H
  H1817    1.0000 0.66427  0.07051  0.81101  Biso   1.000  H
  H1818    1.0000 0.66427  0.07047  0.81101  Biso   1.000  H
  C1578    1.0000 0.73820  0.29279  0.88781  Biso   1.000  C
  C1579    1.0000 0.64411  0.25191  0.87909  Biso   1.000  C
  C1580    1.0000 0.70651  0.21770  0.93678  Biso   1.000  C
  C1581    1.0000 0.64411  0.25187  0.87909  Biso   1.000  C
  C1582    1.0000 0.70651  0.21766  0.93678  Biso   1.000  C
  C1583    1.0000 0.70647  0.21770  0.93678  Biso   1.000  C
  C1584    1.0000 0.70647  0.21766  0.93678  Biso   1.000  C
  H1819    1.0000 0.71811  0.77392  0.10518  Biso   1.000  H
  H1820    1.0000 0.68320  0.72672  0.08490  Biso   1.000  H
  H1821    1.0000 0.68972  0.73661  0.14609  Biso   1.000  H
  H1822    1.0000 0.71811  0.77388  0.10518  Biso   1.000  H
  H1823    1.0000 0.68320  0.72668  0.08490  Biso   1.000  H
  H1824    1.0000 0.68972  0.73657  0.14609  Biso   1.000  H
  H1825    1.0000 0.71807  0.77392  0.10518  Biso   1.000  H
  H1826    1.0000 0.68968  0.73661  0.14609  Biso   1.000  H
  H1827    1.0000 0.71807  0.77388  0.10518  Biso   1.000  H
  H1828    1.0000 0.68968  0.73657  0.14609  Biso   1.000  H
  H1829    1.0000 0.78160  0.62599  0.12180  Biso   1.000  H
  H1830    1.0000 0.72990  0.63860  0.15392  Biso   1.000  H
  H1831    1.0000 0.72711  0.63049  0.09222  Biso   1.000  H
  H1832    1.0000 0.78951  0.74320  0.05660  Biso   1.000  H
  H1833    1.0000 0.81492  0.68700  0.06341  Biso   1.000  H
  H1834    1.0000 0.75961  0.69290  0.03581  Biso   1.000  H
  H1835    1.0000 0.78947  0.74320  0.05660  Biso   1.000  H
  H1836    1.0000 0.81488  0.68700  0.06341  Biso   1.000  H
  H1837    1.0000 0.75957  0.69290  0.03581  Biso   1.000  H
  C1585    1.0000 0.05779  0.69092  0.65370  Biso   1.000  C
  C1586    1.0000 0.05779  0.69088  0.65370  Biso   1.000  C
  H1838    1.0000 0.08831  0.40810  0.58741  Biso   1.000  H
  H1839    1.0000 0.04429  0.45142  0.59348  Biso   1.000  H
  H1840    1.0000 0.10270  0.46391  0.61038  Biso   1.000  H
  H1841    1.0000 0.04429  0.45138  0.59348  Biso   1.000  H
  H1842    1.0000 0.08828  0.40810  0.58741  Biso   1.000  H
  H1843    1.0000 0.10266  0.46391  0.61038  Biso   1.000  H
  H1844    1.0000 0.16348  0.41589  0.52999  Biso   1.000  H
  H1845    1.0000 0.17721  0.47609  0.53618  Biso   1.000  H
  H1846    1.0000 0.15968  0.45371  0.48079  Biso   1.000  H
  H1847    1.0000 0.17717  0.47609  0.53618  Biso   1.000  H
  H1848    1.0000 0.06881  0.38762  0.50309  Biso   1.000  H
  H1849    1.0000 0.08381  0.42652  0.45700  Biso   1.000  H
  H1850    1.0000 0.02890  0.43191  0.48550  Biso   1.000  H
  H1851    1.0000 0.06881  0.38758  0.50309  Biso   1.000  H
  H1852    1.0000 0.08381  0.42648  0.45700  Biso   1.000  H
  H1853    1.0000 0.06877  0.38762  0.50309  Biso   1.000  H
  H1854    1.0000 0.08378  0.42652  0.45700  Biso   1.000  H
  H1855    1.0000 0.06877  0.38758  0.50309  Biso   1.000  H
  H1856    1.0000 0.08378  0.42648  0.45700  Biso   1.000  H
  C1587    1.0000 0.09440  0.74739  0.71988  Biso   1.000  C
  C1588    1.0000 0.09436  0.74739  0.71988  Biso   1.000  C
  H1857    1.0000 0.22608  0.71811  0.89478  Biso   1.000  H
  H1858    1.0000 0.27328  0.68320  0.91510  Biso   1.000  H
  H1859    1.0000 0.26339  0.68972  0.85391  Biso   1.000  H
  H1860    1.0000 0.22608  0.71807  0.89478  Biso   1.000  H
  H1861    1.0000 0.26339  0.68968  0.85391  Biso   1.000  H
  H1862    1.0000 0.37401  0.78160  0.87820  Biso   1.000  H
  H1863    1.0000 0.36140  0.72990  0.84608  Biso   1.000  H
  H1864    1.0000 0.36951  0.72711  0.90778  Biso   1.000  H
  H1865    1.0000 0.37397  0.78160  0.87820  Biso   1.000  H
  H1866    1.0000 0.36136  0.72990  0.84608  Biso   1.000  H
  H1867    1.0000 0.36947  0.72711  0.90778  Biso   1.000  H
  H1868    1.0000 0.25680  0.78951  0.94340  Biso   1.000  H
  H1869    1.0000 0.31300  0.81492  0.93659  Biso   1.000  H
  H1870    1.0000 0.30710  0.75961  0.96419  Biso   1.000  H
  H1871    1.0000 0.25680  0.78947  0.94340  Biso   1.000  H
  H1872    1.0000 0.31300  0.81488  0.93659  Biso   1.000  H
  H1873    1.0000 0.30710  0.75957  0.96419  Biso   1.000  H
  H1874    1.0000 0.30706  0.75961  0.96419  Biso   1.000  H
  H1875    1.0000 0.30706  0.75957  0.96419  Biso   1.000  H
  H1876    1.0000 0.13788  0.38258  0.85628  Biso   1.000  H
  H1877    1.0000 0.17779  0.41589  0.89019  Biso   1.000  H
  H1878    1.0000 0.19439  0.39530  0.83390  Biso   1.000  H
  H1879    1.0000 0.19439  0.39526  0.83390  Biso   1.000  H
  H1880    1.0000 0.16018  0.34259  0.96648  Biso   1.000  H
  H1881    1.0000 0.17500  0.28461  0.95010  Biso   1.000  H
  H1882    1.0000 0.12419  0.31141  0.92658  Biso   1.000  H
  H1883    1.0000 0.17500  0.28457  0.95010  Biso   1.000  H
  H1884    1.0000 0.12419  0.31137  0.92658  Biso   1.000  H
  H1885    1.0000 0.25920  0.30369  0.91689  Biso   1.000  H
  H1886    1.0000 0.25750  0.36431  0.93028  Biso   1.000  H
  H1887    1.0000 0.27188  0.34550  0.87271  Biso   1.000  H
  H1888    1.0000 0.25750  0.36427  0.93028  Biso   1.000  H
  H1889    1.0000 0.27188  0.34546  0.87271  Biso   1.000  H
  H1890    1.0000 0.25916  0.30369  0.91689  Biso   1.000  H
  C1589    1.0000 0.65039  0.93081  0.68228  Biso   1.000  C
  C1590    1.0000 0.65039  0.93077  0.68228  Biso   1.000  C
  H1891    1.0000 0.40810  0.91169  0.41259  Biso   1.000  H
  H1892    1.0000 0.45142  0.95571  0.40648  Biso   1.000  H
  H1893    1.0000 0.46391  0.89730  0.38958  Biso   1.000  H
  H1894    1.0000 0.45142  0.95567  0.40648  Biso   1.000  H
  H1895    1.0000 0.45138  0.95571  0.40648  Biso   1.000  H
  H1896    1.0000 0.45138  0.95567  0.40648  Biso   1.000  H
  H1897    1.0000 0.41589  0.83652  0.47001  Biso   1.000  H
  H1898    1.0000 0.47609  0.82279  0.46378  Biso   1.000  H
  H1899    1.0000 0.45371  0.84032  0.51921  Biso   1.000  H
  H1900    1.0000 0.41589  0.83648  0.47001  Biso   1.000  H
  H1901    1.0000 0.45371  0.84028  0.51921  Biso   1.000  H
  H1902    1.0000 0.38762  0.93119  0.49691  Biso   1.000  H
  H1903    1.0000 0.42652  0.91619  0.54300  Biso   1.000  H
  H1904    1.0000 0.43191  0.97110  0.51450  Biso   1.000  H
  H1905    1.0000 0.43191  0.97107  0.51450  Biso   1.000  H
  H1906    1.0000 0.38758  0.93119  0.49691  Biso   1.000  H
  H1907    1.0000 0.42648  0.91619  0.54300  Biso   1.000  H
  C1591    1.0000 0.69472  0.99011  0.75180  Biso   1.000  C
  C1592    1.0000 0.69472  0.99007  0.75180  Biso   1.000  C
  C1593    1.0000 0.69468  0.99011  0.75180  Biso   1.000  C
  C1594    1.0000 0.69468  0.99007  0.75180  Biso   1.000  C
  H1908    1.0000 0.77392  0.28189  0.89478  Biso   1.000  H
  H1909    1.0000 0.72672  0.31680  0.91510  Biso   1.000  H
  H1910    1.0000 0.73661  0.31028  0.85391  Biso   1.000  H
  H1911    1.0000 0.77388  0.28189  0.89478  Biso   1.000  H
  H1912    1.0000 0.72668  0.31680  0.91510  Biso   1.000  H
  H1913    1.0000 0.73657  0.31028  0.85391  Biso   1.000  H
  H1914    1.0000 0.62599  0.21840  0.87820  Biso   1.000  H
  H1915    1.0000 0.63860  0.27010  0.84608  Biso   1.000  H
  H1916    1.0000 0.63049  0.27289  0.90778  Biso   1.000  H
  H1917    1.0000 0.63860  0.27006  0.84608  Biso   1.000  H
  H1918    1.0000 0.74320  0.21049  0.94340  Biso   1.000  H
  H1919    1.0000 0.68700  0.18508  0.93659  Biso   1.000  H
  H1920    1.0000 0.69290  0.24039  0.96419  Biso   1.000  H
  C1595    1.0000 0.10321  0.69992  0.68500  Biso   1.000  C
  H1921    1.0000 0.04879  0.72280  0.63350  Biso   1.000  H
  C1596    1.0000 0.00939  0.67389  0.69080  Biso   1.000  C
  C1597    1.0000 0.10321  0.69988  0.68500  Biso   1.000  C
  C1598    1.0000 0.10317  0.69992  0.68500  Biso   1.000  C
  C1599    1.0000 0.10317  0.69988  0.68500  Biso   1.000  C
  C1600    1.0000 0.04910  0.73622  0.75589  Biso   1.000  C
  H1922    1.0000 0.08711  0.77881  0.69820  Biso   1.000  H
  C1601    1.0000 0.04910  0.73618  0.75589  Biso   1.000  C
  H1923    1.0000 0.08711  0.77877  0.69820  Biso   1.000  H
  H1924    1.0000 0.08707  0.77881  0.69820  Biso   1.000  H
  H1925    1.0000 0.08707  0.77877  0.69820  Biso   1.000  H
  C1602    1.0000 0.67479  0.98790  0.69750  Biso   1.000  C
  H1926    1.0000 0.61781  0.92542  0.70271  Biso   1.000  H
  C1603    1.0000 0.69069  0.88822  0.69820  Biso   1.000  C
  H1927    1.0000 0.61781  0.92538  0.70271  Biso   1.000  H
  C1604    1.0000 0.69069  0.88818  0.69820  Biso   1.000  C
  H1928    1.0000 0.61777  0.92542  0.70271  Biso   1.000  H
  H1929    1.0000 0.61777  0.92538  0.70271  Biso   1.000  H
  C1605    1.0000 0.73110  0.94911  0.76278  Biso   1.000  C
  H1930    1.0000 0.66482  0.98720  0.77640  Biso   1.000  H
  C1606    1.0000 0.73110  0.94907  0.76278  Biso   1.000  C
  H1931    1.0000 0.66478  0.98720  0.77640  Biso   1.000  H
  H1932    1.0000 0.13362  0.70581  0.66219  Biso   1.000  H
  H1933    1.0000 0.11031  0.66912  0.70680  Biso   1.000  H
  H1934    1.0000 0.13362  0.70578  0.66219  Biso   1.000  H
  H1935    1.0000 0.11031  0.66908  0.70680  Biso   1.000  H
  H1936    1.0000 0.13358  0.70581  0.66219  Biso   1.000  H
  H1937    1.0000 0.11027  0.66912  0.70680  Biso   1.000  H
  H1938    1.0000 0.13358  0.70578  0.66219  Biso   1.000  H
  H1939    1.0000 0.11027  0.66908  0.70680  Biso   1.000  H
  C1607    1.0000 0.99961  0.72749  0.72440  Biso   1.000  C
  H1940    1.0000 0.97851  0.66439  0.66998  Biso   1.000  H
  C1608    1.0000 0.99957  0.72749  0.72440  Biso   1.000  C
  H1941    1.0000 0.97847  0.66439  0.66998  Biso   1.000  H
  H1942    1.0000 0.01889  0.64461  0.71381  Biso   1.000  H
  H1943    1.0000 0.01889  0.64457  0.71381  Biso   1.000  H
  H1944    1.0000 0.04398  0.76570  0.77998  Biso   1.000  H
  H1945    1.0000 0.05670  0.70492  0.77699  Biso   1.000  H
  H1946    1.0000 0.05670  0.70488  0.77699  Biso   1.000  H
  H1947    1.0000 0.05667  0.70492  0.77699  Biso   1.000  H
  H1948    1.0000 0.05667  0.70488  0.77699  Biso   1.000  H
  H1949    1.0000 0.70349  0.99608  0.67321  Biso   1.000  H
  H1950    1.0000 0.64771  0.01470  0.69310  Biso   1.000  H
  H1951    1.0000 0.64767  0.01470  0.69310  Biso   1.000  H
  C1609    1.0000 0.71241  0.89559  0.75258  Biso   1.000  C
  H1952    1.0000 0.67382  0.85370  0.69610  Biso   1.000  H
  H1953    1.0000 0.71970  0.88849  0.67290  Biso   1.000  H
  H1954    1.0000 0.67378  0.85370  0.69610  Biso   1.000  H
  H1955    1.0000 0.74130  0.95152  0.79988  Biso   1.000  H
  H1956    1.0000 0.76271  0.95501  0.74168  Biso   1.000  H
  H1957    1.0000 0.74130  0.95148  0.79988  Biso   1.000  H
  H1958    1.0000 0.76271  0.95497  0.74168  Biso   1.000  H
  H1959    1.0000 0.76267  0.95501  0.74168  Biso   1.000  H
  H1960    1.0000 0.76267  0.95497  0.74168  Biso   1.000  H
  H1961    1.0000 0.99391  0.75720  0.70011  Biso   1.000  H
  N171     1.0000 0.95330  0.71869  0.75519  Biso   1.000  N
  H1962    1.0000 0.99387  0.75720  0.70011  Biso   1.000  H
  H1963    1.0000 0.68402  0.88791  0.77800  Biso   1.000  H
  N172     1.0000 0.75317  0.85851  0.76091  Biso   1.000  N
  H1964    1.0000 0.68402  0.88787  0.77800  Biso   1.000  H
  N173     1.0000 0.75317  0.85847  0.76091  Biso   1.000  N
  H1965    1.0000 0.68398  0.88791  0.77800  Biso   1.000  H
  H1966    1.0000 0.68398  0.88787  0.77800  Biso   1.000  H
  C1610    1.0000 0.92030  0.74662  0.75441  Biso   1.000  C
  C1611    1.0000 0.92030  0.74658  0.75441  Biso   1.000  C
  C1612    1.0000 0.74662  0.82240  0.79081  Biso   1.000  C
  C1613    1.0000 0.74658  0.82240  0.79081  Biso   1.000  C
  C1614    1.0000 0.87216  0.74669  0.78376  Biso   1.000  C
  H1967    1.0000 0.92421  0.77470  0.73078  Biso   1.000  H
  H1968    1.0000 0.92417  0.77470  0.73078  Biso   1.000  H
  C1615    1.0000 0.78773  0.78265  0.80089  Biso   1.000  C
  C1616    1.0000 0.78769  0.78265  0.80089  Biso   1.000  C
  H1969    1.0000 0.71431  0.81930  0.80840  Biso   1.000  H
  C1617    1.0000 0.83462  0.78420  0.77422  Biso   1.000  C
  C1618    1.0000 0.86286  0.70771  0.82000  Biso   1.000  C
  C1619    1.0000 0.83458  0.78420  0.77422  Biso   1.000  C
  C1620    1.0000 0.77842  0.74371  0.83705  Biso   1.000  C
  C1621    1.0000 0.77838  0.74371  0.83705  Biso   1.000  C
  O95      1.0000 0.84614  0.82314  0.74071  Biso   1.000  O
  O96      1.0000 0.84614  0.82310  0.74071  Biso   1.000  O
  H1970    1.0000 0.88861  0.68212  0.82650  Biso   1.000  H
  C1622    1.0000 0.81600  0.70624  0.84663  Biso   1.000  C
  H1971    1.0000 0.88861  0.68208  0.82650  Biso   1.000  H
  C1623    1.0000 0.81600  0.70620  0.84663  Biso   1.000  C
  H1972    1.0000 0.88857  0.68212  0.82650  Biso   1.000  H
  H1973    1.0000 0.88857  0.68208  0.82650  Biso   1.000  H
  H1974    1.0000 0.74631  0.74270  0.85531  Biso   1.000  H
  H1975    1.0000 0.82101  0.84389  0.74051  Biso   1.000  H
  C1624    1.0000 0.80561  0.66020  0.88879  Biso   1.000  C
  C1625    1.0000 0.80557  0.66020  0.88879  Biso   1.000  C
  C1626    1.0000 0.82551  0.61269  0.86539  Biso   1.000  C
  C1627    1.0000 0.84009  0.68270  0.93799  Biso   1.000  C
  C1628    1.0000 0.74941  0.66179  0.90338  Biso   1.000  C
  C1629    1.0000 0.74937  0.66179  0.90338  Biso   1.000  C
  H1976    1.0000 0.86212  0.61742  0.85628  Biso   1.000  H
  H1977    1.0000 0.80561  0.60470  0.83390  Biso   1.000  H
  H1978    1.0000 0.82221  0.58411  0.89019  Biso   1.000  H
  H1979    1.0000 0.86212  0.61738  0.85628  Biso   1.000  H
  H1980    1.0000 0.86208  0.61742  0.85628  Biso   1.000  H
  H1981    1.0000 0.80557  0.60470  0.83390  Biso   1.000  H
  H1982    1.0000 0.82217  0.58411  0.89019  Biso   1.000  H
  H1983    1.0000 0.86208  0.61738  0.85628  Biso   1.000  H
  H1984    1.0000 0.82500  0.71539  0.95010  Biso   1.000  H
  H1985    1.0000 0.87581  0.68859  0.92658  Biso   1.000  H
  H1986    1.0000 0.83982  0.65741  0.96648  Biso   1.000  H
  H1987    1.0000 0.83982  0.65737  0.96648  Biso   1.000  H
  H1988    1.0000 0.87577  0.68859  0.92658  Biso   1.000  H
  H1989    1.0000 0.83978  0.65741  0.96648  Biso   1.000  H
  H1990    1.0000 0.83978  0.65737  0.96648  Biso   1.000  H
  H1991    1.0000 0.74080  0.69631  0.91689  Biso   1.000  H
  H1992    1.0000 0.74250  0.63569  0.93028  Biso   1.000  H
  H1993    1.0000 0.72812  0.65450  0.87271  Biso   1.000  H
  H1994    1.0000 0.74080  0.69627  0.91689  Biso   1.000  H
  H1995    1.0000 0.72808  0.65450  0.87271  Biso   1.000  H
  O97      1.0000 0.10953  0.21378  0.26918  Biso   1.000  O
  C1630    1.0000 0.13920  0.23469  0.23099  Biso   1.000  C
  H1996    1.0000 0.08269  0.23209  0.27121  Biso   1.000  H
  C1631    1.0000 0.18760  0.21223  0.22309  Biso   1.000  C
  C1632    1.0000 0.18760  0.21219  0.22309  Biso   1.000  C
  C1633    1.0000 0.18757  0.21223  0.22309  Biso   1.000  C
  C1634    1.0000 0.18757  0.21219  0.22309  Biso   1.000  C
  C1635    1.0000 0.12450  0.27778  0.20199  Biso   1.000  C
  C1636    1.0000 0.12446  0.27778  0.20199  Biso   1.000  C
  C1637    1.0000 0.22119  0.23279  0.18619  Biso   1.000  C
  C1638    1.0000 0.20269  0.16759  0.25439  Biso   1.000  C
  C1639    1.0000 0.15809  0.29830  0.16509  Biso   1.000  C
  C1640    1.0000 0.07788  0.30501  0.20799  Biso   1.000  C
  C1641    1.0000 0.07788  0.30497  0.20799  Biso   1.000  C
  C1642    1.0000 0.20649  0.27580  0.15719  Biso   1.000  C
  H1997    1.0000 0.25431  0.21739  0.18082  Biso   1.000  H
  C1643    1.0000 0.20649  0.27576  0.15719  Biso   1.000  C
  C1644    1.0000 0.20645  0.27580  0.15719  Biso   1.000  C
  H1998    1.0000 0.25428  0.21739  0.18082  Biso   1.000  H
  C1645    1.0000 0.20645  0.27576  0.15719  Biso   1.000  C
  N174     1.0000 0.24470  0.14339  0.24820  Biso   1.000  N
  H1999    1.0000 0.17969  0.15611  0.28090  Biso   1.000  H
  H2000    1.0000 0.17969  0.15607  0.28090  Biso   1.000  H
  H2001    1.0000 0.14808  0.32770  0.14520  Biso   1.000  H
  N175     1.0000 0.04259  0.28360  0.24438  Biso   1.000  N
  H2002    1.0000 0.07051  0.33569  0.18899  Biso   1.000  H
  H2003    1.0000 0.07047  0.33569  0.18899  Biso   1.000  H
  C1646    1.0000 0.24291  0.29900  0.11289  Biso   1.000  C
  C1647    1.0000 0.24287  0.29900  0.11289  Biso   1.000  C
  C1648    1.0000 0.25261  0.09440  0.28008  Biso   1.000  C
  C1649    1.0000 0.25261  0.09436  0.28008  Biso   1.000  C
  C1650    1.0000 0.25257  0.09440  0.28008  Biso   1.000  C
  C1651    1.0000 0.25257  0.09436  0.28008  Biso   1.000  C
  C1652    1.0000 0.99011  0.30528  0.24820  Biso   1.000  C
  C1653    1.0000 0.99007  0.30528  0.24820  Biso   1.000  C
  C1654    1.0000 0.29279  0.26180  0.11219  Biso   1.000  C
  C1655    1.0000 0.25191  0.35589  0.12091  Biso   1.000  C
  C1656    1.0000 0.21770  0.29349  0.06322  Biso   1.000  C
  C1657    1.0000 0.29279  0.26176  0.11219  Biso   1.000  C
  C1658    1.0000 0.25187  0.35589  0.12091  Biso   1.000  C
  C1659    1.0000 0.21766  0.29349  0.06322  Biso   1.000  C
  C1660    1.0000 0.26378  0.04910  0.24411  Biso   1.000  C
  H2004    1.0000 0.22119  0.08711  0.30180  Biso   1.000  H
  C1661    1.0000 0.30008  0.10321  0.31500  Biso   1.000  C
  H2005    1.0000 0.22119  0.08707  0.30180  Biso   1.000  H
  C1662    1.0000 0.30008  0.10317  0.31500  Biso   1.000  C
  C1663    1.0000 0.94911  0.26890  0.23718  Biso   1.000  C
  H2006    1.0000 0.98720  0.33518  0.22360  Biso   1.000  H
  C1664    1.0000 0.98790  0.32521  0.30250  Biso   1.000  C
  C1665    1.0000 0.98790  0.32518  0.30250  Biso   1.000  C
  C1666    1.0000 0.94907  0.26890  0.23718  Biso   1.000  C
  H2007    1.0000 0.28189  0.22608  0.10518  Biso   1.000  H
  H2008    1.0000 0.31680  0.27328  0.08490  Biso   1.000  H
  H2009    1.0000 0.31028  0.26339  0.14609  Biso   1.000  H
  H2010    1.0000 0.21840  0.37401  0.12180  Biso   1.000  H
  H2011    1.0000 0.27010  0.36140  0.15392  Biso   1.000  H
  H2012    1.0000 0.27289  0.36951  0.09222  Biso   1.000  H
  H2013    1.0000 0.21840  0.37397  0.12180  Biso   1.000  H
  H2014    1.0000 0.27010  0.36136  0.15392  Biso   1.000  H
  H2015    1.0000 0.27289  0.36947  0.09222  Biso   1.000  H
  H2016    1.0000 0.27006  0.36140  0.15392  Biso   1.000  H
  H2017    1.0000 0.27006  0.36136  0.15392  Biso   1.000  H
  H2018    1.0000 0.21049  0.25680  0.05660  Biso   1.000  H
  H2019    1.0000 0.18508  0.31300  0.06341  Biso   1.000  H
  H2020    1.0000 0.24039  0.30710  0.03581  Biso   1.000  H
  H2021    1.0000 0.24039  0.30706  0.03581  Biso   1.000  H
  C1667    1.0000 0.27251  0.99961  0.27560  Biso   1.000  C
  C1668    1.0000 0.27251  0.99957  0.27560  Biso   1.000  C
  C1669    1.0000 0.27247  0.99961  0.27560  Biso   1.000  C
  C1670    1.0000 0.27247  0.99957  0.27560  Biso   1.000  C
  H2022    1.0000 0.23430  0.04398  0.22002  Biso   1.000  H
  H2023    1.0000 0.29508  0.05670  0.22301  Biso   1.000  H
  H2024    1.0000 0.29508  0.05667  0.22301  Biso   1.000  H
  H2025    1.0000 0.23426  0.04398  0.22002  Biso   1.000  H
  C1671    1.0000 0.30908  0.05779  0.34630  Biso   1.000  C
  H2026    1.0000 0.29419  0.13362  0.33781  Biso   1.000  H
  H2027    1.0000 0.33088  0.11031  0.29320  Biso   1.000  H
  H2028    1.0000 0.29419  0.13358  0.33781  Biso   1.000  H
  H2029    1.0000 0.33088  0.11027  0.29320  Biso   1.000  H
  C1672    1.0000 0.89559  0.28759  0.24738  Biso   1.000  C
  H2030    1.0000 0.95152  0.25870  0.20009  Biso   1.000  H
  H2031    1.0000 0.95501  0.23729  0.25828  Biso   1.000  H
  H2032    1.0000 0.95148  0.25870  0.20009  Biso   1.000  H
  H2033    1.0000 0.95497  0.23729  0.25828  Biso   1.000  H
  H2034    1.0000 0.01470  0.35229  0.30690  Biso   1.000  H
  H2035    1.0000 0.99608  0.29651  0.32679  Biso   1.000  H
  C1673    1.0000 0.93081  0.34961  0.31768  Biso   1.000  C
  H2036    1.0000 0.99608  0.29647  0.32679  Biso   1.000  H
  C1674    1.0000 0.93081  0.34957  0.31768  Biso   1.000  C
  C1675    1.0000 0.93077  0.34961  0.31768  Biso   1.000  C
  C1676    1.0000 0.93077  0.34957  0.31768  Biso   1.000  C
  H2037    1.0000 0.24280  0.99391  0.29989  Biso   1.000  H
  N176     1.0000 0.28131  0.95330  0.24481  Biso   1.000  N
  H2038    1.0000 0.24280  0.99387  0.29989  Biso   1.000  H
  N177     1.0000 0.28127  0.95330  0.24481  Biso   1.000  N
  C1677    1.0000 0.32611  0.00939  0.30920  Biso   1.000  C
  C1678    1.0000 0.32607  0.00939  0.30920  Biso   1.000  C
  H2039    1.0000 0.27720  0.04879  0.36650  Biso   1.000  H
  N178     1.0000 0.35461  0.06392  0.38250  Biso   1.000  N
  N179     1.0000 0.35461  0.06388  0.38250  Biso   1.000  N
  N180     1.0000 0.35457  0.06392  0.38250  Biso   1.000  N
  N181     1.0000 0.35457  0.06388  0.38250  Biso   1.000  N
  H2040    1.0000 0.88791  0.31598  0.22200  Biso   1.000  H
  C1679    1.0000 0.88822  0.30931  0.30180  Biso   1.000  C
  N182     1.0000 0.85851  0.24683  0.23909  Biso   1.000  N
  C1680    1.0000 0.88822  0.30927  0.30180  Biso   1.000  C
  H2041    1.0000 0.88787  0.31598  0.22200  Biso   1.000  H
  C1681    1.0000 0.88818  0.30931  0.30180  Biso   1.000  C
  N183     1.0000 0.85847  0.24683  0.23909  Biso   1.000  N
  C1682    1.0000 0.88818  0.30927  0.30180  Biso   1.000  C
  H2042    1.0000 0.92542  0.38219  0.29729  Biso   1.000  H
  N184     1.0000 0.93112  0.36229  0.37218  Biso   1.000  N
  H2043    1.0000 0.92538  0.38219  0.29729  Biso   1.000  H
  N185     1.0000 0.93108  0.36229  0.37218  Biso   1.000  N
  C1683    1.0000 0.25338  0.92030  0.24559  Biso   1.000  C
  H2044    1.0000 0.35539  0.01889  0.28619  Biso   1.000  H
  H2045    1.0000 0.33561  0.97851  0.32999  Biso   1.000  H
  H2046    1.0000 0.33561  0.97847  0.32999  Biso   1.000  H
  H2047    1.0000 0.33557  0.97851  0.32999  Biso   1.000  H
  H2048    1.0000 0.33557  0.97847  0.32999  Biso   1.000  H
  C1684    1.0000 0.34701  0.06419  0.43291  Biso   1.000  C
  C1685    1.0000 0.34697  0.06419  0.43291  Biso   1.000  C
  H2049    1.0000 0.85370  0.32618  0.30390  Biso   1.000  H
  H2050    1.0000 0.88849  0.28030  0.32710  Biso   1.000  H
  H2051    1.0000 0.88849  0.28026  0.32710  Biso   1.000  H
  C1686    1.0000 0.82240  0.25338  0.20919  Biso   1.000  C
  C1687    1.0000 0.92138  0.40841  0.38530  Biso   1.000  C
  C1688    1.0000 0.92138  0.40837  0.38530  Biso   1.000  C
  C1689    1.0000 0.25331  0.87216  0.21624  Biso   1.000  C
  H2052    1.0000 0.22530  0.92421  0.26918  Biso   1.000  H
  H2053    1.0000 0.22530  0.92417  0.26918  Biso   1.000  H
  C1690    1.0000 0.25327  0.87216  0.21624  Biso   1.000  C
  H2054    1.0000 0.22526  0.92421  0.26918  Biso   1.000  H
  H2055    1.0000 0.22526  0.92417  0.26918  Biso   1.000  H
  C1691    1.0000 0.39088  0.06970  0.46790  Biso   1.000  C
  H2056    1.0000 0.31288  0.06082  0.44649  Biso   1.000  H
  H2057    1.0000 0.31288  0.06078  0.44649  Biso   1.000  H
  H2058    1.0000 0.81930  0.28569  0.19160  Biso   1.000  H
  C1692    1.0000 0.78265  0.21227  0.19911  Biso   1.000  C
  C1693    1.0000 0.91952  0.41791  0.44311  Biso   1.000  C
  H2059    1.0000 0.91572  0.43521  0.36058  Biso   1.000  H
  C1694    1.0000 0.91952  0.41787  0.44311  Biso   1.000  C
  H2060    1.0000 0.91572  0.43517  0.36058  Biso   1.000  H
  C1695    1.0000 0.91948  0.41791  0.44311  Biso   1.000  C
  H2061    1.0000 0.91568  0.43521  0.36058  Biso   1.000  H
  C1696    1.0000 0.91948  0.41787  0.44311  Biso   1.000  C
  H2062    1.0000 0.91568  0.43517  0.36058  Biso   1.000  H
  C1697    1.0000 0.21580  0.83462  0.22578  Biso   1.000  C
  C1698    1.0000 0.29229  0.86286  0.18000  Biso   1.000  C
  C1699    1.0000 0.21580  0.83458  0.22578  Biso   1.000  C
  C1700    1.0000 0.21576  0.83462  0.22578  Biso   1.000  C
  C1701    1.0000 0.29225  0.86286  0.18000  Biso   1.000  C
  C1702    1.0000 0.21576  0.83458  0.22578  Biso   1.000  C
  C1703    1.0000 0.37893  0.07160  0.52061  Biso   1.000  C
  C1704    1.0000 0.44180  0.07660  0.45148  Biso   1.000  C
  C1705    1.0000 0.37889  0.07160  0.52061  Biso   1.000  C
  C1706    1.0000 0.44176  0.07660  0.45148  Biso   1.000  C
  C1707    1.0000 0.78420  0.16538  0.22578  Biso   1.000  C
  C1708    1.0000 0.74371  0.22158  0.16291  Biso   1.000  C
  C1709    1.0000 0.92840  0.37893  0.47939  Biso   1.000  C
  C1710    1.0000 0.91269  0.46880  0.45950  Biso   1.000  C
  C1711    1.0000 0.92840  0.37889  0.47939  Biso   1.000  C
  C1712    1.0000 0.91269  0.46876  0.45950  Biso   1.000  C
  C1713    1.0000 0.21735  0.78773  0.19911  Biso   1.000  C
  O98      1.0000 0.17686  0.84614  0.25929  Biso   1.000  O
  C1714    1.0000 0.21735  0.78769  0.19911  Biso   1.000  C
  C1715    1.0000 0.21731  0.78773  0.19911  Biso   1.000  C
  C1716    1.0000 0.21731  0.78769  0.19911  Biso   1.000  C
  H2063    1.0000 0.31788  0.88861  0.17350  Biso   1.000  H
  C1717    1.0000 0.29376  0.81600  0.15337  Biso   1.000  C
  H2064    1.0000 0.31788  0.88857  0.17350  Biso   1.000  H
  C1718    1.0000 0.41791  0.08048  0.55689  Biso   1.000  C
  O99      1.0000 0.32673  0.06376  0.53381  Biso   1.000  O
  O100     1.0000 0.32673  0.06372  0.53381  Biso   1.000  O
  C1719    1.0000 0.41787  0.08048  0.55689  Biso   1.000  C
  C1720    1.0000 0.48074  0.08541  0.48780  Biso   1.000  C
  H2065    1.0000 0.44999  0.07520  0.41551  Biso   1.000  H
  C1721    1.0000 0.48074  0.08537  0.48780  Biso   1.000  C
  H2066    1.0000 0.44999  0.07517  0.41551  Biso   1.000  H
  C1722    1.0000 0.74669  0.12784  0.21624  Biso   1.000  C
  O101     1.0000 0.82314  0.15386  0.25929  Biso   1.000  O
  C1723    1.0000 0.74669  0.12780  0.21624  Biso   1.000  C
  O102     1.0000 0.82314  0.15382  0.25929  Biso   1.000  O
  O103     1.0000 0.82310  0.15386  0.25929  Biso   1.000  O
  O104     1.0000 0.82310  0.15382  0.25929  Biso   1.000  O
  C1724    1.0000 0.70624  0.18400  0.15337  Biso   1.000  C
  H2067    1.0000 0.74270  0.25369  0.14469  Biso   1.000  H
  C1725    1.0000 0.70620  0.18400  0.15337  Biso   1.000  C
  C1726    1.0000 0.93030  0.39088  0.53210  Biso   1.000  C
  O105     1.0000 0.93624  0.32673  0.46619  Biso   1.000  O
  H2068    1.0000 0.90661  0.49540  0.43458  Biso   1.000  H
  C1727    1.0000 0.91459  0.48074  0.51220  Biso   1.000  C
  H2069    1.0000 0.90661  0.49537  0.43458  Biso   1.000  H
  C1728    1.0000 0.17760  0.74662  0.20919  Biso   1.000  C
  C1729    1.0000 0.25629  0.77842  0.16291  Biso   1.000  C
  C1730    1.0000 0.17760  0.74658  0.20919  Biso   1.000  C
  C1731    1.0000 0.25629  0.77838  0.16291  Biso   1.000  C
  H2070    1.0000 0.15611  0.82101  0.25949  Biso   1.000  H
  H2071    1.0000 0.15607  0.82101  0.25949  Biso   1.000  H
  C1732    1.0000 0.33980  0.80561  0.11121  Biso   1.000  C
  C1733    1.0000 0.33980  0.80557  0.11121  Biso   1.000  C
  C1734    1.0000 0.40841  0.07862  0.61470  Biso   1.000  C
  C1735    1.0000 0.46880  0.08731  0.54050  Biso   1.000  C
  C1736    1.0000 0.40841  0.07858  0.61470  Biso   1.000  C
  C1737    1.0000 0.46880  0.08727  0.54050  Biso   1.000  C
  C1738    1.0000 0.40837  0.07862  0.61470  Biso   1.000  C
  C1739    1.0000 0.46876  0.08731  0.54050  Biso   1.000  C
  C1740    1.0000 0.40837  0.07858  0.61470  Biso   1.000  C
  C1741    1.0000 0.46876  0.08727  0.54050  Biso   1.000  C
  H2072    1.0000 0.32471  0.04720  0.56180  Biso   1.000  H
  H2073    1.0000 0.32467  0.04720  0.56180  Biso   1.000  H
  C1742    1.0000 0.53621  0.09188  0.46670  Biso   1.000  C
  C1743    1.0000 0.53617  0.09188  0.46670  Biso   1.000  C
  C1744    1.0000 0.70771  0.13714  0.18000  Biso   1.000  C
  C1745    1.0000 0.74662  0.07970  0.24559  Biso   1.000  C
  C1746    1.0000 0.70771  0.13711  0.18000  Biso   1.000  C
  C1747    1.0000 0.74662  0.07966  0.24559  Biso   1.000  C
  C1748    1.0000 0.74658  0.07970  0.24559  Biso   1.000  C
  C1749    1.0000 0.74658  0.07966  0.24559  Biso   1.000  C
  H2074    1.0000 0.84389  0.17899  0.25949  Biso   1.000  H
  C1750    1.0000 0.66020  0.19439  0.11121  Biso   1.000  C
  C1751    1.0000 0.93581  0.34701  0.56709  Biso   1.000  C
  C1752    1.0000 0.92340  0.44180  0.54848  Biso   1.000  C
  C1753    1.0000 0.93581  0.34697  0.56709  Biso   1.000  C
  C1754    1.0000 0.92340  0.44176  0.54848  Biso   1.000  C
  C1755    1.0000 0.93577  0.34701  0.56709  Biso   1.000  C
  C1756    1.0000 0.93577  0.34697  0.56709  Biso   1.000  C
  H2075    1.0000 0.95280  0.32471  0.43820  Biso   1.000  H
  H2076    1.0000 0.95280  0.32467  0.43820  Biso   1.000  H
  C1757    1.0000 0.90812  0.53621  0.53330  Biso   1.000  C
  C1758    1.0000 0.90812  0.53617  0.53330  Biso   1.000  C
  C1759    1.0000 0.90808  0.53621  0.53330  Biso   1.000  C
  C1760    1.0000 0.90808  0.53617  0.53330  Biso   1.000  C
  H2077    1.0000 0.18070  0.71431  0.19160  Biso   1.000  H
  N186     1.0000 0.14149  0.75317  0.23909  Biso   1.000  N
  H2078    1.0000 0.25730  0.74631  0.14469  Biso   1.000  H
  H2079    1.0000 0.25726  0.74631  0.14469  Biso   1.000  H
  C1761    1.0000 0.38731  0.82551  0.13461  Biso   1.000  C
  C1762    1.0000 0.31730  0.84009  0.06201  Biso   1.000  C
  C1763    1.0000 0.33821  0.74941  0.09662  Biso   1.000  C
  C1764    1.0000 0.33821  0.74937  0.09662  Biso   1.000  C
  C1765    1.0000 0.38727  0.82551  0.13461  Biso   1.000  C
  C1766    1.0000 0.31726  0.84009  0.06201  Biso   1.000  C
  C1767    1.0000 0.33817  0.74941  0.09662  Biso   1.000  C
  C1768    1.0000 0.33817  0.74937  0.09662  Biso   1.000  C
  N187     1.0000 0.36229  0.06888  0.62778  Biso   1.000  N
  H2080    1.0000 0.43521  0.08428  0.63938  Biso   1.000  H
  H2081    1.0000 0.43517  0.08428  0.63938  Biso   1.000  H
  H2082    1.0000 0.49540  0.09339  0.56538  Biso   1.000  H
  H2083    1.0000 0.49537  0.09339  0.56538  Biso   1.000  H
  C1769    1.0000 0.55471  0.08091  0.41461  Biso   1.000  C
  C1770    1.0000 0.54901  0.15471  0.48149  Biso   1.000  C
  C1771    1.0000 0.57670  0.06570  0.50971  Biso   1.000  C
  C1772    1.0000 0.55471  0.08087  0.41461  Biso   1.000  C
  C1773    1.0000 0.54901  0.15468  0.48149  Biso   1.000  C
  C1774    1.0000 0.55467  0.08091  0.41461  Biso   1.000  C
  C1775    1.0000 0.54897  0.15471  0.48149  Biso   1.000  C
  C1776    1.0000 0.57666  0.06570  0.50971  Biso   1.000  C
  C1777    1.0000 0.55467  0.08087  0.41461  Biso   1.000  C
  C1778    1.0000 0.54897  0.15468  0.48149  Biso   1.000  C
  H2084    1.0000 0.68212  0.11139  0.17350  Biso   1.000  H
  H2085    1.0000 0.68208  0.11139  0.17350  Biso   1.000  H
  H2086    1.0000 0.77470  0.07579  0.26918  Biso   1.000  H
  N188     1.0000 0.71869  0.04670  0.24481  Biso   1.000  N
  C1779    1.0000 0.61269  0.17449  0.13461  Biso   1.000  C
  C1780    1.0000 0.68270  0.15991  0.06201  Biso   1.000  C
  C1781    1.0000 0.66179  0.25059  0.09662  Biso   1.000  C
  C1782    1.0000 0.68270  0.15987  0.06201  Biso   1.000  C
  H2087    1.0000 0.93918  0.31288  0.55351  Biso   1.000  H
  N189     1.0000 0.93608  0.35461  0.61750  Biso   1.000  N
  N190     1.0000 0.93608  0.35457  0.61750  Biso   1.000  N
  H2088    1.0000 0.92480  0.44999  0.58449  Biso   1.000  H
  C1783    1.0000 0.91909  0.55471  0.58539  Biso   1.000  C
  C1784    1.0000 0.84529  0.54901  0.51851  Biso   1.000  C
  C1785    1.0000 0.93430  0.57670  0.49029  Biso   1.000  C
  C1786    1.0000 0.91909  0.55467  0.58539  Biso   1.000  C
  C1787    1.0000 0.84529  0.54897  0.51851  Biso   1.000  C
  C1788    1.0000 0.93430  0.57666  0.49029  Biso   1.000  C
  C1789    1.0000 0.10441  0.71241  0.24738  Biso   1.000  C
  C1790    1.0000 0.10437  0.71241  0.24738  Biso   1.000  C
  H2089    1.0000 0.38258  0.86212  0.14368  Biso   1.000  H
  H2090    1.0000 0.39530  0.80561  0.16610  Biso   1.000  H
  H2091    1.0000 0.41589  0.82221  0.10981  Biso   1.000  H
  H2092    1.0000 0.38258  0.86208  0.14368  Biso   1.000  H
  H2093    1.0000 0.39530  0.80557  0.16610  Biso   1.000  H
  H2094    1.0000 0.41589  0.82217  0.10981  Biso   1.000  H
  H2095    1.0000 0.39526  0.80561  0.16610  Biso   1.000  H
  H2096    1.0000 0.39526  0.80557  0.16610  Biso   1.000  H
  H2097    1.0000 0.28461  0.82500  0.04990  Biso   1.000  H
  H2098    1.0000 0.31141  0.87581  0.07342  Biso   1.000  H
  H2099    1.0000 0.34259  0.83982  0.03352  Biso   1.000  H
  H2100    1.0000 0.31141  0.87577  0.07342  Biso   1.000  H
  H2101    1.0000 0.34259  0.83978  0.03352  Biso   1.000  H
  H2102    1.0000 0.28457  0.82500  0.04990  Biso   1.000  H
  H2103    1.0000 0.31137  0.87581  0.07342  Biso   1.000  H
  H2104    1.0000 0.31137  0.87577  0.07342  Biso   1.000  H
  H2105    1.0000 0.30369  0.74080  0.08311  Biso   1.000  H
  H2106    1.0000 0.36431  0.74250  0.06972  Biso   1.000  H
  H2107    1.0000 0.34550  0.72812  0.12729  Biso   1.000  H
  H2108    1.0000 0.34550  0.72808  0.12729  Biso   1.000  H
  H2109    1.0000 0.36427  0.74250  0.06972  Biso   1.000  H
  H2110    1.0000 0.34546  0.72812  0.12729  Biso   1.000  H
  H2111    1.0000 0.34546  0.72808  0.12729  Biso   1.000  H
  C1791    1.0000 0.34961  0.06919  0.68228  Biso   1.000  C
  C1792    1.0000 0.34957  0.06919  0.68228  Biso   1.000  C
  H2112    1.0000 0.54858  0.04429  0.40648  Biso   1.000  H
  H2113    1.0000 0.59190  0.08831  0.41259  Biso   1.000  H
  H2114    1.0000 0.53609  0.10270  0.38958  Biso   1.000  H
  H2115    1.0000 0.59190  0.08828  0.41259  Biso   1.000  H
  H2116    1.0000 0.53609  0.10266  0.38958  Biso   1.000  H
  H2117    1.0000 0.59186  0.08831  0.41259  Biso   1.000  H
  H2118    1.0000 0.59186  0.08828  0.41259  Biso   1.000  H
  H2119    1.0000 0.54629  0.15968  0.51921  Biso   1.000  H
  H2120    1.0000 0.58411  0.16348  0.47001  Biso   1.000  H
  H2121    1.0000 0.52391  0.17721  0.46378  Biso   1.000  H
  H2122    1.0000 0.52391  0.17717  0.46378  Biso   1.000  H
  H2123    1.0000 0.58407  0.16348  0.47001  Biso   1.000  H
  H2124    1.0000 0.52387  0.17721  0.46378  Biso   1.000  H
  H2125    1.0000 0.52387  0.17717  0.46378  Biso   1.000  H
  H2126    1.0000 0.56809  0.02890  0.51450  Biso   1.000  H
  H2127    1.0000 0.61238  0.06881  0.49691  Biso   1.000  H
  H2128    1.0000 0.57348  0.08381  0.54300  Biso   1.000  H
  H2129    1.0000 0.61238  0.06877  0.49691  Biso   1.000  H
  H2130    1.0000 0.57348  0.08378  0.54300  Biso   1.000  H
  C1793    1.0000 0.72749  0.00039  0.27560  Biso   1.000  C
  H2131    1.0000 0.61742  0.13788  0.14368  Biso   1.000  H
  H2132    1.0000 0.60470  0.19439  0.16610  Biso   1.000  H
  H2133    1.0000 0.58411  0.17779  0.10981  Biso   1.000  H
  H2134    1.0000 0.61738  0.13788  0.14368  Biso   1.000  H
  H2135    1.0000 0.71539  0.17500  0.04990  Biso   1.000  H
  H2136    1.0000 0.68859  0.12419  0.07342  Biso   1.000  H
  H2137    1.0000 0.65741  0.16018  0.03352  Biso   1.000  H
  H2138    1.0000 0.65737  0.16018  0.03352  Biso   1.000  H
  H2139    1.0000 0.69631  0.25920  0.08311  Biso   1.000  H
  H2140    1.0000 0.63569  0.25750  0.06972  Biso   1.000  H
  H2141    1.0000 0.65450  0.27188  0.12729  Biso   1.000  H
  H2142    1.0000 0.69631  0.25916  0.08311  Biso   1.000  H
  H2143    1.0000 0.69627  0.25920  0.08311  Biso   1.000  H
  H2144    1.0000 0.69627  0.25916  0.08311  Biso   1.000  H
  C1794    1.0000 0.94221  0.30908  0.65370  Biso   1.000  C
  C1795    1.0000 0.94217  0.30908  0.65370  Biso   1.000  C
  H2145    1.0000 0.91169  0.59190  0.58741  Biso   1.000  H
  H2146    1.0000 0.95571  0.54858  0.59348  Biso   1.000  H
  H2147    1.0000 0.89730  0.53609  0.61038  Biso   1.000  H
  H2148    1.0000 0.91169  0.59186  0.58741  Biso   1.000  H
  H2149    1.0000 0.95567  0.54858  0.59348  Biso   1.000  H
  H2150    1.0000 0.83652  0.58411  0.52999  Biso   1.000  H
  H2151    1.0000 0.82279  0.52391  0.53618  Biso   1.000  H
  H2152    1.0000 0.84032  0.54629  0.48079  Biso   1.000  H
  H2153    1.0000 0.83652  0.58407  0.52999  Biso   1.000  H
  H2154    1.0000 0.82279  0.52387  0.53618  Biso   1.000  H
  H2155    1.0000 0.83648  0.58411  0.52999  Biso   1.000  H
  H2156    1.0000 0.84028  0.54629  0.48079  Biso   1.000  H
  H2157    1.0000 0.83648  0.58407  0.52999  Biso   1.000  H
  H2158    1.0000 0.93119  0.61238  0.50309  Biso   1.000  H
  H2159    1.0000 0.91619  0.57348  0.45700  Biso   1.000  H
  H2160    1.0000 0.97110  0.56809  0.48550  Biso   1.000  H
  H2161    1.0000 0.97107  0.56809  0.48550  Biso   1.000  H
  H2162    1.0000 0.11209  0.68402  0.22200  Biso   1.000  H
  C1796    1.0000 0.05089  0.73110  0.23718  Biso   1.000  C
  C1797    1.0000 0.11178  0.69069  0.30180  Biso   1.000  C
  H2163    1.0000 0.11209  0.68398  0.22200  Biso   1.000  H
  H2164    1.0000 0.38219  0.07458  0.70271  Biso   1.000  H
  C1798    1.0000 0.32521  0.01210  0.69750  Biso   1.000  C
  C1799    1.0000 0.30931  0.11178  0.69820  Biso   1.000  C
  C1800    1.0000 0.32518  0.01210  0.69750  Biso   1.000  C
  C1801    1.0000 0.30927  0.11178  0.69820  Biso   1.000  C
  C1802    1.0000 0.73622  0.95090  0.24411  Biso   1.000  C
  C1803    1.0000 0.67389  0.99061  0.30920  Biso   1.000  C
  C1804    1.0000 0.67389  0.99058  0.30920  Biso   1.000  C
  C1805    1.0000 0.73618  0.95090  0.24411  Biso   1.000  C
  H2165    1.0000 0.75720  0.00609  0.29989  Biso   1.000  H
  C1806    1.0000 0.89679  0.30008  0.68500  Biso   1.000  C
  H2166    1.0000 0.95121  0.27720  0.63350  Biso   1.000  H
  C1807    1.0000 0.99061  0.32611  0.69080  Biso   1.000  C
  C1808    1.0000 0.99061  0.32607  0.69080  Biso   1.000  C
  H2167    1.0000 0.95117  0.27720  0.63350  Biso   1.000  H
  C1809    1.0000 0.99058  0.32611  0.69080  Biso   1.000  C
  C1810    1.0000 0.99058  0.32607  0.69080  Biso   1.000  C
  H2168    1.0000 0.04848  0.74130  0.20009  Biso   1.000  H
  H2169    1.0000 0.04499  0.76271  0.25828  Biso   1.000  H
  C1811    1.0000 0.00989  0.69472  0.24820  Biso   1.000  C
  H2170    1.0000 0.04499  0.76267  0.25828  Biso   1.000  H
  C1812    1.0000 0.00989  0.69468  0.24820  Biso   1.000  C
  C1813    1.0000 0.06919  0.65039  0.31768  Biso   1.000  C
  H2171    1.0000 0.14630  0.67382  0.30390  Biso   1.000  H
  H2172    1.0000 0.11151  0.71970  0.32710  Biso   1.000  H
  H2173    1.0000 0.14630  0.67378  0.30390  Biso   1.000  H
  H2174    1.0000 0.11147  0.71970  0.32710  Biso   1.000  H
  C1814    1.0000 0.30528  0.00989  0.75180  Biso   1.000  C
  H2175    1.0000 0.35229  0.98530  0.69310  Biso   1.000  H
  H2176    1.0000 0.29651  0.00392  0.67321  Biso   1.000  H
  H2177    1.0000 0.29651  0.00388  0.67321  Biso   1.000  H
  H2178    1.0000 0.29647  0.00392  0.67321  Biso   1.000  H
  H2179    1.0000 0.29647  0.00388  0.67321  Biso   1.000  H
  H2180    1.0000 0.32618  0.14630  0.69610  Biso   1.000  H
  C1815    1.0000 0.28759  0.10441  0.75258  Biso   1.000  C
  H2181    1.0000 0.28030  0.11151  0.67290  Biso   1.000  H
  C1816    1.0000 0.28759  0.10437  0.75258  Biso   1.000  C
  H2182    1.0000 0.28030  0.11147  0.67290  Biso   1.000  H
  H2183    1.0000 0.28026  0.11151  0.67290  Biso   1.000  H
  H2184    1.0000 0.28026  0.11147  0.67290  Biso   1.000  H
  H2185    1.0000 0.76570  0.95602  0.22002  Biso   1.000  H
  H2186    1.0000 0.70492  0.94330  0.22301  Biso   1.000  H
  C1817    1.0000 0.74739  0.90560  0.28008  Biso   1.000  C
  H2187    1.0000 0.76570  0.95598  0.22002  Biso   1.000  H
  H2188    1.0000 0.70488  0.94330  0.22301  Biso   1.000  H
  C1818    1.0000 0.69092  0.94221  0.34630  Biso   1.000  C
  H2189    1.0000 0.64461  0.98111  0.28619  Biso   1.000  H
  C1819    1.0000 0.69092  0.94217  0.34630  Biso   1.000  C
  H2190    1.0000 0.64461  0.98107  0.28619  Biso   1.000  H
  C1820    1.0000 0.69088  0.94221  0.34630  Biso   1.000  C
  H2191    1.0000 0.64457  0.98111  0.28619  Biso   1.000  H
  C1821    1.0000 0.69088  0.94217  0.34630  Biso   1.000  C
  H2192    1.0000 0.64457  0.98107  0.28619  Biso   1.000  H
  H2193    1.0000 0.66439  0.02149  0.32999  Biso   1.000  H
  C1822    1.0000 0.90560  0.25261  0.71988  Biso   1.000  C
  H2194    1.0000 0.86638  0.29419  0.66219  Biso   1.000  H
  H2195    1.0000 0.88969  0.33088  0.70680  Biso   1.000  H
  C1823    1.0000 0.90560  0.25257  0.71988  Biso   1.000  C
  H2196    1.0000 0.98111  0.35539  0.71381  Biso   1.000  H
  H2197    1.0000 0.98107  0.35539  0.71381  Biso   1.000  H
  C1824    1.0000 0.00039  0.27251  0.72440  Biso   1.000  C
  H2198    1.0000 0.02149  0.33561  0.66998  Biso   1.000  H
  C1825    1.0000 0.00039  0.27247  0.72440  Biso   1.000  C
  H2199    1.0000 0.02149  0.33557  0.66998  Biso   1.000  H
  N191     1.0000 0.95741  0.71640  0.24438  Biso   1.000  N
  N192     1.0000 0.95738  0.71640  0.24438  Biso   1.000  N
  H2200    1.0000 0.01280  0.66482  0.22360  Biso   1.000  H
  C1826    1.0000 0.01210  0.67479  0.30250  Biso   1.000  C
  H2201    1.0000 0.01280  0.66478  0.22360  Biso   1.000  H
  H2202    1.0000 0.07458  0.61781  0.29729  Biso   1.000  H
  N193     1.0000 0.06888  0.63771  0.37218  Biso   1.000  N
  H2203    1.0000 0.07458  0.61777  0.29729  Biso   1.000  H
  C1827    1.0000 0.26890  0.05089  0.76278  Biso   1.000  C
  H2204    1.0000 0.33518  0.01280  0.77640  Biso   1.000  H
  N194     1.0000 0.28360  0.95741  0.75558  Biso   1.000  N
  N195     1.0000 0.28360  0.95738  0.75558  Biso   1.000  N
  H2205    1.0000 0.31598  0.11209  0.77800  Biso   1.000  H
  N196     1.0000 0.24683  0.14149  0.76091  Biso   1.000  N
  H2206    1.0000 0.77881  0.91289  0.30180  Biso   1.000  H
  C1828    1.0000 0.69992  0.89679  0.31500  Biso   1.000  C
  N197     1.0000 0.75530  0.85661  0.24820  Biso   1.000  N
  N198     1.0000 0.75530  0.85657  0.24820  Biso   1.000  N
  H2207    1.0000 0.77877  0.91289  0.30180  Biso   1.000  H
  C1829    1.0000 0.69988  0.89679  0.31500  Biso   1.000  C
  H2208    1.0000 0.72280  0.95121  0.36650  Biso   1.000  H
  N199     1.0000 0.64539  0.93608  0.38250  Biso   1.000  N
  H2209    1.0000 0.72280  0.95117  0.36650  Biso   1.000  H
  C1830    1.0000 0.95090  0.26378  0.75589  Biso   1.000  C
  H2210    1.0000 0.91289  0.22119  0.69820  Biso   1.000  H
  N200     1.0000 0.85661  0.24470  0.75180  Biso   1.000  N
  N201     1.0000 0.85657  0.24470  0.75180  Biso   1.000  N
  H2211    1.0000 0.00609  0.24280  0.70011  Biso   1.000  H
  N202     1.0000 0.04670  0.28131  0.75519  Biso   1.000  N
  N203     1.0000 0.04670  0.28127  0.75519  Biso   1.000  N
  C1831    1.0000 0.92212  0.69499  0.20799  Biso   1.000  C
  C1832    1.0000 0.92208  0.69499  0.20799  Biso   1.000  C
  H2212    1.0000 0.98530  0.64771  0.30690  Biso   1.000  H
  H2213    1.0000 0.98530  0.64767  0.30690  Biso   1.000  H
  H2214    1.0000 0.00392  0.70349  0.32679  Biso   1.000  H
  H2215    1.0000 0.00388  0.70349  0.32679  Biso   1.000  H
  C1833    1.0000 0.07862  0.59159  0.38530  Biso   1.000  C
  C1834    1.0000 0.07858  0.59159  0.38530  Biso   1.000  C
  H2216    1.0000 0.25870  0.04848  0.79988  Biso   1.000  H
  H2217    1.0000 0.23729  0.04499  0.74168  Biso   1.000  H
  C1835    1.0000 0.30501  0.92212  0.79201  Biso   1.000  C
  C1836    1.0000 0.30501  0.92208  0.79201  Biso   1.000  C
  C1837    1.0000 0.30497  0.92212  0.79201  Biso   1.000  C
  C1838    1.0000 0.30497  0.92208  0.79201  Biso   1.000  C
  C1839    1.0000 0.25338  0.17760  0.79081  Biso   1.000  C
  H2218    1.0000 0.70581  0.86638  0.33781  Biso   1.000  H
  H2219    1.0000 0.66912  0.88969  0.29320  Biso   1.000  H
  H2220    1.0000 0.70578  0.86638  0.33781  Biso   1.000  H
  H2221    1.0000 0.66908  0.88969  0.29320  Biso   1.000  H
  C1840    1.0000 0.79731  0.83241  0.25439  Biso   1.000  C
  C1841    1.0000 0.79731  0.83237  0.25439  Biso   1.000  C
  C1842    1.0000 0.79727  0.83241  0.25439  Biso   1.000  C
  C1843    1.0000 0.79727  0.83237  0.25439  Biso   1.000  C
  C1844    1.0000 0.65299  0.93581  0.43291  Biso   1.000  C
  C1845    1.0000 0.65299  0.93577  0.43291  Biso   1.000  C
  H2222    1.0000 0.95602  0.23430  0.77998  Biso   1.000  H
  H2223    1.0000 0.94330  0.29508  0.77699  Biso   1.000  H
  H2224    1.0000 0.95602  0.23426  0.77998  Biso   1.000  H
  H2225    1.0000 0.95598  0.23430  0.77998  Biso   1.000  H
  H2226    1.0000 0.95598  0.23426  0.77998  Biso   1.000  H
  C1846    1.0000 0.83241  0.20269  0.74561  Biso   1.000  C
  C1847    1.0000 0.83237  0.20269  0.74561  Biso   1.000  C
  C1848    1.0000 0.07970  0.25338  0.75441  Biso   1.000  C
  C1849    1.0000 0.07966  0.25338  0.75441  Biso   1.000  C
  C1850    1.0000 0.87550  0.72222  0.20199  Biso   1.000  C
  H2227    1.0000 0.92949  0.66431  0.18899  Biso   1.000  H
  C1851    1.0000 0.87550  0.72218  0.20199  Biso   1.000  C
  H2228    1.0000 0.92949  0.66427  0.18899  Biso   1.000  H
  C1852    1.0000 0.08048  0.58209  0.44311  Biso   1.000  C
  H2229    1.0000 0.08428  0.56479  0.36058  Biso   1.000  H
  H2230    1.0000 0.33569  0.92949  0.81101  Biso   1.000  H
  C1853    1.0000 0.27778  0.87550  0.79801  Biso   1.000  C
  H2231    1.0000 0.28569  0.18070  0.80840  Biso   1.000  H
  C1854    1.0000 0.21227  0.21735  0.80089  Biso   1.000  C
  C1855    1.0000 0.21227  0.21731  0.80089  Biso   1.000  C
  C1856    1.0000 0.81240  0.78777  0.22309  Biso   1.000  C
  H2232    1.0000 0.82031  0.84389  0.28090  Biso   1.000  H
  H2233    1.0000 0.82027  0.84389  0.28090  Biso   1.000  H
  H2234    1.0000 0.68712  0.93918  0.44649  Biso   1.000  H
  C1857    1.0000 0.60912  0.93030  0.46790  Biso   1.000  C
  H2235    1.0000 0.68708  0.93918  0.44649  Biso   1.000  H
  C1858    1.0000 0.60908  0.93030  0.46790  Biso   1.000  C
  H2236    1.0000 0.84389  0.17969  0.71910  Biso   1.000  H
  C1859    1.0000 0.78777  0.18760  0.77691  Biso   1.000  C
  C1860    1.0000 0.78777  0.18757  0.77691  Biso   1.000  C
  C1861    1.0000 0.12784  0.25331  0.78376  Biso   1.000  C
  C1862    1.0000 0.12784  0.25327  0.78376  Biso   1.000  C
  C1863    1.0000 0.12780  0.25331  0.78376  Biso   1.000  C
  C1864    1.0000 0.12780  0.25327  0.78376  Biso   1.000  C
  H2237    1.0000 0.07579  0.22530  0.73078  Biso   1.000  H
  H2238    1.0000 0.07579  0.22526  0.73078  Biso   1.000  H
  C1865    1.0000 0.86080  0.76531  0.23099  Biso   1.000  C
  C1866    1.0000 0.84191  0.70170  0.16509  Biso   1.000  C
  C1867    1.0000 0.86080  0.76527  0.23099  Biso   1.000  C
  C1868    1.0000 0.84191  0.70166  0.16509  Biso   1.000  C
  C1869    1.0000 0.86076  0.76531  0.23099  Biso   1.000  C
  C1870    1.0000 0.84187  0.70170  0.16509  Biso   1.000  C
  C1871    1.0000 0.86076  0.76527  0.23099  Biso   1.000  C
  C1872    1.0000 0.84187  0.70166  0.16509  Biso   1.000  C
  C1873    1.0000 0.07160  0.62107  0.47939  Biso   1.000  C
  C1874    1.0000 0.08731  0.53120  0.45950  Biso   1.000  C
  C1875    1.0000 0.08727  0.53120  0.45950  Biso   1.000  C
  C1876    1.0000 0.23469  0.86080  0.76901  Biso   1.000  C
  C1877    1.0000 0.29830  0.84191  0.83491  Biso   1.000  C
  C1878    1.0000 0.23469  0.86076  0.76901  Biso   1.000  C
  C1879    1.0000 0.29830  0.84187  0.83491  Biso   1.000  C
  C1880    1.0000 0.22158  0.25629  0.83705  Biso   1.000  C
  C1881    1.0000 0.16538  0.21580  0.77422  Biso   1.000  C
  C1882    1.0000 0.16538  0.21576  0.77422  Biso   1.000  C
  C1883    1.0000 0.77881  0.76721  0.18619  Biso   1.000  C
  C1884    1.0000 0.77881  0.76717  0.18619  Biso   1.000  C
  C1885    1.0000 0.77877  0.76721  0.18619  Biso   1.000  C
  C1886    1.0000 0.77877  0.76717  0.18619  Biso   1.000  C
  C1887    1.0000 0.62107  0.92840  0.52061  Biso   1.000  C
  C1888    1.0000 0.55820  0.92340  0.45148  Biso   1.000  C
  C1889    1.0000 0.76531  0.13920  0.76901  Biso   1.000  C
  C1890    1.0000 0.76721  0.22119  0.81381  Biso   1.000  C
  C1891    1.0000 0.76527  0.13920  0.76901  Biso   1.000  C
  C1892    1.0000 0.76717  0.22119  0.81381  Biso   1.000  C
  C1893    1.0000 0.13714  0.29229  0.82000  Biso   1.000  C
  C1894    1.0000 0.13714  0.29225  0.82000  Biso   1.000  C
  C1895    1.0000 0.13711  0.29229  0.82000  Biso   1.000  C
  C1896    1.0000 0.13711  0.29225  0.82000  Biso   1.000  C
  O106     1.0000 0.89047  0.78622  0.26918  Biso   1.000  O
  O107     1.0000 0.89043  0.78622  0.26918  Biso   1.000  O
  H2239    1.0000 0.85192  0.67230  0.14520  Biso   1.000  H
  C1897    1.0000 0.79351  0.72420  0.15719  Biso   1.000  C
  H2240    1.0000 0.85188  0.67230  0.14520  Biso   1.000  H
  C1898    1.0000 0.06970  0.60912  0.53210  Biso   1.000  C
  O108     1.0000 0.06376  0.67327  0.46619  Biso   1.000  O
  C1899    1.0000 0.06970  0.60908  0.53210  Biso   1.000  C
  O109     1.0000 0.06376  0.67323  0.46619  Biso   1.000  O
  O110     1.0000 0.06372  0.67327  0.46619  Biso   1.000  O
  O111     1.0000 0.06372  0.67323  0.46619  Biso   1.000  O
  H2241    1.0000 0.09339  0.50460  0.43458  Biso   1.000  H
  C1900    1.0000 0.08541  0.51926  0.51220  Biso   1.000  C
  C1901    1.0000 0.08541  0.51922  0.51220  Biso   1.000  C
  C1902    1.0000 0.08537  0.51926  0.51220  Biso   1.000  C
  C1903    1.0000 0.08537  0.51922  0.51220  Biso   1.000  C
  C1904    1.0000 0.21223  0.81240  0.77691  Biso   1.000  C
  O112     1.0000 0.21378  0.89047  0.73082  Biso   1.000  O
  O113     1.0000 0.21378  0.89043  0.73082  Biso   1.000  O
  C1905    1.0000 0.21219  0.81240  0.77691  Biso   1.000  C
  H2242    1.0000 0.32770  0.85192  0.85480  Biso   1.000  H
  C1906    1.0000 0.27580  0.79351  0.84281  Biso   1.000  C
  H2243    1.0000 0.32770  0.85188  0.85480  Biso   1.000  H
  C1907    1.0000 0.27576  0.79351  0.84281  Biso   1.000  C
  C1908    1.0000 0.18400  0.29376  0.84663  Biso   1.000  C
  H2244    1.0000 0.25369  0.25730  0.85531  Biso   1.000  H
  H2245    1.0000 0.25369  0.25726  0.85531  Biso   1.000  H
  O114     1.0000 0.15386  0.17686  0.74071  Biso   1.000  O
  O115     1.0000 0.15382  0.17686  0.74071  Biso   1.000  O
  H2246    1.0000 0.74569  0.78261  0.18082  Biso   1.000  H
  H2247    1.0000 0.74569  0.78257  0.18082  Biso   1.000  H
  C1909    1.0000 0.58209  0.91952  0.55689  Biso   1.000  C
  O116     1.0000 0.67327  0.93624  0.53381  Biso   1.000  O
  C1910    1.0000 0.58209  0.91948  0.55689  Biso   1.000  C
  O117     1.0000 0.67323  0.93624  0.53381  Biso   1.000  O
  C1911    1.0000 0.51926  0.91459  0.48780  Biso   1.000  C
  H2248    1.0000 0.55001  0.92480  0.41551  Biso   1.000  H
  C1912    1.0000 0.51922  0.91459  0.48780  Biso   1.000  C
  H2249    1.0000 0.54997  0.92480  0.41551  Biso   1.000  H
  C1913    1.0000 0.72222  0.12450  0.79801  Biso   1.000  C
  O118     1.0000 0.78622  0.10953  0.73082  Biso   1.000  O
  C1914    1.0000 0.72222  0.12446  0.79801  Biso   1.000  C
  C1915    1.0000 0.72218  0.12450  0.79801  Biso   1.000  C
  C1916    1.0000 0.72218  0.12446  0.79801  Biso   1.000  C
  C1917    1.0000 0.72420  0.20649  0.84281  Biso   1.000  C
  H2250    1.0000 0.78261  0.25431  0.81918  Biso   1.000  H
  C1918    1.0000 0.72420  0.20645  0.84281  Biso   1.000  C
  H2251    1.0000 0.78261  0.25428  0.81918  Biso   1.000  H
  H2252    1.0000 0.78257  0.25431  0.81918  Biso   1.000  H
  H2253    1.0000 0.78257  0.25428  0.81918  Biso   1.000  H
  H2254    1.0000 0.11139  0.31788  0.82650  Biso   1.000  H
  H2255    1.0000 0.91731  0.76791  0.27121  Biso   1.000  H
  H2256    1.0000 0.91731  0.76787  0.27121  Biso   1.000  H
  H2257    1.0000 0.91727  0.76791  0.27121  Biso   1.000  H
  H2258    1.0000 0.91727  0.76787  0.27121  Biso   1.000  H
  C1919    1.0000 0.75709  0.70100  0.11289  Biso   1.000  C
  C1920    1.0000 0.06419  0.65299  0.56709  Biso   1.000  C
  C1921    1.0000 0.07660  0.55820  0.54848  Biso   1.000  C
  H2259    1.0000 0.04720  0.67529  0.43820  Biso   1.000  H
  C1922    1.0000 0.09188  0.46379  0.53330  Biso   1.000  C
  C1923    1.0000 0.16759  0.79731  0.74561  Biso   1.000  C
  C1924    1.0000 0.23279  0.77881  0.81381  Biso   1.000  C
  C1925    1.0000 0.16759  0.79727  0.74561  Biso   1.000  C
  C1926    1.0000 0.23279  0.77877  0.81381  Biso   1.000  C
  H2260    1.0000 0.23209  0.91731  0.72879  Biso   1.000  H
  H2261    1.0000 0.23209  0.91727  0.72879  Biso   1.000  H
  C1927    1.0000 0.29900  0.75709  0.88711  Biso   1.000  C
  C1928    1.0000 0.19439  0.33980  0.88879  Biso   1.000  C
  H2262    1.0000 0.17899  0.15611  0.74051  Biso   1.000  H
  H2263    1.0000 0.17899  0.15607  0.74051  Biso   1.000  H
  C1929    1.0000 0.59159  0.92138  0.61470  Biso   1.000  C
  C1930    1.0000 0.53120  0.91269  0.54050  Biso   1.000  C
  H2264    1.0000 0.67529  0.95280  0.56180  Biso   1.000  H
  C1931    1.0000 0.46379  0.90812  0.46670  Biso   1.000  C
  C1932    1.0000 0.46379  0.90808  0.46670  Biso   1.000  C
  C1933    1.0000 0.70170  0.15809  0.83491  Biso   1.000  C
  C1934    1.0000 0.69499  0.07788  0.79201  Biso   1.000  C
  C1935    1.0000 0.70166  0.15809  0.83491  Biso   1.000  C
  H2265    1.0000 0.76791  0.08269  0.72879  Biso   1.000  H
  H2266    1.0000 0.76787  0.08269  0.72879  Biso   1.000  H
  C1936    1.0000 0.70100  0.24291  0.88711  Biso   1.000  C
  C1937    1.0000 0.70100  0.24287  0.88711  Biso   1.000  C
  C1938    1.0000 0.70721  0.73820  0.11219  Biso   1.000  C
  C1939    1.0000 0.74809  0.64411  0.12091  Biso   1.000  C
  C1940    1.0000 0.78230  0.70651  0.06322  Biso   1.000  C
  C1941    1.0000 0.78230  0.70647  0.06322  Biso   1.000  C
  C1942    1.0000 0.70717  0.73820  0.11219  Biso   1.000  C
  H2267    1.0000 0.06082  0.68712  0.55351  Biso   1.000  H
  N204     1.0000 0.06392  0.64539  0.61750  Biso   1.000  N
  H2268    1.0000 0.06082  0.68708  0.55351  Biso   1.000  H
  H2269    1.0000 0.06078  0.68712  0.55351  Biso   1.000  H
  N205     1.0000 0.06388  0.64539  0.61750  Biso   1.000  N
  H2270    1.0000 0.06078  0.68708  0.55351  Biso   1.000  H
  H2271    1.0000 0.07520  0.55001  0.58449  Biso   1.000  H
  H2272    1.0000 0.07520  0.54997  0.58449  Biso   1.000  H
  H2273    1.0000 0.07517  0.55001  0.58449  Biso   1.000  H
  H2274    1.0000 0.07517  0.54997  0.58449  Biso   1.000  H
  C1943    1.0000 0.08091  0.44529  0.58539  Biso   1.000  C
  C1944    1.0000 0.15471  0.45099  0.51851  Biso   1.000  C
  C1945    1.0000 0.06570  0.42330  0.49029  Biso   1.000  C
  C1946    1.0000 0.08087  0.44529  0.58539  Biso   1.000  C
  C1947    1.0000 0.15468  0.45099  0.51851  Biso   1.000  C
  H2275    1.0000 0.15611  0.82031  0.71910  Biso   1.000  H
  N206     1.0000 0.14339  0.75530  0.75180  Biso   1.000  N
  H2276    1.0000 0.15611  0.82027  0.71910  Biso   1.000  H
  H2277    1.0000 0.15607  0.82031  0.71910  Biso   1.000  H
  H2278    1.0000 0.15607  0.82027  0.71910  Biso   1.000  H
  H2279    1.0000 0.21739  0.74569  0.81918  Biso   1.000  H
  C1948    1.0000 0.26180  0.70721  0.88781  Biso   1.000  C
  C1949    1.0000 0.35589  0.74809  0.87909  Biso   1.000  C
  C1950    1.0000 0.29349  0.78230  0.93678  Biso   1.000  C
  C1951    1.0000 0.26180  0.70717  0.88781  Biso   1.000  C
  C1952    1.0000 0.26176  0.70721  0.88781  Biso   1.000  C
  C1953    1.0000 0.26176  0.70717  0.88781  Biso   1.000  C
  C1954    1.0000 0.17449  0.38731  0.86539  Biso   1.000  C
  C1955    1.0000 0.15991  0.31730  0.93799  Biso   1.000  C
  C1956    1.0000 0.25059  0.33821  0.90338  Biso   1.000  C
  C1957    1.0000 0.17449  0.38727  0.86539  Biso   1.000  C
  C1958    1.0000 0.15991  0.31726  0.93799  Biso   1.000  C
  C1959    1.0000 0.25059  0.33817  0.90338  Biso   1.000  C
  C1960    1.0000 0.15987  0.31730  0.93799  Biso   1.000  C
  C1961    1.0000 0.15987  0.31726  0.93799  Biso   1.000  C
  H2280    1.0000 0.56479  0.91572  0.63938  Biso   1.000  H
  N207     1.0000 0.63771  0.93112  0.62778  Biso   1.000  N
  H2281    1.0000 0.56479  0.91568  0.63938  Biso   1.000  H
  N208     1.0000 0.63771  0.93108  0.62778  Biso   1.000  N
  H2282    1.0000 0.50460  0.90661  0.56538  Biso   1.000  H
  C1962    1.0000 0.44529  0.91909  0.41461  Biso   1.000  C
  C1963    1.0000 0.45099  0.84529  0.48149  Biso   1.000  C
  C1964    1.0000 0.42330  0.93430  0.50971  Biso   1.000  C
  H2283    1.0000 0.67230  0.14808  0.85480  Biso   1.000  H
  H2284    1.0000 0.66431  0.07051  0.81101  Biso   1.000  H
  N209     1.0000 0.71640  0.04259  0.75558  Biso   1.000  N
  H2285    1.0000 0.66431  0.07047  0.81101  Biso   1.000  H
  H2286    1.0000 0.66427  0.07051  0.81101  Biso   1.000  H
  H2287    1.0000 0.66427  0.07047  0.81101  Biso   1.000  H
  C1965    1.0000 0.73820  0.29279  0.88781  Biso   1.000  C
  C1966    1.0000 0.64411  0.25191  0.87909  Biso   1.000  C
  C1967    1.0000 0.70651  0.21770  0.93678  Biso   1.000  C
  C1968    1.0000 0.64411  0.25187  0.87909  Biso   1.000  C
  C1969    1.0000 0.70651  0.21766  0.93678  Biso   1.000  C
  C1970    1.0000 0.70647  0.21770  0.93678  Biso   1.000  C
  C1971    1.0000 0.70647  0.21766  0.93678  Biso   1.000  C
  H2288    1.0000 0.71811  0.77392  0.10518  Biso   1.000  H
  H2289    1.0000 0.68320  0.72672  0.08490  Biso   1.000  H
  H2290    1.0000 0.68972  0.73661  0.14609  Biso   1.000  H
  H2291    1.0000 0.71811  0.77388  0.10518  Biso   1.000  H
  H2292    1.0000 0.68320  0.72668  0.08490  Biso   1.000  H
  H2293    1.0000 0.68972  0.73657  0.14609  Biso   1.000  H
  H2294    1.0000 0.71807  0.77392  0.10518  Biso   1.000  H
  H2295    1.0000 0.68968  0.73661  0.14609  Biso   1.000  H
  H2296    1.0000 0.71807  0.77388  0.10518  Biso   1.000  H
  H2297    1.0000 0.68968  0.73657  0.14609  Biso   1.000  H
  H2298    1.0000 0.78160  0.62599  0.12180  Biso   1.000  H
  H2299    1.0000 0.72990  0.63860  0.15392  Biso   1.000  H
  H2300    1.0000 0.72711  0.63049  0.09222  Biso   1.000  H
  H2301    1.0000 0.78951  0.74320  0.05660  Biso   1.000  H
  H2302    1.0000 0.81492  0.68700  0.06341  Biso   1.000  H
  H2303    1.0000 0.75961  0.69290  0.03581  Biso   1.000  H
  H2304    1.0000 0.78947  0.74320  0.05660  Biso   1.000  H
  H2305    1.0000 0.81488  0.68700  0.06341  Biso   1.000  H
  H2306    1.0000 0.75957  0.69290  0.03581  Biso   1.000  H
  C1972    1.0000 0.05779  0.69092  0.65370  Biso   1.000  C
  C1973    1.0000 0.05779  0.69088  0.65370  Biso   1.000  C
  H2307    1.0000 0.08831  0.40810  0.58741  Biso   1.000  H
  H2308    1.0000 0.04429  0.45142  0.59348  Biso   1.000  H
  H2309    1.0000 0.10270  0.46391  0.61038  Biso   1.000  H
  H2310    1.0000 0.04429  0.45138  0.59348  Biso   1.000  H
  H2311    1.0000 0.08828  0.40810  0.58741  Biso   1.000  H
  H2312    1.0000 0.10266  0.46391  0.61038  Biso   1.000  H
  H2313    1.0000 0.16348  0.41589  0.52999  Biso   1.000  H
  H2314    1.0000 0.17721  0.47609  0.53618  Biso   1.000  H
  H2315    1.0000 0.15968  0.45371  0.48079  Biso   1.000  H
  H2316    1.0000 0.17717  0.47609  0.53618  Biso   1.000  H
  H2317    1.0000 0.06881  0.38762  0.50309  Biso   1.000  H
  H2318    1.0000 0.08381  0.42652  0.45700  Biso   1.000  H
  H2319    1.0000 0.02890  0.43191  0.48550  Biso   1.000  H
  H2320    1.0000 0.06881  0.38758  0.50309  Biso   1.000  H
  H2321    1.0000 0.08381  0.42648  0.45700  Biso   1.000  H
  H2322    1.0000 0.06877  0.38762  0.50309  Biso   1.000  H
  H2323    1.0000 0.08378  0.42652  0.45700  Biso   1.000  H
  H2324    1.0000 0.06877  0.38758  0.50309  Biso   1.000  H
  H2325    1.0000 0.08378  0.42648  0.45700  Biso   1.000  H
  C1974    1.0000 0.09440  0.74739  0.71988  Biso   1.000  C
  C1975    1.0000 0.09436  0.74739  0.71988  Biso   1.000  C
  H2326    1.0000 0.22608  0.71811  0.89478  Biso   1.000  H
  H2327    1.0000 0.27328  0.68320  0.91510  Biso   1.000  H
  H2328    1.0000 0.26339  0.68972  0.85391  Biso   1.000  H
  H2329    1.0000 0.22608  0.71807  0.89478  Biso   1.000  H
  H2330    1.0000 0.26339  0.68968  0.85391  Biso   1.000  H
  H2331    1.0000 0.37401  0.78160  0.87820  Biso   1.000  H
  H2332    1.0000 0.36140  0.72990  0.84608  Biso   1.000  H
  H2333    1.0000 0.36951  0.72711  0.90778  Biso   1.000  H
  H2334    1.0000 0.37397  0.78160  0.87820  Biso   1.000  H
  H2335    1.0000 0.36136  0.72990  0.84608  Biso   1.000  H
  H2336    1.0000 0.36947  0.72711  0.90778  Biso   1.000  H
  H2337    1.0000 0.25680  0.78951  0.94340  Biso   1.000  H
  H2338    1.0000 0.31300  0.81492  0.93659  Biso   1.000  H
  H2339    1.0000 0.30710  0.75961  0.96419  Biso   1.000  H
  H2340    1.0000 0.25680  0.78947  0.94340  Biso   1.000  H
  H2341    1.0000 0.31300  0.81488  0.93659  Biso   1.000  H
  H2342    1.0000 0.30710  0.75957  0.96419  Biso   1.000  H
  H2343    1.0000 0.30706  0.75961  0.96419  Biso   1.000  H
  H2344    1.0000 0.30706  0.75957  0.96419  Biso   1.000  H
  H2345    1.0000 0.13788  0.38258  0.85628  Biso   1.000  H
  H2346    1.0000 0.17779  0.41589  0.89019  Biso   1.000  H
  H2347    1.0000 0.19439  0.39530  0.83390  Biso   1.000  H
  H2348    1.0000 0.19439  0.39526  0.83390  Biso   1.000  H
  H2349    1.0000 0.16018  0.34259  0.96648  Biso   1.000  H
  H2350    1.0000 0.17500  0.28461  0.95010  Biso   1.000  H
  H2351    1.0000 0.12419  0.31141  0.92658  Biso   1.000  H
  H2352    1.0000 0.17500  0.28457  0.95010  Biso   1.000  H
  H2353    1.0000 0.12419  0.31137  0.92658  Biso   1.000  H
  H2354    1.0000 0.25920  0.30369  0.91689  Biso   1.000  H
  H2355    1.0000 0.25750  0.36431  0.93028  Biso   1.000  H
  H2356    1.0000 0.27188  0.34550  0.87271  Biso   1.000  H
  H2357    1.0000 0.25750  0.36427  0.93028  Biso   1.000  H
  H2358    1.0000 0.27188  0.34546  0.87271  Biso   1.000  H
  H2359    1.0000 0.25916  0.30369  0.91689  Biso   1.000  H
  C1976    1.0000 0.65039  0.93081  0.68228  Biso   1.000  C
  C1977    1.0000 0.65039  0.93077  0.68228  Biso   1.000  C
  H2360    1.0000 0.40810  0.91169  0.41259  Biso   1.000  H
  H2361    1.0000 0.45142  0.95571  0.40648  Biso   1.000  H
  H2362    1.0000 0.46391  0.89730  0.38958  Biso   1.000  H
  H2363    1.0000 0.45142  0.95567  0.40648  Biso   1.000  H
  H2364    1.0000 0.45138  0.95571  0.40648  Biso   1.000  H
  H2365    1.0000 0.45138  0.95567  0.40648  Biso   1.000  H
  H2366    1.0000 0.41589  0.83652  0.47001  Biso   1.000  H
  H2367    1.0000 0.47609  0.82279  0.46378  Biso   1.000  H
  H2368    1.0000 0.45371  0.84032  0.51921  Biso   1.000  H
  H2369    1.0000 0.41589  0.83648  0.47001  Biso   1.000  H
  H2370    1.0000 0.45371  0.84028  0.51921  Biso   1.000  H
  H2371    1.0000 0.38762  0.93119  0.49691  Biso   1.000  H
  H2372    1.0000 0.42652  0.91619  0.54300  Biso   1.000  H
  H2373    1.0000 0.43191  0.97110  0.51450  Biso   1.000  H
  H2374    1.0000 0.43191  0.97107  0.51450  Biso   1.000  H
  H2375    1.0000 0.38758  0.93119  0.49691  Biso   1.000  H
  H2376    1.0000 0.42648  0.91619  0.54300  Biso   1.000  H
  C1978    1.0000 0.69472  0.99011  0.75180  Biso   1.000  C
  C1979    1.0000 0.69472  0.99007  0.75180  Biso   1.000  C
  C1980    1.0000 0.69468  0.99011  0.75180  Biso   1.000  C
  C1981    1.0000 0.69468  0.99007  0.75180  Biso   1.000  C
  H2377    1.0000 0.77392  0.28189  0.89478  Biso   1.000  H
  H2378    1.0000 0.72672  0.31680  0.91510  Biso   1.000  H
  H2379    1.0000 0.73661  0.31028  0.85391  Biso   1.000  H
  H2380    1.0000 0.77388  0.28189  0.89478  Biso   1.000  H
  H2381    1.0000 0.72668  0.31680  0.91510  Biso   1.000  H
  H2382    1.0000 0.73657  0.31028  0.85391  Biso   1.000  H
  H2383    1.0000 0.62599  0.21840  0.87820  Biso   1.000  H
  H2384    1.0000 0.63860  0.27010  0.84608  Biso   1.000  H
  H2385    1.0000 0.63049  0.27289  0.90778  Biso   1.000  H
  H2386    1.0000 0.63860  0.27006  0.84608  Biso   1.000  H
  H2387    1.0000 0.74320  0.21049  0.94340  Biso   1.000  H
  H2388    1.0000 0.68700  0.18508  0.93659  Biso   1.000  H
  H2389    1.0000 0.69290  0.24039  0.96419  Biso   1.000  H
  C1982    1.0000 0.10321  0.69992  0.68500  Biso   1.000  C
  H2390    1.0000 0.04879  0.72280  0.63350  Biso   1.000  H
  C1983    1.0000 0.00939  0.67389  0.69080  Biso   1.000  C
  C1984    1.0000 0.10321  0.69988  0.68500  Biso   1.000  C
  C1985    1.0000 0.10317  0.69992  0.68500  Biso   1.000  C
  C1986    1.0000 0.10317  0.69988  0.68500  Biso   1.000  C
  C1987    1.0000 0.04910  0.73622  0.75589  Biso   1.000  C
  H2391    1.0000 0.08711  0.77881  0.69820  Biso   1.000  H
  C1988    1.0000 0.04910  0.73618  0.75589  Biso   1.000  C
  H2392    1.0000 0.08711  0.77877  0.69820  Biso   1.000  H
  H2393    1.0000 0.08707  0.77881  0.69820  Biso   1.000  H
  H2394    1.0000 0.08707  0.77877  0.69820  Biso   1.000  H
  C1989    1.0000 0.67479  0.98790  0.69750  Biso   1.000  C
  H2395    1.0000 0.61781  0.92542  0.70271  Biso   1.000  H
  C1990    1.0000 0.69069  0.88822  0.69820  Biso   1.000  C
  H2396    1.0000 0.61781  0.92538  0.70271  Biso   1.000  H
  C1991    1.0000 0.69069  0.88818  0.69820  Biso   1.000  C
  H2397    1.0000 0.61777  0.92542  0.70271  Biso   1.000  H
  H2398    1.0000 0.61777  0.92538  0.70271  Biso   1.000  H
  C1992    1.0000 0.73110  0.94911  0.76278  Biso   1.000  C
  H2399    1.0000 0.66482  0.98720  0.77640  Biso   1.000  H
  C1993    1.0000 0.73110  0.94907  0.76278  Biso   1.000  C
  H2400    1.0000 0.66478  0.98720  0.77640  Biso   1.000  H
  H2401    1.0000 0.13362  0.70581  0.66219  Biso   1.000  H
  H2402    1.0000 0.11031  0.66912  0.70680  Biso   1.000  H
  H2403    1.0000 0.13362  0.70578  0.66219  Biso   1.000  H
  H2404    1.0000 0.11031  0.66908  0.70680  Biso   1.000  H
  H2405    1.0000 0.13358  0.70581  0.66219  Biso   1.000  H
  H2406    1.0000 0.11027  0.66912  0.70680  Biso   1.000  H
  H2407    1.0000 0.13358  0.70578  0.66219  Biso   1.000  H
  H2408    1.0000 0.11027  0.66908  0.70680  Biso   1.000  H
  C1994    1.0000 0.99961  0.72749  0.72440  Biso   1.000  C
  H2409    1.0000 0.97851  0.66439  0.66998  Biso   1.000  H
  C1995    1.0000 0.99957  0.72749  0.72440  Biso   1.000  C
  H2410    1.0000 0.97847  0.66439  0.66998  Biso   1.000  H
  H2411    1.0000 0.01889  0.64461  0.71381  Biso   1.000  H
  H2412    1.0000 0.01889  0.64457  0.71381  Biso   1.000  H
  H2413    1.0000 0.04398  0.76570  0.77998  Biso   1.000  H
  H2414    1.0000 0.05670  0.70492  0.77699  Biso   1.000  H
  H2415    1.0000 0.05670  0.70488  0.77699  Biso   1.000  H
  H2416    1.0000 0.05667  0.70492  0.77699  Biso   1.000  H
  H2417    1.0000 0.05667  0.70488  0.77699  Biso   1.000  H
  H2418    1.0000 0.70349  0.99608  0.67321  Biso   1.000  H
  H2419    1.0000 0.64771  0.01470  0.69310  Biso   1.000  H
  H2420    1.0000 0.64767  0.01470  0.69310  Biso   1.000  H
  C1996    1.0000 0.71241  0.89559  0.75258  Biso   1.000  C
  H2421    1.0000 0.67382  0.85370  0.69610  Biso   1.000  H
  H2422    1.0000 0.71970  0.88849  0.67290  Biso   1.000  H
  H2423    1.0000 0.67378  0.85370  0.69610  Biso   1.000  H
  H2424    1.0000 0.74130  0.95152  0.79988  Biso   1.000  H
  H2425    1.0000 0.76271  0.95501  0.74168  Biso   1.000  H
  H2426    1.0000 0.74130  0.95148  0.79988  Biso   1.000  H
  H2427    1.0000 0.76271  0.95497  0.74168  Biso   1.000  H
  H2428    1.0000 0.76267  0.95501  0.74168  Biso   1.000  H
  H2429    1.0000 0.76267  0.95497  0.74168  Biso   1.000  H
  H2430    1.0000 0.99391  0.75720  0.70011  Biso   1.000  H
  N210     1.0000 0.95330  0.71869  0.75519  Biso   1.000  N
  H2431    1.0000 0.99387  0.75720  0.70011  Biso   1.000  H
  H2432    1.0000 0.68402  0.88791  0.77800  Biso   1.000  H
  N211     1.0000 0.75317  0.85851  0.76091  Biso   1.000  N
  H2433    1.0000 0.68402  0.88787  0.77800  Biso   1.000  H
  N212     1.0000 0.75317  0.85847  0.76091  Biso   1.000  N
  H2434    1.0000 0.68398  0.88791  0.77800  Biso   1.000  H
  H2435    1.0000 0.68398  0.88787  0.77800  Biso   1.000  H
  C1997    1.0000 0.92030  0.74662  0.75441  Biso   1.000  C
  C1998    1.0000 0.92030  0.74658  0.75441  Biso   1.000  C
  C1999    1.0000 0.74662  0.82240  0.79081  Biso   1.000  C
  C2000    1.0000 0.74658  0.82240  0.79081  Biso   1.000  C
  C2001    1.0000 0.87216  0.74669  0.78376  Biso   1.000  C
  H2436    1.0000 0.92421  0.77470  0.73078  Biso   1.000  H
  H2437    1.0000 0.92417  0.77470  0.73078  Biso   1.000  H
  C2002    1.0000 0.78773  0.78265  0.80089  Biso   1.000  C
  C2003    1.0000 0.78769  0.78265  0.80089  Biso   1.000  C
  H2438    1.0000 0.71431  0.81930  0.80840  Biso   1.000  H
  C2004    1.0000 0.83462  0.78420  0.77422  Biso   1.000  C
  C2005    1.0000 0.86286  0.70771  0.82000  Biso   1.000  C
  C2006    1.0000 0.83458  0.78420  0.77422  Biso   1.000  C
  C2007    1.0000 0.77842  0.74371  0.83705  Biso   1.000  C
  C2008    1.0000 0.77838  0.74371  0.83705  Biso   1.000  C
  O119     1.0000 0.84614  0.82314  0.74071  Biso   1.000  O
  O120     1.0000 0.84614  0.82310  0.74071  Biso   1.000  O
  H2439    1.0000 0.88861  0.68212  0.82650  Biso   1.000  H
  C2009    1.0000 0.81600  0.70624  0.84663  Biso   1.000  C
  H2440    1.0000 0.88861  0.68208  0.82650  Biso   1.000  H
  C2010    1.0000 0.81600  0.70620  0.84663  Biso   1.000  C
  H2441    1.0000 0.88857  0.68212  0.82650  Biso   1.000  H
  H2442    1.0000 0.88857  0.68208  0.82650  Biso   1.000  H
  H2443    1.0000 0.74631  0.74270  0.85531  Biso   1.000  H
  H2444    1.0000 0.82101  0.84389  0.74051  Biso   1.000  H
  C2011    1.0000 0.80561  0.66020  0.88879  Biso   1.000  C
  C2012    1.0000 0.80557  0.66020  0.88879  Biso   1.000  C
  C2013    1.0000 0.82551  0.61269  0.86539  Biso   1.000  C
  C2014    1.0000 0.84009  0.68270  0.93799  Biso   1.000  C
  C2015    1.0000 0.74941  0.66179  0.90338  Biso   1.000  C
  C2016    1.0000 0.74937  0.66179  0.90338  Biso   1.000  C
  H2445    1.0000 0.86212  0.61742  0.85628  Biso   1.000  H
  H2446    1.0000 0.80561  0.60470  0.83390  Biso   1.000  H
  H2447    1.0000 0.82221  0.58411  0.89019  Biso   1.000  H
  H2448    1.0000 0.86212  0.61738  0.85628  Biso   1.000  H
  H2449    1.0000 0.86208  0.61742  0.85628  Biso   1.000  H
  H2450    1.0000 0.80557  0.60470  0.83390  Biso   1.000  H
  H2451    1.0000 0.82217  0.58411  0.89019  Biso   1.000  H
  H2452    1.0000 0.86208  0.61738  0.85628  Biso   1.000  H
  H2453    1.0000 0.82500  0.71539  0.95010  Biso   1.000  H
  H2454    1.0000 0.87581  0.68859  0.92658  Biso   1.000  H
  H2455    1.0000 0.83982  0.65741  0.96648  Biso   1.000  H
  H2456    1.0000 0.83982  0.65737  0.96648  Biso   1.000  H
  H2457    1.0000 0.87577  0.68859  0.92658  Biso   1.000  H
  H2458    1.0000 0.83978  0.65741  0.96648  Biso   1.000  H
  H2459    1.0000 0.83978  0.65737  0.96648  Biso   1.000  H
  H2460    1.0000 0.74080  0.69631  0.91689  Biso   1.000  H
  H2461    1.0000 0.74250  0.63569  0.93028  Biso   1.000  H
  H2462    1.0000 0.72812  0.65450  0.87271  Biso   1.000  H
  H2463    1.0000 0.74080  0.69627  0.91689  Biso   1.000  H
  H2464    1.0000 0.72808  0.65450  0.87271  Biso   1.000  H
