data_image0
_cell_length_a       21.141
_cell_length_b       19.524
_cell_length_c       24.014
_cell_angle_alpha    90
_cell_angle_beta     90
_cell_angle_gamma    90

_symmetry_space_group_name_H-M    "P 1"
_symmetry_int_tables_number       1

loop_
  _symmetry_equiv_pos_as_xyz
  'x, y, z'

loop_
  _atom_site_label
  _atom_site_occupancy
  _atom_site_fract_x
  _atom_site_fract_y
  _atom_site_fract_z
  _atom_site_thermal_displace_type
  _atom_site_B_iso_or_equiv
  _atom_site_type_symbol
  C1       1.0000 0.54539  0.51793  0.55509  Biso   1.000  C
  O1       1.0000 0.48990  0.48218  0.57791  Biso   1.000  O
  H1       1.0000 0.53181  0.54999  0.52598  Biso   1.000  H
  H2       1.0000 0.57471  0.48438  0.53910  Biso   1.000  H
  H3       1.0000 0.56662  0.54328  0.58491  Biso   1.000  H
  C2       1.0000 0.50300  0.42071  0.59440  Biso   1.000  C
  C3       1.0000 0.44525  0.38952  0.62185  Biso   1.000  C
  O2       1.0000 0.55272  0.39444  0.59086  Biso   1.000  O
  O3       1.0000 0.45452  0.31940  0.63117  Biso   1.000  O
  H4       1.0000 0.43702  0.41293  0.65770  Biso   1.000  H
  H5       1.0000 0.40779  0.39618  0.59761  Biso   1.000  H
  C4       1.0000 0.44780  0.27546  0.58624  Biso   1.000  C
  C5       1.0000 0.42869  0.29564  0.53398  Biso   1.000  C
  C6       1.0000 0.46095  0.20687  0.59748  Biso   1.000  C
  C7       1.0000 0.41985  0.24846  0.49126  Biso   1.000  C
  H6       1.0000 0.42141  0.34291  0.52690  Biso   1.000  H
  C8       1.0000 0.45362  0.15980  0.55468  Biso   1.000  C
  C9       1.0000 0.48044  0.18418  0.65541  Biso   1.000  C
  C10      1.0000 0.39492  0.27249  0.43545  Biso   1.000  C
  C11      1.0000 0.43248  0.17968  0.50262  Biso   1.000  C
  H7       1.0000 0.46332  0.11299  0.56130  Biso   1.000  H
  H8       1.0000 0.51010  0.21809  0.67148  Biso   1.000  H
  H9       1.0000 0.50263  0.13962  0.65312  Biso   1.000  H
  C12      1.0000 0.42297  0.17737  0.69289  Biso   1.000  C
  C13      1.0000 0.32335  0.27955  0.43637  Biso   1.000  C
  H10      1.0000 0.40731  0.23919  0.40630  Biso   1.000  H
  H11      1.0000 0.41422  0.31720  0.42608  Biso   1.000  H
  O4       1.0000 0.42207  0.13389  0.45940  Biso   1.000  O
  C14      1.0000 0.38607  0.11847  0.69222  Biso   1.000  C
  C15      1.0000 0.40452  0.23084  0.72733  Biso   1.000  C
  C16      1.0000 0.28617  0.22403  0.42155  Biso   1.000  C
  C17      1.0000 0.29360  0.33984  0.45274  Biso   1.000  C
  C18      1.0000 0.43711  0.06433  0.47073  Biso   1.000  C
  O5       1.0000 0.40670  0.06746  0.65708  Biso   1.000  O
  C19      1.0000 0.33314  0.11325  0.72603  Biso   1.000  C
  H12      1.0000 0.42940  0.27131  0.72862  Biso   1.000  H
  C20      1.0000 0.35036  0.22649  0.75993  Biso   1.000  C
  C21      1.0000 0.22052  0.22818  0.42250  Biso   1.000  C
  H13      1.0000 0.30580  0.18239  0.41059  Biso   1.000  H
  C22      1.0000 0.22799  0.34424  0.45324  Biso   1.000  C
  O6       1.0000 0.33229  0.39377  0.46798  Biso   1.000  O
  H14      1.0000 0.41190  0.04809  0.50291  Biso   1.000  H
  H15      1.0000 0.48252  0.06039  0.48051  Biso   1.000  H
  C23      1.0000 0.42330  0.02079  0.42100  Biso   1.000  C
  C24      1.0000 0.36881  0.00825  0.65045  Biso   1.000  C
  C25      1.0000 0.31432  0.16687  0.76018  Biso   1.000  C
  H16      1.0000 0.30921  0.07201  0.72591  Biso   1.000  H
  O7       1.0000 0.32893  0.27955  0.79266  Biso   1.000  O
  O8       1.0000 0.18154  0.17461  0.40822  Biso   1.000  O
  C26      1.0000 0.19100  0.28841  0.43766  Biso   1.000  C
  H17      1.0000 0.20822  0.38578  0.46431  Biso   1.000  H
  C27      1.0000 0.30240  0.45201  0.49150  Biso   1.000  C
  O9       1.0000 0.36796  0.03237  0.39943  Biso   1.000  O
  O10      1.0000 0.45840  0.97659  0.40589  Biso   1.000  O
  H18      1.0000 0.32671  0.02161  0.63721  Biso   1.000  H
  H19      1.0000 0.38849  0.97751  0.62330  Biso   1.000  H
  H20      1.0000 0.36488  0.98458  0.68631  Biso   1.000  H
  C28      1.0000 0.25585  0.16037  0.79670  Biso   1.000  C
  C29      1.0000 0.36715  0.33912  0.79524  Biso   1.000  C
  C30      1.0000 0.21021  0.11284  0.38998  Biso   1.000  C
  C31      1.0000 0.11901  0.29400  0.43945  Biso   1.000  C
  H21      1.0000 0.27392  0.47260  0.46390  Biso   1.000  H
  H22      1.0000 0.33461  0.48561  0.50242  Biso   1.000  H
  H23      1.0000 0.27809  0.43818  0.52432  Biso   1.000  H
  C32      1.0000 0.35471  0.98930  0.35059  Biso   1.000  C
  C33      1.0000 0.19526  0.17778  0.76618  Biso   1.000  C
  H24      1.0000 0.25302  0.11278  0.81090  Biso   1.000  H
  H25      1.0000 0.26039  0.19120  0.82918  Biso   1.000  H
  H26      1.0000 0.37141  0.35879  0.75789  Biso   1.000  H
  H27      1.0000 0.40911  0.32698  0.80961  Biso   1.000  H
  H28      1.0000 0.34738  0.37272  0.82010  Biso   1.000  H
  H29      1.0000 0.23471  0.12159  0.35608  Biso   1.000  H
  H30      1.0000 0.17738  0.07877  0.38219  Biso   1.000  H
  H31      1.0000 0.23840  0.09552  0.41921  Biso   1.000  H
  C34      1.0000 0.09531  0.27612  0.49700  Biso   1.000  C
  H32      1.0000 0.10600  0.34132  0.42992  Biso   1.000  H
  H33      1.0000 0.10018  0.26250  0.41180  Biso   1.000  H
  H34      1.0000 0.31981  0.00942  0.32918  Biso   1.000  H
  H35      1.0000 0.39251  0.98668  0.32718  Biso   1.000  H
  H36      1.0000 0.34279  0.94320  0.36291  Biso   1.000  H
  C35      1.0000 0.17010  0.24334  0.76709  Biso   1.000  C
  C36      1.0000 0.16423  0.12871  0.73432  Biso   1.000  C
  C37      1.0000 0.08713  0.33200  0.53806  Biso   1.000  C
  C38      1.0000 0.08316  0.21205  0.51228  Biso   1.000  C
  C39      1.0000 0.11665  0.25978  0.73620  Biso   1.000  C
  H37      1.0000 0.18973  0.27761  0.78921  Biso   1.000  H
  C40      1.0000 0.11073  0.14500  0.70346  Biso   1.000  C
  O11      1.0000 0.19029  0.06361  0.73561  Biso   1.000  O
  O12      1.0000 0.09919  0.39162  0.52648  Biso   1.000  O
  C41      1.0000 0.06395  0.31423  0.59395  Biso   1.000  C
  C42      1.0000 0.06097  0.19422  0.56825  Biso   1.000  C
  H38      1.0000 0.08912  0.17640  0.48588  Biso   1.000  H
  C43      1.0000 0.08661  0.21066  0.70363  Biso   1.000  C
  O13      1.0000 0.08992  0.32411  0.73386  Biso   1.000  O
  H39      1.0000 0.09049  0.11048  0.68202  Biso   1.000  H
  C44      1.0000 0.17260  0.01762  0.69410  Biso   1.000  C
  C45      1.0000 0.05189  0.24990  0.60977  Biso   1.000  C
  H40      1.0000 0.05719  0.35008  0.62001  Biso   1.000  H
  O14      1.0000 0.04915  0.13465  0.58070  Biso   1.000  O
  C46      1.0000 0.03046  0.22992  0.66749  Biso   1.000  C
  C47      1.0000 0.10534  0.37185  0.77509  Biso   1.000  C
  H41      1.0000 0.17800  0.03888  0.65699  Biso   1.000  H
  H42      1.0000 0.12762  0.00481  0.69859  Biso   1.000  H
  C48      1.0000 0.21352  0.95529  0.69872  Biso   1.000  C
  H43      1.0000 0.00109  0.19048  0.66499  Biso   1.000  H
  H44      1.0000 0.00752  0.26859  0.68468  Biso   1.000  H
  H45      1.0000 0.14820  0.39060  0.76851  Biso   1.000  H
  H46      1.0000 0.10449  0.35008  0.81232  Biso   1.000  H
  C49      1.0000 0.05662  0.42819  0.77180  Biso   1.000  C
  O15      1.0000 0.24923  0.94263  0.73561  Biso   1.000  O
  O16      1.0000 0.20344  0.91523  0.65487  Biso   1.000  O
  O17      1.0000 0.00492  0.42333  0.75306  Biso   1.000  O
  O18      1.0000 0.07980  0.48479  0.79549  Biso   1.000  O
  C50      1.0000 0.23722  0.85070  0.65312  Biso   1.000  C
  C51      1.0000 0.03869  0.54328  0.79799  Biso   1.000  C
  H47      1.0000 0.22359  0.82442  0.62051  Biso   1.000  H
  H48      1.0000 0.22809  0.82452  0.68702  Biso   1.000  H
  H49      1.0000 0.28282  0.85951  0.65070  Biso   1.000  H
  H50      1.0000 0.01712  0.54891  0.76222  Biso   1.000  H
  H51      1.0000 0.06372  0.58441  0.80599  Biso   1.000  H
  H52      1.0000 0.00728  0.53662  0.82752  Biso   1.000  H
  C52      1.0000 0.45461  0.48212  0.44491  Biso   1.000  C
  O19      1.0000 0.51010  0.51782  0.42209  Biso   1.000  O
  H53      1.0000 0.46819  0.45001  0.47402  Biso   1.000  H
  H54      1.0000 0.42529  0.51562  0.46090  Biso   1.000  H
  H55      1.0000 0.43342  0.45672  0.41509  Biso   1.000  H
  C53      1.0000 0.49700  0.57929  0.40560  Biso   1.000  C
  O20      1.0000 0.44728  0.60556  0.40914  Biso   1.000  O
  C54      1.0000 0.55475  0.61048  0.37815  Biso   1.000  C
  O21      1.0000 0.54553  0.68060  0.36883  Biso   1.000  O
  H56      1.0000 0.56303  0.58712  0.34230  Biso   1.000  H
  H57      1.0000 0.59221  0.60382  0.40239  Biso   1.000  H
  C55      1.0000 0.55220  0.72460  0.41376  Biso   1.000  C
  C56      1.0000 0.57131  0.70436  0.46602  Biso   1.000  C
  C57      1.0000 0.53905  0.79313  0.40252  Biso   1.000  C
  C58      1.0000 0.58015  0.75159  0.50874  Biso   1.000  C
  H58      1.0000 0.57859  0.65709  0.47310  Biso   1.000  H
  C59      1.0000 0.54638  0.84020  0.44532  Biso   1.000  C
  C60      1.0000 0.51956  0.81582  0.34459  Biso   1.000  C
  C61      1.0000 0.60508  0.72751  0.56455  Biso   1.000  C
  C62      1.0000 0.56752  0.82032  0.49738  Biso   1.000  C
  H59      1.0000 0.53673  0.88701  0.43870  Biso   1.000  H
  H60      1.0000 0.48990  0.78191  0.32852  Biso   1.000  H
  H61      1.0000 0.49742  0.86043  0.34688  Biso   1.000  H
  C63      1.0000 0.57703  0.82263  0.30711  Biso   1.000  C
  C64      1.0000 0.67665  0.72045  0.56367  Biso   1.000  C
  H62      1.0000 0.59269  0.76081  0.59370  Biso   1.000  H
  H63      1.0000 0.58583  0.68280  0.57392  Biso   1.000  H
  O22      1.0000 0.57793  0.86611  0.54064  Biso   1.000  O
  C65      1.0000 0.61393  0.88153  0.30782  Biso   1.000  C
  C66      1.0000 0.59548  0.76916  0.27267  Biso   1.000  C
  C67      1.0000 0.70640  0.66016  0.54726  Biso   1.000  C
  C68      1.0000 0.71387  0.77597  0.57845  Biso   1.000  C
  C69      1.0000 0.56289  0.93567  0.52927  Biso   1.000  C
  O23      1.0000 0.59335  0.93254  0.34292  Biso   1.000  O
  C70      1.0000 0.66686  0.88681  0.27397  Biso   1.000  C
  H64      1.0000 0.57060  0.72869  0.27138  Biso   1.000  H
  C71      1.0000 0.64964  0.77351  0.24007  Biso   1.000  C
  O24      1.0000 0.66771  0.60623  0.53202  Biso   1.000  O
  C72      1.0000 0.77205  0.65576  0.54676  Biso   1.000  C
  C73      1.0000 0.77953  0.77182  0.57750  Biso   1.000  C
  H65      1.0000 0.69420  0.81761  0.58941  Biso   1.000  H
  H66      1.0000 0.58810  0.95191  0.49709  Biso   1.000  H
  H67      1.0000 0.51753  0.93961  0.51949  Biso   1.000  H
  C74      1.0000 0.57670  0.97921  0.57900  Biso   1.000  C
  C75      1.0000 0.63119  0.99175  0.34955  Biso   1.000  C
  C76      1.0000 0.68568  0.83313  0.23982  Biso   1.000  C
  H68      1.0000 0.69079  0.92799  0.27409  Biso   1.000  H
  O25      1.0000 0.67111  0.72045  0.20734  Biso   1.000  O
  C77      1.0000 0.69760  0.54799  0.50850  Biso   1.000  C
  C78      1.0000 0.80900  0.71159  0.56234  Biso   1.000  C
  H69      1.0000 0.79183  0.61422  0.53569  Biso   1.000  H
  O26      1.0000 0.81846  0.82539  0.59182  Biso   1.000  O
  O27      1.0000 0.63209  0.96763  0.60057  Biso   1.000  O
  O28      1.0000 0.54160  0.02341  0.59411  Biso   1.000  O
  H70      1.0000 0.67329  0.97839  0.36279  Biso   1.000  H
  H71      1.0000 0.61151  0.02249  0.37670  Biso   1.000  H
  H72      1.0000 0.63512  0.01542  0.31369  Biso   1.000  H
  C79      1.0000 0.74415  0.83963  0.20330  Biso   1.000  C
  C80      1.0000 0.63285  0.66088  0.20476  Biso   1.000  C
  H73      1.0000 0.72612  0.52740  0.53610  Biso   1.000  H
  H74      1.0000 0.66539  0.51439  0.49758  Biso   1.000  H
  H75      1.0000 0.72191  0.56182  0.47572  Biso   1.000  H
  C81      1.0000 0.88099  0.70600  0.56055  Biso   1.000  C
  C82      1.0000 0.78979  0.88716  0.61002  Biso   1.000  C
  C83      1.0000 0.64529  0.01070  0.64941  Biso   1.000  C
  H76      1.0000 0.74703  0.88722  0.18910  Biso   1.000  H
  H77      1.0000 0.73961  0.80880  0.17082  Biso   1.000  H
  C84      1.0000 0.80474  0.82222  0.23382  Biso   1.000  C
  H78      1.0000 0.62859  0.64121  0.24211  Biso   1.000  H
  H79      1.0000 0.59089  0.67302  0.19039  Biso   1.000  H
  H80      1.0000 0.65262  0.62728  0.17990  Biso   1.000  H
  C85      1.0000 0.90469  0.72388  0.50304  Biso   1.000  C
  H81      1.0000 0.89400  0.65873  0.57008  Biso   1.000  H
  H82      1.0000 0.89982  0.73750  0.58820  Biso   1.000  H
  H83      1.0000 0.76529  0.87841  0.64392  Biso   1.000  H
  H84      1.0000 0.82262  0.92123  0.61781  Biso   1.000  H
  H85      1.0000 0.76160  0.90453  0.58079  Biso   1.000  H
  H86      1.0000 0.68019  0.99063  0.67082  Biso   1.000  H
  H87      1.0000 0.60749  0.01332  0.67282  Biso   1.000  H
  H88      1.0000 0.65721  0.05680  0.63709  Biso   1.000  H
  C86      1.0000 0.83577  0.87129  0.26568  Biso   1.000  C
  C87      1.0000 0.82990  0.75666  0.23291  Biso   1.000  C
  C88      1.0000 0.91287  0.66800  0.46194  Biso   1.000  C
  C89      1.0000 0.91684  0.78795  0.48772  Biso   1.000  C
  O29      1.0000 0.80975  0.93639  0.26439  Biso   1.000  O
  C90      1.0000 0.88931  0.85500  0.29654  Biso   1.000  C
  H89      1.0000 0.81032  0.72239  0.21079  Biso   1.000  H
  C91      1.0000 0.88335  0.74022  0.26380  Biso   1.000  C
  O30      1.0000 0.90086  0.60838  0.47352  Biso   1.000  O
  C92      1.0000 0.93610  0.68577  0.40605  Biso   1.000  C
  C93      1.0000 0.93903  0.80583  0.43175  Biso   1.000  C
  H90      1.0000 0.91093  0.82360  0.51412  Biso   1.000  H
  C94      1.0000 0.82740  0.98238  0.30590  Biso   1.000  C
  C95      1.0000 0.91339  0.78934  0.29637  Biso   1.000  C
  H91      1.0000 0.90951  0.88952  0.31798  Biso   1.000  H
  O31      1.0000 0.91008  0.67589  0.26614  Biso   1.000  O
  C96      1.0000 0.94811  0.75010  0.39023  Biso   1.000  C
  H92      1.0000 0.94281  0.64992  0.37999  Biso   1.000  H
  O32      1.0000 0.95085  0.86535  0.41934  Biso   1.000  O
  H93      1.0000 0.82200  0.96112  0.34301  Biso   1.000  H
  H94      1.0000 0.87243  0.99519  0.30141  Biso   1.000  H
  C97      1.0000 0.78653  0.04471  0.30128  Biso   1.000  C
  C98      1.0000 0.96954  0.77013  0.33251  Biso   1.000  C
  C99      1.0000 0.89466  0.62815  0.22491  Biso   1.000  C
  O33      1.0000 0.75077  0.05737  0.26443  Biso   1.000  O
  O34      1.0000 0.79660  0.08477  0.34513  Biso   1.000  O
  H95      1.0000 0.99891  0.80952  0.33501  Biso   1.000  H
  H96      1.0000 0.99253  0.73141  0.31532  Biso   1.000  H
  H97      1.0000 0.85180  0.60940  0.23149  Biso   1.000  H
  H98      1.0000 0.89551  0.64992  0.18768  Biso   1.000  H
  C100     1.0000 0.94343  0.57181  0.22820  Biso   1.000  C
  C101     1.0000 0.76283  0.14930  0.34688  Biso   1.000  C
  O35      1.0000 0.99508  0.57667  0.24694  Biso   1.000  O
  O36      1.0000 0.92020  0.51521  0.20451  Biso   1.000  O
  H99      1.0000 0.77641  0.17563  0.37949  Biso   1.000  H
  H100     1.0000 0.77191  0.17553  0.31298  Biso   1.000  H
  H101     1.0000 0.71723  0.14049  0.34930  Biso   1.000  H
  C102     1.0000 0.96131  0.45672  0.20201  Biso   1.000  C
  H102     1.0000 0.98292  0.45109  0.23782  Biso   1.000  H
  H103     1.0000 0.93633  0.41559  0.19401  Biso   1.000  H
  H104     1.0000 0.99272  0.46338  0.17248  Biso   1.000  H
  O37      1.0000 0.54917  0.36535  0.41934  Biso   1.000  O
  C103     1.0000 0.56100  0.30578  0.43175  Biso   1.000  C
  C104     1.0000 0.55191  0.25010  0.39023  Biso   1.000  C
  C105     1.0000 0.58318  0.28795  0.48772  Biso   1.000  C
  C106     1.0000 0.53049  0.27008  0.33251  Biso   1.000  C
  C107     1.0000 0.56393  0.18577  0.40605  Biso   1.000  C
  C108     1.0000 0.59534  0.22388  0.50304  Biso   1.000  C
  H105     1.0000 0.58909  0.32360  0.51412  Biso   1.000  H
  C109     1.0000 0.58663  0.28934  0.29637  Biso   1.000  C
  H106     1.0000 0.50111  0.30952  0.33501  Biso   1.000  H
  H107     1.0000 0.50750  0.23141  0.31532  Biso   1.000  H
  H108     1.0000 0.55721  0.14992  0.37999  Biso   1.000  H
  C110     1.0000 0.58715  0.16800  0.46194  Biso   1.000  C
  C111     1.0000 0.61903  0.20600  0.56055  Biso   1.000  C
  C112     1.0000 0.61667  0.24022  0.26380  Biso   1.000  C
  C113     1.0000 0.61071  0.35500  0.29654  Biso   1.000  C
  O38      1.0000 0.59917  0.10838  0.47352  Biso   1.000  O
  H109     1.0000 0.60603  0.15868  0.57008  Biso   1.000  H
  H110     1.0000 0.60021  0.23750  0.58820  Biso   1.000  H
  C114     1.0000 0.69103  0.21159  0.56234  Biso   1.000  C
  O39      1.0000 0.58990  0.17589  0.26614  Biso   1.000  O
  C115     1.0000 0.67012  0.25666  0.23291  Biso   1.000  C
  C116     1.0000 0.66425  0.37129  0.26568  Biso   1.000  C
  H111     1.0000 0.59051  0.38952  0.31798  Biso   1.000  H
  C117     1.0000 0.72050  0.27182  0.57750  Biso   1.000  C
  C118     1.0000 0.72797  0.15576  0.54676  Biso   1.000  C
  C119     1.0000 0.60536  0.12815  0.22491  Biso   1.000  C
  C120     1.0000 0.69528  0.32222  0.23382  Biso   1.000  C
  H112     1.0000 0.68970  0.22239  0.21079  Biso   1.000  H
  O40      1.0000 0.69027  0.43639  0.26439  Biso   1.000  O
  O41      1.0000 0.68157  0.32539  0.59182  Biso   1.000  O
  C121     1.0000 0.78615  0.27597  0.57845  Biso   1.000  C
  H113     1.0000 0.70820  0.11422  0.53569  Biso   1.000  H
  C122     1.0000 0.79362  0.16016  0.54726  Biso   1.000  C
  H114     1.0000 0.64822  0.10940  0.23149  Biso   1.000  H
  H115     1.0000 0.60451  0.14992  0.18768  Biso   1.000  H
  C123     1.0000 0.55660  0.07181  0.22820  Biso   1.000  C
  C124     1.0000 0.75588  0.33963  0.20330  Biso   1.000  C
  C125     1.0000 0.67263  0.48238  0.30590  Biso   1.000  C
  C126     1.0000 0.71023  0.38716  0.61002  Biso   1.000  C
  C127     1.0000 0.82338  0.22045  0.56367  Biso   1.000  C
  H116     1.0000 0.80583  0.31761  0.58941  Biso   1.000  H
  O42      1.0000 0.83232  0.10623  0.53202  Biso   1.000  O
  O43      1.0000 0.50494  0.07667  0.24694  Biso   1.000  O
  O44      1.0000 0.57982  0.01521  0.20451  Biso   1.000  O
  H117     1.0000 0.75299  0.38722  0.18910  Biso   1.000  H
  H118     1.0000 0.76042  0.30880  0.17082  Biso   1.000  H
  C128     1.0000 0.81434  0.33313  0.23982  Biso   1.000  C
  H119     1.0000 0.67802  0.46112  0.34301  Biso   1.000  H
  H120     1.0000 0.62760  0.49519  0.30141  Biso   1.000  H
  C129     1.0000 0.71350  0.54471  0.30128  Biso   1.000  C
  H121     1.0000 0.73473  0.37841  0.64392  Biso   1.000  H
  H122     1.0000 0.67740  0.42123  0.61781  Biso   1.000  H
  H123     1.0000 0.73842  0.40448  0.58079  Biso   1.000  H
  C130     1.0000 0.89494  0.22751  0.56455  Biso   1.000  C
  C131     1.0000 0.80242  0.04799  0.50850  Biso   1.000  C
  C132     1.0000 0.53872  0.95672  0.20201  Biso   1.000  C
  C133     1.0000 0.85039  0.27351  0.24007  Biso   1.000  C
  C134     1.0000 0.83312  0.38681  0.27397  Biso   1.000  C
  O45      1.0000 0.74926  0.55737  0.26443  Biso   1.000  O
  O46      1.0000 0.70342  0.58477  0.34513  Biso   1.000  O
  H124     1.0000 0.90734  0.26081  0.59370  Biso   1.000  H
  H125     1.0000 0.91420  0.18280  0.57392  Biso   1.000  H
  C135     1.0000 0.91987  0.25154  0.50874  Biso   1.000  C
  H126     1.0000 0.77390  0.02740  0.53610  Biso   1.000  H
  H127     1.0000 0.83463  0.01439  0.49758  Biso   1.000  H
  H128     1.0000 0.77811  0.06182  0.47572  Biso   1.000  H
  H129     1.0000 0.51710  0.95109  0.23782  Biso   1.000  H
  H130     1.0000 0.56369  0.91559  0.19401  Biso   1.000  H
  H131     1.0000 0.50731  0.96338  0.17248  Biso   1.000  H
  O47      1.0000 0.82891  0.22045  0.20734  Biso   1.000  O
  C136     1.0000 0.90455  0.26916  0.27267  Biso   1.000  C
  C137     1.0000 0.88610  0.38153  0.30782  Biso   1.000  C
  H132     1.0000 0.80923  0.42799  0.27409  Biso   1.000  H
  C138     1.0000 0.73719  0.64930  0.34688  Biso   1.000  C
  C139     1.0000 0.93250  0.32032  0.49738  Biso   1.000  C
  C140     1.0000 0.92872  0.20436  0.46602  Biso   1.000  C
  C141     1.0000 0.86718  0.16088  0.20476  Biso   1.000  C
  C142     1.0000 0.92299  0.32263  0.30711  Biso   1.000  C
  H133     1.0000 0.92943  0.22869  0.27138  Biso   1.000  H
  O48      1.0000 0.90667  0.43254  0.34292  Biso   1.000  O
  H134     1.0000 0.72362  0.67558  0.37949  Biso   1.000  H
  H135     1.0000 0.72811  0.67553  0.31298  Biso   1.000  H
  H136     1.0000 0.78279  0.64049  0.34930  Biso   1.000  H
  C143     1.0000 0.95364  0.34020  0.44532  Biso   1.000  C
  O49      1.0000 0.92209  0.36611  0.54064  Biso   1.000  O
  C144     1.0000 0.94783  0.22460  0.41376  Biso   1.000  C
  H137     1.0000 0.92143  0.15709  0.47310  Biso   1.000  H
  H138     1.0000 0.87143  0.14121  0.24211  Biso   1.000  H
  H139     1.0000 0.90913  0.17302  0.19039  Biso   1.000  H
  H140     1.0000 0.84741  0.12728  0.17990  Biso   1.000  H
  C145     1.0000 0.98046  0.31582  0.34459  Biso   1.000  C
  C146     1.0000 0.86883  0.49175  0.34955  Biso   1.000  C
  C147     1.0000 0.96098  0.29313  0.40252  Biso   1.000  C
  H141     1.0000 0.96329  0.38701  0.43870  Biso   1.000  H
  C148     1.0000 0.93714  0.43567  0.52927  Biso   1.000  C
  O50      1.0000 0.95450  0.18060  0.36883  Biso   1.000  O
  H142     1.0000 0.01012  0.28191  0.32852  Biso   1.000  H
  H143     1.0000 0.00260  0.36038  0.34688  Biso   1.000  H
  H144     1.0000 0.88851  0.52249  0.37670  Biso   1.000  H
  H145     1.0000 0.82673  0.47839  0.36279  Biso   1.000  H
  H146     1.0000 0.86491  0.51542  0.31369  Biso   1.000  H
  H147     1.0000 0.91192  0.45191  0.49709  Biso   1.000  H
  H148     1.0000 0.98250  0.43961  0.51949  Biso   1.000  H
  C149     1.0000 0.92332  0.47921  0.57900  Biso   1.000  C
  C150     1.0000 0.94527  0.11048  0.37815  Biso   1.000  C
  O51      1.0000 0.95842  0.52341  0.59411  Biso   1.000  O
  O52      1.0000 0.86793  0.46763  0.60057  Biso   1.000  O
  H149     1.0000 0.93699  0.08712  0.34230  Biso   1.000  H
  H150     1.0000 0.90781  0.10382  0.40239  Biso   1.000  H
  C151     1.0000 0.00303  0.07929  0.40560  Biso   1.000  C
  C152     1.0000 0.85469  0.51070  0.64941  Biso   1.000  C
  O53      1.0000 0.98992  0.01782  0.42209  Biso   1.000  O
  O54      1.0000 0.05274  0.10556  0.40914  Biso   1.000  O
  H151     1.0000 0.89253  0.51332  0.67282  Biso   1.000  H
  H152     1.0000 0.81983  0.49063  0.67082  Biso   1.000  H
  H153     1.0000 0.84282  0.55680  0.63709  Biso   1.000  H
  C153     1.0000 0.04541  0.98212  0.44491  Biso   1.000  C
  H154     1.0000 0.03183  0.95001  0.47402  Biso   1.000  H
  H155     1.0000 0.06660  0.95672  0.41509  Biso   1.000  H
  H156     1.0000 0.07474  0.01562  0.46090  Biso   1.000  H
  O55      1.0000 0.45083  0.63465  0.58070  Biso   1.000  O
  C154     1.0000 0.43905  0.69422  0.56825  Biso   1.000  C
  C155     1.0000 0.41687  0.71210  0.51228  Biso   1.000  C
  C156     1.0000 0.44809  0.74990  0.60977  Biso   1.000  C
  C157     1.0000 0.40466  0.77612  0.49700  Biso   1.000  C
  H157     1.0000 0.41091  0.67640  0.48588  Biso   1.000  H
  C158     1.0000 0.43607  0.81423  0.59395  Biso   1.000  C
  C159     1.0000 0.46951  0.72992  0.66749  Biso   1.000  C
  C160     1.0000 0.38101  0.79400  0.43945  Biso   1.000  C
  C161     1.0000 0.41289  0.83200  0.53806  Biso   1.000  C
  H158     1.0000 0.44279  0.85008  0.62001  Biso   1.000  H
  C162     1.0000 0.41337  0.71066  0.70363  Biso   1.000  C
  H159     1.0000 0.49889  0.69048  0.66499  Biso   1.000  H
  H160     1.0000 0.49250  0.76859  0.68468  Biso   1.000  H
  C163     1.0000 0.30897  0.78841  0.43766  Biso   1.000  C
  H161     1.0000 0.39402  0.84132  0.42992  Biso   1.000  H
  H162     1.0000 0.39979  0.76250  0.41180  Biso   1.000  H
  O56      1.0000 0.40083  0.89162  0.52648  Biso   1.000  O
  C164     1.0000 0.38929  0.64500  0.70346  Biso   1.000  C
  C165     1.0000 0.38333  0.75978  0.73620  Biso   1.000  C
  C166     1.0000 0.27203  0.84424  0.45324  Biso   1.000  C
  C167     1.0000 0.27950  0.72818  0.42250  Biso   1.000  C
  C168     1.0000 0.33575  0.62871  0.73432  Biso   1.000  C
  H163     1.0000 0.40949  0.61048  0.68202  Biso   1.000  H
  C169     1.0000 0.32988  0.74334  0.76709  Biso   1.000  C
  O57      1.0000 0.41010  0.82411  0.73386  Biso   1.000  O
  C170     1.0000 0.20638  0.83989  0.45274  Biso   1.000  C
  H164     1.0000 0.29180  0.88578  0.46431  Biso   1.000  H
  C171     1.0000 0.21385  0.72403  0.42155  Biso   1.000  C
  O58      1.0000 0.31843  0.67461  0.40822  Biso   1.000  O
  C172     1.0000 0.30476  0.67778  0.76618  Biso   1.000  C
  O59      1.0000 0.30973  0.56361  0.73561  Biso   1.000  O
  H165     1.0000 0.31030  0.77761  0.78921  Biso   1.000  H
  C173     1.0000 0.39468  0.87185  0.77509  Biso   1.000  C
  C174     1.0000 0.17662  0.77955  0.43637  Biso   1.000  C
  O60      1.0000 0.16773  0.89377  0.46798  Biso   1.000  O
  H166     1.0000 0.19422  0.68239  0.41059  Biso   1.000  H
  C175     1.0000 0.28982  0.61289  0.38998  Biso   1.000  C
  C176     1.0000 0.24412  0.66037  0.79670  Biso   1.000  C
  C177     1.0000 0.32742  0.51762  0.69410  Biso   1.000  C
  H167     1.0000 0.35183  0.89060  0.76851  Biso   1.000  H
  H168     1.0000 0.39549  0.85008  0.81232  Biso   1.000  H
  C178     1.0000 0.44340  0.92819  0.77180  Biso   1.000  C
  C179     1.0000 0.10506  0.77249  0.43545  Biso   1.000  C
  C180     1.0000 0.19763  0.95201  0.49150  Biso   1.000  C
  H169     1.0000 0.26531  0.62159  0.35608  Biso   1.000  H
  H170     1.0000 0.32260  0.57883  0.38219  Biso   1.000  H
  H171     1.0000 0.26162  0.59552  0.41921  Biso   1.000  H
  C181     1.0000 0.18566  0.66687  0.76018  Biso   1.000  C
  H172     1.0000 0.24701  0.61278  0.81090  Biso   1.000  H
  H173     1.0000 0.23958  0.69120  0.82918  Biso   1.000  H
  H174     1.0000 0.32198  0.53893  0.65699  Biso   1.000  H
  H175     1.0000 0.37240  0.50481  0.69859  Biso   1.000  H
  C182     1.0000 0.28650  0.45529  0.69872  Biso   1.000  C
  O61      1.0000 0.49506  0.92333  0.75306  Biso   1.000  O
  O62      1.0000 0.42023  0.98479  0.79549  Biso   1.000  O
  C183     1.0000 0.08013  0.74846  0.49126  Biso   1.000  C
  H176     1.0000 0.09271  0.73919  0.40630  Biso   1.000  H
  H177     1.0000 0.08580  0.81720  0.42608  Biso   1.000  H
  H178     1.0000 0.22610  0.97260  0.46390  Biso   1.000  H
  H179     1.0000 0.16541  0.98561  0.50242  Biso   1.000  H
  H180     1.0000 0.22189  0.93823  0.52432  Biso   1.000  H
  C184     1.0000 0.16688  0.61325  0.72603  Biso   1.000  C
  C185     1.0000 0.14961  0.72649  0.75993  Biso   1.000  C
  O63      1.0000 0.25079  0.44263  0.73561  Biso   1.000  O
  O64      1.0000 0.29658  0.41523  0.65487  Biso   1.000  O
  C186     1.0000 0.46128  0.04328  0.79799  Biso   1.000  C
  C187     1.0000 0.06755  0.67973  0.50262  Biso   1.000  C
  C188     1.0000 0.07128  0.79569  0.53398  Biso   1.000  C
  C189     1.0000 0.11395  0.61847  0.69222  Biso   1.000  C
  H181     1.0000 0.19081  0.57201  0.72591  Biso   1.000  H
  C190     1.0000 0.09545  0.73084  0.72733  Biso   1.000  C
  O65      1.0000 0.17109  0.77955  0.79266  Biso   1.000  O
  C191     1.0000 0.26281  0.35070  0.65312  Biso   1.000  C
  H182     1.0000 0.48290  0.04891  0.76222  Biso   1.000  H
  H183     1.0000 0.43631  0.08441  0.80599  Biso   1.000  H
  H184     1.0000 0.49269  0.03662  0.82752  Biso   1.000  H
  O66      1.0000 0.07795  0.63389  0.45940  Biso   1.000  O
  C192     1.0000 0.04640  0.65980  0.55468  Biso   1.000  C
  H185     1.0000 0.07862  0.84291  0.52690  Biso   1.000  H
  C193     1.0000 0.05222  0.77546  0.58624  Biso   1.000  C
  C194     1.0000 0.07701  0.67737  0.69289  Biso   1.000  C
  O67      1.0000 0.09333  0.56751  0.65708  Biso   1.000  O
  H186     1.0000 0.07062  0.77131  0.72862  Biso   1.000  H
  C195     1.0000 0.13282  0.83912  0.79524  Biso   1.000  C
  H187     1.0000 0.27638  0.32442  0.62051  Biso   1.000  H
  H188     1.0000 0.27189  0.32452  0.68702  Biso   1.000  H
  H189     1.0000 0.21721  0.35951  0.65070  Biso   1.000  H
  C196     1.0000 0.06291  0.56433  0.47073  Biso   1.000  C
  C197     1.0000 0.03907  0.70687  0.59748  Biso   1.000  C
  H190     1.0000 0.03671  0.61299  0.56130  Biso   1.000  H
  O68      1.0000 0.04550  0.81940  0.63117  Biso   1.000  O
  C198     1.0000 0.01954  0.68418  0.65541  Biso   1.000  C
  C199     1.0000 0.13121  0.50825  0.65045  Biso   1.000  C
  H191     1.0000 0.12861  0.85879  0.75789  Biso   1.000  H
  H192     1.0000 0.09091  0.82698  0.80961  Biso   1.000  H
  H193     1.0000 0.15259  0.87272  0.82010  Biso   1.000  H
  C200     1.0000 0.07672  0.52079  0.42100  Biso   1.000  C
  H194     1.0000 0.08812  0.54809  0.50291  Biso   1.000  H
  H195     1.0000 0.01750  0.56039  0.48051  Biso   1.000  H
  C201     1.0000 0.05478  0.88952  0.62185  Biso   1.000  C
  H196     1.0000 0.98988  0.71809  0.67148  Biso   1.000  H
  H197     1.0000 0.99740  0.63962  0.65312  Biso   1.000  H
  H198     1.0000 0.11149  0.47751  0.62330  Biso   1.000  H
  H199     1.0000 0.17331  0.52161  0.63721  Biso   1.000  H
  H200     1.0000 0.13509  0.48458  0.68631  Biso   1.000  H
  O69      1.0000 0.13207  0.53237  0.39943  Biso   1.000  O
  O70      1.0000 0.04158  0.47659  0.40589  Biso   1.000  O
  H201     1.0000 0.06301  0.91293  0.65770  Biso   1.000  H
  H202     1.0000 0.09219  0.89618  0.59761  Biso   1.000  H
  C202     1.0000 0.99702  0.92071  0.59440  Biso   1.000  C
  C203     1.0000 0.14531  0.48930  0.35059  Biso   1.000  C
  O71      1.0000 0.01012  0.98218  0.57791  Biso   1.000  O
  O72      1.0000 0.94731  0.89449  0.59086  Biso   1.000  O
  H203     1.0000 0.10752  0.48668  0.32718  Biso   1.000  H
  H204     1.0000 0.18022  0.50942  0.32918  Biso   1.000  H
  H205     1.0000 0.15718  0.44320  0.36291  Biso   1.000  H
  C204     1.0000 0.95459  0.01793  0.55509  Biso   1.000  C
  H206     1.0000 0.92531  0.98443  0.53910  Biso   1.000  H
  H207     1.0000 0.96821  0.04999  0.52598  Biso   1.000  H
  H208     1.0000 0.93340  0.04328  0.58491  Biso   1.000  H
  C205     1.0000 0.53872  0.54328  0.70201  Biso   1.000  C
  O73      1.0000 0.57982  0.48479  0.70451  Biso   1.000  O
  H209     1.0000 0.51710  0.54891  0.73782  Biso   1.000  H
  H210     1.0000 0.56369  0.58441  0.69401  Biso   1.000  H
  H211     1.0000 0.50731  0.53662  0.67248  Biso   1.000  H
  C206     1.0000 0.55660  0.42819  0.72820  Biso   1.000  C
  O74      1.0000 0.50494  0.42333  0.74694  Biso   1.000  O
  C207     1.0000 0.60536  0.37185  0.72495  Biso   1.000  C
  O75      1.0000 0.58990  0.32411  0.76614  Biso   1.000  O
  H212     1.0000 0.64822  0.39060  0.73149  Biso   1.000  H
  H213     1.0000 0.60451  0.35008  0.68768  Biso   1.000  H
  C208     1.0000 0.61667  0.25978  0.76380  Biso   1.000  C
  C209     1.0000 0.67012  0.24334  0.73291  Biso   1.000  C
  C210     1.0000 0.58663  0.21066  0.79637  Biso   1.000  C
  C211     1.0000 0.69528  0.17778  0.73386  Biso   1.000  C
  H214     1.0000 0.68970  0.27761  0.71079  Biso   1.000  H
  C212     1.0000 0.61071  0.14500  0.79654  Biso   1.000  C
  C213     1.0000 0.53049  0.22992  0.83251  Biso   1.000  C
  C214     1.0000 0.75588  0.16037  0.70330  Biso   1.000  C
  C215     1.0000 0.66425  0.12871  0.76568  Biso   1.000  C
  H215     1.0000 0.59051  0.11048  0.81802  Biso   1.000  H
  H216     1.0000 0.50111  0.19048  0.83501  Biso   1.000  H
  H217     1.0000 0.50750  0.26859  0.81532  Biso   1.000  H
  C216     1.0000 0.55191  0.24990  0.89023  Biso   1.000  C
  H218     1.0000 0.75299  0.11278  0.68910  Biso   1.000  H
  H219     1.0000 0.76042  0.19120  0.67082  Biso   1.000  H
  C217     1.0000 0.81434  0.16687  0.73982  Biso   1.000  C
  O76      1.0000 0.69027  0.06361  0.76439  Biso   1.000  O
  C218     1.0000 0.56100  0.19422  0.93175  Biso   1.000  C
  C219     1.0000 0.56393  0.31423  0.90605  Biso   1.000  C
  C220     1.0000 0.85039  0.22649  0.74007  Biso   1.000  C
  C221     1.0000 0.83312  0.11325  0.77397  Biso   1.000  C
  C222     1.0000 0.67263  0.01762  0.80590  Biso   1.000  C
  O77      1.0000 0.54917  0.13465  0.91934  Biso   1.000  O
  C223     1.0000 0.58318  0.21205  0.98772  Biso   1.000  C
  H220     1.0000 0.55721  0.35008  0.87999  Biso   1.000  H
  C224     1.0000 0.58715  0.33200  0.96194  Biso   1.000  C
  O78      1.0000 0.82891  0.27955  0.70734  Biso   1.000  O
  C225     1.0000 0.90455  0.23084  0.77267  Biso   1.000  C
  C226     1.0000 0.88610  0.11847  0.80782  Biso   1.000  C
  H221     1.0000 0.80923  0.07201  0.77409  Biso   1.000  H
  H222     1.0000 0.67802  0.03888  0.84301  Biso   1.000  H
  H223     1.0000 0.62760  0.00481  0.80141  Biso   1.000  H
  C227     1.0000 0.71350  0.95529  0.80128  Biso   1.000  C
  C228     1.0000 0.59534  0.27612  0.00304  Biso   1.000  C
  H224     1.0000 0.58909  0.17640  0.01412  Biso   1.000  H
  O79      1.0000 0.59917  0.39162  0.97352  Biso   1.000  O
  C229     1.0000 0.86718  0.33912  0.70476  Biso   1.000  C
  C230     1.0000 0.92299  0.17737  0.80711  Biso   1.000  C
  H225     1.0000 0.92943  0.27131  0.77138  Biso   1.000  H
  O80      1.0000 0.90667  0.06746  0.84292  Biso   1.000  O
  O81      1.0000 0.74926  0.94263  0.76443  Biso   1.000  O
  O82      1.0000 0.70342  0.91523  0.84513  Biso   1.000  O
  C231     1.0000 0.61903  0.29400  0.06055  Biso   1.000  C
  H226     1.0000 0.87143  0.35879  0.74211  Biso   1.000  H
  H227     1.0000 0.90913  0.32698  0.69039  Biso   1.000  H
  H228     1.0000 0.84741  0.37272  0.67990  Biso   1.000  H
  C232     1.0000 0.98046  0.18418  0.84459  Biso   1.000  C
  C233     1.0000 0.86883  0.00825  0.84955  Biso   1.000  C
  C234     1.0000 0.73719  0.85070  0.84692  Biso   1.000  C
  H229     1.0000 0.60603  0.34132  0.07008  Biso   1.000  H
  H230     1.0000 0.60021  0.26250  0.08820  Biso   1.000  H
  C235     1.0000 0.69103  0.28841  0.06234  Biso   1.000  C
  C236     1.0000 0.96098  0.20687  0.90252  Biso   1.000  C
  H231     1.0000 0.01012  0.21809  0.82852  Biso   1.000  H
  H232     1.0000 0.00260  0.13962  0.84692  Biso   1.000  H
  H233     1.0000 0.82673  0.02161  0.86279  Biso   1.000  H
  H234     1.0000 0.88851  0.97751  0.87670  Biso   1.000  H
  H235     1.0000 0.86491  0.98458  0.81369  Biso   1.000  H
  H236     1.0000 0.72362  0.82442  0.87949  Biso   1.000  H
  H237     1.0000 0.72811  0.82452  0.81298  Biso   1.000  H
  H238     1.0000 0.78279  0.85951  0.84930  Biso   1.000  H
  C237     1.0000 0.72050  0.22818  0.07750  Biso   1.000  C
  C238     1.0000 0.72797  0.34424  0.04676  Biso   1.000  C
  C239     1.0000 0.94783  0.27546  0.91376  Biso   1.000  C
  C240     1.0000 0.95364  0.15980  0.94532  Biso   1.000  C
  O83      1.0000 0.68157  0.17461  0.09182  Biso   1.000  O
  C241     1.0000 0.78615  0.22403  0.07845  Biso   1.000  C
  H239     1.0000 0.70820  0.38578  0.03569  Biso   1.000  H
  C242     1.0000 0.79362  0.33984  0.04726  Biso   1.000  C
  O84      1.0000 0.95450  0.31940  0.86883  Biso   1.000  O
  C243     1.0000 0.92872  0.29564  0.96602  Biso   1.000  C
  C244     1.0000 0.93250  0.17968  0.99738  Biso   1.000  C
  H240     1.0000 0.96329  0.11299  0.93870  Biso   1.000  H
  C245     1.0000 0.71023  0.11284  0.11002  Biso   1.000  C
  C246     1.0000 0.82338  0.27955  0.06367  Biso   1.000  C
  H241     1.0000 0.80583  0.18239  0.08941  Biso   1.000  H
  O85      1.0000 0.83232  0.39377  0.03202  Biso   1.000  O
  C247     1.0000 0.94527  0.38952  0.87815  Biso   1.000  C
  H242     1.0000 0.92143  0.34291  0.97310  Biso   1.000  H
  C248     1.0000 0.91987  0.24846  0.00874  Biso   1.000  C
  O86      1.0000 0.92209  0.13389  0.04064  Biso   1.000  O
  H243     1.0000 0.73473  0.12159  0.14392  Biso   1.000  H
  H244     1.0000 0.67740  0.07877  0.11781  Biso   1.000  H
  H245     1.0000 0.73842  0.09552  0.08079  Biso   1.000  H
  C249     1.0000 0.89494  0.27249  0.06455  Biso   1.000  C
  C250     1.0000 0.80242  0.45201  0.00850  Biso   1.000  C
  H246     1.0000 0.93699  0.41293  0.84230  Biso   1.000  H
  H247     1.0000 0.90781  0.39618  0.90239  Biso   1.000  H
  C251     1.0000 0.00303  0.42071  0.90560  Biso   1.000  C
  C252     1.0000 0.93714  0.06433  0.02927  Biso   1.000  C
  H248     1.0000 0.90734  0.23919  0.09370  Biso   1.000  H
  H249     1.0000 0.91420  0.31720  0.07392  Biso   1.000  H
  H250     1.0000 0.83463  0.48561  0.99758  Biso   1.000  H
  H251     1.0000 0.77811  0.43818  0.97572  Biso   1.000  H
  H252     1.0000 0.77390  0.47260  0.03610  Biso   1.000  H
  O87      1.0000 0.98992  0.48218  0.92209  Biso   1.000  O
  O88      1.0000 0.05274  0.39444  0.90914  Biso   1.000  O
  H253     1.0000 0.91192  0.04809  0.99709  Biso   1.000  H
  H254     1.0000 0.98250  0.06039  0.01949  Biso   1.000  H
  C253     1.0000 0.92332  0.02079  0.07900  Biso   1.000  C
  C254     1.0000 0.04541  0.51793  0.94491  Biso   1.000  C
  O89      1.0000 0.95842  0.97659  0.09415  Biso   1.000  O
  O90      1.0000 0.86793  0.03237  0.10057  Biso   1.000  O
  H255     1.0000 0.03183  0.54999  0.97402  Biso   1.000  H
  H256     1.0000 0.07474  0.48438  0.96090  Biso   1.000  H
  H257     1.0000 0.06660  0.54328  0.91509  Biso   1.000  H
  C255     1.0000 0.85469  0.98930  0.14941  Biso   1.000  C
  H258     1.0000 0.89253  0.98668  0.17282  Biso   1.000  H
  H259     1.0000 0.84282  0.94320  0.13709  Biso   1.000  H
  H260     1.0000 0.81983  0.00942  0.17082  Biso   1.000  H
  C256     1.0000 0.46128  0.45672  0.29799  Biso   1.000  C
  O91      1.0000 0.42023  0.51521  0.29549  Biso   1.000  O
  H261     1.0000 0.48290  0.45109  0.26218  Biso   1.000  H
  H262     1.0000 0.43631  0.41559  0.30599  Biso   1.000  H
  H263     1.0000 0.49269  0.46338  0.32752  Biso   1.000  H
  C257     1.0000 0.44340  0.57181  0.27180  Biso   1.000  C
  O92      1.0000 0.49506  0.57667  0.25306  Biso   1.000  O
  C258     1.0000 0.39468  0.62815  0.27509  Biso   1.000  C
  O93      1.0000 0.41010  0.67589  0.23386  Biso   1.000  O
  H264     1.0000 0.35183  0.60940  0.26851  Biso   1.000  H
  H265     1.0000 0.39549  0.64992  0.31232  Biso   1.000  H
  C259     1.0000 0.38333  0.74022  0.23620  Biso   1.000  C
  C260     1.0000 0.32988  0.75666  0.26709  Biso   1.000  C
  C261     1.0000 0.41337  0.78934  0.20363  Biso   1.000  C
  C262     1.0000 0.30476  0.82222  0.26618  Biso   1.000  C
  H266     1.0000 0.31030  0.72239  0.28921  Biso   1.000  H
  C263     1.0000 0.38929  0.85500  0.20346  Biso   1.000  C
  C264     1.0000 0.46951  0.77013  0.16749  Biso   1.000  C
  C265     1.0000 0.24412  0.83963  0.29670  Biso   1.000  C
  C266     1.0000 0.33575  0.87129  0.23432  Biso   1.000  C
  H267     1.0000 0.40949  0.88952  0.18202  Biso   1.000  H
  H268     1.0000 0.49889  0.80952  0.16499  Biso   1.000  H
  H269     1.0000 0.49250  0.73141  0.18468  Biso   1.000  H
  C267     1.0000 0.44809  0.75010  0.10977  Biso   1.000  C
  H270     1.0000 0.24701  0.88722  0.31090  Biso   1.000  H
  H271     1.0000 0.23958  0.80880  0.32918  Biso   1.000  H
  C268     1.0000 0.18566  0.83313  0.26018  Biso   1.000  C
  O94      1.0000 0.30973  0.93639  0.23561  Biso   1.000  O
  C269     1.0000 0.43905  0.80583  0.06825  Biso   1.000  C
  C270     1.0000 0.43607  0.68577  0.09395  Biso   1.000  C
  C271     1.0000 0.14961  0.77351  0.25993  Biso   1.000  C
  C272     1.0000 0.16688  0.88681  0.22603  Biso   1.000  C
  C273     1.0000 0.32742  0.98238  0.19410  Biso   1.000  C
  O95      1.0000 0.45083  0.86535  0.08066  Biso   1.000  O
  C274     1.0000 0.41687  0.78795  0.01228  Biso   1.000  C
  H272     1.0000 0.44279  0.64992  0.12001  Biso   1.000  H
  C275     1.0000 0.41289  0.66800  0.03806  Biso   1.000  C
  O96      1.0000 0.17109  0.72045  0.29266  Biso   1.000  O
  C276     1.0000 0.09545  0.76916  0.22733  Biso   1.000  C
  C277     1.0000 0.11395  0.88153  0.19222  Biso   1.000  C
  H273     1.0000 0.19081  0.92799  0.22591  Biso   1.000  H
  H274     1.0000 0.32198  0.96112  0.15699  Biso   1.000  H
  H275     1.0000 0.37240  0.99519  0.19859  Biso   1.000  H
  C278     1.0000 0.28650  0.04471  0.19872  Biso   1.000  C
  C279     1.0000 0.40466  0.72388  0.99696  Biso   1.000  C
  H276     1.0000 0.41091  0.82360  0.98588  Biso   1.000  H
  O97      1.0000 0.40083  0.60838  0.02648  Biso   1.000  O
  C280     1.0000 0.13282  0.66088  0.29524  Biso   1.000  C
  C281     1.0000 0.07701  0.82263  0.19289  Biso   1.000  C
  H277     1.0000 0.07062  0.72869  0.22862  Biso   1.000  H
  O98      1.0000 0.09333  0.93254  0.15708  Biso   1.000  O
  O99      1.0000 0.25079  0.05737  0.23557  Biso   1.000  O
  O100     1.0000 0.29658  0.08477  0.15487  Biso   1.000  O
  C282     1.0000 0.38101  0.70600  0.93945  Biso   1.000  C
  H278     1.0000 0.12861  0.64121  0.25789  Biso   1.000  H
  H279     1.0000 0.09091  0.67302  0.30961  Biso   1.000  H
  H280     1.0000 0.15259  0.62728  0.32010  Biso   1.000  H
  C283     1.0000 0.01954  0.81582  0.15541  Biso   1.000  C
  C284     1.0000 0.13121  0.99175  0.15045  Biso   1.000  C
  C285     1.0000 0.26281  0.14930  0.15312  Biso   1.000  C
  H281     1.0000 0.39402  0.65873  0.92992  Biso   1.000  H
  H282     1.0000 0.39979  0.73750  0.91180  Biso   1.000  H
  C286     1.0000 0.30897  0.71159  0.93766  Biso   1.000  C
  C287     1.0000 0.03907  0.79313  0.09748  Biso   1.000  C
  H283     1.0000 0.98988  0.78191  0.17148  Biso   1.000  H
  H284     1.0000 0.99740  0.86043  0.15312  Biso   1.000  H
  H285     1.0000 0.17331  0.97839  0.13721  Biso   1.000  H
  H286     1.0000 0.11149  0.02249  0.12330  Biso   1.000  H
  H287     1.0000 0.13509  0.01542  0.18631  Biso   1.000  H
  H288     1.0000 0.27638  0.17563  0.12051  Biso   1.000  H
  H289     1.0000 0.27189  0.17553  0.18702  Biso   1.000  H
  H290     1.0000 0.21721  0.14049  0.15070  Biso   1.000  H
  C288     1.0000 0.27950  0.77182  0.92250  Biso   1.000  C
  C289     1.0000 0.27203  0.65576  0.95324  Biso   1.000  C
  C290     1.0000 0.05222  0.72460  0.08624  Biso   1.000  C
  C291     1.0000 0.04640  0.84020  0.05468  Biso   1.000  C
  O101     1.0000 0.31843  0.82539  0.90822  Biso   1.000  O
  C292     1.0000 0.21385  0.77597  0.92155  Biso   1.000  C
  H291     1.0000 0.29180  0.61422  0.96431  Biso   1.000  H
  C293     1.0000 0.20638  0.66016  0.95274  Biso   1.000  C
  O102     1.0000 0.04550  0.68060  0.13117  Biso   1.000  O
  C294     1.0000 0.07128  0.70436  0.03398  Biso   1.000  C
  C295     1.0000 0.06755  0.82032  0.00262  Biso   1.000  C
  H292     1.0000 0.03671  0.88701  0.06130  Biso   1.000  H
  C296     1.0000 0.28982  0.88716  0.88998  Biso   1.000  C
  C297     1.0000 0.17662  0.72045  0.93637  Biso   1.000  C
  H293     1.0000 0.19422  0.81761  0.91059  Biso   1.000  H
  O103     1.0000 0.16773  0.60623  0.96798  Biso   1.000  O
  C298     1.0000 0.05478  0.61048  0.12185  Biso   1.000  C
  H294     1.0000 0.07862  0.65709  0.02690  Biso   1.000  H
  C299     1.0000 0.08013  0.75159  0.99126  Biso   1.000  C
  O104     1.0000 0.07795  0.86611  0.95940  Biso   1.000  O
  H295     1.0000 0.26531  0.87841  0.85608  Biso   1.000  H
  H296     1.0000 0.32260  0.92123  0.88219  Biso   1.000  H
  H297     1.0000 0.26162  0.90453  0.91921  Biso   1.000  H
  C300     1.0000 0.10506  0.72751  0.93545  Biso   1.000  C
  C301     1.0000 0.19763  0.54799  0.99150  Biso   1.000  C
  H298     1.0000 0.06301  0.58712  0.15770  Biso   1.000  H
  H299     1.0000 0.09219  0.60382  0.09761  Biso   1.000  H
  C302     1.0000 0.99702  0.57929  0.09440  Biso   1.000  C
  C303     1.0000 0.06291  0.93567  0.97073  Biso   1.000  C
  H300     1.0000 0.09271  0.76081  0.90630  Biso   1.000  H
  H301     1.0000 0.08580  0.68280  0.92608  Biso   1.000  H
  H302     1.0000 0.16541  0.51439  0.00242  Biso   1.000  H
  H303     1.0000 0.22189  0.56182  0.02432  Biso   1.000  H
  H304     1.0000 0.22610  0.52740  0.96390  Biso   1.000  H
  O105     1.0000 0.01012  0.51782  0.07791  Biso   1.000  O
  O106     1.0000 0.94731  0.60556  0.09086  Biso   1.000  O
  H305     1.0000 0.08812  0.95191  0.00291  Biso   1.000  H
  H306     1.0000 0.01750  0.93961  0.98051  Biso   1.000  H
  C304     1.0000 0.07672  0.97921  0.92100  Biso   1.000  C
  C305     1.0000 0.95459  0.48212  0.05509  Biso   1.000  C
  O107     1.0000 0.13207  0.96763  0.89943  Biso   1.000  O
  O108     1.0000 0.04158  0.02341  0.90589  Biso   1.000  O
  H307     1.0000 0.96821  0.45001  0.02598  Biso   1.000  H
  H308     1.0000 0.92531  0.51562  0.03910  Biso   1.000  H
  H309     1.0000 0.93340  0.45672  0.08491  Biso   1.000  H
  C306     1.0000 0.14531  0.01070  0.85059  Biso   1.000  C
  H310     1.0000 0.18022  0.99063  0.82918  Biso   1.000  H
  H311     1.0000 0.10752  0.01332  0.82718  Biso   1.000  H
  H312     1.0000 0.15718  0.05680  0.86291  Biso   1.000  H
  C307     1.0000 0.68568  0.66687  0.73982  Biso   1.000  C
  C308     1.0000 0.74415  0.66037  0.70330  Biso   1.000  C
  C309     1.0000 0.64964  0.72649  0.74007  Biso   1.000  C
  C310     1.0000 0.66686  0.61325  0.77397  Biso   1.000  C
  C311     1.0000 0.80474  0.67778  0.73386  Biso   1.000  C
  H313     1.0000 0.74703  0.61278  0.68910  Biso   1.000  H
  H314     1.0000 0.73961  0.69120  0.67082  Biso   1.000  H
  O109     1.0000 0.67111  0.77955  0.70734  Biso   1.000  O
  C312     1.0000 0.59548  0.73084  0.77267  Biso   1.000  C
  C313     1.0000 0.61393  0.61847  0.80782  Biso   1.000  C
  H315     1.0000 0.69079  0.57201  0.77409  Biso   1.000  H
  C314     1.0000 0.83577  0.62871  0.76568  Biso   1.000  C
  C315     1.0000 0.82990  0.74334  0.73291  Biso   1.000  C
  C316     1.0000 0.63285  0.83912  0.70476  Biso   1.000  C
  C317     1.0000 0.57703  0.67737  0.80711  Biso   1.000  C
  H316     1.0000 0.57060  0.77131  0.77138  Biso   1.000  H
  O110     1.0000 0.59335  0.56751  0.84292  Biso   1.000  O
  O111     1.0000 0.80975  0.56361  0.76439  Biso   1.000  O
  C318     1.0000 0.88931  0.64500  0.79654  Biso   1.000  C
  H317     1.0000 0.81032  0.77761  0.71079  Biso   1.000  H
  C319     1.0000 0.88335  0.75978  0.76380  Biso   1.000  C
  H318     1.0000 0.62859  0.85879  0.74211  Biso   1.000  H
  H319     1.0000 0.59089  0.82698  0.69039  Biso   1.000  H
  H320     1.0000 0.65262  0.87272  0.67990  Biso   1.000  H
  C320     1.0000 0.51956  0.68418  0.84459  Biso   1.000  C
  C321     1.0000 0.63119  0.50825  0.84955  Biso   1.000  C
  C322     1.0000 0.82740  0.51762  0.80590  Biso   1.000  C
  C323     1.0000 0.91339  0.71066  0.79637  Biso   1.000  C
  H321     1.0000 0.90951  0.61048  0.81802  Biso   1.000  H
  O112     1.0000 0.91008  0.82411  0.76614  Biso   1.000  O
  C324     1.0000 0.53905  0.70687  0.90252  Biso   1.000  C
  H322     1.0000 0.48990  0.71809  0.82852  Biso   1.000  H
  H323     1.0000 0.49742  0.63962  0.84692  Biso   1.000  H
  H324     1.0000 0.61151  0.47751  0.87670  Biso   1.000  H
  H325     1.0000 0.67329  0.52161  0.86279  Biso   1.000  H
  H326     1.0000 0.63512  0.48458  0.81369  Biso   1.000  H
  C325     1.0000 0.78653  0.45529  0.80128  Biso   1.000  C
  H327     1.0000 0.82200  0.53893  0.84301  Biso   1.000  H
  H328     1.0000 0.87243  0.50481  0.80141  Biso   1.000  H
  C326     1.0000 0.96954  0.72992  0.83251  Biso   1.000  C
  C327     1.0000 0.89466  0.87185  0.72495  Biso   1.000  C
  C328     1.0000 0.55220  0.77546  0.91376  Biso   1.000  C
  C329     1.0000 0.54638  0.65980  0.94532  Biso   1.000  C
  O113     1.0000 0.75077  0.44263  0.76443  Biso   1.000  O
  O114     1.0000 0.79660  0.41523  0.84513  Biso   1.000  O
  H329     1.0000 0.99891  0.69048  0.83501  Biso   1.000  H
  H330     1.0000 0.99253  0.76859  0.81532  Biso   1.000  H
  C330     1.0000 0.94811  0.74990  0.89023  Biso   1.000  C
  H331     1.0000 0.85180  0.89060  0.73149  Biso   1.000  H
  H332     1.0000 0.89551  0.85008  0.68768  Biso   1.000  H
  C331     1.0000 0.94343  0.92819  0.72820  Biso   1.000  C
  O115     1.0000 0.54553  0.81940  0.86883  Biso   1.000  O
  C332     1.0000 0.57131  0.79569  0.96602  Biso   1.000  C
  C333     1.0000 0.56752  0.67973  0.99738  Biso   1.000  C
  H333     1.0000 0.53673  0.61299  0.93870  Biso   1.000  H
  C334     1.0000 0.76283  0.35070  0.84692  Biso   1.000  C
  C335     1.0000 0.93903  0.69422  0.93175  Biso   1.000  C
  C336     1.0000 0.93610  0.81423  0.90605  Biso   1.000  C
  O116     1.0000 0.99508  0.92333  0.74694  Biso   1.000  O
  O117     1.0000 0.92020  0.98479  0.70451  Biso   1.000  O
  C337     1.0000 0.55475  0.88952  0.87815  Biso   1.000  C
  H334     1.0000 0.57859  0.84291  0.97310  Biso   1.000  H
  C338     1.0000 0.58015  0.74846  0.00874  Biso   1.000  C
  O118     1.0000 0.57793  0.63389  0.04064  Biso   1.000  O
  H335     1.0000 0.77641  0.32442  0.87949  Biso   1.000  H
  H336     1.0000 0.77191  0.32452  0.81298  Biso   1.000  H
  H337     1.0000 0.71723  0.35951  0.84930  Biso   1.000  H
  O119     1.0000 0.95085  0.63465  0.91934  Biso   1.000  O
  C339     1.0000 0.91684  0.71210  0.98772  Biso   1.000  C
  H338     1.0000 0.94281  0.85008  0.87999  Biso   1.000  H
  C340     1.0000 0.91287  0.83200  0.96194  Biso   1.000  C
  C341     1.0000 0.96131  0.04328  0.70201  Biso   1.000  C
  H339     1.0000 0.56303  0.91293  0.84230  Biso   1.000  H
  H340     1.0000 0.59221  0.89618  0.90239  Biso   1.000  H
  C342     1.0000 0.49700  0.92071  0.90560  Biso   1.000  C
  C343     1.0000 0.60508  0.77249  0.06455  Biso   1.000  C
  C344     1.0000 0.56289  0.56433  0.02927  Biso   1.000  C
  C345     1.0000 0.90469  0.77612  0.00304  Biso   1.000  C
  H341     1.0000 0.91093  0.67640  0.01412  Biso   1.000  H
  O120     1.0000 0.90086  0.89162  0.97352  Biso   1.000  O
  H342     1.0000 0.98292  0.04891  0.73782  Biso   1.000  H
  H343     1.0000 0.93633  0.08441  0.69401  Biso   1.000  H
  H344     1.0000 0.99272  0.03662  0.67248  Biso   1.000  H
  O121     1.0000 0.44728  0.89449  0.90914  Biso   1.000  O
  O122     1.0000 0.51010  0.98218  0.92209  Biso   1.000  O
  C346     1.0000 0.67665  0.77955  0.06367  Biso   1.000  C
  H345     1.0000 0.59269  0.73919  0.09370  Biso   1.000  H
  H346     1.0000 0.58583  0.81720  0.07392  Biso   1.000  H
  H347     1.0000 0.58810  0.54809  0.99709  Biso   1.000  H
  H348     1.0000 0.51753  0.56039  0.01949  Biso   1.000  H
  C347     1.0000 0.57670  0.52079  0.07900  Biso   1.000  C
  C348     1.0000 0.88099  0.79400  0.06055  Biso   1.000  C
  C349     1.0000 0.45461  0.01793  0.94491  Biso   1.000  C
  C350     1.0000 0.71387  0.72403  0.07845  Biso   1.000  C
  C351     1.0000 0.70640  0.83989  0.04726  Biso   1.000  C
  O123     1.0000 0.54160  0.47659  0.09415  Biso   1.000  O
  O124     1.0000 0.63209  0.53237  0.10057  Biso   1.000  O
  H349     1.0000 0.89400  0.84132  0.07008  Biso   1.000  H
  H350     1.0000 0.89982  0.76250  0.08820  Biso   1.000  H
  C352     1.0000 0.80900  0.78841  0.06234  Biso   1.000  C
  H351     1.0000 0.42529  0.98443  0.96090  Biso   1.000  H
  H352     1.0000 0.46819  0.04999  0.97402  Biso   1.000  H
  H353     1.0000 0.43342  0.04328  0.91509  Biso   1.000  H
  C353     1.0000 0.77953  0.72818  0.07750  Biso   1.000  C
  H354     1.0000 0.69420  0.68239  0.08941  Biso   1.000  H
  C354     1.0000 0.77205  0.84424  0.04676  Biso   1.000  C
  O125     1.0000 0.66771  0.89377  0.03202  Biso   1.000  O
  C355     1.0000 0.64529  0.48930  0.14941  Biso   1.000  C
  O126     1.0000 0.81846  0.67461  0.09182  Biso   1.000  O
  H355     1.0000 0.79183  0.88578  0.03569  Biso   1.000  H
  C356     1.0000 0.69760  0.95201  0.00850  Biso   1.000  C
  H356     1.0000 0.60749  0.48668  0.17282  Biso   1.000  H
  H357     1.0000 0.68019  0.50942  0.17082  Biso   1.000  H
  H358     1.0000 0.65721  0.44320  0.13709  Biso   1.000  H
  C357     1.0000 0.78979  0.61289  0.11002  Biso   1.000  C
  H359     1.0000 0.66539  0.98561  0.99758  Biso   1.000  H
  H360     1.0000 0.72191  0.93823  0.97572  Biso   1.000  H
  H361     1.0000 0.72612  0.97260  0.03610  Biso   1.000  H
  H362     1.0000 0.76529  0.62159  0.14392  Biso   1.000  H
  H363     1.0000 0.82262  0.57883  0.11781  Biso   1.000  H
  H364     1.0000 0.76160  0.59552  0.08079  Biso   1.000  H
  C358     1.0000 0.31432  0.33313  0.26018  Biso   1.000  C
  C359     1.0000 0.35036  0.27351  0.25993  Biso   1.000  C
  C360     1.0000 0.25585  0.33963  0.29670  Biso   1.000  C
  C361     1.0000 0.33314  0.38681  0.22603  Biso   1.000  C
  O127     1.0000 0.32893  0.22045  0.29266  Biso   1.000  O
  C362     1.0000 0.40452  0.26916  0.22733  Biso   1.000  C
  H365     1.0000 0.25302  0.38722  0.31090  Biso   1.000  H
  H366     1.0000 0.26039  0.30880  0.32918  Biso   1.000  H
  C363     1.0000 0.19526  0.32222  0.26618  Biso   1.000  C
  C364     1.0000 0.38607  0.38153  0.19222  Biso   1.000  C
  H367     1.0000 0.30921  0.42799  0.22591  Biso   1.000  H
  C365     1.0000 0.36715  0.16088  0.29524  Biso   1.000  C
  C366     1.0000 0.42297  0.32263  0.19289  Biso   1.000  C
  H368     1.0000 0.42940  0.22869  0.22862  Biso   1.000  H
  C367     1.0000 0.16423  0.37129  0.23432  Biso   1.000  C
  C368     1.0000 0.17010  0.25666  0.26709  Biso   1.000  C
  O128     1.0000 0.40670  0.43254  0.15708  Biso   1.000  O
  H369     1.0000 0.37141  0.14121  0.25789  Biso   1.000  H
  H370     1.0000 0.40911  0.17302  0.30961  Biso   1.000  H
  H371     1.0000 0.34738  0.12728  0.32010  Biso   1.000  H
  C369     1.0000 0.48044  0.31582  0.15541  Biso   1.000  C
  O129     1.0000 0.19029  0.43639  0.23561  Biso   1.000  O
  C370     1.0000 0.11073  0.35500  0.20346  Biso   1.000  C
  H372     1.0000 0.18973  0.22239  0.28921  Biso   1.000  H
  C371     1.0000 0.11665  0.24022  0.23620  Biso   1.000  C
  C372     1.0000 0.36881  0.49175  0.15045  Biso   1.000  C
  C373     1.0000 0.46095  0.29313  0.09748  Biso   1.000  C
  H373     1.0000 0.51010  0.28191  0.17148  Biso   1.000  H
  H374     1.0000 0.50263  0.36038  0.15312  Biso   1.000  H
  C374     1.0000 0.17260  0.48238  0.19410  Biso   1.000  C
  C375     1.0000 0.08661  0.28934  0.20363  Biso   1.000  C
  H375     1.0000 0.09049  0.38952  0.18202  Biso   1.000  H
  O130     1.0000 0.08992  0.17589  0.23386  Biso   1.000  O
  H376     1.0000 0.38849  0.52249  0.12330  Biso   1.000  H
  H377     1.0000 0.32671  0.47839  0.13721  Biso   1.000  H
  H378     1.0000 0.36488  0.51542  0.18631  Biso   1.000  H
  C376     1.0000 0.44780  0.22460  0.08624  Biso   1.000  C
  C377     1.0000 0.45362  0.34020  0.05468  Biso   1.000  C
  H379     1.0000 0.17800  0.46112  0.15699  Biso   1.000  H
  H380     1.0000 0.12762  0.49519  0.19859  Biso   1.000  H
  C378     1.0000 0.21352  0.54471  0.19872  Biso   1.000  C
  C379     1.0000 0.03046  0.27008  0.16749  Biso   1.000  C
  C380     1.0000 0.10534  0.12815  0.27509  Biso   1.000  C
  O131     1.0000 0.45452  0.18060  0.13117  Biso   1.000  O
  C381     1.0000 0.42869  0.20436  0.03398  Biso   1.000  C
  C382     1.0000 0.43248  0.32032  0.00262  Biso   1.000  C
  H381     1.0000 0.46332  0.38701  0.06130  Biso   1.000  H
  O132     1.0000 0.24923  0.55737  0.23557  Biso   1.000  O
  O133     1.0000 0.20344  0.58477  0.15487  Biso   1.000  O
  H382     1.0000 0.00109  0.30952  0.16499  Biso   1.000  H
  H383     1.0000 0.00752  0.23141  0.18468  Biso   1.000  H
  C383     1.0000 0.05189  0.25010  0.10977  Biso   1.000  C
  H384     1.0000 0.14820  0.10940  0.26851  Biso   1.000  H
  H385     1.0000 0.10449  0.14992  0.31232  Biso   1.000  H
  C384     1.0000 0.05662  0.07181  0.27180  Biso   1.000  C
  C385     1.0000 0.44525  0.11048  0.12185  Biso   1.000  C
  H386     1.0000 0.42141  0.15709  0.02690  Biso   1.000  H
  C386     1.0000 0.41985  0.25154  0.99126  Biso   1.000  C
  O134     1.0000 0.42207  0.36611  0.95940  Biso   1.000  O
  C387     1.0000 0.23722  0.64930  0.15312  Biso   1.000  C
  C388     1.0000 0.06097  0.30578  0.06825  Biso   1.000  C
  C389     1.0000 0.06395  0.18577  0.09395  Biso   1.000  C
  O135     1.0000 0.00492  0.07667  0.25306  Biso   1.000  O
  O136     1.0000 0.07980  0.01521  0.29549  Biso   1.000  O
  H387     1.0000 0.43702  0.08712  0.15770  Biso   1.000  H
  H388     1.0000 0.40779  0.10382  0.09761  Biso   1.000  H
  C390     1.0000 0.50300  0.07929  0.09440  Biso   1.000  C
  C391     1.0000 0.39492  0.22751  0.93545  Biso   1.000  C
  C392     1.0000 0.43711  0.43567  0.97073  Biso   1.000  C
  H389     1.0000 0.22359  0.67558  0.12051  Biso   1.000  H
  H390     1.0000 0.22809  0.67553  0.18702  Biso   1.000  H
  H391     1.0000 0.28282  0.64049  0.15070  Biso   1.000  H
  O137     1.0000 0.04915  0.36535  0.08066  Biso   1.000  O
  C393     1.0000 0.08316  0.28795  0.01228  Biso   1.000  C
  H392     1.0000 0.05719  0.14992  0.12001  Biso   1.000  H
  C394     1.0000 0.08713  0.16800  0.03806  Biso   1.000  C
  C395     1.0000 0.03869  0.95672  0.29799  Biso   1.000  C
  O138     1.0000 0.55272  0.10556  0.09086  Biso   1.000  O
  O139     1.0000 0.48990  0.01782  0.07791  Biso   1.000  O
  C396     1.0000 0.32335  0.22045  0.93637  Biso   1.000  C
  H393     1.0000 0.40731  0.26081  0.90630  Biso   1.000  H
  H394     1.0000 0.41422  0.18280  0.92608  Biso   1.000  H
  H395     1.0000 0.41190  0.45191  0.00291  Biso   1.000  H
  H396     1.0000 0.48252  0.43961  0.98051  Biso   1.000  H
  C397     1.0000 0.42330  0.47921  0.92100  Biso   1.000  C
  C398     1.0000 0.09531  0.22388  0.99696  Biso   1.000  C
  H397     1.0000 0.08912  0.32360  0.98588  Biso   1.000  H
  O140     1.0000 0.09919  0.10838  0.02648  Biso   1.000  O
  H398     1.0000 0.01712  0.95109  0.26218  Biso   1.000  H
  H399     1.0000 0.06372  0.91559  0.30599  Biso   1.000  H
  H400     1.0000 0.00728  0.96338  0.32752  Biso   1.000  H
  C399     1.0000 0.54539  0.98212  0.05509  Biso   1.000  C
  C400     1.0000 0.29360  0.16016  0.95274  Biso   1.000  C
  C401     1.0000 0.28617  0.27597  0.92155  Biso   1.000  C
  O141     1.0000 0.45840  0.52341  0.90589  Biso   1.000  O
  O142     1.0000 0.36796  0.46763  0.89943  Biso   1.000  O
  C402     1.0000 0.11901  0.20600  0.93945  Biso   1.000  C
  H401     1.0000 0.57471  0.01562  0.03910  Biso   1.000  H
  H402     1.0000 0.53181  0.95001  0.02598  Biso   1.000  H
  H403     1.0000 0.56662  0.95672  0.08491  Biso   1.000  H
  O143     1.0000 0.33229  0.10623  0.96798  Biso   1.000  O
  C403     1.0000 0.22799  0.15576  0.95324  Biso   1.000  C
  C404     1.0000 0.22052  0.27182  0.92250  Biso   1.000  C
  H404     1.0000 0.30580  0.31761  0.91059  Biso   1.000  H
  C405     1.0000 0.35471  0.51070  0.85059  Biso   1.000  C
  C406     1.0000 0.19100  0.21159  0.93766  Biso   1.000  C
  H405     1.0000 0.10600  0.15868  0.92992  Biso   1.000  H
  H406     1.0000 0.10018  0.23750  0.91180  Biso   1.000  H
  C407     1.0000 0.30240  0.04799  0.99150  Biso   1.000  C
  H407     1.0000 0.20822  0.11422  0.96431  Biso   1.000  H
  O144     1.0000 0.18154  0.32539  0.90822  Biso   1.000  O
  H408     1.0000 0.39251  0.51332  0.82718  Biso   1.000  H
  H409     1.0000 0.31981  0.49063  0.82918  Biso   1.000  H
  H410     1.0000 0.34279  0.55680  0.86291  Biso   1.000  H
  H411     1.0000 0.33461  0.01439  0.00242  Biso   1.000  H
  H412     1.0000 0.27809  0.06182  0.02432  Biso   1.000  H
  H413     1.0000 0.27392  0.02740  0.96390  Biso   1.000  H
  C408     1.0000 0.21021  0.38716  0.88998  Biso   1.000  C
  H414     1.0000 0.23471  0.37841  0.85608  Biso   1.000  H
  H415     1.0000 0.17738  0.42123  0.88219  Biso   1.000  H
  H416     1.0000 0.23840  0.40448  0.91921  Biso   1.000  H
