data_image0
_cell_length_a       25.138
_cell_length_b       25.138
_cell_length_c       25.138
_cell_angle_alpha    90
_cell_angle_beta     90
_cell_angle_gamma    90

_symmetry_space_group_name_H-M    "P 1"
_symmetry_int_tables_number       1

loop_
  _symmetry_equiv_pos_as_xyz
  'x, y, z'

loop_
  _atom_site_label
  _atom_site_occupancy
  _atom_site_fract_x
  _atom_site_fract_y
  _atom_site_fract_z
  _atom_site_thermal_displace_type
  _atom_site_B_iso_or_equiv
  _atom_site_type_symbol
  C1       1.0000 0.37899  0.36212  0.30531  Biso   1.000  C
  C2       1.0000 0.39303  0.31789  0.33471  Biso   1.000  C
  H1       1.0000 0.39979  0.37151  0.27620  Biso   1.000  H
  C3       1.0000 0.33471  0.39303  0.31789  Biso   1.000  C
  C4       1.0000 0.36212  0.30531  0.37899  Biso   1.000  C
  C5       1.0000 0.43902  0.28431  0.32210  Biso   1.000  C
  C6       1.0000 0.30531  0.37899  0.36212  Biso   1.000  C
  C7       1.0000 0.32210  0.43902  0.28431  Biso   1.000  C
  C8       1.0000 0.31789  0.33471  0.39303  Biso   1.000  C
  H2       1.0000 0.37151  0.27620  0.39979  Biso   1.000  H
  N1       1.0000 0.47088  0.29549  0.28499  Biso   1.000  N
  H3       1.0000 0.44490  0.25380  0.34219  Biso   1.000  H
  H4       1.0000 0.27620  0.39979  0.37151  Biso   1.000  H
  N2       1.0000 0.28499  0.47088  0.29549  Biso   1.000  N
  H5       1.0000 0.34219  0.44490  0.25380  Biso   1.000  H
  C9       1.0000 0.28431  0.32210  0.43902  Biso   1.000  C
  C10      1.0000 0.51730  0.26156  0.27791  Biso   1.000  C
  C11      1.0000 0.27791  0.51730  0.26156  Biso   1.000  C
  N3       1.0000 0.29549  0.28499  0.47088  Biso   1.000  N
  H6       1.0000 0.25380  0.34219  0.44490  Biso   1.000  H
  C12      1.0000 0.51730  0.23844  0.22209  Biso   1.000  C
  H7       1.0000 0.51532  0.23220  0.30348  Biso   1.000  H
  C13      1.0000 0.56731  0.29239  0.28809  Biso   1.000  C
  C14      1.0000 0.22209  0.51730  0.23844  Biso   1.000  C
  H8       1.0000 0.30348  0.51532  0.23220  Biso   1.000  H
  C15      1.0000 0.28809  0.56731  0.29239  Biso   1.000  C
  C16      1.0000 0.26156  0.27791  0.51730  Biso   1.000  C
  N4       1.0000 0.47088  0.20451  0.21501  Biso   1.000  N
  H9       1.0000 0.51532  0.26780  0.19652  Biso   1.000  H
  C17      1.0000 0.56731  0.20761  0.21191  Biso   1.000  C
  H10      1.0000 0.56779  0.30368  0.32501  Biso   1.000  H
  H11      1.0000 0.56739  0.32401  0.26609  Biso   1.000  H
  C18      1.0000 0.61699  0.26040  0.27679  Biso   1.000  C
  N5       1.0000 0.21501  0.47088  0.20451  Biso   1.000  N
  H12      1.0000 0.19652  0.51532  0.26780  Biso   1.000  H
  C19      1.0000 0.21191  0.56731  0.20761  Biso   1.000  C
  H13      1.0000 0.32501  0.56779  0.30368  Biso   1.000  H
  H14      1.0000 0.26609  0.56739  0.32401  Biso   1.000  H
  C20      1.0000 0.27679  0.61699  0.26040  Biso   1.000  C
  H15      1.0000 0.23220  0.30348  0.51532  Biso   1.000  H
  C21      1.0000 0.29239  0.28809  0.56731  Biso   1.000  C
  C22      1.0000 0.23844  0.22209  0.51730  Biso   1.000  C
  C23      1.0000 0.43902  0.21569  0.17790  Biso   1.000  C
  H16      1.0000 0.56779  0.19632  0.17499  Biso   1.000  H
  H17      1.0000 0.56739  0.17599  0.23391  Biso   1.000  H
  C24      1.0000 0.61699  0.23960  0.22321  Biso   1.000  C
  H18      1.0000 0.64798  0.28280  0.28180  Biso   1.000  H
  H19      1.0000 0.61930  0.23108  0.30181  Biso   1.000  H
  C25      1.0000 0.17790  0.43902  0.21569  Biso   1.000  C
  H20      1.0000 0.17499  0.56779  0.19632  Biso   1.000  H
  H21      1.0000 0.23391  0.56739  0.17599  Biso   1.000  H
  C26      1.0000 0.22321  0.61699  0.23960  Biso   1.000  C
  H22      1.0000 0.28180  0.64798  0.28280  Biso   1.000  H
  H23      1.0000 0.30181  0.61930  0.23108  Biso   1.000  H
  H24      1.0000 0.30368  0.32501  0.56779  Biso   1.000  H
  H25      1.0000 0.32401  0.26609  0.56739  Biso   1.000  H
  C27      1.0000 0.26040  0.27679  0.61699  Biso   1.000  C
  N6       1.0000 0.20451  0.21501  0.47088  Biso   1.000  N
  H26      1.0000 0.26780  0.19652  0.51532  Biso   1.000  H
  C28      1.0000 0.20761  0.21191  0.56731  Biso   1.000  C
  C29      1.0000 0.39303  0.18211  0.16529  Biso   1.000  C
  H27      1.0000 0.44490  0.24620  0.15781  Biso   1.000  H
  H28      1.0000 0.64798  0.21720  0.21820  Biso   1.000  H
  H29      1.0000 0.61930  0.26892  0.19819  Biso   1.000  H
  C30      1.0000 0.16529  0.39303  0.18211  Biso   1.000  C
  H30      1.0000 0.15781  0.44490  0.24620  Biso   1.000  H
  H31      1.0000 0.21820  0.64798  0.21720  Biso   1.000  H
  H32      1.0000 0.19819  0.61930  0.26892  Biso   1.000  H
  H33      1.0000 0.28280  0.28180  0.64798  Biso   1.000  H
  H34      1.0000 0.23108  0.30181  0.61930  Biso   1.000  H
  C31      1.0000 0.23960  0.22321  0.61699  Biso   1.000  C
  C32      1.0000 0.21569  0.17790  0.43902  Biso   1.000  C
  H35      1.0000 0.19632  0.17499  0.56779  Biso   1.000  H
  H36      1.0000 0.17599  0.23391  0.56739  Biso   1.000  H
  C33      1.0000 0.36212  0.19469  0.12101  Biso   1.000  C
  C34      1.0000 0.37899  0.13792  0.19469  Biso   1.000  C
  C35      1.0000 0.19469  0.37899  0.13792  Biso   1.000  C
  C36      1.0000 0.12101  0.36212  0.19469  Biso   1.000  C
  H37      1.0000 0.21720  0.21820  0.64798  Biso   1.000  H
  H38      1.0000 0.26892  0.19819  0.61930  Biso   1.000  H
  C37      1.0000 0.18211  0.16529  0.39303  Biso   1.000  C
  H39      1.0000 0.24620  0.15781  0.44490  Biso   1.000  H
  H40      1.0000 0.37151  0.22380  0.10021  Biso   1.000  H
  C38      1.0000 0.31789  0.16529  0.10697  Biso   1.000  C
  H41      1.0000 0.39979  0.12849  0.22380  Biso   1.000  H
  C39      1.0000 0.33471  0.10697  0.18211  Biso   1.000  C
  H42      1.0000 0.22380  0.39979  0.12849  Biso   1.000  H
  C40      1.0000 0.18211  0.33471  0.10697  Biso   1.000  C
  H43      1.0000 0.10021  0.37151  0.22380  Biso   1.000  H
  C41      1.0000 0.10697  0.31789  0.16529  Biso   1.000  C
  C42      1.0000 0.13792  0.19469  0.37899  Biso   1.000  C
  C43      1.0000 0.19469  0.12101  0.36212  Biso   1.000  C
  C44      1.0000 0.30531  0.12101  0.13792  Biso   1.000  C
  C45      1.0000 0.28431  0.17790  0.06098  Biso   1.000  C
  C46      1.0000 0.32210  0.06098  0.21569  Biso   1.000  C
  C47      1.0000 0.13792  0.30531  0.12101  Biso   1.000  C
  C48      1.0000 0.21569  0.32210  0.06098  Biso   1.000  C
  C49      1.0000 0.06098  0.28431  0.17790  Biso   1.000  C
  H44      1.0000 0.12849  0.22380  0.39979  Biso   1.000  H
  C50      1.0000 0.10697  0.18211  0.33471  Biso   1.000  C
  H45      1.0000 0.22380  0.10021  0.37151  Biso   1.000  H
  C51      1.0000 0.16529  0.10697  0.31789  Biso   1.000  C
  H46      1.0000 0.27620  0.10021  0.12849  Biso   1.000  H
  N7       1.0000 0.29549  0.21501  0.02912  Biso   1.000  N
  H47      1.0000 0.25380  0.15781  0.05510  Biso   1.000  H
  N8       1.0000 0.28499  0.02912  0.20451  Biso   1.000  N
  H48      1.0000 0.34219  0.05510  0.24620  Biso   1.000  H
  H49      1.0000 0.12849  0.27620  0.10021  Biso   1.000  H
  N9       1.0000 0.20451  0.28499  0.02912  Biso   1.000  N
  H50      1.0000 0.24620  0.34219  0.05510  Biso   1.000  H
  N10      1.0000 0.02912  0.29549  0.21501  Biso   1.000  N
  H51      1.0000 0.05510  0.25380  0.15781  Biso   1.000  H
  C52      1.0000 0.12101  0.13792  0.30531  Biso   1.000  C
  C53      1.0000 0.06098  0.21569  0.32210  Biso   1.000  C
  C54      1.0000 0.17790  0.06098  0.28431  Biso   1.000  C
  C55      1.0000 0.26156  0.22209  0.98270  Biso   1.000  C
  C56      1.0000 0.27791  0.98270  0.23844  Biso   1.000  C
  C57      1.0000 0.23844  0.27791  0.98270  Biso   1.000  C
  C58      1.0000 0.98270  0.26156  0.22209  Biso   1.000  C
  H52      1.0000 0.10021  0.12849  0.27620  Biso   1.000  H
  N11      1.0000 0.02912  0.20451  0.28499  Biso   1.000  N
  H53      1.0000 0.05510  0.24620  0.34219  Biso   1.000  H
  N12      1.0000 0.21501  0.02912  0.29549  Biso   1.000  N
  H54      1.0000 0.15781  0.05510  0.25380  Biso   1.000  H
  H55      1.0000 0.23220  0.19652  0.98468  Biso   1.000  H
  C59      1.0000 0.29239  0.21191  0.93269  Biso   1.000  C
  C60      1.0000 0.22209  0.98270  0.26156  Biso   1.000  C
  H56      1.0000 0.30348  0.98468  0.26780  Biso   1.000  H
  C61      1.0000 0.28809  0.93269  0.20761  Biso   1.000  C
  H57      1.0000 0.26780  0.30348  0.98468  Biso   1.000  H
  C62      1.0000 0.20761  0.28809  0.93269  Biso   1.000  C
  C63      1.0000 0.98270  0.23844  0.27791  Biso   1.000  C
  H58      1.0000 0.98468  0.23220  0.19652  Biso   1.000  H
  C64      1.0000 0.93269  0.29239  0.21191  Biso   1.000  C
  H59      1.0000 0.30368  0.17499  0.93221  Biso   1.000  H
  H60      1.0000 0.32401  0.23391  0.93261  Biso   1.000  H
  C65      1.0000 0.26040  0.22321  0.88301  Biso   1.000  C
  H61      1.0000 0.19652  0.98468  0.23220  Biso   1.000  H
  C66      1.0000 0.21191  0.93269  0.29239  Biso   1.000  C
  H62      1.0000 0.32501  0.93221  0.19632  Biso   1.000  H
  H63      1.0000 0.26609  0.93261  0.17599  Biso   1.000  H
  C67      1.0000 0.27679  0.88301  0.23960  Biso   1.000  C
  H64      1.0000 0.19632  0.32501  0.93221  Biso   1.000  H
  H65      1.0000 0.17599  0.26609  0.93261  Biso   1.000  H
  C68      1.0000 0.23960  0.27679  0.88301  Biso   1.000  C
  H66      1.0000 0.98468  0.26780  0.30348  Biso   1.000  H
  C69      1.0000 0.93269  0.20761  0.28809  Biso   1.000  C
  H67      1.0000 0.93221  0.30368  0.17499  Biso   1.000  H
  H68      1.0000 0.93261  0.32401  0.23391  Biso   1.000  H
  C70      1.0000 0.88301  0.26040  0.22321  Biso   1.000  C
  H69      1.0000 0.28280  0.21820  0.85202  Biso   1.000  H
  H70      1.0000 0.23108  0.19819  0.88070  Biso   1.000  H
  H71      1.0000 0.17499  0.93221  0.30368  Biso   1.000  H
  H72      1.0000 0.23391  0.93261  0.32401  Biso   1.000  H
  C71      1.0000 0.22321  0.88301  0.26040  Biso   1.000  C
  H73      1.0000 0.28180  0.85202  0.21720  Biso   1.000  H
  H74      1.0000 0.30181  0.88070  0.26892  Biso   1.000  H
  H75      1.0000 0.21720  0.28180  0.85202  Biso   1.000  H
  H76      1.0000 0.26892  0.30181  0.88070  Biso   1.000  H
  H77      1.0000 0.93221  0.19632  0.32501  Biso   1.000  H
  H78      1.0000 0.93261  0.17599  0.26609  Biso   1.000  H
  C72      1.0000 0.88301  0.23960  0.27679  Biso   1.000  C
  H79      1.0000 0.85202  0.28280  0.21820  Biso   1.000  H
  H80      1.0000 0.88070  0.23108  0.19819  Biso   1.000  H
  H81      1.0000 0.21820  0.85202  0.28280  Biso   1.000  H
  H82      1.0000 0.19819  0.88070  0.23108  Biso   1.000  H
  H83      1.0000 0.85202  0.21720  0.28180  Biso   1.000  H
  H84      1.0000 0.88070  0.26892  0.30181  Biso   1.000  H
  C73      1.0000 0.51038  0.36701  0.47319  Biso   1.000  C
  C74      1.0000 0.54241  0.31729  0.46189  Biso   1.000  C
  C75      1.0000 0.48962  0.36701  0.52681  Biso   1.000  C
  H85      1.0000 0.53282  0.39800  0.46822  Biso   1.000  H
  H86      1.0000 0.48110  0.36932  0.44821  Biso   1.000  H
  C76      1.0000 0.51154  0.26732  0.47211  Biso   1.000  C
  H87      1.0000 0.55370  0.31781  0.42501  Biso   1.000  H
  H88      1.0000 0.57399  0.31741  0.48389  Biso   1.000  H
  C77      1.0000 0.45759  0.31729  0.53811  Biso   1.000  C
  H89      1.0000 0.46722  0.39800  0.53178  Biso   1.000  H
  H90      1.0000 0.51890  0.36932  0.55179  Biso   1.000  H
  N13      1.0000 0.54551  0.22090  0.46503  Biso   1.000  N
  C78      1.0000 0.48846  0.26732  0.52789  Biso   1.000  C
  H91      1.0000 0.48222  0.26530  0.44650  Biso   1.000  H
  H92      1.0000 0.44630  0.31781  0.57499  Biso   1.000  H
  H93      1.0000 0.42601  0.31741  0.51611  Biso   1.000  H
  C79      1.0000 0.53429  0.18900  0.42792  Biso   1.000  C
  N14      1.0000 0.45453  0.22090  0.53497  Biso   1.000  N
  H94      1.0000 0.51782  0.26530  0.55350  Biso   1.000  H
  C80      1.0000 0.56791  0.14305  0.41531  Biso   1.000  C
  H95      1.0000 0.50382  0.19488  0.40779  Biso   1.000  H
  H96      1.0000 0.50382  0.19492  0.40779  Biso   1.000  H
  C81      1.0000 0.46571  0.18900  0.57212  Biso   1.000  C
  C82      1.0000 0.55529  0.11210  0.37099  Biso   1.000  C
  C83      1.0000 0.61210  0.12901  0.44471  Biso   1.000  C
  C84      1.0000 0.43209  0.14305  0.58469  Biso   1.000  C
  H97      1.0000 0.49622  0.19488  0.59221  Biso   1.000  H
  H98      1.0000 0.49622  0.19492  0.59221  Biso   1.000  H
  H99      1.0000 0.52622  0.12149  0.35019  Biso   1.000  H
  C85      1.0000 0.58469  0.06791  0.35695  Biso   1.000  C
  H100     1.0000 0.62149  0.14981  0.47378  Biso   1.000  H
  C86      1.0000 0.64305  0.08469  0.43209  Biso   1.000  C
  C87      1.0000 0.38790  0.12901  0.55529  Biso   1.000  C
  C88      1.0000 0.44471  0.11210  0.62901  Biso   1.000  C
  C89      1.0000 0.62901  0.05529  0.38790  Biso   1.000  C
  C90      1.0000 0.57212  0.03429  0.31100  Biso   1.000  C
  C91      1.0000 0.68900  0.07208  0.46571  Biso   1.000  C
  C92      1.0000 0.68900  0.07212  0.46571  Biso   1.000  C
  H101     1.0000 0.37851  0.14981  0.52622  Biso   1.000  H
  C93      1.0000 0.35695  0.08469  0.56791  Biso   1.000  C
  C94      1.0000 0.41531  0.06791  0.64305  Biso   1.000  C
  H102     1.0000 0.47378  0.12149  0.64981  Biso   1.000  H
  H103     1.0000 0.64981  0.02622  0.37851  Biso   1.000  H
  N15      1.0000 0.53497  0.04551  0.27910  Biso   1.000  N
  H104     1.0000 0.59221  0.00382  0.30512  Biso   1.000  H
  N16      1.0000 0.72090  0.03497  0.45453  Biso   1.000  N
  H105     1.0000 0.69488  0.09221  0.49622  Biso   1.000  H
  C95      1.0000 0.37099  0.05529  0.61210  Biso   1.000  C
  C96      1.0000 0.31100  0.07208  0.53429  Biso   1.000  C
  C97      1.0000 0.31100  0.07212  0.53429  Biso   1.000  C
  C98      1.0000 0.42792  0.03429  0.68900  Biso   1.000  C
  C99      1.0000 0.52789  0.01154  0.23268  Biso   1.000  C
  C100     1.0000 0.76732  0.02789  0.48846  Biso   1.000  C
  H106     1.0000 0.35019  0.02622  0.62149  Biso   1.000  H
  N17      1.0000 0.27910  0.03497  0.54551  Biso   1.000  N
  H107     1.0000 0.30512  0.09221  0.50382  Biso   1.000  H
  N18      1.0000 0.46503  0.04551  0.72090  Biso   1.000  N
  H108     1.0000 0.40779  0.00382  0.69488  Biso   1.000  H
  C101     1.0000 0.53811  0.04241  0.18271  Biso   1.000  C
  C102     1.0000 0.47211  0.98846  0.23268  Biso   1.000  C
  H109     1.0000 0.55350  0.98222  0.23470  Biso   1.000  H
  H110     1.0000 0.76530  0.05350  0.51782  Biso   1.000  H
  C103     1.0000 0.81729  0.03811  0.45759  Biso   1.000  C
  C104     1.0000 0.76732  0.97211  0.51154  Biso   1.000  C
  C105     1.0000 0.23268  0.02789  0.51154  Biso   1.000  C
  C106     1.0000 0.47211  0.01154  0.76732  Biso   1.000  C
  H111     1.0000 0.57499  0.05370  0.18219  Biso   1.000  H
  H112     1.0000 0.51611  0.07399  0.18259  Biso   1.000  H
  C107     1.0000 0.52681  0.01038  0.13299  Biso   1.000  C
  C108     1.0000 0.52681  0.01042  0.13299  Biso   1.000  C
  H113     1.0000 0.44650  0.01778  0.23470  Biso   1.000  H
  H114     1.0000 0.44650  0.01782  0.23470  Biso   1.000  H
  N19      1.0000 0.46503  0.95449  0.27910  Biso   1.000  N
  C109     1.0000 0.46189  0.95759  0.18271  Biso   1.000  C
  N20      1.0000 0.46503  0.95453  0.27910  Biso   1.000  N
  H115     1.0000 0.81781  0.07499  0.44630  Biso   1.000  H
  H116     1.0000 0.81741  0.01611  0.42601  Biso   1.000  H
  C110     1.0000 0.86701  0.02681  0.48962  Biso   1.000  C
  N21      1.0000 0.72090  0.96503  0.54551  Biso   1.000  N
  H117     1.0000 0.76530  0.94650  0.48222  Biso   1.000  H
  C111     1.0000 0.81729  0.96189  0.54241  Biso   1.000  C
  H118     1.0000 0.23470  0.05350  0.48222  Biso   1.000  H
  C112     1.0000 0.18271  0.03811  0.54241  Biso   1.000  C
  C113     1.0000 0.23268  0.97211  0.48846  Biso   1.000  C
  C114     1.0000 0.46189  0.04241  0.81729  Biso   1.000  C
  H119     1.0000 0.44650  0.98222  0.76530  Biso   1.000  H
  C115     1.0000 0.52789  0.98846  0.76732  Biso   1.000  C
  H120     1.0000 0.53178  0.03282  0.10200  Biso   1.000  H
  C116     1.0000 0.47319  0.98962  0.13299  Biso   1.000  C
  H121     1.0000 0.55179  0.98110  0.13072  Biso   1.000  H
  C117     1.0000 0.42792  0.96571  0.31100  Biso   1.000  C
  H122     1.0000 0.42501  0.94630  0.18219  Biso   1.000  H
  H123     1.0000 0.48389  0.92601  0.18259  Biso   1.000  H
  H124     1.0000 0.89800  0.03178  0.46722  Biso   1.000  H
  H125     1.0000 0.86932  0.05179  0.51890  Biso   1.000  H
  C118     1.0000 0.86701  0.97319  0.51038  Biso   1.000  C
  C119     1.0000 0.68900  0.92792  0.53429  Biso   1.000  C
  H126     1.0000 0.81781  0.92501  0.55370  Biso   1.000  H
  H127     1.0000 0.81741  0.98389  0.57399  Biso   1.000  H
  H128     1.0000 0.18219  0.07499  0.55370  Biso   1.000  H
  H129     1.0000 0.18259  0.01611  0.57399  Biso   1.000  H
  C120     1.0000 0.13299  0.02681  0.51038  Biso   1.000  C
  N22      1.0000 0.27910  0.96503  0.45453  Biso   1.000  N
  H130     1.0000 0.23470  0.94650  0.51782  Biso   1.000  H
  C121     1.0000 0.18271  0.96189  0.45759  Biso   1.000  C
  H131     1.0000 0.42501  0.05370  0.81781  Biso   1.000  H
  H132     1.0000 0.48389  0.07399  0.81741  Biso   1.000  H
  C122     1.0000 0.47319  0.01038  0.86701  Biso   1.000  C
  C123     1.0000 0.47319  0.01042  0.86701  Biso   1.000  C
  H133     1.0000 0.55350  0.01778  0.76530  Biso   1.000  H
  H134     1.0000 0.55350  0.01782  0.76530  Biso   1.000  H
  N23      1.0000 0.53497  0.95449  0.72090  Biso   1.000  N
  C124     1.0000 0.53811  0.95759  0.81729  Biso   1.000  C
  N24      1.0000 0.53497  0.95453  0.72090  Biso   1.000  N
  H135     1.0000 0.44821  0.01890  0.13072  Biso   1.000  H
  H136     1.0000 0.46822  0.96718  0.10200  Biso   1.000  H
  H137     1.0000 0.46822  0.96722  0.10200  Biso   1.000  H
  C125     1.0000 0.41531  0.93209  0.35695  Biso   1.000  C
  H138     1.0000 0.40779  0.99618  0.30512  Biso   1.000  H
  H139     1.0000 0.40779  0.99622  0.30512  Biso   1.000  H
  H140     1.0000 0.89800  0.96822  0.53282  Biso   1.000  H
  H141     1.0000 0.86932  0.94821  0.48110  Biso   1.000  H
  C126     1.0000 0.64305  0.91531  0.56791  Biso   1.000  C
  H142     1.0000 0.69488  0.90779  0.50382  Biso   1.000  H
  H143     1.0000 0.10200  0.03178  0.53282  Biso   1.000  H
  H144     1.0000 0.13072  0.05179  0.48110  Biso   1.000  H
  C127     1.0000 0.13299  0.97319  0.48962  Biso   1.000  C
  C128     1.0000 0.31100  0.92792  0.46571  Biso   1.000  C
  H145     1.0000 0.18219  0.92501  0.44630  Biso   1.000  H
  H146     1.0000 0.18259  0.98389  0.42601  Biso   1.000  H
  H147     1.0000 0.46822  0.03282  0.89800  Biso   1.000  H
  H148     1.0000 0.44821  0.98110  0.86932  Biso   1.000  H
  C129     1.0000 0.52681  0.98962  0.86701  Biso   1.000  C
  C130     1.0000 0.57212  0.96571  0.68900  Biso   1.000  C
  H149     1.0000 0.57499  0.94630  0.81781  Biso   1.000  H
  H150     1.0000 0.51611  0.92601  0.81741  Biso   1.000  H
  C131     1.0000 0.44471  0.88790  0.37099  Biso   1.000  C
  C132     1.0000 0.37099  0.94471  0.38790  Biso   1.000  C
  C133     1.0000 0.61210  0.87099  0.55529  Biso   1.000  C
  C134     1.0000 0.62901  0.94471  0.61210  Biso   1.000  C
  H151     1.0000 0.10200  0.96822  0.46722  Biso   1.000  H
  H152     1.0000 0.13072  0.94821  0.51890  Biso   1.000  H
  C135     1.0000 0.35695  0.91531  0.43209  Biso   1.000  C
  H153     1.0000 0.30512  0.90779  0.49622  Biso   1.000  H
  H154     1.0000 0.55179  0.01890  0.86932  Biso   1.000  H
  H155     1.0000 0.53178  0.96718  0.89800  Biso   1.000  H
  H156     1.0000 0.53178  0.96722  0.89800  Biso   1.000  H
  C136     1.0000 0.58469  0.93209  0.64305  Biso   1.000  C
  H157     1.0000 0.59221  0.99618  0.69488  Biso   1.000  H
  H158     1.0000 0.59221  0.99622  0.69488  Biso   1.000  H
  H159     1.0000 0.47378  0.87851  0.35019  Biso   1.000  H
  C137     1.0000 0.43209  0.85695  0.41531  Biso   1.000  C
  H160     1.0000 0.35019  0.97378  0.37851  Biso   1.000  H
  H161     1.0000 0.62149  0.85019  0.52622  Biso   1.000  H
  C138     1.0000 0.56791  0.85695  0.58469  Biso   1.000  C
  H162     1.0000 0.64981  0.97378  0.62149  Biso   1.000  H
  C139     1.0000 0.38790  0.87099  0.44471  Biso   1.000  C
  C140     1.0000 0.55529  0.88790  0.62901  Biso   1.000  C
  C141     1.0000 0.46571  0.81100  0.42792  Biso   1.000  C
  C142     1.0000 0.53429  0.81100  0.57212  Biso   1.000  C
  H163     1.0000 0.37851  0.85019  0.47378  Biso   1.000  H
  H164     1.0000 0.52622  0.87851  0.64981  Biso   1.000  H
  N25      1.0000 0.45453  0.77910  0.46503  Biso   1.000  N
  H165     1.0000 0.49622  0.80512  0.40779  Biso   1.000  H
  N26      1.0000 0.54551  0.77910  0.53497  Biso   1.000  N
  H166     1.0000 0.50382  0.80512  0.59221  Biso   1.000  H
  C143     1.0000 0.48846  0.73268  0.47211  Biso   1.000  C
  C144     1.0000 0.51154  0.73268  0.52789  Biso   1.000  C
  H167     1.0000 0.51782  0.73470  0.44650  Biso   1.000  H
  C145     1.0000 0.45759  0.68271  0.46189  Biso   1.000  C
  H168     1.0000 0.48222  0.73470  0.55350  Biso   1.000  H
  C146     1.0000 0.54241  0.68271  0.53811  Biso   1.000  C
  H169     1.0000 0.44630  0.68219  0.42501  Biso   1.000  H
  H170     1.0000 0.42601  0.68259  0.48389  Biso   1.000  H
  C147     1.0000 0.48962  0.63299  0.47319  Biso   1.000  C
  H171     1.0000 0.55370  0.68219  0.57499  Biso   1.000  H
  H172     1.0000 0.57399  0.68259  0.51611  Biso   1.000  H
  C148     1.0000 0.51038  0.63299  0.52681  Biso   1.000  C
  H173     1.0000 0.46722  0.60200  0.46822  Biso   1.000  H
  H174     1.0000 0.51890  0.63068  0.44821  Biso   1.000  H
  H175     1.0000 0.51890  0.63072  0.44821  Biso   1.000  H
  H176     1.0000 0.53282  0.60200  0.53178  Biso   1.000  H
  H177     1.0000 0.48110  0.63068  0.55179  Biso   1.000  H
  H178     1.0000 0.48110  0.63072  0.55179  Biso   1.000  H
  C149     1.0000 0.51038  0.36701  0.47319  Biso   1.000  C
  C150     1.0000 0.54241  0.31729  0.46189  Biso   1.000  C
  C151     1.0000 0.48962  0.36701  0.52681  Biso   1.000  C
  H179     1.0000 0.53282  0.39800  0.46822  Biso   1.000  H
  H180     1.0000 0.48110  0.36932  0.44821  Biso   1.000  H
  C152     1.0000 0.51154  0.26732  0.47211  Biso   1.000  C
  H181     1.0000 0.55370  0.31781  0.42501  Biso   1.000  H
  H182     1.0000 0.57399  0.31741  0.48389  Biso   1.000  H
  C153     1.0000 0.45759  0.31729  0.53811  Biso   1.000  C
  H183     1.0000 0.46722  0.39800  0.53178  Biso   1.000  H
  H184     1.0000 0.51890  0.36932  0.55179  Biso   1.000  H
  N27      1.0000 0.54551  0.22090  0.46503  Biso   1.000  N
  C154     1.0000 0.48846  0.26732  0.52789  Biso   1.000  C
  H185     1.0000 0.48222  0.26530  0.44650  Biso   1.000  H
  H186     1.0000 0.44630  0.31781  0.57499  Biso   1.000  H
  H187     1.0000 0.42601  0.31741  0.51611  Biso   1.000  H
  C155     1.0000 0.53429  0.18900  0.42792  Biso   1.000  C
  N28      1.0000 0.45453  0.22090  0.53497  Biso   1.000  N
  H188     1.0000 0.51782  0.26530  0.55350  Biso   1.000  H
  C156     1.0000 0.56791  0.14305  0.41531  Biso   1.000  C
  H189     1.0000 0.50382  0.19488  0.40779  Biso   1.000  H
  H190     1.0000 0.50382  0.19492  0.40779  Biso   1.000  H
  C157     1.0000 0.46571  0.18900  0.57212  Biso   1.000  C
  C158     1.0000 0.55529  0.11210  0.37099  Biso   1.000  C
  C159     1.0000 0.61210  0.12901  0.44471  Biso   1.000  C
  C160     1.0000 0.43209  0.14305  0.58469  Biso   1.000  C
  H191     1.0000 0.49622  0.19488  0.59221  Biso   1.000  H
  H192     1.0000 0.49622  0.19492  0.59221  Biso   1.000  H
  H193     1.0000 0.52622  0.12149  0.35019  Biso   1.000  H
  C161     1.0000 0.58469  0.06791  0.35695  Biso   1.000  C
  H194     1.0000 0.62149  0.14981  0.47378  Biso   1.000  H
  C162     1.0000 0.64305  0.08469  0.43209  Biso   1.000  C
  C163     1.0000 0.38790  0.12901  0.55529  Biso   1.000  C
  C164     1.0000 0.44471  0.11210  0.62901  Biso   1.000  C
  C165     1.0000 0.62901  0.05529  0.38790  Biso   1.000  C
  C166     1.0000 0.57212  0.03429  0.31100  Biso   1.000  C
  C167     1.0000 0.68900  0.07208  0.46571  Biso   1.000  C
  C168     1.0000 0.68900  0.07212  0.46571  Biso   1.000  C
  H195     1.0000 0.37851  0.14981  0.52622  Biso   1.000  H
  C169     1.0000 0.35695  0.08469  0.56791  Biso   1.000  C
  C170     1.0000 0.41531  0.06791  0.64305  Biso   1.000  C
  H196     1.0000 0.47378  0.12149  0.64981  Biso   1.000  H
  H197     1.0000 0.64981  0.02622  0.37851  Biso   1.000  H
  N29      1.0000 0.53497  0.04551  0.27910  Biso   1.000  N
  H198     1.0000 0.59221  0.00382  0.30512  Biso   1.000  H
  N30      1.0000 0.72090  0.03497  0.45453  Biso   1.000  N
  H199     1.0000 0.69488  0.09221  0.49622  Biso   1.000  H
  C171     1.0000 0.37099  0.05529  0.61210  Biso   1.000  C
  C172     1.0000 0.31100  0.07208  0.53429  Biso   1.000  C
  C173     1.0000 0.31100  0.07212  0.53429  Biso   1.000  C
  C174     1.0000 0.42792  0.03429  0.68900  Biso   1.000  C
  C175     1.0000 0.52789  0.01154  0.23268  Biso   1.000  C
  C176     1.0000 0.76732  0.02789  0.48846  Biso   1.000  C
  H200     1.0000 0.35019  0.02622  0.62149  Biso   1.000  H
  N31      1.0000 0.27910  0.03497  0.54551  Biso   1.000  N
  H201     1.0000 0.30512  0.09221  0.50382  Biso   1.000  H
  N32      1.0000 0.46503  0.04551  0.72090  Biso   1.000  N
  H202     1.0000 0.40779  0.00382  0.69488  Biso   1.000  H
  C177     1.0000 0.53811  0.04241  0.18271  Biso   1.000  C
  C178     1.0000 0.47211  0.98846  0.23268  Biso   1.000  C
  H203     1.0000 0.55350  0.98222  0.23470  Biso   1.000  H
  H204     1.0000 0.76530  0.05350  0.51782  Biso   1.000  H
  C179     1.0000 0.81729  0.03811  0.45759  Biso   1.000  C
  C180     1.0000 0.76732  0.97211  0.51154  Biso   1.000  C
  C181     1.0000 0.23268  0.02789  0.51154  Biso   1.000  C
  C182     1.0000 0.47211  0.01154  0.76732  Biso   1.000  C
  H205     1.0000 0.57499  0.05370  0.18219  Biso   1.000  H
  H206     1.0000 0.51611  0.07399  0.18259  Biso   1.000  H
  C183     1.0000 0.52681  0.01038  0.13299  Biso   1.000  C
  C184     1.0000 0.52681  0.01042  0.13299  Biso   1.000  C
  N33      1.0000 0.46503  0.95449  0.27910  Biso   1.000  N
  C185     1.0000 0.46189  0.95759  0.18271  Biso   1.000  C
  N34      1.0000 0.46503  0.95453  0.27910  Biso   1.000  N
  H207     1.0000 0.44650  0.01778  0.23470  Biso   1.000  H
  H208     1.0000 0.44650  0.01782  0.23470  Biso   1.000  H
  H209     1.0000 0.81781  0.07499  0.44630  Biso   1.000  H
  H210     1.0000 0.81741  0.01611  0.42601  Biso   1.000  H
  C186     1.0000 0.86701  0.02681  0.48962  Biso   1.000  C
  N35      1.0000 0.72090  0.96503  0.54551  Biso   1.000  N
  H211     1.0000 0.76530  0.94650  0.48222  Biso   1.000  H
  C187     1.0000 0.81729  0.96189  0.54241  Biso   1.000  C
  H212     1.0000 0.23470  0.05350  0.48222  Biso   1.000  H
  C188     1.0000 0.18271  0.03811  0.54241  Biso   1.000  C
  C189     1.0000 0.23268  0.97211  0.48846  Biso   1.000  C
  C190     1.0000 0.46189  0.04241  0.81729  Biso   1.000  C
  H213     1.0000 0.44650  0.98222  0.76530  Biso   1.000  H
  C191     1.0000 0.52789  0.98846  0.76732  Biso   1.000  C
  H214     1.0000 0.53178  0.03282  0.10200  Biso   1.000  H
  C192     1.0000 0.47319  0.98962  0.13299  Biso   1.000  C
  H215     1.0000 0.55179  0.98110  0.13072  Biso   1.000  H
  C193     1.0000 0.42792  0.96571  0.31100  Biso   1.000  C
  H216     1.0000 0.42501  0.94630  0.18219  Biso   1.000  H
  H217     1.0000 0.48389  0.92601  0.18259  Biso   1.000  H
  H218     1.0000 0.89800  0.03178  0.46722  Biso   1.000  H
  H219     1.0000 0.86932  0.05179  0.51890  Biso   1.000  H
  C194     1.0000 0.86701  0.97319  0.51038  Biso   1.000  C
  C195     1.0000 0.68900  0.92792  0.53429  Biso   1.000  C
  H220     1.0000 0.81781  0.92501  0.55370  Biso   1.000  H
  H221     1.0000 0.81741  0.98389  0.57399  Biso   1.000  H
  H222     1.0000 0.18219  0.07499  0.55370  Biso   1.000  H
  H223     1.0000 0.18259  0.01611  0.57399  Biso   1.000  H
  C196     1.0000 0.13299  0.02681  0.51038  Biso   1.000  C
  N36      1.0000 0.27910  0.96503  0.45453  Biso   1.000  N
  H224     1.0000 0.23470  0.94650  0.51782  Biso   1.000  H
  C197     1.0000 0.18271  0.96189  0.45759  Biso   1.000  C
  H225     1.0000 0.42501  0.05370  0.81781  Biso   1.000  H
  H226     1.0000 0.48389  0.07399  0.81741  Biso   1.000  H
  C198     1.0000 0.47319  0.01038  0.86701  Biso   1.000  C
  C199     1.0000 0.47319  0.01042  0.86701  Biso   1.000  C
  N37      1.0000 0.53497  0.95449  0.72090  Biso   1.000  N
  C200     1.0000 0.53811  0.95759  0.81729  Biso   1.000  C
  N38      1.0000 0.53497  0.95453  0.72090  Biso   1.000  N
  H227     1.0000 0.55350  0.01778  0.76530  Biso   1.000  H
  H228     1.0000 0.55350  0.01782  0.76530  Biso   1.000  H
  H229     1.0000 0.44821  0.01890  0.13072  Biso   1.000  H
  H230     1.0000 0.46822  0.96718  0.10200  Biso   1.000  H
  H231     1.0000 0.46822  0.96722  0.10200  Biso   1.000  H
  C201     1.0000 0.41531  0.93209  0.35695  Biso   1.000  C
  H232     1.0000 0.40779  0.99618  0.30512  Biso   1.000  H
  H233     1.0000 0.40779  0.99622  0.30512  Biso   1.000  H
  H234     1.0000 0.89800  0.96822  0.53282  Biso   1.000  H
  H235     1.0000 0.86932  0.94821  0.48110  Biso   1.000  H
  C202     1.0000 0.64305  0.91531  0.56791  Biso   1.000  C
  H236     1.0000 0.69488  0.90779  0.50382  Biso   1.000  H
  H237     1.0000 0.10200  0.03178  0.53282  Biso   1.000  H
  H238     1.0000 0.13072  0.05179  0.48110  Biso   1.000  H
  C203     1.0000 0.13299  0.97319  0.48962  Biso   1.000  C
  C204     1.0000 0.31100  0.92792  0.46571  Biso   1.000  C
  H239     1.0000 0.18219  0.92501  0.44630  Biso   1.000  H
  H240     1.0000 0.18259  0.98389  0.42601  Biso   1.000  H
  H241     1.0000 0.46822  0.03282  0.89800  Biso   1.000  H
  H242     1.0000 0.44821  0.98110  0.86932  Biso   1.000  H
  C205     1.0000 0.52681  0.98962  0.86701  Biso   1.000  C
  C206     1.0000 0.57212  0.96571  0.68900  Biso   1.000  C
  H243     1.0000 0.57499  0.94630  0.81781  Biso   1.000  H
  H244     1.0000 0.51611  0.92601  0.81741  Biso   1.000  H
  C207     1.0000 0.44471  0.88790  0.37099  Biso   1.000  C
  C208     1.0000 0.37099  0.94471  0.38790  Biso   1.000  C
  C209     1.0000 0.61210  0.87099  0.55529  Biso   1.000  C
  C210     1.0000 0.62901  0.94471  0.61210  Biso   1.000  C
  H245     1.0000 0.10200  0.96822  0.46722  Biso   1.000  H
  H246     1.0000 0.13072  0.94821  0.51890  Biso   1.000  H
  C211     1.0000 0.35695  0.91531  0.43209  Biso   1.000  C
  H247     1.0000 0.30512  0.90779  0.49622  Biso   1.000  H
  H248     1.0000 0.55179  0.01890  0.86932  Biso   1.000  H
  H249     1.0000 0.53178  0.96718  0.89800  Biso   1.000  H
  H250     1.0000 0.53178  0.96722  0.89800  Biso   1.000  H
  C212     1.0000 0.58469  0.93209  0.64305  Biso   1.000  C
  H251     1.0000 0.59221  0.99618  0.69488  Biso   1.000  H
  H252     1.0000 0.59221  0.99622  0.69488  Biso   1.000  H
  H253     1.0000 0.47378  0.87851  0.35019  Biso   1.000  H
  C213     1.0000 0.43209  0.85695  0.41531  Biso   1.000  C
  H254     1.0000 0.35019  0.97378  0.37851  Biso   1.000  H
  H255     1.0000 0.62149  0.85019  0.52622  Biso   1.000  H
  C214     1.0000 0.56791  0.85695  0.58469  Biso   1.000  C
  H256     1.0000 0.64981  0.97378  0.62149  Biso   1.000  H
  C215     1.0000 0.38790  0.87099  0.44471  Biso   1.000  C
  C216     1.0000 0.55529  0.88790  0.62901  Biso   1.000  C
  C217     1.0000 0.46571  0.81100  0.42792  Biso   1.000  C
  C218     1.0000 0.53429  0.81100  0.57212  Biso   1.000  C
  H257     1.0000 0.37851  0.85019  0.47378  Biso   1.000  H
  H258     1.0000 0.52622  0.87851  0.64981  Biso   1.000  H
  N39      1.0000 0.45453  0.77910  0.46503  Biso   1.000  N
  H259     1.0000 0.49622  0.80512  0.40779  Biso   1.000  H
  N40      1.0000 0.54551  0.77910  0.53497  Biso   1.000  N
  H260     1.0000 0.50382  0.80512  0.59221  Biso   1.000  H
  C219     1.0000 0.48846  0.73268  0.47211  Biso   1.000  C
  C220     1.0000 0.51154  0.73268  0.52789  Biso   1.000  C
  H261     1.0000 0.51782  0.73470  0.44650  Biso   1.000  H
  C221     1.0000 0.45759  0.68271  0.46189  Biso   1.000  C
  H262     1.0000 0.48222  0.73470  0.55350  Biso   1.000  H
  C222     1.0000 0.54241  0.68271  0.53811  Biso   1.000  C
  H263     1.0000 0.44630  0.68219  0.42501  Biso   1.000  H
  H264     1.0000 0.42601  0.68259  0.48389  Biso   1.000  H
  C223     1.0000 0.48962  0.63299  0.47319  Biso   1.000  C
  H265     1.0000 0.55370  0.68219  0.57499  Biso   1.000  H
  H266     1.0000 0.57399  0.68259  0.51611  Biso   1.000  H
  C224     1.0000 0.51038  0.63299  0.52681  Biso   1.000  C
  H267     1.0000 0.46722  0.60200  0.46822  Biso   1.000  H
  H268     1.0000 0.51890  0.63068  0.44821  Biso   1.000  H
  H269     1.0000 0.51890  0.63072  0.44821  Biso   1.000  H
  H270     1.0000 0.53282  0.60200  0.53178  Biso   1.000  H
  H271     1.0000 0.48110  0.63068  0.55179  Biso   1.000  H
  H272     1.0000 0.48110  0.63072  0.55179  Biso   1.000  H
  C225     1.0000 0.47319  0.51038  0.36701  Biso   1.000  C
  C226     1.0000 0.52681  0.48962  0.36701  Biso   1.000  C
  C227     1.0000 0.46189  0.54241  0.31729  Biso   1.000  C
  H273     1.0000 0.46822  0.53282  0.39800  Biso   1.000  H
  H274     1.0000 0.44821  0.48110  0.36932  Biso   1.000  H
  C228     1.0000 0.53811  0.45759  0.31729  Biso   1.000  C
  H275     1.0000 0.53178  0.46722  0.39800  Biso   1.000  H
  H276     1.0000 0.55179  0.51890  0.36932  Biso   1.000  H
  C229     1.0000 0.47211  0.51154  0.26732  Biso   1.000  C
  H277     1.0000 0.42501  0.55370  0.31781  Biso   1.000  H
  H278     1.0000 0.48389  0.57399  0.31741  Biso   1.000  H
  C230     1.0000 0.52789  0.48846  0.26732  Biso   1.000  C
  H279     1.0000 0.57499  0.44630  0.31781  Biso   1.000  H
  H280     1.0000 0.51611  0.42601  0.31741  Biso   1.000  H
  N41      1.0000 0.46503  0.54551  0.22090  Biso   1.000  N
  H281     1.0000 0.44650  0.48222  0.26530  Biso   1.000  H
  N42      1.0000 0.53497  0.45453  0.22090  Biso   1.000  N
  H282     1.0000 0.55350  0.51782  0.26530  Biso   1.000  H
  C231     1.0000 0.42792  0.53429  0.18900  Biso   1.000  C
  C232     1.0000 0.57212  0.46571  0.18900  Biso   1.000  C
  C233     1.0000 0.41531  0.56791  0.14305  Biso   1.000  C
  H283     1.0000 0.40779  0.50382  0.19488  Biso   1.000  H
  H284     1.0000 0.40779  0.50382  0.19492  Biso   1.000  H
  C234     1.0000 0.58469  0.43209  0.14305  Biso   1.000  C
  H285     1.0000 0.59221  0.49622  0.19488  Biso   1.000  H
  H286     1.0000 0.59221  0.49622  0.19492  Biso   1.000  H
  C235     1.0000 0.44471  0.61210  0.12901  Biso   1.000  C
  C236     1.0000 0.37099  0.55529  0.11210  Biso   1.000  C
  C237     1.0000 0.55529  0.38790  0.12901  Biso   1.000  C
  C238     1.0000 0.62901  0.44471  0.11210  Biso   1.000  C
  H287     1.0000 0.47378  0.62149  0.14981  Biso   1.000  H
  C239     1.0000 0.43209  0.64305  0.08469  Biso   1.000  C
  H288     1.0000 0.35019  0.52622  0.12149  Biso   1.000  H
  C240     1.0000 0.35695  0.58469  0.06791  Biso   1.000  C
  C241     1.0000 0.56791  0.35695  0.08469  Biso   1.000  C
  H289     1.0000 0.52622  0.37851  0.14981  Biso   1.000  H
  C242     1.0000 0.64305  0.41531  0.06791  Biso   1.000  C
  H290     1.0000 0.64981  0.47378  0.12149  Biso   1.000  H
  C243     1.0000 0.38790  0.62901  0.05529  Biso   1.000  C
  C244     1.0000 0.46571  0.68900  0.07208  Biso   1.000  C
  C245     1.0000 0.46571  0.68900  0.07212  Biso   1.000  C
  C246     1.0000 0.31100  0.57212  0.03429  Biso   1.000  C
  C247     1.0000 0.53429  0.31100  0.07212  Biso   1.000  C
  C248     1.0000 0.53429  0.31100  0.07208  Biso   1.000  C
  C249     1.0000 0.61210  0.37099  0.05529  Biso   1.000  C
  C250     1.0000 0.68900  0.42792  0.03429  Biso   1.000  C
  H291     1.0000 0.37851  0.64981  0.02622  Biso   1.000  H
  N43      1.0000 0.45453  0.72090  0.03497  Biso   1.000  N
  H292     1.0000 0.49622  0.69488  0.09221  Biso   1.000  H
  N44      1.0000 0.27910  0.53497  0.04551  Biso   1.000  N
  H293     1.0000 0.30512  0.59221  0.00382  Biso   1.000  H
  N45      1.0000 0.54551  0.27910  0.03497  Biso   1.000  N
  H294     1.0000 0.50382  0.30512  0.09221  Biso   1.000  H
  H295     1.0000 0.62149  0.35019  0.02622  Biso   1.000  H
  N46      1.0000 0.72090  0.46503  0.04551  Biso   1.000  N
  H296     1.0000 0.69488  0.40779  0.00382  Biso   1.000  H
  C251     1.0000 0.48846  0.76732  0.02789  Biso   1.000  C
  C252     1.0000 0.23268  0.52789  0.01154  Biso   1.000  C
  C253     1.0000 0.51154  0.23268  0.02789  Biso   1.000  C
  C254     1.0000 0.76732  0.47211  0.01154  Biso   1.000  C
  C255     1.0000 0.51154  0.76732  0.97211  Biso   1.000  C
  H297     1.0000 0.51782  0.76530  0.05350  Biso   1.000  H
  C256     1.0000 0.45759  0.81729  0.03811  Biso   1.000  C
  C257     1.0000 0.23268  0.47211  0.98846  Biso   1.000  C
  C258     1.0000 0.18271  0.53811  0.04241  Biso   1.000  C
  H298     1.0000 0.23470  0.55350  0.98222  Biso   1.000  H
  H299     1.0000 0.48222  0.23470  0.05350  Biso   1.000  H
  C259     1.0000 0.54241  0.18271  0.03811  Biso   1.000  C
  C260     1.0000 0.48846  0.23268  0.97211  Biso   1.000  C
  C261     1.0000 0.81729  0.46189  0.04241  Biso   1.000  C
  C262     1.0000 0.76732  0.52789  0.98846  Biso   1.000  C
  H300     1.0000 0.76530  0.44650  0.98222  Biso   1.000  H
  N47      1.0000 0.54551  0.72090  0.96503  Biso   1.000  N
  H301     1.0000 0.48222  0.76530  0.94650  Biso   1.000  H
  C263     1.0000 0.54241  0.81729  0.96189  Biso   1.000  C
  H302     1.0000 0.44630  0.81781  0.07499  Biso   1.000  H
  H303     1.0000 0.42601  0.81741  0.01611  Biso   1.000  H
  C264     1.0000 0.48962  0.86701  0.02681  Biso   1.000  C
  N48      1.0000 0.27910  0.46503  0.95449  Biso   1.000  N
  N49      1.0000 0.27910  0.46503  0.95453  Biso   1.000  N
  H304     1.0000 0.23470  0.44650  0.01778  Biso   1.000  H
  H305     1.0000 0.23470  0.44650  0.01782  Biso   1.000  H
  C265     1.0000 0.18271  0.46189  0.95759  Biso   1.000  C
  H306     1.0000 0.18219  0.57499  0.05370  Biso   1.000  H
  H307     1.0000 0.18259  0.51611  0.07399  Biso   1.000  H
  C266     1.0000 0.13299  0.52681  0.01038  Biso   1.000  C
  C267     1.0000 0.13299  0.52681  0.01042  Biso   1.000  C
  H308     1.0000 0.55370  0.18219  0.07499  Biso   1.000  H
  H309     1.0000 0.57399  0.18259  0.01611  Biso   1.000  H
  C268     1.0000 0.51038  0.13299  0.02681  Biso   1.000  C
  N50      1.0000 0.45453  0.27910  0.96503  Biso   1.000  N
  H310     1.0000 0.51782  0.23470  0.94650  Biso   1.000  H
  C269     1.0000 0.45759  0.18271  0.96189  Biso   1.000  C
  H311     1.0000 0.81781  0.42501  0.05370  Biso   1.000  H
  H312     1.0000 0.81741  0.48389  0.07399  Biso   1.000  H
  C270     1.0000 0.86701  0.47319  0.01038  Biso   1.000  C
  C271     1.0000 0.86701  0.47319  0.01042  Biso   1.000  C
  H313     1.0000 0.76530  0.55350  0.01778  Biso   1.000  H
  H314     1.0000 0.76530  0.55350  0.01782  Biso   1.000  H
  N51      1.0000 0.72090  0.53497  0.95449  Biso   1.000  N
  C272     1.0000 0.81729  0.53811  0.95759  Biso   1.000  C
  N52      1.0000 0.72090  0.53497  0.95453  Biso   1.000  N
  C273     1.0000 0.53429  0.68900  0.92792  Biso   1.000  C
  H315     1.0000 0.55370  0.81781  0.92501  Biso   1.000  H
  H316     1.0000 0.57399  0.81741  0.98389  Biso   1.000  H
  C274     1.0000 0.51038  0.86701  0.97319  Biso   1.000  C
  H317     1.0000 0.46722  0.89800  0.03178  Biso   1.000  H
  H318     1.0000 0.51890  0.86932  0.05179  Biso   1.000  H
  C275     1.0000 0.31100  0.42792  0.96571  Biso   1.000  C
  H319     1.0000 0.18219  0.42501  0.94630  Biso   1.000  H
  H320     1.0000 0.18259  0.48389  0.92601  Biso   1.000  H
  C276     1.0000 0.13299  0.47319  0.98962  Biso   1.000  C
  H321     1.0000 0.10200  0.53178  0.03282  Biso   1.000  H
  H322     1.0000 0.13072  0.55179  0.98110  Biso   1.000  H
  H323     1.0000 0.53282  0.10200  0.03178  Biso   1.000  H
  H324     1.0000 0.48110  0.13072  0.05179  Biso   1.000  H
  C277     1.0000 0.48962  0.13299  0.97319  Biso   1.000  C
  C278     1.0000 0.46571  0.31100  0.92792  Biso   1.000  C
  H325     1.0000 0.44630  0.18219  0.92501  Biso   1.000  H
  H326     1.0000 0.42601  0.18259  0.98389  Biso   1.000  H
  H327     1.0000 0.89800  0.46822  0.03282  Biso   1.000  H
  C279     1.0000 0.86701  0.52681  0.98962  Biso   1.000  C
  H328     1.0000 0.86932  0.44821  0.98110  Biso   1.000  H
  C280     1.0000 0.68900  0.57212  0.96571  Biso   1.000  C
  H329     1.0000 0.81781  0.57499  0.94630  Biso   1.000  H
  H330     1.0000 0.81741  0.51611  0.92601  Biso   1.000  H
  C281     1.0000 0.56791  0.64305  0.91531  Biso   1.000  C
  H331     1.0000 0.50382  0.69488  0.90779  Biso   1.000  H
  H332     1.0000 0.53282  0.89800  0.96822  Biso   1.000  H
  H333     1.0000 0.48110  0.86932  0.94821  Biso   1.000  H
  C282     1.0000 0.35695  0.41531  0.93209  Biso   1.000  C
  H334     1.0000 0.30512  0.40779  0.99618  Biso   1.000  H
  H335     1.0000 0.30512  0.40779  0.99622  Biso   1.000  H
  H336     1.0000 0.13072  0.44821  0.01890  Biso   1.000  H
  H337     1.0000 0.10200  0.46822  0.96718  Biso   1.000  H
  H338     1.0000 0.10200  0.46822  0.96722  Biso   1.000  H
  H339     1.0000 0.46722  0.10200  0.96822  Biso   1.000  H
  H340     1.0000 0.51890  0.13072  0.94821  Biso   1.000  H
  C283     1.0000 0.43209  0.35695  0.91531  Biso   1.000  C
  H341     1.0000 0.49622  0.30512  0.90779  Biso   1.000  H
  H342     1.0000 0.86932  0.55179  0.01890  Biso   1.000  H
  H343     1.0000 0.89800  0.53178  0.96718  Biso   1.000  H
  H344     1.0000 0.89800  0.53178  0.96722  Biso   1.000  H
  C284     1.0000 0.64305  0.58469  0.93209  Biso   1.000  C
  H345     1.0000 0.69488  0.59221  0.99618  Biso   1.000  H
  H346     1.0000 0.69488  0.59221  0.99622  Biso   1.000  H
  C285     1.0000 0.61210  0.62901  0.94471  Biso   1.000  C
  C286     1.0000 0.55529  0.61210  0.87099  Biso   1.000  C
  C287     1.0000 0.38790  0.37099  0.94471  Biso   1.000  C
  C288     1.0000 0.37099  0.44471  0.88790  Biso   1.000  C
  C289     1.0000 0.44471  0.38790  0.87099  Biso   1.000  C
  C290     1.0000 0.62901  0.55529  0.88790  Biso   1.000  C
  H347     1.0000 0.62149  0.64981  0.97378  Biso   1.000  H
  C291     1.0000 0.58469  0.56791  0.85695  Biso   1.000  C
  H348     1.0000 0.52622  0.62149  0.85019  Biso   1.000  H
  H349     1.0000 0.37851  0.35019  0.97378  Biso   1.000  H
  C292     1.0000 0.41531  0.43209  0.85695  Biso   1.000  C
  H350     1.0000 0.35019  0.47378  0.87851  Biso   1.000  H
  H351     1.0000 0.47378  0.37851  0.85019  Biso   1.000  H
  H352     1.0000 0.64981  0.52622  0.87851  Biso   1.000  H
  C293     1.0000 0.57212  0.53429  0.81100  Biso   1.000  C
  C294     1.0000 0.42792  0.46571  0.81100  Biso   1.000  C
  N53      1.0000 0.53497  0.54551  0.77910  Biso   1.000  N
  H353     1.0000 0.59221  0.50382  0.80512  Biso   1.000  H
  N54      1.0000 0.46503  0.45453  0.77910  Biso   1.000  N
  H354     1.0000 0.40779  0.49622  0.80512  Biso   1.000  H
  C295     1.0000 0.52789  0.51154  0.73268  Biso   1.000  C
  C296     1.0000 0.47211  0.48846  0.73268  Biso   1.000  C
  H355     1.0000 0.55350  0.48222  0.73470  Biso   1.000  H
  C297     1.0000 0.53811  0.54241  0.68271  Biso   1.000  C
  H356     1.0000 0.44650  0.51782  0.73470  Biso   1.000  H
  C298     1.0000 0.46189  0.45759  0.68271  Biso   1.000  C
  H357     1.0000 0.57499  0.55370  0.68219  Biso   1.000  H
  H358     1.0000 0.51611  0.57399  0.68259  Biso   1.000  H
  C299     1.0000 0.52681  0.51038  0.63299  Biso   1.000  C
  H359     1.0000 0.42501  0.44630  0.68219  Biso   1.000  H
  H360     1.0000 0.48389  0.42601  0.68259  Biso   1.000  H
  C300     1.0000 0.47319  0.48962  0.63299  Biso   1.000  C
  H361     1.0000 0.53178  0.53282  0.60200  Biso   1.000  H
  H362     1.0000 0.55179  0.48110  0.63068  Biso   1.000  H
  H363     1.0000 0.55179  0.48110  0.63072  Biso   1.000  H
  H364     1.0000 0.46822  0.46722  0.60200  Biso   1.000  H
  H365     1.0000 0.44821  0.51890  0.63068  Biso   1.000  H
  H366     1.0000 0.44821  0.51890  0.63072  Biso   1.000  H
  C301     1.0000 0.47319  0.51038  0.36701  Biso   1.000  C
  C302     1.0000 0.46189  0.54241  0.31729  Biso   1.000  C
  C303     1.0000 0.52681  0.48962  0.36701  Biso   1.000  C
  H367     1.0000 0.46822  0.53282  0.39800  Biso   1.000  H
  H368     1.0000 0.44821  0.48110  0.36932  Biso   1.000  H
  C304     1.0000 0.47211  0.51154  0.26732  Biso   1.000  C
  H369     1.0000 0.42501  0.55370  0.31781  Biso   1.000  H
  H370     1.0000 0.48389  0.57399  0.31741  Biso   1.000  H
  C305     1.0000 0.53811  0.45759  0.31729  Biso   1.000  C
  H371     1.0000 0.53178  0.46722  0.39800  Biso   1.000  H
  H372     1.0000 0.55179  0.51890  0.36932  Biso   1.000  H
  N55      1.0000 0.46503  0.54551  0.22090  Biso   1.000  N
  C306     1.0000 0.52789  0.48846  0.26732  Biso   1.000  C
  H373     1.0000 0.44650  0.48222  0.26530  Biso   1.000  H
  H374     1.0000 0.57499  0.44630  0.31781  Biso   1.000  H
  H375     1.0000 0.51611  0.42601  0.31741  Biso   1.000  H
  C307     1.0000 0.42792  0.53429  0.18900  Biso   1.000  C
  N56      1.0000 0.53497  0.45453  0.22090  Biso   1.000  N
  H376     1.0000 0.55350  0.51782  0.26530  Biso   1.000  H
  C308     1.0000 0.41531  0.56791  0.14305  Biso   1.000  C
  H377     1.0000 0.40779  0.50382  0.19488  Biso   1.000  H
  H378     1.0000 0.40779  0.50382  0.19492  Biso   1.000  H
  C309     1.0000 0.57212  0.46571  0.18900  Biso   1.000  C
  C310     1.0000 0.44471  0.61210  0.12901  Biso   1.000  C
  C311     1.0000 0.37099  0.55529  0.11210  Biso   1.000  C
  C312     1.0000 0.58469  0.43209  0.14305  Biso   1.000  C
  H379     1.0000 0.59221  0.49622  0.19488  Biso   1.000  H
  H380     1.0000 0.59221  0.49622  0.19492  Biso   1.000  H
  H381     1.0000 0.47378  0.62149  0.14981  Biso   1.000  H
  C313     1.0000 0.43209  0.64305  0.08469  Biso   1.000  C
  H382     1.0000 0.35019  0.52622  0.12149  Biso   1.000  H
  C314     1.0000 0.35695  0.58469  0.06791  Biso   1.000  C
  C315     1.0000 0.62901  0.44471  0.11210  Biso   1.000  C
  C316     1.0000 0.55529  0.38790  0.12901  Biso   1.000  C
  C317     1.0000 0.38790  0.62901  0.05529  Biso   1.000  C
  C318     1.0000 0.46571  0.68900  0.07208  Biso   1.000  C
  C319     1.0000 0.46571  0.68900  0.07212  Biso   1.000  C
  C320     1.0000 0.31100  0.57212  0.03429  Biso   1.000  C
  H383     1.0000 0.64981  0.47378  0.12149  Biso   1.000  H
  C321     1.0000 0.64305  0.41531  0.06791  Biso   1.000  C
  H384     1.0000 0.52622  0.37851  0.14981  Biso   1.000  H
  C322     1.0000 0.56791  0.35695  0.08469  Biso   1.000  C
  H385     1.0000 0.37851  0.64981  0.02622  Biso   1.000  H
  N57      1.0000 0.45453  0.72090  0.03497  Biso   1.000  N
  H386     1.0000 0.49622  0.69488  0.09221  Biso   1.000  H
  N58      1.0000 0.27910  0.53497  0.04551  Biso   1.000  N
  H387     1.0000 0.30512  0.59221  0.00382  Biso   1.000  H
  C323     1.0000 0.61210  0.37099  0.05529  Biso   1.000  C
  C324     1.0000 0.68900  0.42792  0.03429  Biso   1.000  C
  C325     1.0000 0.53429  0.31100  0.07208  Biso   1.000  C
  C326     1.0000 0.53429  0.31100  0.07212  Biso   1.000  C
  C327     1.0000 0.48846  0.76732  0.02789  Biso   1.000  C
  C328     1.0000 0.23268  0.52789  0.01154  Biso   1.000  C
  H388     1.0000 0.62149  0.35019  0.02622  Biso   1.000  H
  N59      1.0000 0.72090  0.46503  0.04551  Biso   1.000  N
  H389     1.0000 0.69488  0.40779  0.00382  Biso   1.000  H
  N60      1.0000 0.54551  0.27910  0.03497  Biso   1.000  N
  H390     1.0000 0.50382  0.30512  0.09221  Biso   1.000  H
  H391     1.0000 0.51782  0.76530  0.05350  Biso   1.000  H
  C329     1.0000 0.45759  0.81729  0.03811  Biso   1.000  C
  C330     1.0000 0.51154  0.76732  0.97211  Biso   1.000  C
  C331     1.0000 0.18271  0.53811  0.04241  Biso   1.000  C
  C332     1.0000 0.23268  0.47211  0.98846  Biso   1.000  C
  H392     1.0000 0.23470  0.55350  0.98222  Biso   1.000  H
  C333     1.0000 0.76732  0.47211  0.01154  Biso   1.000  C
  C334     1.0000 0.51154  0.23268  0.02789  Biso   1.000  C
  H393     1.0000 0.44630  0.81781  0.07499  Biso   1.000  H
  H394     1.0000 0.42601  0.81741  0.01611  Biso   1.000  H
  C335     1.0000 0.48962  0.86701  0.02681  Biso   1.000  C
  N61      1.0000 0.54551  0.72090  0.96503  Biso   1.000  N
  H395     1.0000 0.48222  0.76530  0.94650  Biso   1.000  H
  C336     1.0000 0.54241  0.81729  0.96189  Biso   1.000  C
  H396     1.0000 0.18219  0.57499  0.05370  Biso   1.000  H
  H397     1.0000 0.18259  0.51611  0.07399  Biso   1.000  H
  C337     1.0000 0.13299  0.52681  0.01038  Biso   1.000  C
  C338     1.0000 0.13299  0.52681  0.01042  Biso   1.000  C
  N62      1.0000 0.27910  0.46503  0.95449  Biso   1.000  N
  C339     1.0000 0.18271  0.46189  0.95759  Biso   1.000  C
  N63      1.0000 0.27910  0.46503  0.95453  Biso   1.000  N
  H398     1.0000 0.23470  0.44650  0.01778  Biso   1.000  H
  H399     1.0000 0.23470  0.44650  0.01782  Biso   1.000  H
  C340     1.0000 0.81729  0.46189  0.04241  Biso   1.000  C
  C341     1.0000 0.76732  0.52789  0.98846  Biso   1.000  C
  H400     1.0000 0.76530  0.44650  0.98222  Biso   1.000  H
  H401     1.0000 0.48222  0.23470  0.05350  Biso   1.000  H
  C342     1.0000 0.54241  0.18271  0.03811  Biso   1.000  C
  C343     1.0000 0.48846  0.23268  0.97211  Biso   1.000  C
  H402     1.0000 0.46722  0.89800  0.03178  Biso   1.000  H
  H403     1.0000 0.51890  0.86932  0.05179  Biso   1.000  H
  C344     1.0000 0.51038  0.86701  0.97319  Biso   1.000  C
  C345     1.0000 0.53429  0.68900  0.92792  Biso   1.000  C
  H404     1.0000 0.55370  0.81781  0.92501  Biso   1.000  H
  H405     1.0000 0.57399  0.81741  0.98389  Biso   1.000  H
  H406     1.0000 0.10200  0.53178  0.03282  Biso   1.000  H
  C346     1.0000 0.13299  0.47319  0.98962  Biso   1.000  C
  H407     1.0000 0.13072  0.55179  0.98110  Biso   1.000  H
  C347     1.0000 0.31100  0.42792  0.96571  Biso   1.000  C
  H408     1.0000 0.18219  0.42501  0.94630  Biso   1.000  H
  H409     1.0000 0.18259  0.48389  0.92601  Biso   1.000  H
  H410     1.0000 0.81781  0.42501  0.05370  Biso   1.000  H
  H411     1.0000 0.81741  0.48389  0.07399  Biso   1.000  H
  C348     1.0000 0.86701  0.47319  0.01038  Biso   1.000  C
  C349     1.0000 0.86701  0.47319  0.01042  Biso   1.000  C
  N64      1.0000 0.72090  0.53497  0.95449  Biso   1.000  N
  C350     1.0000 0.81729  0.53811  0.95759  Biso   1.000  C
  N65      1.0000 0.72090  0.53497  0.95453  Biso   1.000  N
  H412     1.0000 0.76530  0.55350  0.01778  Biso   1.000  H
  H413     1.0000 0.76530  0.55350  0.01782  Biso   1.000  H
  H414     1.0000 0.55370  0.18219  0.07499  Biso   1.000  H
  H415     1.0000 0.57399  0.18259  0.01611  Biso   1.000  H
  C351     1.0000 0.51038  0.13299  0.02681  Biso   1.000  C
  N66      1.0000 0.45453  0.27910  0.96503  Biso   1.000  N
  H416     1.0000 0.51782  0.23470  0.94650  Biso   1.000  H
  C352     1.0000 0.45759  0.18271  0.96189  Biso   1.000  C
  H417     1.0000 0.53282  0.89800  0.96822  Biso   1.000  H
  H418     1.0000 0.48110  0.86932  0.94821  Biso   1.000  H
  C353     1.0000 0.56791  0.64305  0.91531  Biso   1.000  C
  H419     1.0000 0.50382  0.69488  0.90779  Biso   1.000  H
  H420     1.0000 0.13072  0.44821  0.01890  Biso   1.000  H
  H421     1.0000 0.10200  0.46822  0.96718  Biso   1.000  H
  H422     1.0000 0.10200  0.46822  0.96722  Biso   1.000  H
  C354     1.0000 0.35695  0.41531  0.93209  Biso   1.000  C
  H423     1.0000 0.30512  0.40779  0.99618  Biso   1.000  H
  H424     1.0000 0.30512  0.40779  0.99622  Biso   1.000  H
  H425     1.0000 0.89800  0.46822  0.03282  Biso   1.000  H
  C355     1.0000 0.86701  0.52681  0.98962  Biso   1.000  C
  H426     1.0000 0.86932  0.44821  0.98110  Biso   1.000  H
  C356     1.0000 0.68900  0.57212  0.96571  Biso   1.000  C
  H427     1.0000 0.81781  0.57499  0.94630  Biso   1.000  H
  H428     1.0000 0.81741  0.51611  0.92601  Biso   1.000  H
  H429     1.0000 0.53282  0.10200  0.03178  Biso   1.000  H
  H430     1.0000 0.48110  0.13072  0.05179  Biso   1.000  H
  C357     1.0000 0.48962  0.13299  0.97319  Biso   1.000  C
  C358     1.0000 0.46571  0.31100  0.92792  Biso   1.000  C
  H431     1.0000 0.44630  0.18219  0.92501  Biso   1.000  H
  H432     1.0000 0.42601  0.18259  0.98389  Biso   1.000  H
  C359     1.0000 0.55529  0.61210  0.87099  Biso   1.000  C
  C360     1.0000 0.61210  0.62901  0.94471  Biso   1.000  C
  C361     1.0000 0.37099  0.44471  0.88790  Biso   1.000  C
  C362     1.0000 0.38790  0.37099  0.94471  Biso   1.000  C
  H433     1.0000 0.86932  0.55179  0.01890  Biso   1.000  H
  H434     1.0000 0.89800  0.53178  0.96718  Biso   1.000  H
  H435     1.0000 0.89800  0.53178  0.96722  Biso   1.000  H
  C363     1.0000 0.64305  0.58469  0.93209  Biso   1.000  C
  H436     1.0000 0.69488  0.59221  0.99618  Biso   1.000  H
  H437     1.0000 0.69488  0.59221  0.99622  Biso   1.000  H
  H438     1.0000 0.46722  0.10200  0.96822  Biso   1.000  H
  H439     1.0000 0.51890  0.13072  0.94821  Biso   1.000  H
  C364     1.0000 0.43209  0.35695  0.91531  Biso   1.000  C
  H440     1.0000 0.49622  0.30512  0.90779  Biso   1.000  H
  H441     1.0000 0.52622  0.62149  0.85019  Biso   1.000  H
  C365     1.0000 0.58469  0.56791  0.85695  Biso   1.000  C
  H442     1.0000 0.62149  0.64981  0.97378  Biso   1.000  H
  H443     1.0000 0.35019  0.47378  0.87851  Biso   1.000  H
  C366     1.0000 0.41531  0.43209  0.85695  Biso   1.000  C
  H444     1.0000 0.37851  0.35019  0.97378  Biso   1.000  H
  C367     1.0000 0.62901  0.55529  0.88790  Biso   1.000  C
  C368     1.0000 0.44471  0.38790  0.87099  Biso   1.000  C
  C369     1.0000 0.57212  0.53429  0.81100  Biso   1.000  C
  C370     1.0000 0.42792  0.46571  0.81100  Biso   1.000  C
  H445     1.0000 0.64981  0.52622  0.87851  Biso   1.000  H
  H446     1.0000 0.47378  0.37851  0.85019  Biso   1.000  H
  N67      1.0000 0.53497  0.54551  0.77910  Biso   1.000  N
  H447     1.0000 0.59221  0.50382  0.80512  Biso   1.000  H
  N68      1.0000 0.46503  0.45453  0.77910  Biso   1.000  N
  H448     1.0000 0.40779  0.49622  0.80512  Biso   1.000  H
  C371     1.0000 0.52789  0.51154  0.73268  Biso   1.000  C
  C372     1.0000 0.47211  0.48846  0.73268  Biso   1.000  C
  H449     1.0000 0.55350  0.48222  0.73470  Biso   1.000  H
  C373     1.0000 0.53811  0.54241  0.68271  Biso   1.000  C
  H450     1.0000 0.44650  0.51782  0.73470  Biso   1.000  H
  C374     1.0000 0.46189  0.45759  0.68271  Biso   1.000  C
  H451     1.0000 0.57499  0.55370  0.68219  Biso   1.000  H
  H452     1.0000 0.51611  0.57399  0.68259  Biso   1.000  H
  C375     1.0000 0.52681  0.51038  0.63299  Biso   1.000  C
  H453     1.0000 0.42501  0.44630  0.68219  Biso   1.000  H
  H454     1.0000 0.48389  0.42601  0.68259  Biso   1.000  H
  C376     1.0000 0.47319  0.48962  0.63299  Biso   1.000  C
  H455     1.0000 0.53178  0.53282  0.60200  Biso   1.000  H
  H456     1.0000 0.55179  0.48110  0.63068  Biso   1.000  H
  H457     1.0000 0.55179  0.48110  0.63072  Biso   1.000  H
  H458     1.0000 0.46822  0.46722  0.60200  Biso   1.000  H
  H459     1.0000 0.44821  0.51890  0.63068  Biso   1.000  H
  H460     1.0000 0.44821  0.51890  0.63072  Biso   1.000  H
  C377     1.0000 0.36701  0.47319  0.51038  Biso   1.000  C
  C378     1.0000 0.31729  0.46189  0.54241  Biso   1.000  C
  C379     1.0000 0.36701  0.52681  0.48962  Biso   1.000  C
  H461     1.0000 0.39800  0.46822  0.53282  Biso   1.000  H
  H462     1.0000 0.36932  0.44821  0.48110  Biso   1.000  H
  C380     1.0000 0.26732  0.47211  0.51154  Biso   1.000  C
  H463     1.0000 0.31781  0.42501  0.55370  Biso   1.000  H
  H464     1.0000 0.31741  0.48389  0.57399  Biso   1.000  H
  C381     1.0000 0.31729  0.53811  0.45759  Biso   1.000  C
  H465     1.0000 0.39800  0.53178  0.46722  Biso   1.000  H
  H466     1.0000 0.36932  0.55179  0.51890  Biso   1.000  H
  N69      1.0000 0.22090  0.46503  0.54551  Biso   1.000  N
  C382     1.0000 0.26732  0.52789  0.48846  Biso   1.000  C
  H467     1.0000 0.26530  0.44650  0.48222  Biso   1.000  H
  H468     1.0000 0.31781  0.57499  0.44630  Biso   1.000  H
  H469     1.0000 0.31741  0.51611  0.42601  Biso   1.000  H
  C383     1.0000 0.18900  0.42792  0.53429  Biso   1.000  C
  N70      1.0000 0.22090  0.53497  0.45453  Biso   1.000  N
  H470     1.0000 0.26530  0.55350  0.51782  Biso   1.000  H
  C384     1.0000 0.14305  0.41531  0.56791  Biso   1.000  C
  H471     1.0000 0.19488  0.40779  0.50382  Biso   1.000  H
  H472     1.0000 0.19492  0.40779  0.50382  Biso   1.000  H
  C385     1.0000 0.18900  0.57212  0.46571  Biso   1.000  C
  C386     1.0000 0.12901  0.44471  0.61210  Biso   1.000  C
  C387     1.0000 0.11210  0.37099  0.55529  Biso   1.000  C
  C388     1.0000 0.14305  0.58469  0.43209  Biso   1.000  C
  H473     1.0000 0.19488  0.59221  0.49622  Biso   1.000  H
  H474     1.0000 0.19492  0.59221  0.49622  Biso   1.000  H
  H475     1.0000 0.14981  0.47378  0.62149  Biso   1.000  H
  C389     1.0000 0.08469  0.43209  0.64305  Biso   1.000  C
  H476     1.0000 0.12149  0.35019  0.52622  Biso   1.000  H
  C390     1.0000 0.06791  0.35695  0.58469  Biso   1.000  C
  C391     1.0000 0.12901  0.55529  0.38790  Biso   1.000  C
  C392     1.0000 0.11210  0.62901  0.44471  Biso   1.000  C
  C393     1.0000 0.05529  0.38790  0.62901  Biso   1.000  C
  C394     1.0000 0.07208  0.46571  0.68900  Biso   1.000  C
  C395     1.0000 0.07212  0.46571  0.68900  Biso   1.000  C
  C396     1.0000 0.03429  0.31100  0.57212  Biso   1.000  C
  H477     1.0000 0.14981  0.52622  0.37851  Biso   1.000  H
  C397     1.0000 0.08469  0.56791  0.35695  Biso   1.000  C
  H478     1.0000 0.12149  0.64981  0.47378  Biso   1.000  H
  C398     1.0000 0.06791  0.64305  0.41531  Biso   1.000  C
  H479     1.0000 0.02622  0.37851  0.64981  Biso   1.000  H
  N71      1.0000 0.03497  0.45453  0.72090  Biso   1.000  N
  H480     1.0000 0.09221  0.49622  0.69488  Biso   1.000  H
  N72      1.0000 0.04551  0.27910  0.53497  Biso   1.000  N
  H481     1.0000 0.00382  0.30512  0.59221  Biso   1.000  H
  C399     1.0000 0.07208  0.53429  0.31100  Biso   1.000  C
  C400     1.0000 0.05529  0.61210  0.37099  Biso   1.000  C
  C401     1.0000 0.07212  0.53429  0.31100  Biso   1.000  C
  C402     1.0000 0.03429  0.68900  0.42792  Biso   1.000  C
  C403     1.0000 0.02789  0.48846  0.76732  Biso   1.000  C
  C404     1.0000 0.01154  0.23268  0.52789  Biso   1.000  C
  N73      1.0000 0.03497  0.54551  0.27910  Biso   1.000  N
  H482     1.0000 0.09221  0.50382  0.30512  Biso   1.000  H
  H483     1.0000 0.02622  0.62149  0.35019  Biso   1.000  H
  N74      1.0000 0.04551  0.72090  0.46503  Biso   1.000  N
  H484     1.0000 0.00382  0.69488  0.40779  Biso   1.000  H
  H485     1.0000 0.05350  0.51782  0.76530  Biso   1.000  H
  C405     1.0000 0.03811  0.45759  0.81729  Biso   1.000  C
  C406     1.0000 0.97211  0.51154  0.76732  Biso   1.000  C
  C407     1.0000 0.04241  0.18271  0.53811  Biso   1.000  C
  C408     1.0000 0.98846  0.23268  0.47211  Biso   1.000  C
  H486     1.0000 0.98222  0.23470  0.55350  Biso   1.000  H
  C409     1.0000 0.02789  0.51154  0.23268  Biso   1.000  C
  C410     1.0000 0.01154  0.76732  0.47211  Biso   1.000  C
  H487     1.0000 0.07499  0.44630  0.81781  Biso   1.000  H
  H488     1.0000 0.01611  0.42601  0.81741  Biso   1.000  H
  C411     1.0000 0.02681  0.48962  0.86701  Biso   1.000  C
  N75      1.0000 0.96503  0.54551  0.72090  Biso   1.000  N
  H489     1.0000 0.94650  0.48222  0.76530  Biso   1.000  H
  C412     1.0000 0.96189  0.54241  0.81729  Biso   1.000  C
  H490     1.0000 0.05370  0.18219  0.57499  Biso   1.000  H
  H491     1.0000 0.07399  0.18259  0.51611  Biso   1.000  H
  C413     1.0000 0.01038  0.13299  0.52681  Biso   1.000  C
  C414     1.0000 0.01042  0.13299  0.52681  Biso   1.000  C
  H492     1.0000 0.01778  0.23470  0.44650  Biso   1.000  H
  H493     1.0000 0.01782  0.23470  0.44650  Biso   1.000  H
  N76      1.0000 0.95449  0.27910  0.46503  Biso   1.000  N
  C415     1.0000 0.95759  0.18271  0.46189  Biso   1.000  C
  N77      1.0000 0.95453  0.27910  0.46503  Biso   1.000  N
  H494     1.0000 0.05350  0.48222  0.23470  Biso   1.000  H
  C416     1.0000 0.03811  0.54241  0.18271  Biso   1.000  C
  C417     1.0000 0.97211  0.48846  0.23268  Biso   1.000  C
  C418     1.0000 0.04241  0.81729  0.46189  Biso   1.000  C
  C419     1.0000 0.98846  0.76732  0.52789  Biso   1.000  C
  H495     1.0000 0.98222  0.76530  0.44650  Biso   1.000  H
  H496     1.0000 0.03178  0.46722  0.89800  Biso   1.000  H
  H497     1.0000 0.05179  0.51890  0.86932  Biso   1.000  H
  C420     1.0000 0.97319  0.51038  0.86701  Biso   1.000  C
  C421     1.0000 0.92792  0.53429  0.68900  Biso   1.000  C
  H498     1.0000 0.92501  0.55370  0.81781  Biso   1.000  H
  H499     1.0000 0.98389  0.57399  0.81741  Biso   1.000  H
  H500     1.0000 0.03282  0.10200  0.53178  Biso   1.000  H
  C422     1.0000 0.98962  0.13299  0.47319  Biso   1.000  C
  H501     1.0000 0.98110  0.13072  0.55179  Biso   1.000  H
  C423     1.0000 0.96571  0.31100  0.42792  Biso   1.000  C
  H502     1.0000 0.94630  0.18219  0.42501  Biso   1.000  H
  H503     1.0000 0.92601  0.18259  0.48389  Biso   1.000  H
  H504     1.0000 0.07499  0.55370  0.18219  Biso   1.000  H
  H505     1.0000 0.01611  0.57399  0.18259  Biso   1.000  H
  C424     1.0000 0.02681  0.51038  0.13299  Biso   1.000  C
  N78      1.0000 0.96503  0.45453  0.27910  Biso   1.000  N
  H506     1.0000 0.94650  0.51782  0.23470  Biso   1.000  H
  C425     1.0000 0.96189  0.45759  0.18271  Biso   1.000  C
  H507     1.0000 0.05370  0.81781  0.42501  Biso   1.000  H
  H508     1.0000 0.07399  0.81741  0.48389  Biso   1.000  H
  C426     1.0000 0.01038  0.86701  0.47319  Biso   1.000  C
  C427     1.0000 0.01042  0.86701  0.47319  Biso   1.000  C
  H509     1.0000 0.01778  0.76530  0.55350  Biso   1.000  H
  H510     1.0000 0.01782  0.76530  0.55350  Biso   1.000  H
  N79      1.0000 0.95449  0.72090  0.53497  Biso   1.000  N
  C428     1.0000 0.95759  0.81729  0.53811  Biso   1.000  C
  N80      1.0000 0.95453  0.72090  0.53497  Biso   1.000  N
  H511     1.0000 0.96822  0.53282  0.89800  Biso   1.000  H
  H512     1.0000 0.94821  0.48110  0.86932  Biso   1.000  H
  C429     1.0000 0.91531  0.56791  0.64305  Biso   1.000  C
  H513     1.0000 0.90779  0.50382  0.69488  Biso   1.000  H
  H514     1.0000 0.01890  0.13072  0.44821  Biso   1.000  H
  H515     1.0000 0.96718  0.10200  0.46822  Biso   1.000  H
  H516     1.0000 0.96722  0.10200  0.46822  Biso   1.000  H
  C430     1.0000 0.93209  0.35695  0.41531  Biso   1.000  C
  H517     1.0000 0.99618  0.30512  0.40779  Biso   1.000  H
  H518     1.0000 0.99622  0.30512  0.40779  Biso   1.000  H
  H519     1.0000 0.03178  0.53282  0.10200  Biso   1.000  H
  H520     1.0000 0.05179  0.48110  0.13072  Biso   1.000  H
  C431     1.0000 0.97319  0.48962  0.13299  Biso   1.000  C
  C432     1.0000 0.92792  0.46571  0.31100  Biso   1.000  C
  H521     1.0000 0.92501  0.44630  0.18219  Biso   1.000  H
  H522     1.0000 0.98389  0.42601  0.18259  Biso   1.000  H
  H523     1.0000 0.03282  0.89800  0.46822  Biso   1.000  H
  C433     1.0000 0.98962  0.86701  0.52681  Biso   1.000  C
  H524     1.0000 0.98110  0.86932  0.44821  Biso   1.000  H
  C434     1.0000 0.96571  0.68900  0.57212  Biso   1.000  C
  H525     1.0000 0.94630  0.81781  0.57499  Biso   1.000  H
  H526     1.0000 0.92601  0.81741  0.51611  Biso   1.000  H
  C435     1.0000 0.94471  0.61210  0.62901  Biso   1.000  C
  C436     1.0000 0.87099  0.55529  0.61210  Biso   1.000  C
  C437     1.0000 0.88790  0.37099  0.44471  Biso   1.000  C
  C438     1.0000 0.94471  0.38790  0.37099  Biso   1.000  C
  H527     1.0000 0.96822  0.46722  0.10200  Biso   1.000  H
  H528     1.0000 0.94821  0.51890  0.13072  Biso   1.000  H
  C439     1.0000 0.91531  0.43209  0.35695  Biso   1.000  C
  H529     1.0000 0.90779  0.49622  0.30512  Biso   1.000  H
  H530     1.0000 0.01890  0.86932  0.55179  Biso   1.000  H
  H531     1.0000 0.96718  0.89800  0.53178  Biso   1.000  H
  H532     1.0000 0.96722  0.89800  0.53178  Biso   1.000  H
  C440     1.0000 0.93209  0.64305  0.58469  Biso   1.000  C
  H533     1.0000 0.99618  0.69488  0.59221  Biso   1.000  H
  H534     1.0000 0.99622  0.69488  0.59221  Biso   1.000  H
  H535     1.0000 0.97378  0.62149  0.64981  Biso   1.000  H
  H536     1.0000 0.85019  0.52622  0.62149  Biso   1.000  H
  C441     1.0000 0.85695  0.58469  0.56791  Biso   1.000  C
  H537     1.0000 0.87851  0.35019  0.47378  Biso   1.000  H
  C442     1.0000 0.85695  0.41531  0.43209  Biso   1.000  C
  H538     1.0000 0.97378  0.37851  0.35019  Biso   1.000  H
  C443     1.0000 0.87099  0.44471  0.38790  Biso   1.000  C
  C444     1.0000 0.88790  0.62901  0.55529  Biso   1.000  C
  C445     1.0000 0.81100  0.57212  0.53429  Biso   1.000  C
  C446     1.0000 0.81100  0.42792  0.46571  Biso   1.000  C
  H539     1.0000 0.85019  0.47378  0.37851  Biso   1.000  H
  H540     1.0000 0.87851  0.64981  0.52622  Biso   1.000  H
  N81      1.0000 0.77910  0.53497  0.54551  Biso   1.000  N
  H541     1.0000 0.80512  0.59221  0.50382  Biso   1.000  H
  N82      1.0000 0.77910  0.46503  0.45453  Biso   1.000  N
  H542     1.0000 0.80512  0.40779  0.49622  Biso   1.000  H
  C447     1.0000 0.73268  0.52789  0.51154  Biso   1.000  C
  C448     1.0000 0.73268  0.47211  0.48846  Biso   1.000  C
  H543     1.0000 0.73470  0.55350  0.48222  Biso   1.000  H
  C449     1.0000 0.68271  0.53811  0.54241  Biso   1.000  C
  H544     1.0000 0.73470  0.44650  0.51782  Biso   1.000  H
  C450     1.0000 0.68271  0.46189  0.45759  Biso   1.000  C
  H545     1.0000 0.68219  0.57499  0.55370  Biso   1.000  H
  H546     1.0000 0.68259  0.51611  0.57399  Biso   1.000  H
  C451     1.0000 0.63299  0.52681  0.51038  Biso   1.000  C
  H547     1.0000 0.68219  0.42501  0.44630  Biso   1.000  H
  H548     1.0000 0.68259  0.48389  0.42601  Biso   1.000  H
  C452     1.0000 0.63299  0.47319  0.48962  Biso   1.000  C
  H549     1.0000 0.60200  0.53178  0.53282  Biso   1.000  H
  H550     1.0000 0.63068  0.55179  0.48110  Biso   1.000  H
  H551     1.0000 0.63072  0.55179  0.48110  Biso   1.000  H
  H552     1.0000 0.60200  0.46822  0.46722  Biso   1.000  H
  H553     1.0000 0.63068  0.44821  0.51890  Biso   1.000  H
  H554     1.0000 0.63072  0.44821  0.51890  Biso   1.000  H
  C453     1.0000 0.36701  0.47319  0.51038  Biso   1.000  C
  C454     1.0000 0.31729  0.46189  0.54241  Biso   1.000  C
  C455     1.0000 0.36701  0.52681  0.48962  Biso   1.000  C
  H555     1.0000 0.39800  0.46822  0.53282  Biso   1.000  H
  H556     1.0000 0.36932  0.44821  0.48110  Biso   1.000  H
  C456     1.0000 0.26732  0.47211  0.51154  Biso   1.000  C
  H557     1.0000 0.31781  0.42501  0.55370  Biso   1.000  H
  H558     1.0000 0.31741  0.48389  0.57399  Biso   1.000  H
  C457     1.0000 0.31729  0.53811  0.45759  Biso   1.000  C
  H559     1.0000 0.39800  0.53178  0.46722  Biso   1.000  H
  H560     1.0000 0.36932  0.55179  0.51890  Biso   1.000  H
  N83      1.0000 0.22090  0.46503  0.54551  Biso   1.000  N
  C458     1.0000 0.26732  0.52789  0.48846  Biso   1.000  C
  H561     1.0000 0.26530  0.44650  0.48222  Biso   1.000  H
  H562     1.0000 0.31781  0.57499  0.44630  Biso   1.000  H
  H563     1.0000 0.31741  0.51611  0.42601  Biso   1.000  H
  C459     1.0000 0.18900  0.42792  0.53429  Biso   1.000  C
  N84      1.0000 0.22090  0.53497  0.45453  Biso   1.000  N
  H564     1.0000 0.26530  0.55350  0.51782  Biso   1.000  H
  C460     1.0000 0.14305  0.41531  0.56791  Biso   1.000  C
  H565     1.0000 0.19488  0.40779  0.50382  Biso   1.000  H
  H566     1.0000 0.19492  0.40779  0.50382  Biso   1.000  H
  C461     1.0000 0.18900  0.57212  0.46571  Biso   1.000  C
  C462     1.0000 0.12901  0.44471  0.61210  Biso   1.000  C
  C463     1.0000 0.11210  0.37099  0.55529  Biso   1.000  C
  C464     1.0000 0.14305  0.58469  0.43209  Biso   1.000  C
  H567     1.0000 0.19488  0.59221  0.49622  Biso   1.000  H
  H568     1.0000 0.19492  0.59221  0.49622  Biso   1.000  H
  H569     1.0000 0.14981  0.47378  0.62149  Biso   1.000  H
  C465     1.0000 0.08469  0.43209  0.64305  Biso   1.000  C
  H570     1.0000 0.12149  0.35019  0.52622  Biso   1.000  H
  C466     1.0000 0.06791  0.35695  0.58469  Biso   1.000  C
  C467     1.0000 0.12901  0.55529  0.38790  Biso   1.000  C
  C468     1.0000 0.11210  0.62901  0.44471  Biso   1.000  C
  C469     1.0000 0.05529  0.38790  0.62901  Biso   1.000  C
  C470     1.0000 0.07208  0.46571  0.68900  Biso   1.000  C
  C471     1.0000 0.07212  0.46571  0.68900  Biso   1.000  C
  C472     1.0000 0.03429  0.31100  0.57212  Biso   1.000  C
  H571     1.0000 0.14981  0.52622  0.37851  Biso   1.000  H
  C473     1.0000 0.08469  0.56791  0.35695  Biso   1.000  C
  H572     1.0000 0.12149  0.64981  0.47378  Biso   1.000  H
  C474     1.0000 0.06791  0.64305  0.41531  Biso   1.000  C
  H573     1.0000 0.02622  0.37851  0.64981  Biso   1.000  H
  N85      1.0000 0.03497  0.45453  0.72090  Biso   1.000  N
  H574     1.0000 0.09221  0.49622  0.69488  Biso   1.000  H
  N86      1.0000 0.04551  0.27910  0.53497  Biso   1.000  N
  H575     1.0000 0.00382  0.30512  0.59221  Biso   1.000  H
  C475     1.0000 0.05529  0.61210  0.37099  Biso   1.000  C
  C476     1.0000 0.07208  0.53429  0.31100  Biso   1.000  C
  C477     1.0000 0.07212  0.53429  0.31100  Biso   1.000  C
  C478     1.0000 0.03429  0.68900  0.42792  Biso   1.000  C
  C479     1.0000 0.02789  0.48846  0.76732  Biso   1.000  C
  C480     1.0000 0.01154  0.23268  0.52789  Biso   1.000  C
  H576     1.0000 0.02622  0.62149  0.35019  Biso   1.000  H
  N87      1.0000 0.03497  0.54551  0.27910  Biso   1.000  N
  H577     1.0000 0.09221  0.50382  0.30512  Biso   1.000  H
  N88      1.0000 0.04551  0.72090  0.46503  Biso   1.000  N
  H578     1.0000 0.00382  0.69488  0.40779  Biso   1.000  H
  H579     1.0000 0.05350  0.51782  0.76530  Biso   1.000  H
  C481     1.0000 0.03811  0.45759  0.81729  Biso   1.000  C
  C482     1.0000 0.97211  0.51154  0.76732  Biso   1.000  C
  C483     1.0000 0.04241  0.18271  0.53811  Biso   1.000  C
  C484     1.0000 0.98846  0.23268  0.47211  Biso   1.000  C
  H580     1.0000 0.98222  0.23470  0.55350  Biso   1.000  H
  C485     1.0000 0.02789  0.51154  0.23268  Biso   1.000  C
  C486     1.0000 0.01154  0.76732  0.47211  Biso   1.000  C
  H581     1.0000 0.07499  0.44630  0.81781  Biso   1.000  H
  H582     1.0000 0.01611  0.42601  0.81741  Biso   1.000  H
  C487     1.0000 0.02681  0.48962  0.86701  Biso   1.000  C
  N89      1.0000 0.96503  0.54551  0.72090  Biso   1.000  N
  H583     1.0000 0.94650  0.48222  0.76530  Biso   1.000  H
  C488     1.0000 0.96189  0.54241  0.81729  Biso   1.000  C
  H584     1.0000 0.05370  0.18219  0.57499  Biso   1.000  H
  H585     1.0000 0.07399  0.18259  0.51611  Biso   1.000  H
  C489     1.0000 0.01038  0.13299  0.52681  Biso   1.000  C
  C490     1.0000 0.01042  0.13299  0.52681  Biso   1.000  C
  N90      1.0000 0.95449  0.27910  0.46503  Biso   1.000  N
  C491     1.0000 0.95759  0.18271  0.46189  Biso   1.000  C
  N91      1.0000 0.95453  0.27910  0.46503  Biso   1.000  N
  H586     1.0000 0.01778  0.23470  0.44650  Biso   1.000  H
  H587     1.0000 0.01782  0.23470  0.44650  Biso   1.000  H
  H588     1.0000 0.05350  0.48222  0.23470  Biso   1.000  H
  C492     1.0000 0.03811  0.54241  0.18271  Biso   1.000  C
  C493     1.0000 0.97211  0.48846  0.23268  Biso   1.000  C
  C494     1.0000 0.04241  0.81729  0.46189  Biso   1.000  C
  C495     1.0000 0.98846  0.76732  0.52789  Biso   1.000  C
  H589     1.0000 0.98222  0.76530  0.44650  Biso   1.000  H
  H590     1.0000 0.03178  0.46722  0.89800  Biso   1.000  H
  H591     1.0000 0.05179  0.51890  0.86932  Biso   1.000  H
  C496     1.0000 0.97319  0.51038  0.86701  Biso   1.000  C
  C497     1.0000 0.92792  0.53429  0.68900  Biso   1.000  C
  H592     1.0000 0.92501  0.55370  0.81781  Biso   1.000  H
  H593     1.0000 0.98389  0.57399  0.81741  Biso   1.000  H
  H594     1.0000 0.03282  0.10200  0.53178  Biso   1.000  H
  C498     1.0000 0.98962  0.13299  0.47319  Biso   1.000  C
  H595     1.0000 0.98110  0.13072  0.55179  Biso   1.000  H
  C499     1.0000 0.96571  0.31100  0.42792  Biso   1.000  C
  H596     1.0000 0.94630  0.18219  0.42501  Biso   1.000  H
  H597     1.0000 0.92601  0.18259  0.48389  Biso   1.000  H
  H598     1.0000 0.07499  0.55370  0.18219  Biso   1.000  H
  H599     1.0000 0.01611  0.57399  0.18259  Biso   1.000  H
  C500     1.0000 0.02681  0.51038  0.13299  Biso   1.000  C
  N92      1.0000 0.96503  0.45453  0.27910  Biso   1.000  N
  H600     1.0000 0.94650  0.51782  0.23470  Biso   1.000  H
  C501     1.0000 0.96189  0.45759  0.18271  Biso   1.000  C
  H601     1.0000 0.05370  0.81781  0.42501  Biso   1.000  H
  H602     1.0000 0.07399  0.81741  0.48389  Biso   1.000  H
  C502     1.0000 0.01038  0.86701  0.47319  Biso   1.000  C
  C503     1.0000 0.01042  0.86701  0.47319  Biso   1.000  C
  N93      1.0000 0.95449  0.72090  0.53497  Biso   1.000  N
  C504     1.0000 0.95759  0.81729  0.53811  Biso   1.000  C
  N94      1.0000 0.95453  0.72090  0.53497  Biso   1.000  N
  H603     1.0000 0.01778  0.76530  0.55350  Biso   1.000  H
  H604     1.0000 0.01782  0.76530  0.55350  Biso   1.000  H
  H605     1.0000 0.96822  0.53282  0.89800  Biso   1.000  H
  H606     1.0000 0.94821  0.48110  0.86932  Biso   1.000  H
  C505     1.0000 0.91531  0.56791  0.64305  Biso   1.000  C
  H607     1.0000 0.90779  0.50382  0.69488  Biso   1.000  H
  H608     1.0000 0.01890  0.13072  0.44821  Biso   1.000  H
  H609     1.0000 0.96718  0.10200  0.46822  Biso   1.000  H
  H610     1.0000 0.96722  0.10200  0.46822  Biso   1.000  H
  C506     1.0000 0.93209  0.35695  0.41531  Biso   1.000  C
  H611     1.0000 0.99618  0.30512  0.40779  Biso   1.000  H
  H612     1.0000 0.99622  0.30512  0.40779  Biso   1.000  H
  H613     1.0000 0.03178  0.53282  0.10200  Biso   1.000  H
  H614     1.0000 0.05179  0.48110  0.13072  Biso   1.000  H
  C507     1.0000 0.97319  0.48962  0.13299  Biso   1.000  C
  C508     1.0000 0.92792  0.46571  0.31100  Biso   1.000  C
  H615     1.0000 0.92501  0.44630  0.18219  Biso   1.000  H
  H616     1.0000 0.98389  0.42601  0.18259  Biso   1.000  H
  H617     1.0000 0.03282  0.89800  0.46822  Biso   1.000  H
  C509     1.0000 0.98962  0.86701  0.52681  Biso   1.000  C
  H618     1.0000 0.98110  0.86932  0.44821  Biso   1.000  H
  C510     1.0000 0.96571  0.68900  0.57212  Biso   1.000  C
  H619     1.0000 0.94630  0.81781  0.57499  Biso   1.000  H
  H620     1.0000 0.92601  0.81741  0.51611  Biso   1.000  H
  C511     1.0000 0.94471  0.61210  0.62901  Biso   1.000  C
  C512     1.0000 0.87099  0.55529  0.61210  Biso   1.000  C
  C513     1.0000 0.88790  0.37099  0.44471  Biso   1.000  C
  C514     1.0000 0.94471  0.38790  0.37099  Biso   1.000  C
  H621     1.0000 0.96822  0.46722  0.10200  Biso   1.000  H
  H622     1.0000 0.94821  0.51890  0.13072  Biso   1.000  H
  C515     1.0000 0.91531  0.43209  0.35695  Biso   1.000  C
  H623     1.0000 0.90779  0.49622  0.30512  Biso   1.000  H
  H624     1.0000 0.01890  0.86932  0.55179  Biso   1.000  H
  H625     1.0000 0.96718  0.89800  0.53178  Biso   1.000  H
  H626     1.0000 0.96722  0.89800  0.53178  Biso   1.000  H
  C516     1.0000 0.93209  0.64305  0.58469  Biso   1.000  C
  H627     1.0000 0.99618  0.69488  0.59221  Biso   1.000  H
  H628     1.0000 0.99622  0.69488  0.59221  Biso   1.000  H
  H629     1.0000 0.97378  0.62149  0.64981  Biso   1.000  H
  H630     1.0000 0.85019  0.52622  0.62149  Biso   1.000  H
  C517     1.0000 0.85695  0.58469  0.56791  Biso   1.000  C
  H631     1.0000 0.87851  0.35019  0.47378  Biso   1.000  H
  C518     1.0000 0.85695  0.41531  0.43209  Biso   1.000  C
  H632     1.0000 0.97378  0.37851  0.35019  Biso   1.000  H
  C519     1.0000 0.87099  0.44471  0.38790  Biso   1.000  C
  C520     1.0000 0.88790  0.62901  0.55529  Biso   1.000  C
  C521     1.0000 0.81100  0.57212  0.53429  Biso   1.000  C
  C522     1.0000 0.81100  0.42792  0.46571  Biso   1.000  C
  H633     1.0000 0.85019  0.47378  0.37851  Biso   1.000  H
  H634     1.0000 0.87851  0.64981  0.52622  Biso   1.000  H
  N95      1.0000 0.77910  0.53497  0.54551  Biso   1.000  N
  H635     1.0000 0.80512  0.59221  0.50382  Biso   1.000  H
  N96      1.0000 0.77910  0.46503  0.45453  Biso   1.000  N
  H636     1.0000 0.80512  0.40779  0.49622  Biso   1.000  H
  C523     1.0000 0.73268  0.52789  0.51154  Biso   1.000  C
  C524     1.0000 0.73268  0.47211  0.48846  Biso   1.000  C
  H637     1.0000 0.73470  0.55350  0.48222  Biso   1.000  H
  C525     1.0000 0.68271  0.53811  0.54241  Biso   1.000  C
  H638     1.0000 0.73470  0.44650  0.51782  Biso   1.000  H
  C526     1.0000 0.68271  0.46189  0.45759  Biso   1.000  C
  H639     1.0000 0.68219  0.57499  0.55370  Biso   1.000  H
  H640     1.0000 0.68259  0.51611  0.57399  Biso   1.000  H
  C527     1.0000 0.63299  0.52681  0.51038  Biso   1.000  C
  H641     1.0000 0.68219  0.42501  0.44630  Biso   1.000  H
  H642     1.0000 0.68259  0.48389  0.42601  Biso   1.000  H
  C528     1.0000 0.63299  0.47319  0.48962  Biso   1.000  C
  H643     1.0000 0.60200  0.53178  0.53282  Biso   1.000  H
  H644     1.0000 0.63068  0.55179  0.48110  Biso   1.000  H
  H645     1.0000 0.63072  0.55179  0.48110  Biso   1.000  H
  H646     1.0000 0.60200  0.46822  0.46722  Biso   1.000  H
  H647     1.0000 0.63068  0.44821  0.51890  Biso   1.000  H
  H648     1.0000 0.63072  0.44821  0.51890  Biso   1.000  H
  C529     1.0000 0.70761  0.28809  0.43269  Biso   1.000  C
  C530     1.0000 0.73844  0.27791  0.48270  Biso   1.000  C
  H649     1.0000 0.69632  0.32501  0.43221  Biso   1.000  H
  H650     1.0000 0.67599  0.26609  0.43261  Biso   1.000  H
  C531     1.0000 0.73960  0.27679  0.38301  Biso   1.000  C
  N97      1.0000 0.70451  0.28499  0.52912  Biso   1.000  N
  C532     1.0000 0.76156  0.22209  0.48270  Biso   1.000  C
  H651     1.0000 0.76780  0.30348  0.48468  Biso   1.000  H
  C533     1.0000 0.76040  0.22321  0.38301  Biso   1.000  C
  H652     1.0000 0.71720  0.28180  0.35202  Biso   1.000  H
  H653     1.0000 0.76892  0.30181  0.38070  Biso   1.000  H
  C534     1.0000 0.71569  0.32210  0.56098  Biso   1.000  C
  N98      1.0000 0.79549  0.21501  0.52912  Biso   1.000  N
  H654     1.0000 0.73220  0.19652  0.48468  Biso   1.000  H
  C535     1.0000 0.79239  0.21191  0.43269  Biso   1.000  C
  H655     1.0000 0.78280  0.21820  0.35202  Biso   1.000  H
  H656     1.0000 0.73108  0.19819  0.38070  Biso   1.000  H
  C536     1.0000 0.68211  0.33471  0.60697  Biso   1.000  C
  H657     1.0000 0.74620  0.34219  0.55510  Biso   1.000  H
  C537     1.0000 0.78431  0.17790  0.56098  Biso   1.000  C
  H658     1.0000 0.80368  0.17499  0.43221  Biso   1.000  H
  H659     1.0000 0.82401  0.23391  0.43261  Biso   1.000  H
  C538     1.0000 0.63792  0.30531  0.62101  Biso   1.000  C
  C539     1.0000 0.69469  0.37899  0.63792  Biso   1.000  C
  C540     1.0000 0.81789  0.16529  0.60697  Biso   1.000  C
  H660     1.0000 0.75380  0.15781  0.55510  Biso   1.000  H
  H661     1.0000 0.62849  0.27620  0.60021  Biso   1.000  H
  C541     1.0000 0.60697  0.31789  0.66529  Biso   1.000  C
  H662     1.0000 0.72380  0.39979  0.62849  Biso   1.000  H
  C542     1.0000 0.66529  0.39303  0.68211  Biso   1.000  C
  C543     1.0000 0.86212  0.19469  0.62101  Biso   1.000  C
  C544     1.0000 0.80531  0.12101  0.63792  Biso   1.000  C
  C545     1.0000 0.62101  0.36212  0.69469  Biso   1.000  C
  C546     1.0000 0.56098  0.28431  0.67790  Biso   1.000  C
  C547     1.0000 0.67790  0.43902  0.71569  Biso   1.000  C
  H663     1.0000 0.87151  0.22380  0.60021  Biso   1.000  H
  C548     1.0000 0.89303  0.18211  0.66529  Biso   1.000  C
  H664     1.0000 0.77620  0.10021  0.62849  Biso   1.000  H
  C549     1.0000 0.83471  0.10697  0.68211  Biso   1.000  C
  H665     1.0000 0.60021  0.37151  0.72380  Biso   1.000  H
  N99      1.0000 0.52912  0.29549  0.71501  Biso   1.000  N
  H666     1.0000 0.55510  0.25380  0.65781  Biso   1.000  H
  N100     1.0000 0.71501  0.47088  0.70451  Biso   1.000  N
  H667     1.0000 0.65781  0.44490  0.74620  Biso   1.000  H
  C550     1.0000 0.87899  0.13792  0.69469  Biso   1.000  C
  C551     1.0000 0.93902  0.21569  0.67790  Biso   1.000  C
  C552     1.0000 0.82210  0.06098  0.71569  Biso   1.000  C
  C553     1.0000 0.48270  0.26156  0.72209  Biso   1.000  C
  C554     1.0000 0.72209  0.51730  0.73844  Biso   1.000  C
  H668     1.0000 0.89979  0.12849  0.72380  Biso   1.000  H
  N101     1.0000 0.97088  0.20451  0.71501  Biso   1.000  N
  H669     1.0000 0.94490  0.24620  0.65781  Biso   1.000  H
  N102     1.0000 0.78499  0.02912  0.70451  Biso   1.000  N
  H670     1.0000 0.84219  0.05510  0.74620  Biso   1.000  H
  C555     1.0000 0.48270  0.23844  0.77791  Biso   1.000  C
  H671     1.0000 0.48468  0.23220  0.69652  Biso   1.000  H
  C556     1.0000 0.43269  0.29239  0.71191  Biso   1.000  C
  C557     1.0000 0.77791  0.51730  0.76156  Biso   1.000  C
  H672     1.0000 0.69652  0.51532  0.76780  Biso   1.000  H
  C558     1.0000 0.71191  0.56731  0.70761  Biso   1.000  C
  C559     1.0000 0.01730  0.23844  0.72209  Biso   1.000  C
  C560     1.0000 0.77791  0.98270  0.73844  Biso   1.000  C
  N103     1.0000 0.52912  0.20451  0.78499  Biso   1.000  N
  H673     1.0000 0.48468  0.26780  0.80348  Biso   1.000  H
  C561     1.0000 0.43269  0.20761  0.78809  Biso   1.000  C
  H674     1.0000 0.43221  0.30368  0.67499  Biso   1.000  H
  H675     1.0000 0.43261  0.32401  0.73391  Biso   1.000  H
  C562     1.0000 0.38301  0.26040  0.72321  Biso   1.000  C
  N104     1.0000 0.78499  0.47088  0.79549  Biso   1.000  N
  H676     1.0000 0.80348  0.51532  0.73220  Biso   1.000  H
  C563     1.0000 0.78809  0.56731  0.79239  Biso   1.000  C
  H677     1.0000 0.67499  0.56779  0.69632  Biso   1.000  H
  H678     1.0000 0.73391  0.56739  0.67599  Biso   1.000  H
  C564     1.0000 0.72321  0.61699  0.73960  Biso   1.000  C
  C565     1.0000 0.01730  0.26156  0.77791  Biso   1.000  C
  H679     1.0000 0.01532  0.26780  0.69652  Biso   1.000  H
  C566     1.0000 0.06731  0.20761  0.71191  Biso   1.000  C
  C567     1.0000 0.72209  0.98270  0.76156  Biso   1.000  C
  H680     1.0000 0.80348  0.98468  0.76780  Biso   1.000  H
  C568     1.0000 0.78809  0.93269  0.70761  Biso   1.000  C
  C569     1.0000 0.56098  0.21569  0.82210  Biso   1.000  C
  H681     1.0000 0.43221  0.19632  0.82501  Biso   1.000  H
  H682     1.0000 0.43261  0.17599  0.76609  Biso   1.000  H
  C570     1.0000 0.38301  0.23960  0.77679  Biso   1.000  C
  H683     1.0000 0.35202  0.28280  0.71820  Biso   1.000  H
  H684     1.0000 0.38070  0.23108  0.69819  Biso   1.000  H
  C571     1.0000 0.82210  0.43902  0.78431  Biso   1.000  C
  H685     1.0000 0.82501  0.56779  0.80368  Biso   1.000  H
  H686     1.0000 0.76609  0.56739  0.82401  Biso   1.000  H
  C572     1.0000 0.77679  0.61699  0.76040  Biso   1.000  C
  H687     1.0000 0.71820  0.64798  0.71720  Biso   1.000  H
  H688     1.0000 0.69819  0.61930  0.76892  Biso   1.000  H
  N105     1.0000 0.97088  0.29549  0.78499  Biso   1.000  N
  H689     1.0000 0.01532  0.23220  0.80348  Biso   1.000  H
  C573     1.0000 0.06731  0.29239  0.78809  Biso   1.000  C
  H690     1.0000 0.06779  0.19632  0.67499  Biso   1.000  H
  H691     1.0000 0.06739  0.17599  0.73391  Biso   1.000  H
  C574     1.0000 0.11699  0.23960  0.72321  Biso   1.000  C
  N106     1.0000 0.71501  0.02912  0.79549  Biso   1.000  N
  H692     1.0000 0.69652  0.98468  0.73220  Biso   1.000  H
  C575     1.0000 0.71191  0.93269  0.79239  Biso   1.000  C
  H693     1.0000 0.82501  0.93221  0.69632  Biso   1.000  H
  H694     1.0000 0.76609  0.93261  0.67599  Biso   1.000  H
  C576     1.0000 0.77679  0.88301  0.73960  Biso   1.000  C
  C577     1.0000 0.60697  0.18211  0.83471  Biso   1.000  C
  H695     1.0000 0.55510  0.24620  0.84219  Biso   1.000  H
  H696     1.0000 0.35202  0.21720  0.78180  Biso   1.000  H
  H697     1.0000 0.38070  0.26892  0.80181  Biso   1.000  H
  C578     1.0000 0.83471  0.39303  0.81789  Biso   1.000  C
  H698     1.0000 0.84219  0.44490  0.75380  Biso   1.000  H
  H699     1.0000 0.78180  0.64798  0.78280  Biso   1.000  H
  H700     1.0000 0.80181  0.61930  0.73108  Biso   1.000  H
  C579     1.0000 0.93902  0.28431  0.82210  Biso   1.000  C
  H701     1.0000 0.06779  0.30368  0.82501  Biso   1.000  H
  H702     1.0000 0.06739  0.32401  0.76609  Biso   1.000  H
  C580     1.0000 0.11699  0.26040  0.77679  Biso   1.000  C
  H703     1.0000 0.14802  0.21720  0.71820  Biso   1.000  H
  H704     1.0000 0.11930  0.26892  0.69819  Biso   1.000  H
  C581     1.0000 0.67790  0.06098  0.78431  Biso   1.000  C
  H705     1.0000 0.67499  0.93221  0.80368  Biso   1.000  H
  H706     1.0000 0.73391  0.93261  0.82401  Biso   1.000  H
  C582     1.0000 0.72321  0.88301  0.76040  Biso   1.000  C
  H707     1.0000 0.78180  0.85202  0.71720  Biso   1.000  H
  H708     1.0000 0.80181  0.88070  0.76892  Biso   1.000  H
  C583     1.0000 0.62101  0.13792  0.80531  Biso   1.000  C
  C584     1.0000 0.63792  0.19469  0.87899  Biso   1.000  C
  C585     1.0000 0.87899  0.36212  0.80531  Biso   1.000  C
  C586     1.0000 0.80531  0.37899  0.86212  Biso   1.000  C
  C587     1.0000 0.89303  0.31789  0.83471  Biso   1.000  C
  H709     1.0000 0.94490  0.25380  0.84219  Biso   1.000  H
  H710     1.0000 0.14802  0.28280  0.78180  Biso   1.000  H
  H711     1.0000 0.11930  0.23108  0.80181  Biso   1.000  H
  C588     1.0000 0.66529  0.10697  0.81789  Biso   1.000  C
  H712     1.0000 0.65781  0.05510  0.75380  Biso   1.000  H
  H713     1.0000 0.71820  0.85202  0.78280  Biso   1.000  H
  H714     1.0000 0.69819  0.88070  0.73108  Biso   1.000  H
  H715     1.0000 0.60021  0.12849  0.77620  Biso   1.000  H
  C589     1.0000 0.68211  0.16529  0.89303  Biso   1.000  C
  H716     1.0000 0.62849  0.22380  0.89979  Biso   1.000  H
  H717     1.0000 0.89979  0.37151  0.77620  Biso   1.000  H
  H718     1.0000 0.77620  0.39979  0.87151  Biso   1.000  H
  C590     1.0000 0.81789  0.33471  0.89303  Biso   1.000  C
  C591     1.0000 0.86212  0.30531  0.87899  Biso   1.000  C
  C592     1.0000 0.69469  0.12101  0.86212  Biso   1.000  C
  C593     1.0000 0.71569  0.17790  0.93902  Biso   1.000  C
  C594     1.0000 0.78431  0.32210  0.93902  Biso   1.000  C
  H719     1.0000 0.87151  0.27620  0.89979  Biso   1.000  H
  H720     1.0000 0.72380  0.10021  0.87151  Biso   1.000  H
  N107     1.0000 0.70451  0.21501  0.97088  Biso   1.000  N
  H721     1.0000 0.74620  0.15781  0.94490  Biso   1.000  H
  N108     1.0000 0.79549  0.28499  0.97088  Biso   1.000  N
  H722     1.0000 0.75380  0.34219  0.94490  Biso   1.000  H
  C595     1.0000 0.73844  0.22209  0.01730  Biso   1.000  C
  C596     1.0000 0.76156  0.27791  0.01730  Biso   1.000  C
  H723     1.0000 0.76780  0.19652  0.01532  Biso   1.000  H
  C597     1.0000 0.70761  0.21191  0.06731  Biso   1.000  C
  H724     1.0000 0.73220  0.30348  0.01532  Biso   1.000  H
  C598     1.0000 0.79239  0.28809  0.06731  Biso   1.000  C
  H725     1.0000 0.69632  0.17499  0.06779  Biso   1.000  H
  H726     1.0000 0.67599  0.23391  0.06739  Biso   1.000  H
  C599     1.0000 0.73960  0.22321  0.11699  Biso   1.000  C
  H727     1.0000 0.80368  0.32501  0.06779  Biso   1.000  H
  H728     1.0000 0.82401  0.26609  0.06739  Biso   1.000  H
  C600     1.0000 0.76040  0.27679  0.11699  Biso   1.000  C
  H729     1.0000 0.71720  0.21820  0.14802  Biso   1.000  H
  H730     1.0000 0.76892  0.19819  0.11930  Biso   1.000  H
  H731     1.0000 0.78280  0.28180  0.14802  Biso   1.000  H
  H732     1.0000 0.73108  0.30181  0.11930  Biso   1.000  H
  C601     1.0000 0.43269  0.70761  0.28809  Biso   1.000  C
  C602     1.0000 0.48270  0.73844  0.27791  Biso   1.000  C
  H733     1.0000 0.43221  0.69632  0.32501  Biso   1.000  H
  H734     1.0000 0.43261  0.67599  0.26609  Biso   1.000  H
  C603     1.0000 0.38301  0.73960  0.27679  Biso   1.000  C
  N109     1.0000 0.52912  0.70451  0.28499  Biso   1.000  N
  C604     1.0000 0.48270  0.76156  0.22209  Biso   1.000  C
  H735     1.0000 0.48468  0.76780  0.30348  Biso   1.000  H
  C605     1.0000 0.38301  0.76040  0.22321  Biso   1.000  C
  H736     1.0000 0.35202  0.71720  0.28180  Biso   1.000  H
  H737     1.0000 0.38070  0.76892  0.30181  Biso   1.000  H
  C606     1.0000 0.56098  0.71569  0.32210  Biso   1.000  C
  N110     1.0000 0.52912  0.79549  0.21501  Biso   1.000  N
  H738     1.0000 0.48468  0.73220  0.19652  Biso   1.000  H
  C607     1.0000 0.43269  0.79239  0.21191  Biso   1.000  C
  H739     1.0000 0.35202  0.78280  0.21820  Biso   1.000  H
  H740     1.0000 0.38070  0.73108  0.19819  Biso   1.000  H
  C608     1.0000 0.60697  0.68211  0.33471  Biso   1.000  C
  H741     1.0000 0.55510  0.74620  0.34219  Biso   1.000  H
  C609     1.0000 0.56098  0.78431  0.17790  Biso   1.000  C
  H742     1.0000 0.43221  0.80368  0.17499  Biso   1.000  H
  H743     1.0000 0.43261  0.82401  0.23391  Biso   1.000  H
  C610     1.0000 0.62101  0.63792  0.30531  Biso   1.000  C
  C611     1.0000 0.63792  0.69469  0.37899  Biso   1.000  C
  C612     1.0000 0.60697  0.81789  0.16529  Biso   1.000  C
  H744     1.0000 0.55510  0.75380  0.15781  Biso   1.000  H
  C613     1.0000 0.66529  0.60697  0.31789  Biso   1.000  C
  H745     1.0000 0.60021  0.62849  0.27620  Biso   1.000  H
  C614     1.0000 0.68211  0.66529  0.39303  Biso   1.000  C
  H746     1.0000 0.62849  0.72380  0.39979  Biso   1.000  H
  C615     1.0000 0.62101  0.86212  0.19469  Biso   1.000  C
  C616     1.0000 0.63792  0.80531  0.12101  Biso   1.000  C
  C617     1.0000 0.67790  0.56098  0.28431  Biso   1.000  C
  C618     1.0000 0.69469  0.62101  0.36212  Biso   1.000  C
  C619     1.0000 0.71569  0.67790  0.43902  Biso   1.000  C
  H747     1.0000 0.60021  0.87151  0.22380  Biso   1.000  H
  C620     1.0000 0.66529  0.89303  0.18211  Biso   1.000  C
  C621     1.0000 0.68211  0.83471  0.10697  Biso   1.000  C
  H748     1.0000 0.62849  0.77620  0.10021  Biso   1.000  H
  N111     1.0000 0.71501  0.52912  0.29549  Biso   1.000  N
  H749     1.0000 0.65781  0.55510  0.25380  Biso   1.000  H
  H750     1.0000 0.72380  0.60021  0.37151  Biso   1.000  H
  N112     1.0000 0.70451  0.71501  0.47088  Biso   1.000  N
  H751     1.0000 0.74620  0.65781  0.44490  Biso   1.000  H
  C622     1.0000 0.69469  0.87899  0.13792  Biso   1.000  C
  C623     1.0000 0.67790  0.93902  0.21569  Biso   1.000  C
  C624     1.0000 0.71569  0.82210  0.06098  Biso   1.000  C
  C625     1.0000 0.72209  0.48270  0.26156  Biso   1.000  C
  C626     1.0000 0.73844  0.72209  0.51730  Biso   1.000  C
  H752     1.0000 0.72380  0.89979  0.12849  Biso   1.000  H
  N113     1.0000 0.71501  0.97088  0.20451  Biso   1.000  N
  H753     1.0000 0.65781  0.94490  0.24620  Biso   1.000  H
  N114     1.0000 0.70451  0.78499  0.02912  Biso   1.000  N
  H754     1.0000 0.74620  0.84219  0.05510  Biso   1.000  H
  C627     1.0000 0.71191  0.43269  0.29239  Biso   1.000  C
  C628     1.0000 0.77791  0.48270  0.23844  Biso   1.000  C
  H755     1.0000 0.69652  0.48468  0.23220  Biso   1.000  H
  C629     1.0000 0.76156  0.77791  0.51730  Biso   1.000  C
  H756     1.0000 0.76780  0.69652  0.51532  Biso   1.000  H
  C630     1.0000 0.70761  0.71191  0.56731  Biso   1.000  C
  C631     1.0000 0.72209  0.01730  0.23844  Biso   1.000  C
  C632     1.0000 0.73844  0.77791  0.98270  Biso   1.000  C
  C633     1.0000 0.72321  0.38301  0.26040  Biso   1.000  C
  H757     1.0000 0.67499  0.43221  0.30368  Biso   1.000  H
  H758     1.0000 0.73391  0.43261  0.32401  Biso   1.000  H
  C634     1.0000 0.78809  0.43269  0.20761  Biso   1.000  C
  N115     1.0000 0.78499  0.52912  0.20451  Biso   1.000  N
  H759     1.0000 0.80348  0.48468  0.26780  Biso   1.000  H
  N116     1.0000 0.79549  0.78499  0.47088  Biso   1.000  N
  H760     1.0000 0.73220  0.80348  0.51532  Biso   1.000  H
  C635     1.0000 0.79239  0.78809  0.56731  Biso   1.000  C
  H761     1.0000 0.69632  0.67499  0.56779  Biso   1.000  H
  H762     1.0000 0.67599  0.73391  0.56739  Biso   1.000  H
  C636     1.0000 0.73960  0.72321  0.61699  Biso   1.000  C
  C637     1.0000 0.77791  0.01730  0.26156  Biso   1.000  C
  H763     1.0000 0.69652  0.01532  0.26780  Biso   1.000  H
  C638     1.0000 0.71191  0.06731  0.20761  Biso   1.000  C
  C639     1.0000 0.76156  0.72209  0.98270  Biso   1.000  C
  H764     1.0000 0.76780  0.80348  0.98468  Biso   1.000  H
  C640     1.0000 0.70761  0.78809  0.93269  Biso   1.000  C
  C641     1.0000 0.77679  0.38301  0.23960  Biso   1.000  C
  H765     1.0000 0.71820  0.35202  0.28280  Biso   1.000  H
  H766     1.0000 0.69819  0.38070  0.23108  Biso   1.000  H
  H767     1.0000 0.82501  0.43221  0.19632  Biso   1.000  H
  H768     1.0000 0.76609  0.43261  0.17599  Biso   1.000  H
  C642     1.0000 0.82210  0.56098  0.21569  Biso   1.000  C
  C643     1.0000 0.78431  0.82210  0.43902  Biso   1.000  C
  H769     1.0000 0.80368  0.82501  0.56779  Biso   1.000  H
  H770     1.0000 0.82401  0.76609  0.56739  Biso   1.000  H
  C644     1.0000 0.76040  0.77679  0.61699  Biso   1.000  C
  H771     1.0000 0.71720  0.71820  0.64798  Biso   1.000  H
  H772     1.0000 0.76892  0.69819  0.61930  Biso   1.000  H
  N117     1.0000 0.78499  0.97088  0.29549  Biso   1.000  N
  H773     1.0000 0.80348  0.01532  0.23220  Biso   1.000  H
  C645     1.0000 0.78809  0.06731  0.29239  Biso   1.000  C
  H774     1.0000 0.67499  0.06779  0.19632  Biso   1.000  H
  H775     1.0000 0.73391  0.06739  0.17599  Biso   1.000  H
  C646     1.0000 0.72321  0.11699  0.23960  Biso   1.000  C
  N118     1.0000 0.79549  0.71501  0.02912  Biso   1.000  N
  H776     1.0000 0.73220  0.69652  0.98468  Biso   1.000  H
  C647     1.0000 0.79239  0.71191  0.93269  Biso   1.000  C
  C648     1.0000 0.73960  0.77679  0.88301  Biso   1.000  C
  H777     1.0000 0.69632  0.82501  0.93221  Biso   1.000  H
  H778     1.0000 0.67599  0.76609  0.93261  Biso   1.000  H
  H779     1.0000 0.78180  0.35202  0.21720  Biso   1.000  H
  H780     1.0000 0.80181  0.38070  0.26892  Biso   1.000  H
  C649     1.0000 0.83471  0.60697  0.18211  Biso   1.000  C
  H781     1.0000 0.84219  0.55510  0.24620  Biso   1.000  H
  C650     1.0000 0.81789  0.83471  0.39303  Biso   1.000  C
  H782     1.0000 0.75380  0.84219  0.44490  Biso   1.000  H
  H783     1.0000 0.78280  0.78180  0.64798  Biso   1.000  H
  H784     1.0000 0.73108  0.80181  0.61930  Biso   1.000  H
  C651     1.0000 0.82210  0.93902  0.28431  Biso   1.000  C
  H785     1.0000 0.82501  0.06779  0.30368  Biso   1.000  H
  H786     1.0000 0.76609  0.06739  0.32401  Biso   1.000  H
  C652     1.0000 0.77679  0.11699  0.26040  Biso   1.000  C
  H787     1.0000 0.71820  0.14802  0.21720  Biso   1.000  H
  H788     1.0000 0.69819  0.11930  0.26892  Biso   1.000  H
  C653     1.0000 0.78431  0.67790  0.06098  Biso   1.000  C
  H789     1.0000 0.80368  0.67499  0.93221  Biso   1.000  H
  H790     1.0000 0.82401  0.73391  0.93261  Biso   1.000  H
  C654     1.0000 0.76040  0.72321  0.88301  Biso   1.000  C
  H791     1.0000 0.71720  0.78180  0.85202  Biso   1.000  H
  H792     1.0000 0.76892  0.80181  0.88070  Biso   1.000  H
  C655     1.0000 0.80531  0.62101  0.13792  Biso   1.000  C
  C656     1.0000 0.87899  0.63792  0.19469  Biso   1.000  C
  C657     1.0000 0.86212  0.80531  0.37899  Biso   1.000  C
  C658     1.0000 0.80531  0.87899  0.36212  Biso   1.000  C
  C659     1.0000 0.83471  0.89303  0.31789  Biso   1.000  C
  H793     1.0000 0.84219  0.94490  0.25380  Biso   1.000  H
  H794     1.0000 0.78180  0.14802  0.28280  Biso   1.000  H
  H795     1.0000 0.80181  0.11930  0.23108  Biso   1.000  H
  C660     1.0000 0.81789  0.66529  0.10697  Biso   1.000  C
  H796     1.0000 0.75380  0.65781  0.05510  Biso   1.000  H
  H797     1.0000 0.78280  0.71820  0.85202  Biso   1.000  H
  H798     1.0000 0.73108  0.69819  0.88070  Biso   1.000  H
  H799     1.0000 0.77620  0.60021  0.12849  Biso   1.000  H
  H800     1.0000 0.89979  0.62849  0.22380  Biso   1.000  H
  C661     1.0000 0.89303  0.68211  0.16529  Biso   1.000  C
  C662     1.0000 0.89303  0.81789  0.33471  Biso   1.000  C
  H801     1.0000 0.87151  0.77620  0.39979  Biso   1.000  H
  H802     1.0000 0.77620  0.89979  0.37151  Biso   1.000  H
  C663     1.0000 0.87899  0.86212  0.30531  Biso   1.000  C
  C664     1.0000 0.86212  0.69469  0.12101  Biso   1.000  C
  C665     1.0000 0.93902  0.71569  0.17790  Biso   1.000  C
  C666     1.0000 0.93902  0.78431  0.32210  Biso   1.000  C
  H803     1.0000 0.89979  0.87151  0.27620  Biso   1.000  H
  H804     1.0000 0.87151  0.72380  0.10021  Biso   1.000  H
  N119     1.0000 0.97088  0.70451  0.21501  Biso   1.000  N
  H805     1.0000 0.94490  0.74620  0.15781  Biso   1.000  H
  N120     1.0000 0.97088  0.79549  0.28499  Biso   1.000  N
  H806     1.0000 0.94490  0.75380  0.34219  Biso   1.000  H
  C667     1.0000 0.01730  0.73844  0.22209  Biso   1.000  C
  C668     1.0000 0.01730  0.76156  0.27791  Biso   1.000  C
  H807     1.0000 0.01532  0.76780  0.19652  Biso   1.000  H
  C669     1.0000 0.06731  0.70761  0.21191  Biso   1.000  C
  H808     1.0000 0.01532  0.73220  0.30348  Biso   1.000  H
  C670     1.0000 0.06731  0.79239  0.28809  Biso   1.000  C
  H809     1.0000 0.06779  0.69632  0.17499  Biso   1.000  H
  H810     1.0000 0.06739  0.67599  0.23391  Biso   1.000  H
  C671     1.0000 0.11699  0.73960  0.22321  Biso   1.000  C
  H811     1.0000 0.06779  0.80368  0.32501  Biso   1.000  H
  H812     1.0000 0.06739  0.82401  0.26609  Biso   1.000  H
  C672     1.0000 0.11699  0.76040  0.27679  Biso   1.000  C
  H813     1.0000 0.14802  0.71720  0.21820  Biso   1.000  H
  H814     1.0000 0.11930  0.76892  0.19819  Biso   1.000  H
  H815     1.0000 0.14802  0.78280  0.28180  Biso   1.000  H
  H816     1.0000 0.11930  0.73108  0.30181  Biso   1.000  H
  C673     1.0000 0.28809  0.43269  0.70761  Biso   1.000  C
  C674     1.0000 0.27791  0.48270  0.73844  Biso   1.000  C
  H817     1.0000 0.32501  0.43221  0.69632  Biso   1.000  H
  H818     1.0000 0.26609  0.43261  0.67599  Biso   1.000  H
  C675     1.0000 0.27679  0.38301  0.73960  Biso   1.000  C
  N121     1.0000 0.28499  0.52912  0.70451  Biso   1.000  N
  C676     1.0000 0.22209  0.48270  0.76156  Biso   1.000  C
  H819     1.0000 0.30348  0.48468  0.76780  Biso   1.000  H
  C677     1.0000 0.22321  0.38301  0.76040  Biso   1.000  C
  H820     1.0000 0.28180  0.35202  0.71720  Biso   1.000  H
  H821     1.0000 0.30181  0.38070  0.76892  Biso   1.000  H
  C678     1.0000 0.32210  0.56098  0.71569  Biso   1.000  C
  N122     1.0000 0.21501  0.52912  0.79549  Biso   1.000  N
  H822     1.0000 0.19652  0.48468  0.73220  Biso   1.000  H
  C679     1.0000 0.21191  0.43269  0.79239  Biso   1.000  C
  H823     1.0000 0.21820  0.35202  0.78280  Biso   1.000  H
  H824     1.0000 0.19819  0.38070  0.73108  Biso   1.000  H
  C680     1.0000 0.33471  0.60697  0.68211  Biso   1.000  C
  H825     1.0000 0.34219  0.55510  0.74620  Biso   1.000  H
  C681     1.0000 0.17790  0.56098  0.78431  Biso   1.000  C
  H826     1.0000 0.17499  0.43221  0.80368  Biso   1.000  H
  H827     1.0000 0.23391  0.43261  0.82401  Biso   1.000  H
  C682     1.0000 0.30531  0.62101  0.63792  Biso   1.000  C
  C683     1.0000 0.37899  0.63792  0.69469  Biso   1.000  C
  C684     1.0000 0.16529  0.60697  0.81789  Biso   1.000  C
  H828     1.0000 0.15781  0.55510  0.75380  Biso   1.000  H
  C685     1.0000 0.31789  0.66529  0.60697  Biso   1.000  C
  H829     1.0000 0.27620  0.60021  0.62849  Biso   1.000  H
  C686     1.0000 0.39303  0.68211  0.66529  Biso   1.000  C
  H830     1.0000 0.39979  0.62849  0.72380  Biso   1.000  H
  C687     1.0000 0.19469  0.62101  0.86212  Biso   1.000  C
  C688     1.0000 0.12101  0.63792  0.80531  Biso   1.000  C
  C689     1.0000 0.28431  0.67790  0.56098  Biso   1.000  C
  C690     1.0000 0.36212  0.69469  0.62101  Biso   1.000  C
  C691     1.0000 0.43902  0.71569  0.67790  Biso   1.000  C
  H831     1.0000 0.22380  0.60021  0.87151  Biso   1.000  H
  C692     1.0000 0.18211  0.66529  0.89303  Biso   1.000  C
  C693     1.0000 0.10697  0.68211  0.83471  Biso   1.000  C
  H832     1.0000 0.10021  0.62849  0.77620  Biso   1.000  H
  N123     1.0000 0.29549  0.71501  0.52912  Biso   1.000  N
  H833     1.0000 0.25380  0.65781  0.55510  Biso   1.000  H
  H834     1.0000 0.37151  0.72380  0.60021  Biso   1.000  H
  N124     1.0000 0.47088  0.70451  0.71501  Biso   1.000  N
  H835     1.0000 0.44490  0.74620  0.65781  Biso   1.000  H
  C694     1.0000 0.13792  0.69469  0.87899  Biso   1.000  C
  C695     1.0000 0.21569  0.67790  0.93902  Biso   1.000  C
  C696     1.0000 0.06098  0.71569  0.82210  Biso   1.000  C
  C697     1.0000 0.26156  0.72209  0.48270  Biso   1.000  C
  C698     1.0000 0.51730  0.73844  0.72209  Biso   1.000  C
  H836     1.0000 0.12849  0.72380  0.89979  Biso   1.000  H
  N125     1.0000 0.20451  0.71501  0.97088  Biso   1.000  N
  H837     1.0000 0.24620  0.65781  0.94490  Biso   1.000  H
  N126     1.0000 0.02912  0.70451  0.78499  Biso   1.000  N
  H838     1.0000 0.05510  0.74620  0.84219  Biso   1.000  H
  C699     1.0000 0.29239  0.71191  0.43269  Biso   1.000  C
  C700     1.0000 0.23844  0.77791  0.48270  Biso   1.000  C
  H839     1.0000 0.23220  0.69652  0.48468  Biso   1.000  H
  C701     1.0000 0.51730  0.76156  0.77791  Biso   1.000  C
  H840     1.0000 0.51532  0.76780  0.69652  Biso   1.000  H
  C702     1.0000 0.56731  0.70761  0.71191  Biso   1.000  C
  C703     1.0000 0.23844  0.72209  0.01730  Biso   1.000  C
  C704     1.0000 0.98270  0.73844  0.77791  Biso   1.000  C
  C705     1.0000 0.26040  0.72321  0.38301  Biso   1.000  C
  H841     1.0000 0.30368  0.67499  0.43221  Biso   1.000  H
  H842     1.0000 0.32401  0.73391  0.43261  Biso   1.000  H
  C706     1.0000 0.20761  0.78809  0.43269  Biso   1.000  C
  N127     1.0000 0.20451  0.78499  0.52912  Biso   1.000  N
  H843     1.0000 0.26780  0.80348  0.48468  Biso   1.000  H
  N128     1.0000 0.47088  0.79549  0.78499  Biso   1.000  N
  H844     1.0000 0.51532  0.73220  0.80348  Biso   1.000  H
  C707     1.0000 0.56731  0.79239  0.78809  Biso   1.000  C
  H845     1.0000 0.56779  0.69632  0.67499  Biso   1.000  H
  H846     1.0000 0.56739  0.67599  0.73391  Biso   1.000  H
  C708     1.0000 0.61699  0.73960  0.72321  Biso   1.000  C
  C709     1.0000 0.26156  0.77791  0.01730  Biso   1.000  C
  H847     1.0000 0.26780  0.69652  0.01532  Biso   1.000  H
  C710     1.0000 0.20761  0.71191  0.06731  Biso   1.000  C
  C711     1.0000 0.98270  0.76156  0.72209  Biso   1.000  C
  H848     1.0000 0.98468  0.76780  0.80348  Biso   1.000  H
  C712     1.0000 0.93269  0.70761  0.78809  Biso   1.000  C
  C713     1.0000 0.23960  0.77679  0.38301  Biso   1.000  C
  H849     1.0000 0.28280  0.71820  0.35202  Biso   1.000  H
  H850     1.0000 0.23108  0.69819  0.38070  Biso   1.000  H
  H851     1.0000 0.19632  0.82501  0.43221  Biso   1.000  H
  H852     1.0000 0.17599  0.76609  0.43261  Biso   1.000  H
  C714     1.0000 0.21569  0.82210  0.56098  Biso   1.000  C
  C715     1.0000 0.43902  0.78431  0.82210  Biso   1.000  C
  H853     1.0000 0.56779  0.80368  0.82501  Biso   1.000  H
  H854     1.0000 0.56739  0.82401  0.76609  Biso   1.000  H
  C716     1.0000 0.61699  0.76040  0.77679  Biso   1.000  C
  H855     1.0000 0.64798  0.71720  0.71820  Biso   1.000  H
  H856     1.0000 0.61930  0.76892  0.69819  Biso   1.000  H
  N129     1.0000 0.29549  0.78499  0.97088  Biso   1.000  N
  H857     1.0000 0.23220  0.80348  0.01532  Biso   1.000  H
  C717     1.0000 0.29239  0.78809  0.06731  Biso   1.000  C
  H858     1.0000 0.19632  0.67499  0.06779  Biso   1.000  H
  H859     1.0000 0.17599  0.73391  0.06739  Biso   1.000  H
  C718     1.0000 0.23960  0.72321  0.11699  Biso   1.000  C
  N130     1.0000 0.02912  0.79549  0.71501  Biso   1.000  N
  H860     1.0000 0.98468  0.73220  0.69652  Biso   1.000  H
  C719     1.0000 0.93269  0.79239  0.71191  Biso   1.000  C
  H861     1.0000 0.93221  0.69632  0.82501  Biso   1.000  H
  H862     1.0000 0.93261  0.67599  0.76609  Biso   1.000  H
  C720     1.0000 0.88301  0.73960  0.77679  Biso   1.000  C
  H863     1.0000 0.21720  0.78180  0.35202  Biso   1.000  H
  H864     1.0000 0.26892  0.80181  0.38070  Biso   1.000  H
  C721     1.0000 0.18211  0.83471  0.60697  Biso   1.000  C
  H865     1.0000 0.24620  0.84219  0.55510  Biso   1.000  H
  C722     1.0000 0.39303  0.81789  0.83471  Biso   1.000  C
  H866     1.0000 0.44490  0.75380  0.84219  Biso   1.000  H
  H867     1.0000 0.64798  0.78280  0.78180  Biso   1.000  H
  H868     1.0000 0.61930  0.73108  0.80181  Biso   1.000  H
  C723     1.0000 0.28431  0.82210  0.93902  Biso   1.000  C
  H869     1.0000 0.30368  0.82501  0.06779  Biso   1.000  H
  H870     1.0000 0.32401  0.76609  0.06739  Biso   1.000  H
  C724     1.0000 0.26040  0.77679  0.11699  Biso   1.000  C
  H871     1.0000 0.21720  0.71820  0.14802  Biso   1.000  H
  H872     1.0000 0.26892  0.69819  0.11930  Biso   1.000  H
  C725     1.0000 0.06098  0.78431  0.67790  Biso   1.000  C
  H873     1.0000 0.93221  0.80368  0.67499  Biso   1.000  H
  H874     1.0000 0.93261  0.82401  0.73391  Biso   1.000  H
  C726     1.0000 0.88301  0.76040  0.72321  Biso   1.000  C
  H875     1.0000 0.85202  0.71720  0.78180  Biso   1.000  H
  H876     1.0000 0.88070  0.76892  0.80181  Biso   1.000  H
  C727     1.0000 0.19469  0.87899  0.63792  Biso   1.000  C
  C728     1.0000 0.13792  0.80531  0.62101  Biso   1.000  C
  C729     1.0000 0.36212  0.80531  0.87899  Biso   1.000  C
  C730     1.0000 0.37899  0.86212  0.80531  Biso   1.000  C
  C731     1.0000 0.31789  0.83471  0.89303  Biso   1.000  C
  H877     1.0000 0.25380  0.84219  0.94490  Biso   1.000  H
  H878     1.0000 0.28280  0.78180  0.14802  Biso   1.000  H
  H879     1.0000 0.23108  0.80181  0.11930  Biso   1.000  H
  C732     1.0000 0.10697  0.81789  0.66529  Biso   1.000  C
  H880     1.0000 0.05510  0.75380  0.65781  Biso   1.000  H
  H881     1.0000 0.85202  0.78280  0.71820  Biso   1.000  H
  H882     1.0000 0.88070  0.73108  0.69819  Biso   1.000  H
  H883     1.0000 0.22380  0.89979  0.62849  Biso   1.000  H
  C733     1.0000 0.16529  0.89303  0.68211  Biso   1.000  C
  H884     1.0000 0.12849  0.77620  0.60021  Biso   1.000  H
  H885     1.0000 0.37151  0.77620  0.89979  Biso   1.000  H
  C734     1.0000 0.33471  0.89303  0.81789  Biso   1.000  C
  H886     1.0000 0.39979  0.87151  0.77620  Biso   1.000  H
  C735     1.0000 0.30531  0.87899  0.86212  Biso   1.000  C
  C736     1.0000 0.12101  0.86212  0.69469  Biso   1.000  C
  C737     1.0000 0.17790  0.93902  0.71569  Biso   1.000  C
  C738     1.0000 0.32210  0.93902  0.78431  Biso   1.000  C
  H887     1.0000 0.27620  0.89979  0.87151  Biso   1.000  H
  H888     1.0000 0.10021  0.87151  0.72380  Biso   1.000  H
  N131     1.0000 0.21501  0.97088  0.70451  Biso   1.000  N
  H889     1.0000 0.15781  0.94490  0.74620  Biso   1.000  H
  N132     1.0000 0.28499  0.97088  0.79549  Biso   1.000  N
  H890     1.0000 0.34219  0.94490  0.75380  Biso   1.000  H
  C739     1.0000 0.22209  0.01730  0.73844  Biso   1.000  C
  C740     1.0000 0.27791  0.01730  0.76156  Biso   1.000  C
  H891     1.0000 0.19652  0.01532  0.76780  Biso   1.000  H
  C741     1.0000 0.21191  0.06731  0.70761  Biso   1.000  C
  H892     1.0000 0.30348  0.01532  0.73220  Biso   1.000  H
  C742     1.0000 0.28809  0.06731  0.79239  Biso   1.000  C
  H893     1.0000 0.17499  0.06779  0.69632  Biso   1.000  H
  H894     1.0000 0.23391  0.06739  0.67599  Biso   1.000  H
  C743     1.0000 0.22321  0.11699  0.73960  Biso   1.000  C
  H895     1.0000 0.32501  0.06779  0.80368  Biso   1.000  H
  H896     1.0000 0.26609  0.06739  0.82401  Biso   1.000  H
  C744     1.0000 0.27679  0.11699  0.76040  Biso   1.000  C
  H897     1.0000 0.21820  0.14802  0.71720  Biso   1.000  H
  H898     1.0000 0.19819  0.11930  0.76892  Biso   1.000  H
  H899     1.0000 0.28180  0.14802  0.78280  Biso   1.000  H
  H900     1.0000 0.30181  0.11930  0.73108  Biso   1.000  H
