data_image0
_cell_length_a       25.343
_cell_length_b       25.343
_cell_length_c       11.396
_cell_angle_alpha    90
_cell_angle_beta     90
_cell_angle_gamma    120

_symmetry_space_group_name_H-M    "P 1"
_symmetry_int_tables_number       1

loop_
  _symmetry_equiv_pos_as_xyz
  'x, y, z'

loop_
  _atom_site_label
  _atom_site_occupancy
  _atom_site_fract_x
  _atom_site_fract_y
  _atom_site_fract_z
  _atom_site_thermal_displace_type
  _atom_site_B_iso_or_equiv
  _atom_site_type_symbol
  C1       1.0000 0.81483  0.85194  0.77115  Biso   1.000  C
  C2       1.0000 0.78503  0.84300  0.65505  Biso   1.000  C
  C3       1.0000 0.78500  0.84300  0.65505  Biso   1.000  C
  C4       1.0000 0.81244  0.88962  0.85969  Biso   1.000  C
  C5       1.0000 0.84570  0.82150  0.79572  Biso   1.000  C
  C6       1.0000 0.81240  0.88962  0.85969  Biso   1.000  C
  C7       1.0000 0.84566  0.82150  0.79572  Biso   1.000  C
  N1       1.0000 0.78202  0.80122  0.59082  Biso   1.000  N
  N2       1.0000 0.78200  0.80118  0.59082  Biso   1.000  N
  C8       1.0000 0.74765  0.87422  0.62706  Biso   1.000  C
  C9       1.0000 0.81481  0.85189  0.77115  Biso   1.000  C
  C10      1.0000 0.74761  0.87422  0.62706  Biso   1.000  C
  C11      1.0000 0.81479  0.85194  0.77115  Biso   1.000  C
  C12      1.0000 0.77940  0.89668  0.61004  Biso   1.000  C
  H1       1.0000 0.78994  0.90893  0.84705  Biso   1.000  H
  C13      1.0000 0.84273  0.89850  0.96402  Biso   1.000  C
  H2       1.0000 0.78988  0.90889  0.84705  Biso   1.000  H
  C14      1.0000 0.84269  0.89850  0.96402  Biso   1.000  C
  C15      1.0000 0.87421  0.82760  0.90163  Biso   1.000  C
  H3       1.0000 0.84745  0.79603  0.73894  Biso   1.000  H
  H4       1.0000 0.84739  0.79598  0.73894  Biso   1.000  H
  H5       1.0000 0.84741  0.79603  0.73894  Biso   1.000  H
  C16      1.0000 0.76003  0.78833  0.47139  Biso   1.000  C
  C17      1.0000 0.76000  0.78828  0.47139  Biso   1.000  C
  H6       1.0000 0.77474  0.91663  0.61039  Biso   1.000  H
  H7       1.0000 0.72221  0.87030  0.69244  Biso   1.000  H
  H8       1.0000 0.72252  0.85522  0.55914  Biso   1.000  H
  H9       1.0000 0.77471  0.91659  0.61039  Biso   1.000  H
  H10      1.0000 0.72248  0.85522  0.55914  Biso   1.000  H
  H11      1.0000 0.74122  0.89221  0.63443  Biso   1.000  H
  H12      1.0000 0.78139  0.89759  0.52545  Biso   1.000  H
  H13      1.0000 0.81218  0.93399  0.64040  Biso   1.000  H
  C18      1.0000 0.87233  0.86583  0.98631  Biso   1.000  C
  C19      1.0000 0.87230  0.86579  0.98631  Biso   1.000  C
  C20      1.0000 0.87229  0.86583  0.98631  Biso   1.000  C
  C21      1.0000 0.84151  0.94042  0.05572  Biso   1.000  C
  C22      1.0000 0.90892  0.79453  0.93041  Biso   1.000  C
  C23      1.0000 0.90890  0.79448  0.93041  Biso   1.000  C
  C24      1.0000 0.70421  0.72349  0.46718  Biso   1.000  C
  C25      1.0000 0.70417  0.72349  0.46718  Biso   1.000  C
  C26      1.0000 0.81054  0.79371  0.39312  Biso   1.000  C
  C27      1.0000 0.81050  0.79371  0.39312  Biso   1.000  C
  H14      1.0000 0.74793  0.81781  0.44647  Biso   1.000  H
  H15      1.0000 0.74789  0.81781  0.44647  Biso   1.000  H
  H16      1.0000 0.89091  0.86961  0.05862  Biso   1.000  H
  H17      1.0000 0.89087  0.86961  0.05862  Biso   1.000  H
  C28      1.0000 0.88952  0.96311  0.14874  Biso   1.000  C
  N3       1.0000 0.80082  0.95500  0.04563  Biso   1.000  N
  N4       1.0000 0.80078  0.95500  0.04563  Biso   1.000  N
  C29      1.0000 0.93604  0.77703  0.82432  Biso   1.000  C
  C30      1.0000 0.93598  0.77698  0.82432  Biso   1.000  C
  C31      1.0000 0.93600  0.77703  0.82432  Biso   1.000  C
  N5       1.0000 0.91412  0.78409  0.03475  Biso   1.000  N
  N6       1.0000 0.91408  0.78409  0.03475  Biso   1.000  N
  C32      1.0000 0.68552  0.70522  0.33635  Biso   1.000  C
  H18      1.0000 0.67052  0.72240  0.50992  Biso   1.000  H
  H19      1.0000 0.71403  0.69493  0.50369  Biso   1.000  H
  H20      1.0000 0.71397  0.69488  0.50369  Biso   1.000  H
  H21      1.0000 0.71399  0.69493  0.50369  Biso   1.000  H
  C33      1.0000 0.78812  0.77420  0.26825  Biso   1.000  C
  N7       1.0000 0.86023  0.85631  0.39531  Biso   1.000  N
  H22      1.0000 0.82524  0.76732  0.42383  Biso   1.000  H
  N8       1.0000 0.86019  0.85631  0.39531  Biso   1.000  N
  H23      1.0000 0.82518  0.76728  0.42383  Biso   1.000  H
  H24      1.0000 0.82520  0.76732  0.42383  Biso   1.000  H
  H25      1.0000 0.92440  0.96170  0.12031  Biso   1.000  H
  H26      1.0000 0.87373  0.93800  0.21727  Biso   1.000  H
  H27      1.0000 0.87369  0.93800  0.21727  Biso   1.000  H
  H28      1.0000 0.92436  0.96170  0.12031  Biso   1.000  H
  H29      1.0000 0.90114  0.00443  0.16848  Biso   1.000  H
  H30      1.0000 0.90104  0.00439  0.16848  Biso   1.000  H
  C34      1.0000 0.79494  0.99500  0.13233  Biso   1.000  C
  C35      1.0000 0.79490  0.99500  0.13233  Biso   1.000  C
  H31      1.0000 0.97123  0.77512  0.84960  Biso   1.000  H
  H32      1.0000 0.94761  0.80710  0.76369  Biso   1.000  H
  H33      1.0000 0.90604  0.73794  0.79440  Biso   1.000  H
  H34      1.0000 0.97119  0.77512  0.84960  Biso   1.000  H
  H35      1.0000 0.90598  0.73789  0.79440  Biso   1.000  H
  H36      1.0000 0.90600  0.73794  0.79440  Biso   1.000  H
  C36      1.0000 0.94603  0.75211  0.06994  Biso   1.000  C
  C37      1.0000 0.94599  0.75211  0.06994  Biso   1.000  C
  C38      1.0000 0.73513  0.71092  0.26439  Biso   1.000  C
  H37      1.0000 0.65241  0.66330  0.33354  Biso   1.000  H
  H38      1.0000 0.67075  0.73083  0.30405  Biso   1.000  H
  C39      1.0000 0.73509  0.71092  0.26439  Biso   1.000  C
  H39      1.0000 0.67068  0.73078  0.30405  Biso   1.000  H
  H40      1.0000 0.77621  0.80200  0.23508  Biso   1.000  H
  H41      1.0000 0.82093  0.77653  0.22078  Biso   1.000  H
  H42      1.0000 0.82091  0.77648  0.22078  Biso   1.000  H
  H43      1.0000 0.77617  0.80200  0.23508  Biso   1.000  H
  C40      1.0000 0.91213  0.87062  0.43463  Biso   1.000  C
  C41      1.0000 0.73081  0.96010  0.18287  Biso   1.000  C
  C42      1.0000 0.80613  0.05401  0.06994  Biso   1.000  C
  H44      1.0000 0.82478  0.00512  0.19524  Biso   1.000  H
  C43      1.0000 0.80605  0.05401  0.06994  Biso   1.000  C
  H45      1.0000 0.95573  0.73543  0.00114  Biso   1.000  H
  C44      1.0000 0.90613  0.70181  0.15470  Biso   1.000  C
  H46      1.0000 0.95571  0.73539  0.00114  Biso   1.000  H
  C45      1.0000 0.90609  0.70181  0.15470  Biso   1.000  C
  C46      1.0000 0.00501  0.79990  0.13233  Biso   1.000  C
  H47      1.0000 0.72134  0.70030  0.18401  Biso   1.000  H
  H48      1.0000 0.74782  0.68271  0.29212  Biso   1.000  H
  H49      1.0000 0.72130  0.70030  0.18401  Biso   1.000  H
  C47      1.0000 0.95933  0.93850  0.43629  Biso   1.000  C
  C48      1.0000 0.93254  0.82811  0.48254  Biso   1.000  C
  C49      1.0000 0.95929  0.93850  0.43629  Biso   1.000  C
  C50      1.0000 0.93250  0.82811  0.48254  Biso   1.000  C
  H50      1.0000 0.72591  0.92520  0.22692  Biso   1.000  H
  H51      1.0000 0.70115  0.94552  0.11978  Biso   1.000  H
  H52      1.0000 0.70111  0.94552  0.11978  Biso   1.000  H
  C51      1.0000 0.72019  0.00421  0.26606  Biso   1.000  C
  N9       1.0000 0.87002  0.08590  0.03475  Biso   1.000  N
  H53      1.0000 0.77970  0.04430  0.00114  Biso   1.000  H
  C52      1.0000 0.79571  0.09392  0.15470  Biso   1.000  C
  N10      1.0000 0.86994  0.08590  0.03475  Biso   1.000  N
  C53      1.0000 0.79567  0.09392  0.15470  Biso   1.000  C
  H54      1.0000 0.86964  0.67201  0.11408  Biso   1.000  H
  H55      1.0000 0.89374  0.71894  0.21788  Biso   1.000  H
  C54      1.0000 0.93815  0.66973  0.20700  Biso   1.000  C
  H56      1.0000 0.86960  0.67201  0.11408  Biso   1.000  H
  H57      1.0000 0.89368  0.71889  0.21788  Biso   1.000  H
  C55      1.0000 0.93809  0.66968  0.20700  Biso   1.000  C
  H58      1.0000 0.89370  0.71894  0.21788  Biso   1.000  H
  H59      1.0000 0.99491  0.81972  0.19524  Biso   1.000  H
  N11      1.0000 0.04502  0.84583  0.04563  Biso   1.000  N
  C56      1.0000 0.03993  0.77070  0.18287  Biso   1.000  C
  N12      1.0000 0.04500  0.84578  0.04563  Biso   1.000  N
  C57      1.0000 0.03989  0.77070  0.18287  Biso   1.000  C
  C58      1.0000 0.93882  0.97933  0.43928  Biso   1.000  C
  C59      1.0000 0.93880  0.97928  0.43928  Biso   1.000  C
  C60      1.0000 0.93878  0.97933  0.43928  Biso   1.000  C
  C61      1.0000 0.02073  0.95951  0.43928  Biso   1.000  C
  C62      1.0000 0.02069  0.95951  0.43928  Biso   1.000  C
  H60      1.0000 0.97440  0.85130  0.50649  Biso   1.000  H
  H61      1.0000 0.90773  0.80642  0.54879  Biso   1.000  H
  H62      1.0000 0.92844  0.79963  0.42278  Biso   1.000  H
  H63      1.0000 0.92838  0.79958  0.42278  Biso   1.000  H
  H64      1.0000 0.67862  0.98270  0.29484  Biso   1.000  H
  H65      1.0000 0.67858  0.98270  0.29484  Biso   1.000  H
  C63      1.0000 0.73161  0.06193  0.20700  Biso   1.000  C
  H66      1.0000 0.74697  0.01459  0.33389  Biso   1.000  H
  C64      1.0000 0.73159  0.06189  0.20700  Biso   1.000  C
  C65      1.0000 0.88556  0.09109  0.93041  Biso   1.000  C
  H67      1.0000 0.80239  0.13042  0.11408  Biso   1.000  H
  H68      1.0000 0.82518  0.10631  0.21788  Biso   1.000  H
  H69      1.0000 0.91153  0.63929  0.26334  Biso   1.000  H
  H70      1.0000 0.94751  0.64932  0.14531  Biso   1.000  H
  C66      1.0000 0.99582  0.71602  0.26606  Biso   1.000  C
  H71      1.0000 0.91149  0.63929  0.26334  Biso   1.000  H
  C67      1.0000 0.05963  0.90110  0.05572  Biso   1.000  C
  C68      1.0000 0.05959  0.90110  0.05572  Biso   1.000  C
  H72      1.0000 0.07483  0.80072  0.22692  Biso   1.000  H
  H73      1.0000 0.05452  0.75562  0.11978  Biso   1.000  H
  H74      1.0000 0.89723  0.96520  0.44340  Biso   1.000  H
  H75      1.0000 0.89719  0.96520  0.44340  Biso   1.000  H
  C69      1.0000 0.97922  0.04070  0.43629  Biso   1.000  C
  H76      1.0000 0.03485  0.93203  0.44340  Biso   1.000  H
  H77      1.0000 0.03479  0.93199  0.44340  Biso   1.000  H
  C70      1.0000 0.06150  0.02084  0.43629  Biso   1.000  C
  C71      1.0000 0.06147  0.02079  0.43629  Biso   1.000  C
  H78      1.0000 0.72781  0.08850  0.26334  Biso   1.000  H
  H79      1.0000 0.70180  0.05250  0.14531  Biso   1.000  H
  C72      1.0000 0.95339  0.12581  0.90163  Biso   1.000  C
  C73      1.0000 0.84098  0.06403  0.82432  Biso   1.000  C
  C74      1.0000 0.84095  0.06398  0.82432  Biso   1.000  C
  H80      1.0000 0.98544  0.73242  0.33389  Biso   1.000  H
  H81      1.0000 0.98537  0.73238  0.33389  Biso   1.000  H
  H82      1.0000 0.01734  0.69593  0.29484  Biso   1.000  H
  H83      1.0000 0.01728  0.69588  0.29484  Biso   1.000  H
  C75      1.0000 0.10150  0.94420  0.96402  Biso   1.000  C
  C76      1.0000 0.03694  0.92643  0.14874  Biso   1.000  C
  C77      1.0000 0.03688  0.92638  0.14874  Biso   1.000  C
  C78      1.0000 0.95847  0.08791  0.43463  Biso   1.000  C
  C79      1.0000 0.04049  0.06121  0.43928  Biso   1.000  C
  C80      1.0000 0.04045  0.06121  0.43928  Biso   1.000  C
  C81      1.0000 0.12941  0.04152  0.43463  Biso   1.000  C
  C82      1.0000 0.99353  0.12773  0.98631  Biso   1.000  C
  C83      1.0000 0.97578  0.15434  0.79572  Biso   1.000  C
  C84      1.0000 0.99351  0.12768  0.98631  Biso   1.000  C
  C85      1.0000 0.97576  0.15429  0.79572  Biso   1.000  C
  H84      1.0000 0.80391  0.02881  0.84960  Biso   1.000  H
  H85      1.0000 0.85951  0.05241  0.76369  Biso   1.000  H
  H86      1.0000 0.83194  0.09401  0.79440  Biso   1.000  H
  H87      1.0000 0.83190  0.09401  0.79440  Biso   1.000  H
  C86      1.0000 0.11043  0.92283  0.85969  Biso   1.000  C
  C87      1.0000 0.11041  0.92279  0.85969  Biso   1.000  C
  C88      1.0000 0.13425  0.00653  0.98631  Biso   1.000  C
  C89      1.0000 0.13415  0.00648  0.98631  Biso   1.000  C
  H88      1.0000 0.99561  0.89672  0.16848  Biso   1.000  H
  H89      1.0000 0.99559  0.89668  0.16848  Biso   1.000  H
  H90      1.0000 0.03831  0.96270  0.12031  Biso   1.000  H
  H91      1.0000 0.06203  0.93573  0.21727  Biso   1.000  H
  H92      1.0000 0.06201  0.93568  0.21727  Biso   1.000  H
  N13      1.0000 0.99613  0.13980  0.39531  Biso   1.000  N
  C90      1.0000 0.89562  0.06749  0.48254  Biso   1.000  C
  N14      1.0000 0.99605  0.13980  0.39531  Biso   1.000  N
  C91      1.0000 0.89554  0.06749  0.48254  Biso   1.000  C
  H93      1.0000 0.06799  0.10280  0.44340  Biso   1.000  H
  H94      1.0000 0.06796  0.10280  0.44340  Biso   1.000  H
  N15      1.0000 0.14372  0.00393  0.39531  Biso   1.000  N
  C92      1.0000 0.17194  0.10440  0.48254  Biso   1.000  C
  N16      1.0000 0.14370  0.00389  0.39531  Biso   1.000  N
  C93      1.0000 0.17186  0.10440  0.48254  Biso   1.000  C
  H95      1.0000 0.97869  0.10909  0.05862  Biso   1.000  H
  H96      1.0000 0.97865  0.10909  0.05862  Biso   1.000  H
  C94      1.0000 0.05578  0.15730  0.96402  Biso   1.000  C
  C95      1.0000 0.05574  0.15730  0.96402  Biso   1.000  C
  C96      1.0000 0.03708  0.18523  0.77115  Biso   1.000  C
  C97      1.0000 0.03705  0.18518  0.77115  Biso   1.000  C
  H97      1.0000 0.94859  0.15260  0.73894  Biso   1.000  H
  H98      1.0000 0.94856  0.15260  0.73894  Biso   1.000  H
  C98      1.0000 0.14812  0.96293  0.77115  Biso   1.000  C
  C99      1.0000 0.14809  0.96288  0.77115  Biso   1.000  C
  H99      1.0000 0.09114  0.88100  0.84705  Biso   1.000  H
  H100     1.0000 0.09110  0.88100  0.84705  Biso   1.000  H
  C100     1.0000 0.17245  0.04663  0.90163  Biso   1.000  C
  C101     1.0000 0.17238  0.04658  0.90163  Biso   1.000  C
  H101     1.0000 0.13042  0.02129  0.05862  Biso   1.000  H
  H102     1.0000 0.13038  0.02129  0.05862  Biso   1.000  H
  C102     1.0000 0.98323  0.18951  0.39312  Biso   1.000  C
  C103     1.0000 0.98319  0.18951  0.39312  Biso   1.000  C
  H103     1.0000 0.87690  0.02562  0.50649  Biso   1.000  H
  H104     1.0000 0.89869  0.09232  0.54879  Biso   1.000  H
  H105     1.0000 0.87123  0.07159  0.42278  Biso   1.000  H
  H106     1.0000 0.87686  0.02562  0.50649  Biso   1.000  H
  H107     1.0000 0.89866  0.09228  0.54879  Biso   1.000  H
  H108     1.0000 0.87116  0.07159  0.42278  Biso   1.000  H
  C104     1.0000 0.20628  0.01683  0.39312  Biso   1.000  C
  C105     1.0000 0.20626  0.01678  0.39312  Biso   1.000  C
  H109     1.0000 0.14871  0.12313  0.50649  Biso   1.000  H
  H110     1.0000 0.19359  0.10130  0.54879  Biso   1.000  H
  H111     1.0000 0.20044  0.12882  0.42278  Biso   1.000  H
  H112     1.0000 0.14868  0.12308  0.50649  Biso   1.000  H
  H113     1.0000 0.20037  0.12882  0.42278  Biso   1.000  H
  C106     1.0000 0.07721  0.18760  0.85969  Biso   1.000  C
  C107     1.0000 0.09889  0.15853  0.05572  Biso   1.000  C
  C108     1.0000 0.09883  0.15848  0.05572  Biso   1.000  C
  C109     1.0000 0.05805  0.21503  0.65505  Biso   1.000  C
  C110     1.0000 0.05795  0.21498  0.65505  Biso   1.000  C
  C111     1.0000 0.15703  0.94201  0.65505  Biso   1.000  C
  C112     1.0000 0.15699  0.94201  0.65505  Biso   1.000  C
  C113     1.0000 0.17852  0.02421  0.79572  Biso   1.000  C
  C114     1.0000 0.20552  0.11442  0.93041  Biso   1.000  C
  C115     1.0000 0.20549  0.11438  0.93041  Biso   1.000  C
  H114     1.0000 0.94209  0.17479  0.42383  Biso   1.000  H
  C116     1.0000 0.98611  0.21193  0.26825  Biso   1.000  C
  C117     1.0000 0.98605  0.21188  0.26825  Biso   1.000  C
  C118     1.0000 0.02832  0.23999  0.47139  Biso   1.000  C
  C119     1.0000 0.21174  0.97172  0.47139  Biso   1.000  C
  C120     1.0000 0.21170  0.97172  0.47139  Biso   1.000  C
  H115     1.0000 0.23271  0.05792  0.42383  Biso   1.000  H
  C121     1.0000 0.22581  0.01391  0.26825  Biso   1.000  C
  H116     1.0000 0.23264  0.05788  0.42383  Biso   1.000  H
  H117     1.0000 0.11900  0.21011  0.84705  Biso   1.000  H
  H118     1.0000 0.11896  0.21011  0.84705  Biso   1.000  H
  N17      1.0000 0.15424  0.19922  0.04563  Biso   1.000  N
  C122     1.0000 0.07358  0.11050  0.14874  Biso   1.000  C
  N18      1.0000 0.15420  0.19922  0.04563  Biso   1.000  N
  N19      1.0000 0.01923  0.21803  0.59082  Biso   1.000  N
  N20      1.0000 0.01921  0.21799  0.59082  Biso   1.000  N
  C123     1.0000 0.12659  0.25243  0.62706  Biso   1.000  C
  C124     1.0000 0.12657  0.25239  0.62706  Biso   1.000  C
  C125     1.0000 0.11728  0.22063  0.61004  Biso   1.000  C
  N21      1.0000 0.19882  0.98083  0.59082  Biso   1.000  N
  N22      1.0000 0.19879  0.98079  0.59082  Biso   1.000  N
  C126     1.0000 0.12580  0.87340  0.62706  Biso   1.000  C
  C127     1.0000 0.10330  0.88269  0.61004  Biso   1.000  C
  H119     1.0000 0.20404  0.05141  0.73894  Biso   1.000  H
  H120     1.0000 0.20396  0.05141  0.73894  Biso   1.000  H
  C128     1.0000 0.22301  0.15903  0.82432  Biso   1.000  C
  C129     1.0000 0.22298  0.15898  0.82432  Biso   1.000  C
  N23      1.0000 0.21587  0.13001  0.03475  Biso   1.000  N
  H121     1.0000 0.95562  0.17912  0.22078  Biso   1.000  H
  C130     1.0000 0.97579  0.26492  0.26439  Biso   1.000  C
  H122     1.0000 0.02579  0.22382  0.23508  Biso   1.000  H
  C131     1.0000 0.01929  0.29581  0.46718  Biso   1.000  C
  H123     1.0000 0.06989  0.25211  0.44647  Biso   1.000  H
  C132     1.0000 0.27652  0.98070  0.46718  Biso   1.000  C
  H124     1.0000 0.18222  0.93012  0.44647  Biso   1.000  H
  C133     1.0000 0.27648  0.98070  0.46718  Biso   1.000  C
  H125     1.0000 0.19804  0.97423  0.23508  Biso   1.000  H
  H126     1.0000 0.19798  0.97418  0.23508  Biso   1.000  H
  H127     1.0000 0.22349  0.04439  0.22078  Biso   1.000  H
  C134     1.0000 0.28912  0.02421  0.26439  Biso   1.000  C
  C135     1.0000 0.20007  0.20509  0.13233  Biso   1.000  C
  H128     1.0000 0.10335  0.09893  0.16848  Biso   1.000  H
  H129     1.0000 0.03731  0.07560  0.12031  Biso   1.000  H
  H130     1.0000 0.06428  0.12631  0.21727  Biso   1.000  H
  H131     1.0000 0.10328  0.09889  0.16848  Biso   1.000  H
  H132     1.0000 0.14188  0.22532  0.61039  Biso   1.000  H
  H133     1.0000 0.14812  0.27781  0.69244  Biso   1.000  H
  H134     1.0000 0.13269  0.27749  0.55914  Biso   1.000  H
  H135     1.0000 0.14186  0.22528  0.61039  Biso   1.000  H
  H136     1.0000 0.15101  0.25881  0.63443  Biso   1.000  H
  H137     1.0000 0.11624  0.21863  0.52545  Biso   1.000  H
  H138     1.0000 0.12183  0.18782  0.64040  Biso   1.000  H
  H139     1.0000 0.08345  0.85813  0.61039  Biso   1.000  H
  H140     1.0000 0.12975  0.85194  0.69244  Biso   1.000  H
  H141     1.0000 0.14483  0.86734  0.55914  Biso   1.000  H
  H142     1.0000 0.08339  0.85809  0.61039  Biso   1.000  H
  H143     1.0000 0.12969  0.85189  0.69244  Biso   1.000  H
  H144     1.0000 0.14481  0.86729  0.55914  Biso   1.000  H
  H145     1.0000 0.14479  0.86734  0.55914  Biso   1.000  H
  H146     1.0000 0.10781  0.84902  0.63443  Biso   1.000  H
  H147     1.0000 0.10239  0.88378  0.52545  Biso   1.000  H
  H148     1.0000 0.06601  0.87818  0.64040  Biso   1.000  H
  H149     1.0000 0.22490  0.19612  0.84960  Biso   1.000  H
  H150     1.0000 0.19292  0.14053  0.76369  Biso   1.000  H
  H151     1.0000 0.26207  0.16810  0.79440  Biso   1.000  H
  H152     1.0000 0.19290  0.14048  0.76369  Biso   1.000  H
  C136     1.0000 0.24791  0.19393  0.06994  Biso   1.000  C
  C137     1.0000 0.24789  0.19388  0.06994  Biso   1.000  C
  H153     1.0000 0.97898  0.27872  0.18401  Biso   1.000  H
  H154     1.0000 0.93487  0.25221  0.29212  Biso   1.000  H
  C138     1.0000 0.01970  0.31454  0.33635  Biso   1.000  C
  C139     1.0000 0.01967  0.31449  0.33635  Biso   1.000  C
  H155     1.0000 0.98089  0.28601  0.50369  Biso   1.000  H
  H156     1.0000 0.98085  0.28601  0.50369  Biso   1.000  H
  H157     1.0000 0.05193  0.32953  0.50992  Biso   1.000  H
  H158     1.0000 0.05191  0.32948  0.50992  Biso   1.000  H
  C140     1.0000 0.29485  0.98033  0.33635  Biso   1.000  C
  H159     1.0000 0.27763  0.94812  0.50992  Biso   1.000  H
  C141     1.0000 0.29478  0.98029  0.33635  Biso   1.000  C
  H160     1.0000 0.27759  0.94812  0.50992  Biso   1.000  H
  H161     1.0000 0.30512  0.01911  0.50369  Biso   1.000  H
  H162     1.0000 0.29968  0.02102  0.18401  Biso   1.000  H
  H163     1.0000 0.31728  0.06512  0.29212  Biso   1.000  H
  H164     1.0000 0.31725  0.06508  0.29212  Biso   1.000  H
  C142     1.0000 0.22932  0.26920  0.18287  Biso   1.000  C
  H165     1.0000 0.18031  0.17520  0.19524  Biso   1.000  H
  C143     1.0000 0.22924  0.26920  0.18287  Biso   1.000  C
  H166     1.0000 0.26458  0.22031  0.00114  Biso   1.000  H
  C144     1.0000 0.29821  0.20432  0.15470  Biso   1.000  C
  H167     1.0000 0.01090  0.34761  0.33354  Biso   1.000  H
  H168     1.0000 0.06006  0.32930  0.30405  Biso   1.000  H
  H169     1.0000 0.33673  0.98912  0.33354  Biso   1.000  H
  H170     1.0000 0.26923  0.93992  0.30405  Biso   1.000  H
  H171     1.0000 0.33671  0.98908  0.33354  Biso   1.000  H
  H172     1.0000 0.26919  0.93992  0.30405  Biso   1.000  H
  C145     1.0000 0.28399  0.27982  0.26606  Biso   1.000  C
  H173     1.0000 0.19931  0.27412  0.22692  Biso   1.000  H
  H174     1.0000 0.24441  0.29891  0.11978  Biso   1.000  H
  H175     1.0000 0.19927  0.27412  0.22692  Biso   1.000  H
  H176     1.0000 0.32801  0.19762  0.11408  Biso   1.000  H
  H177     1.0000 0.28112  0.17479  0.21788  Biso   1.000  H
  C146     1.0000 0.33034  0.26843  0.20700  Biso   1.000  C
  H178     1.0000 0.28104  0.17479  0.21788  Biso   1.000  H
  C147     1.0000 0.33024  0.26838  0.20700  Biso   1.000  C
  H179     1.0000 0.30408  0.32142  0.29484  Biso   1.000  H
  H180     1.0000 0.26760  0.25303  0.33389  Biso   1.000  H
  H181     1.0000 0.26757  0.25298  0.33389  Biso   1.000  H
  H182     1.0000 0.36068  0.27221  0.26334  Biso   1.000  H
  H183     1.0000 0.35069  0.29822  0.14531  Biso   1.000  H
  H184     1.0000 0.35066  0.29818  0.14531  Biso   1.000  H
  C148     1.0000 0.81483  0.85194  0.77115  Biso   1.000  C
  C149     1.0000 0.78503  0.84300  0.65505  Biso   1.000  C
  C150     1.0000 0.78500  0.84300  0.65505  Biso   1.000  C
  C151     1.0000 0.84570  0.82150  0.79572  Biso   1.000  C
  C152     1.0000 0.81244  0.88962  0.85969  Biso   1.000  C
  C153     1.0000 0.81240  0.88962  0.85969  Biso   1.000  C
  C154     1.0000 0.84566  0.82150  0.79572  Biso   1.000  C
  N24      1.0000 0.78202  0.80122  0.59082  Biso   1.000  N
  N25      1.0000 0.78200  0.80118  0.59082  Biso   1.000  N
  C155     1.0000 0.74761  0.87422  0.62706  Biso   1.000  C
  C156     1.0000 0.81481  0.85189  0.77115  Biso   1.000  C
  C157     1.0000 0.74765  0.87422  0.62706  Biso   1.000  C
  C158     1.0000 0.81479  0.85194  0.77115  Biso   1.000  C
  C159     1.0000 0.77940  0.89668  0.61004  Biso   1.000  C
  C160     1.0000 0.87421  0.82760  0.90163  Biso   1.000  C
  H185     1.0000 0.84739  0.79598  0.73894  Biso   1.000  H
  H186     1.0000 0.84745  0.79603  0.73894  Biso   1.000  H
  H187     1.0000 0.84741  0.79603  0.73894  Biso   1.000  H
  H188     1.0000 0.78994  0.90893  0.84705  Biso   1.000  H
  C161     1.0000 0.84273  0.89850  0.96402  Biso   1.000  C
  H189     1.0000 0.78988  0.90889  0.84705  Biso   1.000  H
  C162     1.0000 0.84269  0.89850  0.96402  Biso   1.000  C
  C163     1.0000 0.76003  0.78833  0.47139  Biso   1.000  C
  C164     1.0000 0.76000  0.78828  0.47139  Biso   1.000  C
  H190     1.0000 0.72221  0.87030  0.69244  Biso   1.000  H
  H191     1.0000 0.72252  0.85522  0.55914  Biso   1.000  H
  H192     1.0000 0.77474  0.91663  0.61039  Biso   1.000  H
  H193     1.0000 0.77471  0.91659  0.61039  Biso   1.000  H
  H194     1.0000 0.72248  0.85522  0.55914  Biso   1.000  H
  H195     1.0000 0.74122  0.89221  0.63443  Biso   1.000  H
  H196     1.0000 0.78139  0.89759  0.52545  Biso   1.000  H
  H197     1.0000 0.81218  0.93399  0.64040  Biso   1.000  H
  C165     1.0000 0.90892  0.79453  0.93041  Biso   1.000  C
  C166     1.0000 0.87230  0.86579  0.98631  Biso   1.000  C
  C167     1.0000 0.90890  0.79448  0.93041  Biso   1.000  C
  C168     1.0000 0.87233  0.86583  0.98631  Biso   1.000  C
  C169     1.0000 0.87229  0.86583  0.98631  Biso   1.000  C
  C170     1.0000 0.84151  0.94042  0.05572  Biso   1.000  C
  C171     1.0000 0.70421  0.72349  0.46718  Biso   1.000  C
  C172     1.0000 0.70417  0.72349  0.46718  Biso   1.000  C
  C173     1.0000 0.81050  0.79371  0.39312  Biso   1.000  C
  H198     1.0000 0.74793  0.81781  0.44647  Biso   1.000  H
  H199     1.0000 0.74789  0.81781  0.44647  Biso   1.000  H
  C174     1.0000 0.81054  0.79371  0.39312  Biso   1.000  C
  C175     1.0000 0.93598  0.77698  0.82432  Biso   1.000  C
  C176     1.0000 0.93604  0.77703  0.82432  Biso   1.000  C
  C177     1.0000 0.93600  0.77703  0.82432  Biso   1.000  C
  N26      1.0000 0.91412  0.78409  0.03475  Biso   1.000  N
  N27      1.0000 0.91408  0.78409  0.03475  Biso   1.000  N
  H200     1.0000 0.89091  0.86961  0.05862  Biso   1.000  H
  H201     1.0000 0.89087  0.86961  0.05862  Biso   1.000  H
  C178     1.0000 0.88952  0.96311  0.14874  Biso   1.000  C
  N28      1.0000 0.80082  0.95500  0.04563  Biso   1.000  N
  N29      1.0000 0.80078  0.95500  0.04563  Biso   1.000  N
  C179     1.0000 0.68552  0.70522  0.33635  Biso   1.000  C
  H202     1.0000 0.67052  0.72240  0.50992  Biso   1.000  H
  H203     1.0000 0.71397  0.69488  0.50369  Biso   1.000  H
  H204     1.0000 0.71403  0.69493  0.50369  Biso   1.000  H
  H205     1.0000 0.71399  0.69493  0.50369  Biso   1.000  H
  C180     1.0000 0.78812  0.77420  0.26825  Biso   1.000  C
  N30      1.0000 0.86019  0.85631  0.39531  Biso   1.000  N
  H206     1.0000 0.82518  0.76728  0.42383  Biso   1.000  H
  N31      1.0000 0.86023  0.85631  0.39531  Biso   1.000  N
  H207     1.0000 0.82524  0.76732  0.42383  Biso   1.000  H
  H208     1.0000 0.82520  0.76732  0.42383  Biso   1.000  H
  H209     1.0000 0.94761  0.80710  0.76369  Biso   1.000  H
  H210     1.0000 0.97123  0.77512  0.84960  Biso   1.000  H
  H211     1.0000 0.97119  0.77512  0.84960  Biso   1.000  H
  H212     1.0000 0.90598  0.73789  0.79440  Biso   1.000  H
  H213     1.0000 0.90604  0.73794  0.79440  Biso   1.000  H
  H214     1.0000 0.90600  0.73794  0.79440  Biso   1.000  H
  C181     1.0000 0.94603  0.75211  0.06994  Biso   1.000  C
  C182     1.0000 0.94599  0.75211  0.06994  Biso   1.000  C
  H215     1.0000 0.92440  0.96170  0.12031  Biso   1.000  H
  H216     1.0000 0.87373  0.93800  0.21727  Biso   1.000  H
  H217     1.0000 0.87369  0.93800  0.21727  Biso   1.000  H
  H218     1.0000 0.92436  0.96170  0.12031  Biso   1.000  H
  H219     1.0000 0.90114  0.00443  0.16848  Biso   1.000  H
  H220     1.0000 0.90104  0.00439  0.16848  Biso   1.000  H
  C183     1.0000 0.79494  0.99500  0.13233  Biso   1.000  C
  C184     1.0000 0.79490  0.99500  0.13233  Biso   1.000  C
  H221     1.0000 0.65241  0.66330  0.33354  Biso   1.000  H
  C185     1.0000 0.73513  0.71092  0.26439  Biso   1.000  C
  H222     1.0000 0.67075  0.73083  0.30405  Biso   1.000  H
  C186     1.0000 0.73509  0.71092  0.26439  Biso   1.000  C
  H223     1.0000 0.67068  0.73078  0.30405  Biso   1.000  H
  H224     1.0000 0.77621  0.80200  0.23508  Biso   1.000  H
  H225     1.0000 0.82093  0.77653  0.22078  Biso   1.000  H
  H226     1.0000 0.82091  0.77648  0.22078  Biso   1.000  H
  H227     1.0000 0.77617  0.80200  0.23508  Biso   1.000  H
  C187     1.0000 0.91213  0.87062  0.43463  Biso   1.000  C
  H228     1.0000 0.95573  0.73543  0.00114  Biso   1.000  H
  C188     1.0000 0.90613  0.70181  0.15470  Biso   1.000  C
  H229     1.0000 0.95571  0.73539  0.00114  Biso   1.000  H
  C189     1.0000 0.90609  0.70181  0.15470  Biso   1.000  C
  C190     1.0000 0.00501  0.79990  0.13233  Biso   1.000  C
  C191     1.0000 0.73081  0.96010  0.18287  Biso   1.000  C
  C192     1.0000 0.80613  0.05401  0.06994  Biso   1.000  C
  H230     1.0000 0.82478  0.00512  0.19524  Biso   1.000  H
  C193     1.0000 0.80605  0.05401  0.06994  Biso   1.000  C
  H231     1.0000 0.74782  0.68271  0.29212  Biso   1.000  H
  H232     1.0000 0.72134  0.70030  0.18401  Biso   1.000  H
  H233     1.0000 0.72130  0.70030  0.18401  Biso   1.000  H
  C194     1.0000 0.95933  0.93850  0.43629  Biso   1.000  C
  C195     1.0000 0.93250  0.82811  0.48254  Biso   1.000  C
  C196     1.0000 0.95929  0.93850  0.43629  Biso   1.000  C
  C197     1.0000 0.93254  0.82811  0.48254  Biso   1.000  C
  H234     1.0000 0.86964  0.67201  0.11408  Biso   1.000  H
  H235     1.0000 0.89374  0.71894  0.21788  Biso   1.000  H
  C198     1.0000 0.93815  0.66973  0.20700  Biso   1.000  C
  H236     1.0000 0.86960  0.67201  0.11408  Biso   1.000  H
  H237     1.0000 0.89368  0.71889  0.21788  Biso   1.000  H
  C199     1.0000 0.93809  0.66968  0.20700  Biso   1.000  C
  H238     1.0000 0.89370  0.71894  0.21788  Biso   1.000  H
  H239     1.0000 0.99491  0.81972  0.19524  Biso   1.000  H
  N32      1.0000 0.04502  0.84583  0.04563  Biso   1.000  N
  C200     1.0000 0.03993  0.77070  0.18287  Biso   1.000  C
  N33      1.0000 0.04500  0.84578  0.04563  Biso   1.000  N
  C201     1.0000 0.03989  0.77070  0.18287  Biso   1.000  C
  C202     1.0000 0.72019  0.00421  0.26606  Biso   1.000  C
  H240     1.0000 0.72591  0.92520  0.22692  Biso   1.000  H
  H241     1.0000 0.70115  0.94552  0.11978  Biso   1.000  H
  H242     1.0000 0.70111  0.94552  0.11978  Biso   1.000  H
  H243     1.0000 0.77970  0.04430  0.00114  Biso   1.000  H
  N34      1.0000 0.87002  0.08590  0.03475  Biso   1.000  N
  C203     1.0000 0.79571  0.09392  0.15470  Biso   1.000  C
  N35      1.0000 0.86994  0.08590  0.03475  Biso   1.000  N
  C204     1.0000 0.79567  0.09392  0.15470  Biso   1.000  C
  C205     1.0000 0.93880  0.97928  0.43928  Biso   1.000  C
  C206     1.0000 0.93882  0.97933  0.43928  Biso   1.000  C
  C207     1.0000 0.93878  0.97933  0.43928  Biso   1.000  C
  C208     1.0000 0.02073  0.95951  0.43928  Biso   1.000  C
  C209     1.0000 0.02069  0.95951  0.43928  Biso   1.000  C
  H244     1.0000 0.97440  0.85130  0.50649  Biso   1.000  H
  H245     1.0000 0.90773  0.80642  0.54879  Biso   1.000  H
  H246     1.0000 0.92844  0.79963  0.42278  Biso   1.000  H
  H247     1.0000 0.92838  0.79958  0.42278  Biso   1.000  H
  H248     1.0000 0.91153  0.63929  0.26334  Biso   1.000  H
  H249     1.0000 0.94751  0.64932  0.14531  Biso   1.000  H
  C210     1.0000 0.99582  0.71602  0.26606  Biso   1.000  C
  H250     1.0000 0.91149  0.63929  0.26334  Biso   1.000  H
  C211     1.0000 0.05963  0.90110  0.05572  Biso   1.000  C
  C212     1.0000 0.05959  0.90110  0.05572  Biso   1.000  C
  H251     1.0000 0.07483  0.80072  0.22692  Biso   1.000  H
  H252     1.0000 0.05452  0.75562  0.11978  Biso   1.000  H
  H253     1.0000 0.67862  0.98270  0.29484  Biso   1.000  H
  H254     1.0000 0.67858  0.98270  0.29484  Biso   1.000  H
  C213     1.0000 0.73161  0.06193  0.20700  Biso   1.000  C
  H255     1.0000 0.74697  0.01459  0.33389  Biso   1.000  H
  C214     1.0000 0.73159  0.06189  0.20700  Biso   1.000  C
  C215     1.0000 0.88556  0.09109  0.93041  Biso   1.000  C
  H256     1.0000 0.80239  0.13042  0.11408  Biso   1.000  H
  H257     1.0000 0.82518  0.10631  0.21788  Biso   1.000  H
  H258     1.0000 0.89719  0.96520  0.44340  Biso   1.000  H
  H259     1.0000 0.89723  0.96520  0.44340  Biso   1.000  H
  C216     1.0000 0.97922  0.04070  0.43629  Biso   1.000  C
  H260     1.0000 0.03485  0.93203  0.44340  Biso   1.000  H
  H261     1.0000 0.03479  0.93199  0.44340  Biso   1.000  H
  C217     1.0000 0.06150  0.02084  0.43629  Biso   1.000  C
  C218     1.0000 0.06147  0.02079  0.43629  Biso   1.000  C
  H262     1.0000 0.98544  0.73242  0.33389  Biso   1.000  H
  H263     1.0000 0.98537  0.73238  0.33389  Biso   1.000  H
  H264     1.0000 0.01734  0.69593  0.29484  Biso   1.000  H
  H265     1.0000 0.01728  0.69588  0.29484  Biso   1.000  H
  C219     1.0000 0.10150  0.94420  0.96402  Biso   1.000  C
  C220     1.0000 0.03694  0.92643  0.14874  Biso   1.000  C
  C221     1.0000 0.03688  0.92638  0.14874  Biso   1.000  C
  H266     1.0000 0.72781  0.08850  0.26334  Biso   1.000  H
  H267     1.0000 0.70180  0.05250  0.14531  Biso   1.000  H
  C222     1.0000 0.95339  0.12581  0.90163  Biso   1.000  C
  C223     1.0000 0.84098  0.06403  0.82432  Biso   1.000  C
  C224     1.0000 0.84095  0.06398  0.82432  Biso   1.000  C
  C225     1.0000 0.95847  0.08791  0.43463  Biso   1.000  C
  C226     1.0000 0.04049  0.06121  0.43928  Biso   1.000  C
  C227     1.0000 0.04045  0.06121  0.43928  Biso   1.000  C
  C228     1.0000 0.12941  0.04152  0.43463  Biso   1.000  C
  C229     1.0000 0.11043  0.92283  0.85969  Biso   1.000  C
  C230     1.0000 0.11041  0.92279  0.85969  Biso   1.000  C
  C231     1.0000 0.13425  0.00653  0.98631  Biso   1.000  C
  C232     1.0000 0.13415  0.00648  0.98631  Biso   1.000  C
  H268     1.0000 0.99561  0.89672  0.16848  Biso   1.000  H
  H269     1.0000 0.99559  0.89668  0.16848  Biso   1.000  H
  H270     1.0000 0.03831  0.96270  0.12031  Biso   1.000  H
  H271     1.0000 0.06203  0.93573  0.21727  Biso   1.000  H
  H272     1.0000 0.06201  0.93568  0.21727  Biso   1.000  H
  C233     1.0000 0.99353  0.12773  0.98631  Biso   1.000  C
  C234     1.0000 0.97578  0.15434  0.79572  Biso   1.000  C
  C235     1.0000 0.99351  0.12768  0.98631  Biso   1.000  C
  C236     1.0000 0.97576  0.15429  0.79572  Biso   1.000  C
  H273     1.0000 0.80391  0.02881  0.84960  Biso   1.000  H
  H274     1.0000 0.85951  0.05241  0.76369  Biso   1.000  H
  H275     1.0000 0.83194  0.09401  0.79440  Biso   1.000  H
  H276     1.0000 0.83190  0.09401  0.79440  Biso   1.000  H
  N36      1.0000 0.99613  0.13980  0.39531  Biso   1.000  N
  C237     1.0000 0.89562  0.06749  0.48254  Biso   1.000  C
  N37      1.0000 0.99605  0.13980  0.39531  Biso   1.000  N
  C238     1.0000 0.89554  0.06749  0.48254  Biso   1.000  C
  H277     1.0000 0.06799  0.10280  0.44340  Biso   1.000  H
  H278     1.0000 0.06796  0.10280  0.44340  Biso   1.000  H
  N38      1.0000 0.14372  0.00393  0.39531  Biso   1.000  N
  C239     1.0000 0.17194  0.10440  0.48254  Biso   1.000  C
  N39      1.0000 0.14370  0.00389  0.39531  Biso   1.000  N
  C240     1.0000 0.17186  0.10440  0.48254  Biso   1.000  C
  C241     1.0000 0.14812  0.96293  0.77115  Biso   1.000  C
  C242     1.0000 0.14809  0.96288  0.77115  Biso   1.000  C
  H279     1.0000 0.09114  0.88100  0.84705  Biso   1.000  H
  H280     1.0000 0.09110  0.88100  0.84705  Biso   1.000  H
  C243     1.0000 0.17245  0.04663  0.90163  Biso   1.000  C
  C244     1.0000 0.17238  0.04658  0.90163  Biso   1.000  C
  H281     1.0000 0.13042  0.02129  0.05862  Biso   1.000  H
  H282     1.0000 0.13038  0.02129  0.05862  Biso   1.000  H
  H283     1.0000 0.97869  0.10909  0.05862  Biso   1.000  H
  H284     1.0000 0.97865  0.10909  0.05862  Biso   1.000  H
  C245     1.0000 0.05578  0.15730  0.96402  Biso   1.000  C
  C246     1.0000 0.05574  0.15730  0.96402  Biso   1.000  C
  C247     1.0000 0.03708  0.18523  0.77115  Biso   1.000  C
  C248     1.0000 0.03705  0.18518  0.77115  Biso   1.000  C
  H285     1.0000 0.94859  0.15260  0.73894  Biso   1.000  H
  H286     1.0000 0.94856  0.15260  0.73894  Biso   1.000  H
  C249     1.0000 0.98323  0.18951  0.39312  Biso   1.000  C
  C250     1.0000 0.98319  0.18951  0.39312  Biso   1.000  C
  H287     1.0000 0.87690  0.02562  0.50649  Biso   1.000  H
  H288     1.0000 0.89869  0.09232  0.54879  Biso   1.000  H
  H289     1.0000 0.87123  0.07159  0.42278  Biso   1.000  H
  H290     1.0000 0.87686  0.02562  0.50649  Biso   1.000  H
  H291     1.0000 0.89866  0.09228  0.54879  Biso   1.000  H
  H292     1.0000 0.87116  0.07159  0.42278  Biso   1.000  H
  C251     1.0000 0.20628  0.01683  0.39312  Biso   1.000  C
  C252     1.0000 0.20626  0.01678  0.39312  Biso   1.000  C
  H293     1.0000 0.19359  0.10130  0.54879  Biso   1.000  H
  H294     1.0000 0.14871  0.12313  0.50649  Biso   1.000  H
  H295     1.0000 0.20044  0.12882  0.42278  Biso   1.000  H
  H296     1.0000 0.14868  0.12308  0.50649  Biso   1.000  H
  H297     1.0000 0.20037  0.12882  0.42278  Biso   1.000  H
  C253     1.0000 0.15703  0.94201  0.65505  Biso   1.000  C
  C254     1.0000 0.15699  0.94201  0.65505  Biso   1.000  C
  C255     1.0000 0.17852  0.02421  0.79572  Biso   1.000  C
  C256     1.0000 0.20552  0.11442  0.93041  Biso   1.000  C
  C257     1.0000 0.20549  0.11438  0.93041  Biso   1.000  C
  C258     1.0000 0.07721  0.18760  0.85969  Biso   1.000  C
  C259     1.0000 0.09889  0.15853  0.05572  Biso   1.000  C
  C260     1.0000 0.09883  0.15848  0.05572  Biso   1.000  C
  C261     1.0000 0.05805  0.21503  0.65505  Biso   1.000  C
  C262     1.0000 0.05795  0.21498  0.65505  Biso   1.000  C
  H298     1.0000 0.94209  0.17479  0.42383  Biso   1.000  H
  C263     1.0000 0.98611  0.21193  0.26825  Biso   1.000  C
  C264     1.0000 0.98605  0.21188  0.26825  Biso   1.000  C
  C265     1.0000 0.02832  0.23999  0.47139  Biso   1.000  C
  C266     1.0000 0.21174  0.97172  0.47139  Biso   1.000  C
  C267     1.0000 0.21170  0.97172  0.47139  Biso   1.000  C
  H299     1.0000 0.23271  0.05792  0.42383  Biso   1.000  H
  C268     1.0000 0.22581  0.01391  0.26825  Biso   1.000  C
  H300     1.0000 0.23264  0.05788  0.42383  Biso   1.000  H
  N40      1.0000 0.19882  0.98083  0.59082  Biso   1.000  N
  N41      1.0000 0.19879  0.98079  0.59082  Biso   1.000  N
  C269     1.0000 0.12580  0.87340  0.62706  Biso   1.000  C
  C270     1.0000 0.10330  0.88269  0.61004  Biso   1.000  C
  H301     1.0000 0.20404  0.05141  0.73894  Biso   1.000  H
  H302     1.0000 0.20396  0.05141  0.73894  Biso   1.000  H
  C271     1.0000 0.22301  0.15903  0.82432  Biso   1.000  C
  C272     1.0000 0.22298  0.15898  0.82432  Biso   1.000  C
  N42      1.0000 0.21587  0.13001  0.03475  Biso   1.000  N
  H303     1.0000 0.11900  0.21011  0.84705  Biso   1.000  H
  H304     1.0000 0.11896  0.21011  0.84705  Biso   1.000  H
  N43      1.0000 0.15424  0.19922  0.04563  Biso   1.000  N
  C273     1.0000 0.07358  0.11050  0.14874  Biso   1.000  C
  N44      1.0000 0.15420  0.19922  0.04563  Biso   1.000  N
  N45      1.0000 0.01923  0.21803  0.59082  Biso   1.000  N
  N46      1.0000 0.01921  0.21799  0.59082  Biso   1.000  N
  C274     1.0000 0.12659  0.25243  0.62706  Biso   1.000  C
  C275     1.0000 0.12657  0.25239  0.62706  Biso   1.000  C
  C276     1.0000 0.11728  0.22063  0.61004  Biso   1.000  C
  H305     1.0000 0.02579  0.22382  0.23508  Biso   1.000  H
  H306     1.0000 0.95562  0.17912  0.22078  Biso   1.000  H
  C277     1.0000 0.97579  0.26492  0.26439  Biso   1.000  C
  C278     1.0000 0.01929  0.29581  0.46718  Biso   1.000  C
  H307     1.0000 0.06989  0.25211  0.44647  Biso   1.000  H
  C279     1.0000 0.27652  0.98070  0.46718  Biso   1.000  C
  H308     1.0000 0.18222  0.93012  0.44647  Biso   1.000  H
  C280     1.0000 0.27648  0.98070  0.46718  Biso   1.000  C
  H309     1.0000 0.22349  0.04439  0.22078  Biso   1.000  H
  H310     1.0000 0.19804  0.97423  0.23508  Biso   1.000  H
  H311     1.0000 0.19798  0.97418  0.23508  Biso   1.000  H
  C281     1.0000 0.28912  0.02421  0.26439  Biso   1.000  C
  H312     1.0000 0.08345  0.85813  0.61039  Biso   1.000  H
  H313     1.0000 0.12975  0.85194  0.69244  Biso   1.000  H
  H314     1.0000 0.14483  0.86734  0.55914  Biso   1.000  H
  H315     1.0000 0.08339  0.85809  0.61039  Biso   1.000  H
  H316     1.0000 0.12969  0.85189  0.69244  Biso   1.000  H
  H317     1.0000 0.14481  0.86729  0.55914  Biso   1.000  H
  H318     1.0000 0.14479  0.86734  0.55914  Biso   1.000  H
  H319     1.0000 0.10781  0.84902  0.63443  Biso   1.000  H
  H320     1.0000 0.10239  0.88378  0.52545  Biso   1.000  H
  H321     1.0000 0.06601  0.87818  0.64040  Biso   1.000  H
  H322     1.0000 0.22490  0.19612  0.84960  Biso   1.000  H
  H323     1.0000 0.19292  0.14053  0.76369  Biso   1.000  H
  H324     1.0000 0.26207  0.16810  0.79440  Biso   1.000  H
  H325     1.0000 0.19290  0.14048  0.76369  Biso   1.000  H
  C282     1.0000 0.24791  0.19393  0.06994  Biso   1.000  C
  C283     1.0000 0.24789  0.19388  0.06994  Biso   1.000  C
  C284     1.0000 0.20007  0.20509  0.13233  Biso   1.000  C
  H326     1.0000 0.10335  0.09893  0.16848  Biso   1.000  H
  H327     1.0000 0.03731  0.07560  0.12031  Biso   1.000  H
  H328     1.0000 0.06428  0.12631  0.21727  Biso   1.000  H
  H329     1.0000 0.10328  0.09889  0.16848  Biso   1.000  H
  H330     1.0000 0.13269  0.27749  0.55914  Biso   1.000  H
  H331     1.0000 0.14188  0.22532  0.61039  Biso   1.000  H
  H332     1.0000 0.14812  0.27781  0.69244  Biso   1.000  H
  H333     1.0000 0.14186  0.22528  0.61039  Biso   1.000  H
  H334     1.0000 0.15101  0.25881  0.63443  Biso   1.000  H
  H335     1.0000 0.11624  0.21863  0.52545  Biso   1.000  H
  H336     1.0000 0.12183  0.18782  0.64040  Biso   1.000  H
  H337     1.0000 0.97898  0.27872  0.18401  Biso   1.000  H
  H338     1.0000 0.93487  0.25221  0.29212  Biso   1.000  H
  C285     1.0000 0.01970  0.31454  0.33635  Biso   1.000  C
  C286     1.0000 0.01967  0.31449  0.33635  Biso   1.000  C
  H339     1.0000 0.98089  0.28601  0.50369  Biso   1.000  H
  H340     1.0000 0.98085  0.28601  0.50369  Biso   1.000  H
  H341     1.0000 0.05193  0.32953  0.50992  Biso   1.000  H
  H342     1.0000 0.05191  0.32948  0.50992  Biso   1.000  H
  C287     1.0000 0.29485  0.98033  0.33635  Biso   1.000  C
  H343     1.0000 0.27763  0.94812  0.50992  Biso   1.000  H
  C288     1.0000 0.29478  0.98029  0.33635  Biso   1.000  C
  H344     1.0000 0.27759  0.94812  0.50992  Biso   1.000  H
  H345     1.0000 0.30512  0.01911  0.50369  Biso   1.000  H
  H346     1.0000 0.29968  0.02102  0.18401  Biso   1.000  H
  H347     1.0000 0.31728  0.06512  0.29212  Biso   1.000  H
  H348     1.0000 0.31725  0.06508  0.29212  Biso   1.000  H
  H349     1.0000 0.26458  0.22031  0.00114  Biso   1.000  H
  C289     1.0000 0.29821  0.20432  0.15470  Biso   1.000  C
  C290     1.0000 0.22932  0.26920  0.18287  Biso   1.000  C
  H350     1.0000 0.18031  0.17520  0.19524  Biso   1.000  H
  C291     1.0000 0.22924  0.26920  0.18287  Biso   1.000  C
  H351     1.0000 0.01090  0.34761  0.33354  Biso   1.000  H
  H352     1.0000 0.06006  0.32930  0.30405  Biso   1.000  H
  H353     1.0000 0.33673  0.98912  0.33354  Biso   1.000  H
  H354     1.0000 0.26923  0.93992  0.30405  Biso   1.000  H
  H355     1.0000 0.33671  0.98908  0.33354  Biso   1.000  H
  H356     1.0000 0.26919  0.93992  0.30405  Biso   1.000  H
  H357     1.0000 0.32801  0.19762  0.11408  Biso   1.000  H
  H358     1.0000 0.28112  0.17479  0.21788  Biso   1.000  H
  C292     1.0000 0.33034  0.26843  0.20700  Biso   1.000  C
  H359     1.0000 0.28104  0.17479  0.21788  Biso   1.000  H
  C293     1.0000 0.33024  0.26838  0.20700  Biso   1.000  C
  C294     1.0000 0.28399  0.27982  0.26606  Biso   1.000  C
  H360     1.0000 0.19931  0.27412  0.22692  Biso   1.000  H
  H361     1.0000 0.24441  0.29891  0.11978  Biso   1.000  H
  H362     1.0000 0.19927  0.27412  0.22692  Biso   1.000  H
  H363     1.0000 0.36068  0.27221  0.26334  Biso   1.000  H
  H364     1.0000 0.35069  0.29822  0.14531  Biso   1.000  H
  H365     1.0000 0.35066  0.29818  0.14531  Biso   1.000  H
  H366     1.0000 0.30408  0.32142  0.29484  Biso   1.000  H
  H367     1.0000 0.26760  0.25303  0.33389  Biso   1.000  H
  H368     1.0000 0.26757  0.25298  0.33389  Biso   1.000  H
  C295     1.0000 0.81483  0.85194  0.77115  Biso   1.000  C
  C296     1.0000 0.78503  0.84300  0.65505  Biso   1.000  C
  C297     1.0000 0.78500  0.84300  0.65505  Biso   1.000  C
  C298     1.0000 0.84570  0.82150  0.79572  Biso   1.000  C
  C299     1.0000 0.81244  0.88962  0.85969  Biso   1.000  C
  C300     1.0000 0.81240  0.88962  0.85969  Biso   1.000  C
  C301     1.0000 0.84566  0.82150  0.79572  Biso   1.000  C
  N47      1.0000 0.78202  0.80122  0.59082  Biso   1.000  N
  N48      1.0000 0.78200  0.80118  0.59082  Biso   1.000  N
  C302     1.0000 0.74761  0.87422  0.62706  Biso   1.000  C
  C303     1.0000 0.74765  0.87422  0.62706  Biso   1.000  C
  C304     1.0000 0.81481  0.85189  0.77115  Biso   1.000  C
  C305     1.0000 0.81479  0.85194  0.77115  Biso   1.000  C
  C306     1.0000 0.77940  0.89668  0.61004  Biso   1.000  C
  C307     1.0000 0.87421  0.82760  0.90163  Biso   1.000  C
  H369     1.0000 0.84745  0.79603  0.73894  Biso   1.000  H
  H370     1.0000 0.84739  0.79598  0.73894  Biso   1.000  H
  H371     1.0000 0.84741  0.79603  0.73894  Biso   1.000  H
  H372     1.0000 0.78994  0.90893  0.84705  Biso   1.000  H
  C308     1.0000 0.84273  0.89850  0.96402  Biso   1.000  C
  H373     1.0000 0.78988  0.90889  0.84705  Biso   1.000  H
  C309     1.0000 0.84269  0.89850  0.96402  Biso   1.000  C
  C310     1.0000 0.76003  0.78833  0.47139  Biso   1.000  C
  C311     1.0000 0.76000  0.78828  0.47139  Biso   1.000  C
  H374     1.0000 0.72221  0.87030  0.69244  Biso   1.000  H
  H375     1.0000 0.72252  0.85522  0.55914  Biso   1.000  H
  H376     1.0000 0.77474  0.91663  0.61039  Biso   1.000  H
  H377     1.0000 0.77471  0.91659  0.61039  Biso   1.000  H
  H378     1.0000 0.72248  0.85522  0.55914  Biso   1.000  H
  H379     1.0000 0.74122  0.89221  0.63443  Biso   1.000  H
  H380     1.0000 0.78139  0.89759  0.52545  Biso   1.000  H
  H381     1.0000 0.81218  0.93399  0.64040  Biso   1.000  H
  C312     1.0000 0.87233  0.86583  0.98631  Biso   1.000  C
  C313     1.0000 0.90892  0.79453  0.93041  Biso   1.000  C
  C314     1.0000 0.87230  0.86579  0.98631  Biso   1.000  C
  C315     1.0000 0.90890  0.79448  0.93041  Biso   1.000  C
  C316     1.0000 0.87229  0.86583  0.98631  Biso   1.000  C
  C317     1.0000 0.84151  0.94042  0.05572  Biso   1.000  C
  C318     1.0000 0.70421  0.72349  0.46718  Biso   1.000  C
  C319     1.0000 0.70417  0.72349  0.46718  Biso   1.000  C
  C320     1.0000 0.81050  0.79371  0.39312  Biso   1.000  C
  C321     1.0000 0.81054  0.79371  0.39312  Biso   1.000  C
  H382     1.0000 0.74793  0.81781  0.44647  Biso   1.000  H
  H383     1.0000 0.74789  0.81781  0.44647  Biso   1.000  H
  H384     1.0000 0.89091  0.86961  0.05862  Biso   1.000  H
  H385     1.0000 0.89087  0.86961  0.05862  Biso   1.000  H
  C322     1.0000 0.93604  0.77703  0.82432  Biso   1.000  C
  C323     1.0000 0.93598  0.77698  0.82432  Biso   1.000  C
  C324     1.0000 0.93600  0.77703  0.82432  Biso   1.000  C
  N49      1.0000 0.91412  0.78409  0.03475  Biso   1.000  N
  N50      1.0000 0.91408  0.78409  0.03475  Biso   1.000  N
  C325     1.0000 0.88952  0.96311  0.14874  Biso   1.000  C
  N51      1.0000 0.80082  0.95500  0.04563  Biso   1.000  N
  N52      1.0000 0.80078  0.95500  0.04563  Biso   1.000  N
  C326     1.0000 0.68552  0.70522  0.33635  Biso   1.000  C
  H386     1.0000 0.67052  0.72240  0.50992  Biso   1.000  H
  H387     1.0000 0.71403  0.69493  0.50369  Biso   1.000  H
  H388     1.0000 0.71397  0.69488  0.50369  Biso   1.000  H
  H389     1.0000 0.71399  0.69493  0.50369  Biso   1.000  H
  C327     1.0000 0.78812  0.77420  0.26825  Biso   1.000  C
  N53      1.0000 0.86019  0.85631  0.39531  Biso   1.000  N
  N54      1.0000 0.86023  0.85631  0.39531  Biso   1.000  N
  H390     1.0000 0.82524  0.76732  0.42383  Biso   1.000  H
  H391     1.0000 0.82518  0.76728  0.42383  Biso   1.000  H
  H392     1.0000 0.82520  0.76732  0.42383  Biso   1.000  H
  H393     1.0000 0.94761  0.80710  0.76369  Biso   1.000  H
  H394     1.0000 0.97123  0.77512  0.84960  Biso   1.000  H
  H395     1.0000 0.90604  0.73794  0.79440  Biso   1.000  H
  H396     1.0000 0.97119  0.77512  0.84960  Biso   1.000  H
  H397     1.0000 0.90598  0.73789  0.79440  Biso   1.000  H
  H398     1.0000 0.90600  0.73794  0.79440  Biso   1.000  H
  C328     1.0000 0.94603  0.75211  0.06994  Biso   1.000  C
  C329     1.0000 0.94599  0.75211  0.06994  Biso   1.000  C
  H399     1.0000 0.92440  0.96170  0.12031  Biso   1.000  H
  H400     1.0000 0.87373  0.93800  0.21727  Biso   1.000  H
  H401     1.0000 0.87369  0.93800  0.21727  Biso   1.000  H
  H402     1.0000 0.92436  0.96170  0.12031  Biso   1.000  H
  H403     1.0000 0.90114  0.00443  0.16848  Biso   1.000  H
  H404     1.0000 0.90104  0.00439  0.16848  Biso   1.000  H
  C330     1.0000 0.79494  0.99500  0.13233  Biso   1.000  C
  C331     1.0000 0.79490  0.99500  0.13233  Biso   1.000  C
  H405     1.0000 0.65241  0.66330  0.33354  Biso   1.000  H
  C332     1.0000 0.73513  0.71092  0.26439  Biso   1.000  C
  H406     1.0000 0.67075  0.73083  0.30405  Biso   1.000  H
  C333     1.0000 0.73509  0.71092  0.26439  Biso   1.000  C
  H407     1.0000 0.67068  0.73078  0.30405  Biso   1.000  H
  H408     1.0000 0.77621  0.80200  0.23508  Biso   1.000  H
  H409     1.0000 0.82093  0.77653  0.22078  Biso   1.000  H
  H410     1.0000 0.82091  0.77648  0.22078  Biso   1.000  H
  H411     1.0000 0.77617  0.80200  0.23508  Biso   1.000  H
  C334     1.0000 0.91213  0.87062  0.43463  Biso   1.000  C
  H412     1.0000 0.95573  0.73543  0.00114  Biso   1.000  H
  C335     1.0000 0.90613  0.70181  0.15470  Biso   1.000  C
  H413     1.0000 0.95571  0.73539  0.00114  Biso   1.000  H
  C336     1.0000 0.90609  0.70181  0.15470  Biso   1.000  C
  C337     1.0000 0.00501  0.79990  0.13233  Biso   1.000  C
  C338     1.0000 0.73081  0.96010  0.18287  Biso   1.000  C
  C339     1.0000 0.80613  0.05401  0.06994  Biso   1.000  C
  H414     1.0000 0.82478  0.00512  0.19524  Biso   1.000  H
  C340     1.0000 0.80605  0.05401  0.06994  Biso   1.000  C
  H415     1.0000 0.74782  0.68271  0.29212  Biso   1.000  H
  H416     1.0000 0.72134  0.70030  0.18401  Biso   1.000  H
  H417     1.0000 0.72130  0.70030  0.18401  Biso   1.000  H
  C341     1.0000 0.93250  0.82811  0.48254  Biso   1.000  C
  C342     1.0000 0.95933  0.93850  0.43629  Biso   1.000  C
  C343     1.0000 0.93254  0.82811  0.48254  Biso   1.000  C
  C344     1.0000 0.95929  0.93850  0.43629  Biso   1.000  C
  H418     1.0000 0.86964  0.67201  0.11408  Biso   1.000  H
  H419     1.0000 0.89374  0.71894  0.21788  Biso   1.000  H
  C345     1.0000 0.93815  0.66973  0.20700  Biso   1.000  C
  H420     1.0000 0.86960  0.67201  0.11408  Biso   1.000  H
  H421     1.0000 0.89368  0.71889  0.21788  Biso   1.000  H
  C346     1.0000 0.93809  0.66968  0.20700  Biso   1.000  C
  H422     1.0000 0.89370  0.71894  0.21788  Biso   1.000  H
  H423     1.0000 0.99491  0.81972  0.19524  Biso   1.000  H
  N55      1.0000 0.04502  0.84583  0.04563  Biso   1.000  N
  C347     1.0000 0.03993  0.77070  0.18287  Biso   1.000  C
  N56      1.0000 0.04500  0.84578  0.04563  Biso   1.000  N
  C348     1.0000 0.03989  0.77070  0.18287  Biso   1.000  C
  C349     1.0000 0.72019  0.00421  0.26606  Biso   1.000  C
  H424     1.0000 0.72591  0.92520  0.22692  Biso   1.000  H
  H425     1.0000 0.70115  0.94552  0.11978  Biso   1.000  H
  H426     1.0000 0.70111  0.94552  0.11978  Biso   1.000  H
  H427     1.0000 0.77970  0.04430  0.00114  Biso   1.000  H
  N57      1.0000 0.87002  0.08590  0.03475  Biso   1.000  N
  C350     1.0000 0.79571  0.09392  0.15470  Biso   1.000  C
  N58      1.0000 0.86994  0.08590  0.03475  Biso   1.000  N
  C351     1.0000 0.79567  0.09392  0.15470  Biso   1.000  C
  H428     1.0000 0.97440  0.85130  0.50649  Biso   1.000  H
  H429     1.0000 0.90773  0.80642  0.54879  Biso   1.000  H
  H430     1.0000 0.92844  0.79963  0.42278  Biso   1.000  H
  H431     1.0000 0.92838  0.79958  0.42278  Biso   1.000  H
  C352     1.0000 0.93882  0.97933  0.43928  Biso   1.000  C
  C353     1.0000 0.93880  0.97928  0.43928  Biso   1.000  C
  C354     1.0000 0.93878  0.97933  0.43928  Biso   1.000  C
  C355     1.0000 0.02073  0.95951  0.43928  Biso   1.000  C
  C356     1.0000 0.02069  0.95951  0.43928  Biso   1.000  C
  H432     1.0000 0.91153  0.63929  0.26334  Biso   1.000  H
  H433     1.0000 0.94751  0.64932  0.14531  Biso   1.000  H
  C357     1.0000 0.99582  0.71602  0.26606  Biso   1.000  C
  H434     1.0000 0.91149  0.63929  0.26334  Biso   1.000  H
  C358     1.0000 0.05963  0.90110  0.05572  Biso   1.000  C
  C359     1.0000 0.05959  0.90110  0.05572  Biso   1.000  C
  H435     1.0000 0.07483  0.80072  0.22692  Biso   1.000  H
  H436     1.0000 0.05452  0.75562  0.11978  Biso   1.000  H
  H437     1.0000 0.67862  0.98270  0.29484  Biso   1.000  H
  H438     1.0000 0.67858  0.98270  0.29484  Biso   1.000  H
  C360     1.0000 0.73161  0.06193  0.20700  Biso   1.000  C
  H439     1.0000 0.74697  0.01459  0.33389  Biso   1.000  H
  C361     1.0000 0.73159  0.06189  0.20700  Biso   1.000  C
  C362     1.0000 0.88556  0.09109  0.93041  Biso   1.000  C
  H440     1.0000 0.80239  0.13042  0.11408  Biso   1.000  H
  H441     1.0000 0.82518  0.10631  0.21788  Biso   1.000  H
  H442     1.0000 0.89719  0.96520  0.44340  Biso   1.000  H
  H443     1.0000 0.89723  0.96520  0.44340  Biso   1.000  H
  C363     1.0000 0.97922  0.04070  0.43629  Biso   1.000  C
  H444     1.0000 0.03485  0.93203  0.44340  Biso   1.000  H
  H445     1.0000 0.03479  0.93199  0.44340  Biso   1.000  H
  C364     1.0000 0.06150  0.02084  0.43629  Biso   1.000  C
  C365     1.0000 0.06147  0.02079  0.43629  Biso   1.000  C
  H446     1.0000 0.98544  0.73242  0.33389  Biso   1.000  H
  H447     1.0000 0.98537  0.73238  0.33389  Biso   1.000  H
  H448     1.0000 0.01734  0.69593  0.29484  Biso   1.000  H
  H449     1.0000 0.01728  0.69588  0.29484  Biso   1.000  H
  C366     1.0000 0.10150  0.94420  0.96402  Biso   1.000  C
  C367     1.0000 0.03694  0.92643  0.14874  Biso   1.000  C
  C368     1.0000 0.03688  0.92638  0.14874  Biso   1.000  C
  H450     1.0000 0.72781  0.08850  0.26334  Biso   1.000  H
  H451     1.0000 0.70180  0.05250  0.14531  Biso   1.000  H
  C369     1.0000 0.95339  0.12581  0.90163  Biso   1.000  C
  C370     1.0000 0.84098  0.06403  0.82432  Biso   1.000  C
  C371     1.0000 0.84095  0.06398  0.82432  Biso   1.000  C
  C372     1.0000 0.95847  0.08791  0.43463  Biso   1.000  C
  C373     1.0000 0.04049  0.06121  0.43928  Biso   1.000  C
  C374     1.0000 0.04045  0.06121  0.43928  Biso   1.000  C
  C375     1.0000 0.12941  0.04152  0.43463  Biso   1.000  C
  C376     1.0000 0.11043  0.92283  0.85969  Biso   1.000  C
  C377     1.0000 0.11041  0.92279  0.85969  Biso   1.000  C
  C378     1.0000 0.13425  0.00653  0.98631  Biso   1.000  C
  C379     1.0000 0.13415  0.00648  0.98631  Biso   1.000  C
  H452     1.0000 0.99561  0.89672  0.16848  Biso   1.000  H
  H453     1.0000 0.99559  0.89668  0.16848  Biso   1.000  H
  H454     1.0000 0.03831  0.96270  0.12031  Biso   1.000  H
  H455     1.0000 0.06203  0.93573  0.21727  Biso   1.000  H
  H456     1.0000 0.06201  0.93568  0.21727  Biso   1.000  H
  C380     1.0000 0.99353  0.12773  0.98631  Biso   1.000  C
  C381     1.0000 0.97578  0.15434  0.79572  Biso   1.000  C
  C382     1.0000 0.99351  0.12768  0.98631  Biso   1.000  C
  C383     1.0000 0.97576  0.15429  0.79572  Biso   1.000  C
  H457     1.0000 0.80391  0.02881  0.84960  Biso   1.000  H
  H458     1.0000 0.85951  0.05241  0.76369  Biso   1.000  H
  H459     1.0000 0.83194  0.09401  0.79440  Biso   1.000  H
  H460     1.0000 0.83190  0.09401  0.79440  Biso   1.000  H
  N59      1.0000 0.99613  0.13980  0.39531  Biso   1.000  N
  C384     1.0000 0.89562  0.06749  0.48254  Biso   1.000  C
  N60      1.0000 0.99605  0.13980  0.39531  Biso   1.000  N
  C385     1.0000 0.89554  0.06749  0.48254  Biso   1.000  C
  H461     1.0000 0.06799  0.10280  0.44340  Biso   1.000  H
  H462     1.0000 0.06796  0.10280  0.44340  Biso   1.000  H
  N61      1.0000 0.14372  0.00393  0.39531  Biso   1.000  N
  C386     1.0000 0.17194  0.10440  0.48254  Biso   1.000  C
  N62      1.0000 0.14370  0.00389  0.39531  Biso   1.000  N
  C387     1.0000 0.17186  0.10440  0.48254  Biso   1.000  C
  C388     1.0000 0.14812  0.96293  0.77115  Biso   1.000  C
  C389     1.0000 0.14809  0.96288  0.77115  Biso   1.000  C
  H463     1.0000 0.09114  0.88100  0.84705  Biso   1.000  H
  H464     1.0000 0.09110  0.88100  0.84705  Biso   1.000  H
  C390     1.0000 0.17245  0.04663  0.90163  Biso   1.000  C
  C391     1.0000 0.17238  0.04658  0.90163  Biso   1.000  C
  H465     1.0000 0.13042  0.02129  0.05862  Biso   1.000  H
  H466     1.0000 0.13038  0.02129  0.05862  Biso   1.000  H
  H467     1.0000 0.97869  0.10909  0.05862  Biso   1.000  H
  H468     1.0000 0.97865  0.10909  0.05862  Biso   1.000  H
  C392     1.0000 0.05578  0.15730  0.96402  Biso   1.000  C
  C393     1.0000 0.05574  0.15730  0.96402  Biso   1.000  C
  C394     1.0000 0.03708  0.18523  0.77115  Biso   1.000  C
  C395     1.0000 0.03705  0.18518  0.77115  Biso   1.000  C
  H469     1.0000 0.94859  0.15260  0.73894  Biso   1.000  H
  H470     1.0000 0.94856  0.15260  0.73894  Biso   1.000  H
  C396     1.0000 0.98323  0.18951  0.39312  Biso   1.000  C
  C397     1.0000 0.98319  0.18951  0.39312  Biso   1.000  C
  H471     1.0000 0.87690  0.02562  0.50649  Biso   1.000  H
  H472     1.0000 0.89869  0.09232  0.54879  Biso   1.000  H
  H473     1.0000 0.87123  0.07159  0.42278  Biso   1.000  H
  H474     1.0000 0.87686  0.02562  0.50649  Biso   1.000  H
  H475     1.0000 0.89866  0.09228  0.54879  Biso   1.000  H
  H476     1.0000 0.87116  0.07159  0.42278  Biso   1.000  H
  C398     1.0000 0.20628  0.01683  0.39312  Biso   1.000  C
  C399     1.0000 0.20626  0.01678  0.39312  Biso   1.000  C
  H477     1.0000 0.19359  0.10130  0.54879  Biso   1.000  H
  H478     1.0000 0.14871  0.12313  0.50649  Biso   1.000  H
  H479     1.0000 0.20044  0.12882  0.42278  Biso   1.000  H
  H480     1.0000 0.14868  0.12308  0.50649  Biso   1.000  H
  H481     1.0000 0.20037  0.12882  0.42278  Biso   1.000  H
  C400     1.0000 0.15703  0.94201  0.65505  Biso   1.000  C
  C401     1.0000 0.15699  0.94201  0.65505  Biso   1.000  C
  C402     1.0000 0.17852  0.02421  0.79572  Biso   1.000  C
  C403     1.0000 0.20552  0.11442  0.93041  Biso   1.000  C
  C404     1.0000 0.20549  0.11438  0.93041  Biso   1.000  C
  C405     1.0000 0.07721  0.18760  0.85969  Biso   1.000  C
  C406     1.0000 0.09889  0.15853  0.05572  Biso   1.000  C
  C407     1.0000 0.09883  0.15848  0.05572  Biso   1.000  C
  C408     1.0000 0.05805  0.21503  0.65505  Biso   1.000  C
  C409     1.0000 0.05795  0.21498  0.65505  Biso   1.000  C
  H482     1.0000 0.94209  0.17479  0.42383  Biso   1.000  H
  C410     1.0000 0.98611  0.21193  0.26825  Biso   1.000  C
  C411     1.0000 0.98605  0.21188  0.26825  Biso   1.000  C
  C412     1.0000 0.02832  0.23999  0.47139  Biso   1.000  C
  C413     1.0000 0.21174  0.97172  0.47139  Biso   1.000  C
  C414     1.0000 0.21170  0.97172  0.47139  Biso   1.000  C
  H483     1.0000 0.23271  0.05792  0.42383  Biso   1.000  H
  C415     1.0000 0.22581  0.01391  0.26825  Biso   1.000  C
  H484     1.0000 0.23264  0.05788  0.42383  Biso   1.000  H
  N63      1.0000 0.19882  0.98083  0.59082  Biso   1.000  N
  N64      1.0000 0.19879  0.98079  0.59082  Biso   1.000  N
  C416     1.0000 0.12580  0.87340  0.62706  Biso   1.000  C
  C417     1.0000 0.10330  0.88269  0.61004  Biso   1.000  C
  H485     1.0000 0.20404  0.05141  0.73894  Biso   1.000  H
  H486     1.0000 0.20396  0.05141  0.73894  Biso   1.000  H
  C418     1.0000 0.22301  0.15903  0.82432  Biso   1.000  C
  C419     1.0000 0.22298  0.15898  0.82432  Biso   1.000  C
  N65      1.0000 0.21587  0.13001  0.03475  Biso   1.000  N
  H487     1.0000 0.11900  0.21011  0.84705  Biso   1.000  H
  H488     1.0000 0.11896  0.21011  0.84705  Biso   1.000  H
  N66      1.0000 0.15424  0.19922  0.04563  Biso   1.000  N
  C420     1.0000 0.07358  0.11050  0.14874  Biso   1.000  C
  N67      1.0000 0.15420  0.19922  0.04563  Biso   1.000  N
  N68      1.0000 0.01923  0.21803  0.59082  Biso   1.000  N
  N69      1.0000 0.01921  0.21799  0.59082  Biso   1.000  N
  C421     1.0000 0.12659  0.25243  0.62706  Biso   1.000  C
  C422     1.0000 0.12657  0.25239  0.62706  Biso   1.000  C
  C423     1.0000 0.11728  0.22063  0.61004  Biso   1.000  C
  H489     1.0000 0.02579  0.22382  0.23508  Biso   1.000  H
  H490     1.0000 0.95562  0.17912  0.22078  Biso   1.000  H
  C424     1.0000 0.97579  0.26492  0.26439  Biso   1.000  C
  C425     1.0000 0.01929  0.29581  0.46718  Biso   1.000  C
  H491     1.0000 0.06989  0.25211  0.44647  Biso   1.000  H
  C426     1.0000 0.27652  0.98070  0.46718  Biso   1.000  C
  H492     1.0000 0.18222  0.93012  0.44647  Biso   1.000  H
  C427     1.0000 0.27648  0.98070  0.46718  Biso   1.000  C
  H493     1.0000 0.22349  0.04439  0.22078  Biso   1.000  H
  H494     1.0000 0.19804  0.97423  0.23508  Biso   1.000  H
  H495     1.0000 0.19798  0.97418  0.23508  Biso   1.000  H
  C428     1.0000 0.28912  0.02421  0.26439  Biso   1.000  C
  H496     1.0000 0.08345  0.85813  0.61039  Biso   1.000  H
  H497     1.0000 0.12975  0.85194  0.69244  Biso   1.000  H
  H498     1.0000 0.14483  0.86734  0.55914  Biso   1.000  H
  H499     1.0000 0.08339  0.85809  0.61039  Biso   1.000  H
  H500     1.0000 0.12969  0.85189  0.69244  Biso   1.000  H
  H501     1.0000 0.14481  0.86729  0.55914  Biso   1.000  H
  H502     1.0000 0.14479  0.86734  0.55914  Biso   1.000  H
  H503     1.0000 0.10781  0.84902  0.63443  Biso   1.000  H
  H504     1.0000 0.10239  0.88378  0.52545  Biso   1.000  H
  H505     1.0000 0.06601  0.87818  0.64040  Biso   1.000  H
  H506     1.0000 0.22490  0.19612  0.84960  Biso   1.000  H
  H507     1.0000 0.19292  0.14053  0.76369  Biso   1.000  H
  H508     1.0000 0.26207  0.16810  0.79440  Biso   1.000  H
  H509     1.0000 0.19290  0.14048  0.76369  Biso   1.000  H
  C429     1.0000 0.24791  0.19393  0.06994  Biso   1.000  C
  C430     1.0000 0.24789  0.19388  0.06994  Biso   1.000  C
  C431     1.0000 0.20007  0.20509  0.13233  Biso   1.000  C
  H510     1.0000 0.10335  0.09893  0.16848  Biso   1.000  H
  H511     1.0000 0.03731  0.07560  0.12031  Biso   1.000  H
  H512     1.0000 0.06428  0.12631  0.21727  Biso   1.000  H
  H513     1.0000 0.10328  0.09889  0.16848  Biso   1.000  H
  H514     1.0000 0.13269  0.27749  0.55914  Biso   1.000  H
  H515     1.0000 0.14188  0.22532  0.61039  Biso   1.000  H
  H516     1.0000 0.14812  0.27781  0.69244  Biso   1.000  H
  H517     1.0000 0.14186  0.22528  0.61039  Biso   1.000  H
  H518     1.0000 0.15101  0.25881  0.63443  Biso   1.000  H
  H519     1.0000 0.11624  0.21863  0.52545  Biso   1.000  H
  H520     1.0000 0.12183  0.18782  0.64040  Biso   1.000  H
  H521     1.0000 0.97898  0.27872  0.18401  Biso   1.000  H
  H522     1.0000 0.93487  0.25221  0.29212  Biso   1.000  H
  C432     1.0000 0.01970  0.31454  0.33635  Biso   1.000  C
  C433     1.0000 0.01967  0.31449  0.33635  Biso   1.000  C
  H523     1.0000 0.98089  0.28601  0.50369  Biso   1.000  H
  H524     1.0000 0.98085  0.28601  0.50369  Biso   1.000  H
  H525     1.0000 0.05193  0.32953  0.50992  Biso   1.000  H
  H526     1.0000 0.05191  0.32948  0.50992  Biso   1.000  H
  C434     1.0000 0.29485  0.98033  0.33635  Biso   1.000  C
  H527     1.0000 0.27763  0.94812  0.50992  Biso   1.000  H
  C435     1.0000 0.29478  0.98029  0.33635  Biso   1.000  C
  H528     1.0000 0.27759  0.94812  0.50992  Biso   1.000  H
  H529     1.0000 0.30512  0.01911  0.50369  Biso   1.000  H
  H530     1.0000 0.29968  0.02102  0.18401  Biso   1.000  H
  H531     1.0000 0.31728  0.06512  0.29212  Biso   1.000  H
  H532     1.0000 0.31725  0.06508  0.29212  Biso   1.000  H
  H533     1.0000 0.26458  0.22031  0.00114  Biso   1.000  H
  C436     1.0000 0.29821  0.20432  0.15470  Biso   1.000  C
  C437     1.0000 0.22932  0.26920  0.18287  Biso   1.000  C
  H534     1.0000 0.18031  0.17520  0.19524  Biso   1.000  H
  C438     1.0000 0.22924  0.26920  0.18287  Biso   1.000  C
  H535     1.0000 0.01090  0.34761  0.33354  Biso   1.000  H
  H536     1.0000 0.06006  0.32930  0.30405  Biso   1.000  H
  H537     1.0000 0.33673  0.98912  0.33354  Biso   1.000  H
  H538     1.0000 0.26923  0.93992  0.30405  Biso   1.000  H
  H539     1.0000 0.33671  0.98908  0.33354  Biso   1.000  H
  H540     1.0000 0.26919  0.93992  0.30405  Biso   1.000  H
  H541     1.0000 0.32801  0.19762  0.11408  Biso   1.000  H
  H542     1.0000 0.28112  0.17479  0.21788  Biso   1.000  H
  C439     1.0000 0.33034  0.26843  0.20700  Biso   1.000  C
  H543     1.0000 0.28104  0.17479  0.21788  Biso   1.000  H
  C440     1.0000 0.33024  0.26838  0.20700  Biso   1.000  C
  C441     1.0000 0.28399  0.27982  0.26606  Biso   1.000  C
  H544     1.0000 0.19931  0.27412  0.22692  Biso   1.000  H
  H545     1.0000 0.24441  0.29891  0.11978  Biso   1.000  H
  H546     1.0000 0.19927  0.27412  0.22692  Biso   1.000  H
  H547     1.0000 0.36068  0.27221  0.26334  Biso   1.000  H
  H548     1.0000 0.35069  0.29822  0.14531  Biso   1.000  H
  H549     1.0000 0.35066  0.29818  0.14531  Biso   1.000  H
  H550     1.0000 0.30408  0.32142  0.29484  Biso   1.000  H
  H551     1.0000 0.26760  0.25303  0.33389  Biso   1.000  H
  H552     1.0000 0.26757  0.25298  0.33389  Biso   1.000  H
  C442     1.0000 0.81483  0.85194  0.77115  Biso   1.000  C
  C443     1.0000 0.78503  0.84300  0.65505  Biso   1.000  C
  C444     1.0000 0.78500  0.84300  0.65505  Biso   1.000  C
  C445     1.0000 0.81244  0.88962  0.85969  Biso   1.000  C
  C446     1.0000 0.84570  0.82150  0.79572  Biso   1.000  C
  C447     1.0000 0.81240  0.88962  0.85969  Biso   1.000  C
  C448     1.0000 0.84566  0.82150  0.79572  Biso   1.000  C
  N70      1.0000 0.78202  0.80122  0.59082  Biso   1.000  N
  N71      1.0000 0.78200  0.80118  0.59082  Biso   1.000  N
  C449     1.0000 0.74765  0.87422  0.62706  Biso   1.000  C
  C450     1.0000 0.81481  0.85189  0.77115  Biso   1.000  C
  C451     1.0000 0.74761  0.87422  0.62706  Biso   1.000  C
  C452     1.0000 0.81479  0.85194  0.77115  Biso   1.000  C
  C453     1.0000 0.77940  0.89668  0.61004  Biso   1.000  C
  H553     1.0000 0.78994  0.90893  0.84705  Biso   1.000  H
  C454     1.0000 0.84273  0.89850  0.96402  Biso   1.000  C
  H554     1.0000 0.78988  0.90889  0.84705  Biso   1.000  H
  C455     1.0000 0.84269  0.89850  0.96402  Biso   1.000  C
  C456     1.0000 0.87421  0.82760  0.90163  Biso   1.000  C
  H555     1.0000 0.84745  0.79603  0.73894  Biso   1.000  H
  H556     1.0000 0.84739  0.79598  0.73894  Biso   1.000  H
  H557     1.0000 0.84741  0.79603  0.73894  Biso   1.000  H
  C457     1.0000 0.76003  0.78833  0.47139  Biso   1.000  C
  C458     1.0000 0.76000  0.78828  0.47139  Biso   1.000  C
  H558     1.0000 0.72221  0.87030  0.69244  Biso   1.000  H
  H559     1.0000 0.77474  0.91663  0.61039  Biso   1.000  H
  H560     1.0000 0.72252  0.85522  0.55914  Biso   1.000  H
  H561     1.0000 0.77471  0.91659  0.61039  Biso   1.000  H
  H562     1.0000 0.72248  0.85522  0.55914  Biso   1.000  H
  H563     1.0000 0.74122  0.89221  0.63443  Biso   1.000  H
  H564     1.0000 0.78139  0.89759  0.52545  Biso   1.000  H
  H565     1.0000 0.81218  0.93399  0.64040  Biso   1.000  H
  C459     1.0000 0.87233  0.86583  0.98631  Biso   1.000  C
  C460     1.0000 0.87230  0.86579  0.98631  Biso   1.000  C
  C461     1.0000 0.87229  0.86583  0.98631  Biso   1.000  C
  C462     1.0000 0.84151  0.94042  0.05572  Biso   1.000  C
  C463     1.0000 0.90892  0.79453  0.93041  Biso   1.000  C
  C464     1.0000 0.90890  0.79448  0.93041  Biso   1.000  C
  C465     1.0000 0.70421  0.72349  0.46718  Biso   1.000  C
  C466     1.0000 0.70417  0.72349  0.46718  Biso   1.000  C
  C467     1.0000 0.81054  0.79371  0.39312  Biso   1.000  C
  C468     1.0000 0.81050  0.79371  0.39312  Biso   1.000  C
  H566     1.0000 0.74793  0.81781  0.44647  Biso   1.000  H
  H567     1.0000 0.74789  0.81781  0.44647  Biso   1.000  H
  H568     1.0000 0.89091  0.86961  0.05862  Biso   1.000  H
  H569     1.0000 0.89087  0.86961  0.05862  Biso   1.000  H
  C469     1.0000 0.88952  0.96311  0.14874  Biso   1.000  C
  N72      1.0000 0.80082  0.95500  0.04563  Biso   1.000  N
  N73      1.0000 0.80078  0.95500  0.04563  Biso   1.000  N
  C470     1.0000 0.93604  0.77703  0.82432  Biso   1.000  C
  C471     1.0000 0.93598  0.77698  0.82432  Biso   1.000  C
  C472     1.0000 0.93600  0.77703  0.82432  Biso   1.000  C
  N74      1.0000 0.91412  0.78409  0.03475  Biso   1.000  N
  N75      1.0000 0.91408  0.78409  0.03475  Biso   1.000  N
  C473     1.0000 0.68552  0.70522  0.33635  Biso   1.000  C
  H570     1.0000 0.67052  0.72240  0.50992  Biso   1.000  H
  H571     1.0000 0.71403  0.69493  0.50369  Biso   1.000  H
  H572     1.0000 0.71397  0.69488  0.50369  Biso   1.000  H
  H573     1.0000 0.71399  0.69493  0.50369  Biso   1.000  H
  C474     1.0000 0.78812  0.77420  0.26825  Biso   1.000  C
  N76      1.0000 0.86023  0.85631  0.39531  Biso   1.000  N
  H574     1.0000 0.82524  0.76732  0.42383  Biso   1.000  H
  N77      1.0000 0.86019  0.85631  0.39531  Biso   1.000  N
  H575     1.0000 0.82518  0.76728  0.42383  Biso   1.000  H
  H576     1.0000 0.82520  0.76732  0.42383  Biso   1.000  H
  H577     1.0000 0.92440  0.96170  0.12031  Biso   1.000  H
  H578     1.0000 0.87373  0.93800  0.21727  Biso   1.000  H
  H579     1.0000 0.87369  0.93800  0.21727  Biso   1.000  H
  H580     1.0000 0.92436  0.96170  0.12031  Biso   1.000  H
  H581     1.0000 0.90114  0.00443  0.16848  Biso   1.000  H
  H582     1.0000 0.90104  0.00439  0.16848  Biso   1.000  H
  C475     1.0000 0.79494  0.99500  0.13233  Biso   1.000  C
  C476     1.0000 0.79490  0.99500  0.13233  Biso   1.000  C
  H583     1.0000 0.94761  0.80710  0.76369  Biso   1.000  H
  H584     1.0000 0.97123  0.77512  0.84960  Biso   1.000  H
  H585     1.0000 0.90604  0.73794  0.79440  Biso   1.000  H
  H586     1.0000 0.97119  0.77512  0.84960  Biso   1.000  H
  H587     1.0000 0.90598  0.73789  0.79440  Biso   1.000  H
  H588     1.0000 0.90600  0.73794  0.79440  Biso   1.000  H
  C477     1.0000 0.94603  0.75211  0.06994  Biso   1.000  C
  C478     1.0000 0.94599  0.75211  0.06994  Biso   1.000  C
  H589     1.0000 0.65241  0.66330  0.33354  Biso   1.000  H
  C479     1.0000 0.73513  0.71092  0.26439  Biso   1.000  C
  H590     1.0000 0.67075  0.73083  0.30405  Biso   1.000  H
  C480     1.0000 0.73509  0.71092  0.26439  Biso   1.000  C
  H591     1.0000 0.67068  0.73078  0.30405  Biso   1.000  H
  H592     1.0000 0.77621  0.80200  0.23508  Biso   1.000  H
  H593     1.0000 0.82093  0.77653  0.22078  Biso   1.000  H
  H594     1.0000 0.82091  0.77648  0.22078  Biso   1.000  H
  H595     1.0000 0.77617  0.80200  0.23508  Biso   1.000  H
  C481     1.0000 0.91213  0.87062  0.43463  Biso   1.000  C
  C482     1.0000 0.73081  0.96010  0.18287  Biso   1.000  C
  C483     1.0000 0.80613  0.05401  0.06994  Biso   1.000  C
  H596     1.0000 0.82478  0.00512  0.19524  Biso   1.000  H
  C484     1.0000 0.80605  0.05401  0.06994  Biso   1.000  C
  H597     1.0000 0.95573  0.73543  0.00114  Biso   1.000  H
  C485     1.0000 0.90613  0.70181  0.15470  Biso   1.000  C
  H598     1.0000 0.95571  0.73539  0.00114  Biso   1.000  H
  C486     1.0000 0.90609  0.70181  0.15470  Biso   1.000  C
  C487     1.0000 0.00501  0.79990  0.13233  Biso   1.000  C
  H599     1.0000 0.74782  0.68271  0.29212  Biso   1.000  H
  H600     1.0000 0.72134  0.70030  0.18401  Biso   1.000  H
  H601     1.0000 0.72130  0.70030  0.18401  Biso   1.000  H
  C488     1.0000 0.95933  0.93850  0.43629  Biso   1.000  C
  C489     1.0000 0.93254  0.82811  0.48254  Biso   1.000  C
  C490     1.0000 0.95929  0.93850  0.43629  Biso   1.000  C
  C491     1.0000 0.93250  0.82811  0.48254  Biso   1.000  C
  C492     1.0000 0.72019  0.00421  0.26606  Biso   1.000  C
  H602     1.0000 0.72591  0.92520  0.22692  Biso   1.000  H
  H603     1.0000 0.70115  0.94552  0.11978  Biso   1.000  H
  H604     1.0000 0.70111  0.94552  0.11978  Biso   1.000  H
  H605     1.0000 0.77970  0.04430  0.00114  Biso   1.000  H
  N78      1.0000 0.87002  0.08590  0.03475  Biso   1.000  N
  C493     1.0000 0.79571  0.09392  0.15470  Biso   1.000  C
  N79      1.0000 0.86994  0.08590  0.03475  Biso   1.000  N
  C494     1.0000 0.79567  0.09392  0.15470  Biso   1.000  C
  H606     1.0000 0.86964  0.67201  0.11408  Biso   1.000  H
  H607     1.0000 0.89374  0.71894  0.21788  Biso   1.000  H
  C495     1.0000 0.93815  0.66973  0.20700  Biso   1.000  C
  H608     1.0000 0.86960  0.67201  0.11408  Biso   1.000  H
  H609     1.0000 0.89368  0.71889  0.21788  Biso   1.000  H
  C496     1.0000 0.93809  0.66968  0.20700  Biso   1.000  C
  H610     1.0000 0.89370  0.71894  0.21788  Biso   1.000  H
  H611     1.0000 0.99491  0.81972  0.19524  Biso   1.000  H
  N80      1.0000 0.04502  0.84583  0.04563  Biso   1.000  N
  C497     1.0000 0.03993  0.77070  0.18287  Biso   1.000  C
  N81      1.0000 0.04500  0.84578  0.04563  Biso   1.000  N
  C498     1.0000 0.03989  0.77070  0.18287  Biso   1.000  C
  C499     1.0000 0.93882  0.97933  0.43928  Biso   1.000  C
  C500     1.0000 0.93880  0.97928  0.43928  Biso   1.000  C
  C501     1.0000 0.93878  0.97933  0.43928  Biso   1.000  C
  C502     1.0000 0.02073  0.95951  0.43928  Biso   1.000  C
  C503     1.0000 0.02069  0.95951  0.43928  Biso   1.000  C
  H612     1.0000 0.97440  0.85130  0.50649  Biso   1.000  H
  H613     1.0000 0.90773  0.80642  0.54879  Biso   1.000  H
  H614     1.0000 0.92844  0.79963  0.42278  Biso   1.000  H
  H615     1.0000 0.92838  0.79958  0.42278  Biso   1.000  H
  H616     1.0000 0.67862  0.98270  0.29484  Biso   1.000  H
  H617     1.0000 0.67858  0.98270  0.29484  Biso   1.000  H
  C504     1.0000 0.73161  0.06193  0.20700  Biso   1.000  C
  H618     1.0000 0.74697  0.01459  0.33389  Biso   1.000  H
  C505     1.0000 0.73159  0.06189  0.20700  Biso   1.000  C
  C506     1.0000 0.88556  0.09109  0.93041  Biso   1.000  C
  H619     1.0000 0.80239  0.13042  0.11408  Biso   1.000  H
  H620     1.0000 0.82518  0.10631  0.21788  Biso   1.000  H
  H621     1.0000 0.91153  0.63929  0.26334  Biso   1.000  H
  H622     1.0000 0.94751  0.64932  0.14531  Biso   1.000  H
  C507     1.0000 0.99582  0.71602  0.26606  Biso   1.000  C
  H623     1.0000 0.91149  0.63929  0.26334  Biso   1.000  H
  C508     1.0000 0.05963  0.90110  0.05572  Biso   1.000  C
  C509     1.0000 0.05959  0.90110  0.05572  Biso   1.000  C
  H624     1.0000 0.07483  0.80072  0.22692  Biso   1.000  H
  H625     1.0000 0.05452  0.75562  0.11978  Biso   1.000  H
  H626     1.0000 0.89723  0.96520  0.44340  Biso   1.000  H
  H627     1.0000 0.89719  0.96520  0.44340  Biso   1.000  H
  C510     1.0000 0.97922  0.04070  0.43629  Biso   1.000  C
  H628     1.0000 0.03485  0.93203  0.44340  Biso   1.000  H
  H629     1.0000 0.03479  0.93199  0.44340  Biso   1.000  H
  C511     1.0000 0.06150  0.02084  0.43629  Biso   1.000  C
  C512     1.0000 0.06147  0.02079  0.43629  Biso   1.000  C
  H630     1.0000 0.72781  0.08850  0.26334  Biso   1.000  H
  H631     1.0000 0.70180  0.05250  0.14531  Biso   1.000  H
  C513     1.0000 0.95339  0.12581  0.90163  Biso   1.000  C
  C514     1.0000 0.84098  0.06403  0.82432  Biso   1.000  C
  C515     1.0000 0.84095  0.06398  0.82432  Biso   1.000  C
  H632     1.0000 0.98544  0.73242  0.33389  Biso   1.000  H
  H633     1.0000 0.98537  0.73238  0.33389  Biso   1.000  H
  H634     1.0000 0.01734  0.69593  0.29484  Biso   1.000  H
  H635     1.0000 0.01728  0.69588  0.29484  Biso   1.000  H
  C516     1.0000 0.10150  0.94420  0.96402  Biso   1.000  C
  C517     1.0000 0.03694  0.92643  0.14874  Biso   1.000  C
  C518     1.0000 0.03688  0.92638  0.14874  Biso   1.000  C
  C519     1.0000 0.95847  0.08791  0.43463  Biso   1.000  C
  C520     1.0000 0.04049  0.06121  0.43928  Biso   1.000  C
  C521     1.0000 0.04045  0.06121  0.43928  Biso   1.000  C
  C522     1.0000 0.12941  0.04152  0.43463  Biso   1.000  C
  C523     1.0000 0.99353  0.12773  0.98631  Biso   1.000  C
  C524     1.0000 0.97578  0.15434  0.79572  Biso   1.000  C
  C525     1.0000 0.99351  0.12768  0.98631  Biso   1.000  C
  C526     1.0000 0.97576  0.15429  0.79572  Biso   1.000  C
  H636     1.0000 0.80391  0.02881  0.84960  Biso   1.000  H
  H637     1.0000 0.85951  0.05241  0.76369  Biso   1.000  H
  H638     1.0000 0.83194  0.09401  0.79440  Biso   1.000  H
  H639     1.0000 0.83190  0.09401  0.79440  Biso   1.000  H
  C527     1.0000 0.11043  0.92283  0.85969  Biso   1.000  C
  C528     1.0000 0.11041  0.92279  0.85969  Biso   1.000  C
  C529     1.0000 0.13425  0.00653  0.98631  Biso   1.000  C
  C530     1.0000 0.13415  0.00648  0.98631  Biso   1.000  C
  H640     1.0000 0.99561  0.89672  0.16848  Biso   1.000  H
  H641     1.0000 0.99559  0.89668  0.16848  Biso   1.000  H
  H642     1.0000 0.03831  0.96270  0.12031  Biso   1.000  H
  H643     1.0000 0.06203  0.93573  0.21727  Biso   1.000  H
  H644     1.0000 0.06201  0.93568  0.21727  Biso   1.000  H
  N82      1.0000 0.99613  0.13980  0.39531  Biso   1.000  N
  C531     1.0000 0.89562  0.06749  0.48254  Biso   1.000  C
  N83      1.0000 0.99605  0.13980  0.39531  Biso   1.000  N
  C532     1.0000 0.89554  0.06749  0.48254  Biso   1.000  C
  H645     1.0000 0.06799  0.10280  0.44340  Biso   1.000  H
  H646     1.0000 0.06796  0.10280  0.44340  Biso   1.000  H
  N84      1.0000 0.14372  0.00393  0.39531  Biso   1.000  N
  C533     1.0000 0.17194  0.10440  0.48254  Biso   1.000  C
  N85      1.0000 0.14370  0.00389  0.39531  Biso   1.000  N
  C534     1.0000 0.17186  0.10440  0.48254  Biso   1.000  C
  H647     1.0000 0.97869  0.10909  0.05862  Biso   1.000  H
  H648     1.0000 0.97865  0.10909  0.05862  Biso   1.000  H
  C535     1.0000 0.05578  0.15730  0.96402  Biso   1.000  C
  C536     1.0000 0.05574  0.15730  0.96402  Biso   1.000  C
  C537     1.0000 0.03708  0.18523  0.77115  Biso   1.000  C
  C538     1.0000 0.03705  0.18518  0.77115  Biso   1.000  C
  H649     1.0000 0.94859  0.15260  0.73894  Biso   1.000  H
  H650     1.0000 0.94856  0.15260  0.73894  Biso   1.000  H
  C539     1.0000 0.14812  0.96293  0.77115  Biso   1.000  C
  C540     1.0000 0.14809  0.96288  0.77115  Biso   1.000  C
  H651     1.0000 0.09114  0.88100  0.84705  Biso   1.000  H
  H652     1.0000 0.09110  0.88100  0.84705  Biso   1.000  H
  C541     1.0000 0.17245  0.04663  0.90163  Biso   1.000  C
  C542     1.0000 0.17238  0.04658  0.90163  Biso   1.000  C
  H653     1.0000 0.13042  0.02129  0.05862  Biso   1.000  H
  H654     1.0000 0.13038  0.02129  0.05862  Biso   1.000  H
  C543     1.0000 0.98323  0.18951  0.39312  Biso   1.000  C
  C544     1.0000 0.98319  0.18951  0.39312  Biso   1.000  C
  H655     1.0000 0.87690  0.02562  0.50649  Biso   1.000  H
  H656     1.0000 0.89869  0.09232  0.54879  Biso   1.000  H
  H657     1.0000 0.87123  0.07159  0.42278  Biso   1.000  H
  H658     1.0000 0.87686  0.02562  0.50649  Biso   1.000  H
  H659     1.0000 0.89866  0.09228  0.54879  Biso   1.000  H
  H660     1.0000 0.87116  0.07159  0.42278  Biso   1.000  H
  C545     1.0000 0.20628  0.01683  0.39312  Biso   1.000  C
  C546     1.0000 0.20626  0.01678  0.39312  Biso   1.000  C
  H661     1.0000 0.19359  0.10130  0.54879  Biso   1.000  H
  H662     1.0000 0.14871  0.12313  0.50649  Biso   1.000  H
  H663     1.0000 0.20044  0.12882  0.42278  Biso   1.000  H
  H664     1.0000 0.14868  0.12308  0.50649  Biso   1.000  H
  H665     1.0000 0.20037  0.12882  0.42278  Biso   1.000  H
  C547     1.0000 0.07721  0.18760  0.85969  Biso   1.000  C
  C548     1.0000 0.09889  0.15853  0.05572  Biso   1.000  C
  C549     1.0000 0.09883  0.15848  0.05572  Biso   1.000  C
  C550     1.0000 0.05805  0.21503  0.65505  Biso   1.000  C
  C551     1.0000 0.05795  0.21498  0.65505  Biso   1.000  C
  C552     1.0000 0.15703  0.94201  0.65505  Biso   1.000  C
  C553     1.0000 0.15699  0.94201  0.65505  Biso   1.000  C
  C554     1.0000 0.17852  0.02421  0.79572  Biso   1.000  C
  C555     1.0000 0.20552  0.11442  0.93041  Biso   1.000  C
  C556     1.0000 0.20549  0.11438  0.93041  Biso   1.000  C
  H666     1.0000 0.94209  0.17479  0.42383  Biso   1.000  H
  C557     1.0000 0.98611  0.21193  0.26825  Biso   1.000  C
  C558     1.0000 0.98605  0.21188  0.26825  Biso   1.000  C
  C559     1.0000 0.02832  0.23999  0.47139  Biso   1.000  C
  C560     1.0000 0.21174  0.97172  0.47139  Biso   1.000  C
  C561     1.0000 0.21170  0.97172  0.47139  Biso   1.000  C
  H667     1.0000 0.23271  0.05792  0.42383  Biso   1.000  H
  C562     1.0000 0.22581  0.01391  0.26825  Biso   1.000  C
  H668     1.0000 0.23264  0.05788  0.42383  Biso   1.000  H
  H669     1.0000 0.11900  0.21011  0.84705  Biso   1.000  H
  H670     1.0000 0.11896  0.21011  0.84705  Biso   1.000  H
  N86      1.0000 0.15424  0.19922  0.04563  Biso   1.000  N
  C563     1.0000 0.07358  0.11050  0.14874  Biso   1.000  C
  N87      1.0000 0.15420  0.19922  0.04563  Biso   1.000  N
  N88      1.0000 0.01923  0.21803  0.59082  Biso   1.000  N
  N89      1.0000 0.01921  0.21799  0.59082  Biso   1.000  N
  C564     1.0000 0.12659  0.25243  0.62706  Biso   1.000  C
  C565     1.0000 0.12657  0.25239  0.62706  Biso   1.000  C
  C566     1.0000 0.11728  0.22063  0.61004  Biso   1.000  C
  N90      1.0000 0.19882  0.98083  0.59082  Biso   1.000  N
  N91      1.0000 0.19879  0.98079  0.59082  Biso   1.000  N
  C567     1.0000 0.12580  0.87340  0.62706  Biso   1.000  C
  C568     1.0000 0.10330  0.88269  0.61004  Biso   1.000  C
  H671     1.0000 0.20404  0.05141  0.73894  Biso   1.000  H
  H672     1.0000 0.20396  0.05141  0.73894  Biso   1.000  H
  C569     1.0000 0.22301  0.15903  0.82432  Biso   1.000  C
  C570     1.0000 0.22298  0.15898  0.82432  Biso   1.000  C
  N92      1.0000 0.21587  0.13001  0.03475  Biso   1.000  N
  H673     1.0000 0.02579  0.22382  0.23508  Biso   1.000  H
  H674     1.0000 0.95562  0.17912  0.22078  Biso   1.000  H
  C571     1.0000 0.97579  0.26492  0.26439  Biso   1.000  C
  C572     1.0000 0.01929  0.29581  0.46718  Biso   1.000  C
  H675     1.0000 0.06989  0.25211  0.44647  Biso   1.000  H
  C573     1.0000 0.27652  0.98070  0.46718  Biso   1.000  C
  H676     1.0000 0.18222  0.93012  0.44647  Biso   1.000  H
  C574     1.0000 0.27648  0.98070  0.46718  Biso   1.000  C
  H677     1.0000 0.22349  0.04439  0.22078  Biso   1.000  H
  H678     1.0000 0.19804  0.97423  0.23508  Biso   1.000  H
  H679     1.0000 0.19798  0.97418  0.23508  Biso   1.000  H
  C575     1.0000 0.28912  0.02421  0.26439  Biso   1.000  C
  C576     1.0000 0.20007  0.20509  0.13233  Biso   1.000  C
  H680     1.0000 0.10335  0.09893  0.16848  Biso   1.000  H
  H681     1.0000 0.03731  0.07560  0.12031  Biso   1.000  H
  H682     1.0000 0.06428  0.12631  0.21727  Biso   1.000  H
  H683     1.0000 0.10328  0.09889  0.16848  Biso   1.000  H
  H684     1.0000 0.13269  0.27749  0.55914  Biso   1.000  H
  H685     1.0000 0.14188  0.22532  0.61039  Biso   1.000  H
  H686     1.0000 0.14812  0.27781  0.69244  Biso   1.000  H
  H687     1.0000 0.14186  0.22528  0.61039  Biso   1.000  H
  H688     1.0000 0.15101  0.25881  0.63443  Biso   1.000  H
  H689     1.0000 0.11624  0.21863  0.52545  Biso   1.000  H
  H690     1.0000 0.12183  0.18782  0.64040  Biso   1.000  H
  H691     1.0000 0.08345  0.85813  0.61039  Biso   1.000  H
  H692     1.0000 0.12975  0.85194  0.69244  Biso   1.000  H
  H693     1.0000 0.14483  0.86734  0.55914  Biso   1.000  H
  H694     1.0000 0.08339  0.85809  0.61039  Biso   1.000  H
  H695     1.0000 0.12969  0.85189  0.69244  Biso   1.000  H
  H696     1.0000 0.14481  0.86729  0.55914  Biso   1.000  H
  H697     1.0000 0.14479  0.86734  0.55914  Biso   1.000  H
  H698     1.0000 0.10781  0.84902  0.63443  Biso   1.000  H
  H699     1.0000 0.10239  0.88378  0.52545  Biso   1.000  H
  H700     1.0000 0.06601  0.87818  0.64040  Biso   1.000  H
  H701     1.0000 0.22490  0.19612  0.84960  Biso   1.000  H
  H702     1.0000 0.19292  0.14053  0.76369  Biso   1.000  H
  H703     1.0000 0.26207  0.16810  0.79440  Biso   1.000  H
  H704     1.0000 0.19290  0.14048  0.76369  Biso   1.000  H
  C577     1.0000 0.24791  0.19393  0.06994  Biso   1.000  C
  C578     1.0000 0.24789  0.19388  0.06994  Biso   1.000  C
  H705     1.0000 0.97898  0.27872  0.18401  Biso   1.000  H
  H706     1.0000 0.93487  0.25221  0.29212  Biso   1.000  H
  C579     1.0000 0.01970  0.31454  0.33635  Biso   1.000  C
  C580     1.0000 0.01967  0.31449  0.33635  Biso   1.000  C
  H707     1.0000 0.98089  0.28601  0.50369  Biso   1.000  H
  H708     1.0000 0.98085  0.28601  0.50369  Biso   1.000  H
  H709     1.0000 0.05193  0.32953  0.50992  Biso   1.000  H
  H710     1.0000 0.05191  0.32948  0.50992  Biso   1.000  H
  C581     1.0000 0.29485  0.98033  0.33635  Biso   1.000  C
  H711     1.0000 0.27763  0.94812  0.50992  Biso   1.000  H
  C582     1.0000 0.29478  0.98029  0.33635  Biso   1.000  C
  H712     1.0000 0.27759  0.94812  0.50992  Biso   1.000  H
  H713     1.0000 0.30512  0.01911  0.50369  Biso   1.000  H
  H714     1.0000 0.29968  0.02102  0.18401  Biso   1.000  H
  H715     1.0000 0.31728  0.06512  0.29212  Biso   1.000  H
  H716     1.0000 0.31725  0.06508  0.29212  Biso   1.000  H
  C583     1.0000 0.22932  0.26920  0.18287  Biso   1.000  C
  H717     1.0000 0.18031  0.17520  0.19524  Biso   1.000  H
  C584     1.0000 0.22924  0.26920  0.18287  Biso   1.000  C
  H718     1.0000 0.26458  0.22031  0.00114  Biso   1.000  H
  C585     1.0000 0.29821  0.20432  0.15470  Biso   1.000  C
  H719     1.0000 0.01090  0.34761  0.33354  Biso   1.000  H
  H720     1.0000 0.06006  0.32930  0.30405  Biso   1.000  H
  H721     1.0000 0.33673  0.98912  0.33354  Biso   1.000  H
  H722     1.0000 0.26923  0.93992  0.30405  Biso   1.000  H
  H723     1.0000 0.33671  0.98908  0.33354  Biso   1.000  H
  H724     1.0000 0.26919  0.93992  0.30405  Biso   1.000  H
  C586     1.0000 0.28399  0.27982  0.26606  Biso   1.000  C
  H725     1.0000 0.19931  0.27412  0.22692  Biso   1.000  H
  H726     1.0000 0.24441  0.29891  0.11978  Biso   1.000  H
  H727     1.0000 0.19927  0.27412  0.22692  Biso   1.000  H
  H728     1.0000 0.32801  0.19762  0.11408  Biso   1.000  H
  H729     1.0000 0.28112  0.17479  0.21788  Biso   1.000  H
  C587     1.0000 0.33034  0.26843  0.20700  Biso   1.000  C
  H730     1.0000 0.28104  0.17479  0.21788  Biso   1.000  H
  C588     1.0000 0.33024  0.26838  0.20700  Biso   1.000  C
  H731     1.0000 0.30408  0.32142  0.29484  Biso   1.000  H
  H732     1.0000 0.26760  0.25303  0.33389  Biso   1.000  H
  H733     1.0000 0.26757  0.25298  0.33389  Biso   1.000  H
  H734     1.0000 0.36068  0.27221  0.26334  Biso   1.000  H
  H735     1.0000 0.35069  0.29822  0.14531  Biso   1.000  H
  H736     1.0000 0.35066  0.29818  0.14531  Biso   1.000  H
  C589     1.0000 0.66688  0.75680  0.98886  Biso   1.000  C
  C590     1.0000 0.60871  0.70240  0.93489  Biso   1.000  C
  C591     1.0000 0.65898  0.80318  0.03852  Biso   1.000  C
  H737     1.0000 0.69761  0.77461  0.92796  Biso   1.000  H
  H738     1.0000 0.68250  0.74108  0.04896  Biso   1.000  H
  C592     1.0000 0.57988  0.72769  0.85004  Biso   1.000  C
  H739     1.0000 0.61930  0.67552  0.89347  Biso   1.000  H
  H740     1.0000 0.58010  0.67921  0.99667  Biso   1.000  H
  C593     1.0000 0.62763  0.82642  0.95911  Biso   1.000  C
  H741     1.0000 0.69870  0.83708  0.05967  Biso   1.000  H
  H742     1.0000 0.63549  0.78801  0.11013  Biso   1.000  H
  N93      1.0000 0.52252  0.67602  0.80853  Biso   1.000  N
  C594     1.0000 0.56659  0.77379  0.91155  Biso   1.000  C
  H743     1.0000 0.60719  0.74719  0.78335  Biso   1.000  H
  H744     1.0000 0.65422  0.84811  0.89373  Biso   1.000  H
  H745     1.0000 0.61980  0.85481  0.00202  Biso   1.000  H
  C595     1.0000 0.51202  0.65770  0.70946  Biso   1.000  C
  N94      1.0000 0.54273  0.79922  0.82555  Biso   1.000  N
  H746     1.0000 0.53738  0.75420  0.97569  Biso   1.000  H
  C596     1.0000 0.45169  0.60389  0.67971  Biso   1.000  C
  C597     1.0000 0.54790  0.69939  0.59802  Biso   1.000  C
  C598     1.0000 0.56141  0.66399  0.61206  Biso   1.000  C
  C599     1.0000 0.48712  0.78459  0.83301  Biso   1.000  C
  C600     1.0000 0.43950  0.57359  0.57538  Biso   1.000  C
  C601     1.0000 0.40420  0.58348  0.76430  Biso   1.000  C
  H747     1.0000 0.54779  0.73721  0.60223  Biso   1.000  H
  H748     1.0000 0.52823  0.67852  0.52711  Biso   1.000  H
  H749     1.0000 0.58920  0.70750  0.59872  Biso   1.000  H
  H750     1.0000 0.57759  0.70258  0.57274  Biso   1.000  H
  H751     1.0000 0.54190  0.63168  0.55528  Biso   1.000  H
  H752     1.0000 0.59392  0.66130  0.64935  Biso   1.000  H
  C602     1.0000 0.46539  0.81312  0.74175  Biso   1.000  C
  C603     1.0000 0.44120  0.74500  0.92322  Biso   1.000  C
  C604     1.0000 0.38139  0.52288  0.55116  Biso   1.000  C
  H753     1.0000 0.46998  0.58649  0.51904  Biso   1.000  H
  C605     1.0000 0.34771  0.53459  0.74175  Biso   1.000  C
  H754     1.0000 0.41170  0.60362  0.83600  Biso   1.000  H
  C606     1.0000 0.41650  0.82068  0.76430  Biso   1.000  C
  C607     1.0000 0.49628  0.83298  0.63470  Biso   1.000  C
  H755     1.0000 0.45152  0.71561  0.95191  Biso   1.000  H
  H756     1.0000 0.40141  0.72422  0.88829  Biso   1.000  H
  H757     1.0000 0.44139  0.76969  0.98728  Biso   1.000  H
  C608     1.0000 0.37012  0.49331  0.43226  Biso   1.000  C
  C609     1.0000 0.33668  0.50370  0.63470  Biso   1.000  C
  C610     1.0000 0.29749  0.51290  0.83301  Biso   1.000  C
  C611     1.0000 0.39608  0.84779  0.67971  Biso   1.000  C
  H758     1.0000 0.39640  0.80810  0.83600  Biso   1.000  H
  H759     1.0000 0.53017  0.82888  0.62022  Biso   1.000  H
  C612     1.0000 0.47711  0.85850  0.55116  Biso   1.000  C
  C613     1.0000 0.30630  0.44971  0.39944  Biso   1.000  C
  N95      1.0000 0.41599  0.51030  0.36504  Biso   1.000  N
  H760     1.0000 0.29870  0.46980  0.62022  Biso   1.000  H
  N96      1.0000 0.25652  0.45731  0.82555  Biso   1.000  N
  C614     1.0000 0.30378  0.55878  0.92322  Biso   1.000  C
  C615     1.0000 0.42639  0.86588  0.57538  Biso   1.000  C
  C616     1.0000 0.34232  0.85430  0.70946  Biso   1.000  C
  C617     1.0000 0.50671  0.87681  0.43226  Biso   1.000  C
  H761     1.0000 0.28680  0.47171  0.37267  Biso   1.000  H
  H762     1.0000 0.28489  0.42551  0.46648  Biso   1.000  H
  H763     1.0000 0.30571  0.42360  0.33784  Biso   1.000  H
  C618     1.0000 0.41280  0.49130  0.24473  Biso   1.000  C
  C619     1.0000 0.20719  0.43339  0.91155  Biso   1.000  C
  H764     1.0000 0.26410  0.54849  0.95191  Biso   1.000  H
  H765     1.0000 0.32282  0.59861  0.88829  Biso   1.000  H
  H766     1.0000 0.32831  0.55860  0.98728  Biso   1.000  H
  H767     1.0000 0.41350  0.88351  0.51904  Biso   1.000  H
  C620     1.0000 0.30060  0.84852  0.59802  Biso   1.000  C
  N97      1.0000 0.32402  0.84651  0.80853  Biso   1.000  N
  C621     1.0000 0.33601  0.89741  0.61206  Biso   1.000  C
  N98      1.0000 0.48970  0.90570  0.36504  Biso   1.000  N
  C622     1.0000 0.55030  0.85658  0.39944  Biso   1.000  C
  H768     1.0000 0.36998  0.46620  0.22174  Biso   1.000  H
  C623     1.0000 0.44551  0.45422  0.23043  Biso   1.000  C
  C624     1.0000 0.44272  0.54721  0.16892  Biso   1.000  C
  H769     1.0000 0.21682  0.46260  0.97569  Biso   1.000  H
  C625     1.0000 0.19878  0.37239  0.95911  Biso   1.000  C
  C626     1.0000 0.14778  0.42009  0.85004  Biso   1.000  C
  H770     1.0000 0.26282  0.81061  0.60223  Biso   1.000  H
  H771     1.0000 0.32151  0.84970  0.52711  Biso   1.000  H
  H772     1.0000 0.29248  0.88169  0.59872  Biso   1.000  H
  H773     1.0000 0.29738  0.87499  0.57274  Biso   1.000  H
  C627     1.0000 0.27229  0.85221  0.85004  Biso   1.000  C
  H774     1.0000 0.36830  0.91021  0.55528  Biso   1.000  H
  H775     1.0000 0.33868  0.93258  0.64935  Biso   1.000  H
  C628     1.0000 0.50870  0.92151  0.24473  Biso   1.000  C
  H776     1.0000 0.52830  0.81512  0.37267  Biso   1.000  H
  H777     1.0000 0.57452  0.85941  0.46648  Biso   1.000  H
  H778     1.0000 0.57639  0.88210  0.33784  Biso   1.000  H
  H779     1.0000 0.42340  0.41599  0.27273  Biso   1.000  H
  H780     1.0000 0.48633  0.47682  0.26281  Biso   1.000  H
  C629     1.0000 0.44890  0.44141  0.09881  Biso   1.000  C
  N99      1.0000 0.40489  0.57610  0.17287  Biso   1.000  N
  C630     1.0000 0.44910  0.53518  0.04177  Biso   1.000  C
  H781     1.0000 0.48311  0.57550  0.20077  Biso   1.000  H
  H782     1.0000 0.19390  0.34582  0.89373  Biso   1.000  H
  H783     1.0000 0.23502  0.38022  0.00202  Biso   1.000  H
  C631     1.0000 0.14418  0.34099  0.03852  Biso   1.000  C
  N100     1.0000 0.15352  0.47750  0.80853  Biso   1.000  N
  C632     1.0000 0.09369  0.39129  0.93489  Biso   1.000  C
  H784     1.0000 0.14001  0.39280  0.78335  Biso   1.000  H
  C633     1.0000 0.22621  0.79279  0.91155  Biso   1.000  C
  C634     1.0000 0.29760  0.90629  0.93489  Biso   1.000  C
  H785     1.0000 0.25279  0.86000  0.78335  Biso   1.000  H
  C635     1.0000 0.45280  0.89549  0.16892  Biso   1.000  C
  H786     1.0000 0.53381  0.90379  0.22174  Biso   1.000  H
  C636     1.0000 0.54581  0.99131  0.23043  Biso   1.000  C
  H787     1.0000 0.46942  0.41790  0.08968  Biso   1.000  H
  H788     1.0000 0.40798  0.41758  0.06722  Biso   1.000  H
  C637     1.0000 0.48231  0.49900  0.03387  Biso   1.000  C
  C638     1.0000 0.42377  0.62918  0.21859  Biso   1.000  C
  H789     1.0000 0.47200  0.57341  0.00000  Biso   1.000  H
  H790     1.0000 0.40921  0.51231  0.00597  Biso   1.000  H
  C639     1.0000 0.08989  0.33311  0.98886  Biso   1.000  C
  H791     1.0000 0.13842  0.30131  0.05967  Biso   1.000  H
  H792     1.0000 0.15250  0.36450  0.11013  Biso   1.000  H
  C640     1.0000 0.14570  0.48798  0.70946  Biso   1.000  C
  H793     1.0000 0.05618  0.38068  0.89347  Biso   1.000  H
  H794     1.0000 0.09911  0.41991  0.99667  Biso   1.000  H
  N101     1.0000 0.20081  0.74350  0.82555  Biso   1.000  N
  H795     1.0000 0.24579  0.78318  0.97569  Biso   1.000  H
  C641     1.0000 0.17358  0.80118  0.95911  Biso   1.000  C
  C642     1.0000 0.24321  0.91012  0.98886  Biso   1.000  C
  H796     1.0000 0.32448  0.94379  0.89347  Biso   1.000  H
  H797     1.0000 0.32080  0.90092  0.99667  Biso   1.000  H
  N102     1.0000 0.42390  0.82879  0.17287  Biso   1.000  N
  C643     1.0000 0.46480  0.91390  0.04177  Biso   1.000  C
  H798     1.0000 0.42449  0.90761  0.20077  Biso   1.000  H
  H799     1.0000 0.58396  0.00740  0.27273  Biso   1.000  H
  H800     1.0000 0.52321  0.00949  0.26281  Biso   1.000  H
  C644     1.0000 0.55855  0.00749  0.09881  Biso   1.000  C
  H801     1.0000 0.52297  0.52288  0.06616  Biso   1.000  H
  H802     1.0000 0.48598  0.49048  0.95226  Biso   1.000  H
  C645     1.0000 0.37821  0.64941  0.22122  Biso   1.000  C
  C646     1.0000 0.48662  0.67201  0.26158  Biso   1.000  C
  H803     1.0000 0.07702  0.30240  0.92796  Biso   1.000  H
  H804     1.0000 0.05860  0.31748  0.04896  Biso   1.000  H
  C647     1.0000 0.15219  0.54830  0.67971  Biso   1.000  C
  C648     1.0000 0.15152  0.45212  0.59802  Biso   1.000  C
  C649     1.0000 0.10258  0.43859  0.61206  Biso   1.000  C
  C650     1.0000 0.21539  0.70249  0.83301  Biso   1.000  C
  H805     1.0000 0.15190  0.80610  0.89373  Biso   1.000  H
  H806     1.0000 0.14520  0.76500  0.00202  Biso   1.000  H
  C651     1.0000 0.19679  0.85581  0.03852  Biso   1.000  C
  H807     1.0000 0.22543  0.92301  0.92796  Biso   1.000  H
  H808     1.0000 0.25890  0.94142  0.04896  Biso   1.000  H
  C652     1.0000 0.37079  0.79462  0.21859  Biso   1.000  C
  C653     1.0000 0.50100  0.98329  0.03387  Biso   1.000  C
  H809     1.0000 0.42661  0.89859  0.00000  Biso   1.000  H
  H810     1.0000 0.48771  0.89691  0.00597  Biso   1.000  H
  H811     1.0000 0.58240  0.99040  0.06722  Biso   1.000  H
  H812     1.0000 0.58206  0.05150  0.08968  Biso   1.000  H
  C654     1.0000 0.31461  0.60412  0.22131  Biso   1.000  C
  C655     1.0000 0.39590  0.71051  0.22131  Biso   1.000  C
  H813     1.0000 0.48569  0.67702  0.34495  Biso   1.000  H
  H814     1.0000 0.50178  0.71078  0.22367  Biso   1.000  H
  H815     1.0000 0.51280  0.65579  0.24368  Biso   1.000  H
  C656     1.0000 0.17928  0.59578  0.76430  Biso   1.000  C
  C657     1.0000 0.13410  0.56051  0.57538  Biso   1.000  C
  H816     1.0000 0.18941  0.45221  0.60223  Biso   1.000  H
  H817     1.0000 0.15032  0.47180  0.52711  Biso   1.000  H
  H818     1.0000 0.11831  0.41080  0.59872  Biso   1.000  H
  H819     1.0000 0.12499  0.42241  0.57274  Biso   1.000  H
  H820     1.0000 0.08980  0.45809  0.55528  Biso   1.000  H
  H821     1.0000 0.06739  0.40610  0.64935  Biso   1.000  H
  C658     1.0000 0.18689  0.65228  0.74175  Biso   1.000  C
  C659     1.0000 0.25502  0.69620  0.92322  Biso   1.000  C
  H822     1.0000 0.16291  0.86159  0.05967  Biso   1.000  H
  H823     1.0000 0.21202  0.84752  0.11013  Biso   1.000  H
  C660     1.0000 0.35058  0.72878  0.22122  Biso   1.000  C
  C661     1.0000 0.32800  0.81462  0.26158  Biso   1.000  C
  H824     1.0000 0.50951  0.99550  0.95226  Biso   1.000  H
  H825     1.0000 0.47705  0.00011  0.06616  Biso   1.000  H
  H826     1.0000 0.30271  0.56288  0.22148  Biso   1.000  H
  C662     1.0000 0.27120  0.62180  0.22122  Biso   1.000  C
  H827     1.0000 0.43710  0.73980  0.22148  Biso   1.000  H
  H828     1.0000 0.19192  0.58831  0.83600  Biso   1.000  H
  C663     1.0000 0.14149  0.61861  0.55116  Biso   1.000  C
  H829     1.0000 0.11651  0.52999  0.51904  Biso   1.000  H
  C664     1.0000 0.16699  0.66330  0.63470  Biso   1.000  C
  H830     1.0000 0.28441  0.73589  0.95191  Biso   1.000  H
  H831     1.0000 0.27578  0.67720  0.88829  Biso   1.000  H
  H832     1.0000 0.23029  0.67169  0.98728  Biso   1.000  H
  C665     1.0000 0.28951  0.68540  0.22131  Biso   1.000  C
  H833     1.0000 0.32298  0.80870  0.34495  Biso   1.000  H
  H834     1.0000 0.28921  0.79102  0.22367  Biso   1.000  H
  H835     1.0000 0.34421  0.85699  0.24368  Biso   1.000  H
  C666     1.0000 0.20539  0.57619  0.21859  Biso   1.000  C
  C667     1.0000 0.12318  0.62991  0.43226  Biso   1.000  C
  H836     1.0000 0.17112  0.70130  0.62022  Biso   1.000  H
  H837     1.0000 0.26018  0.69729  0.22148  Biso   1.000  H
  N103     1.0000 0.17120  0.59510  0.17287  Biso   1.000  N
  C668     1.0000 0.18540  0.51340  0.26158  Biso   1.000  C
  N104     1.0000 0.09430  0.58398  0.36504  Biso   1.000  N
  C669     1.0000 0.14340  0.69370  0.39944  Biso   1.000  C
  C670     1.0000 0.10451  0.55728  0.16892  Biso   1.000  C
  H838     1.0000 0.19130  0.51431  0.34495  Biso   1.000  H
  H839     1.0000 0.20900  0.49818  0.22367  Biso   1.000  H
  H840     1.0000 0.14298  0.48720  0.24368  Biso   1.000  H
  C671     1.0000 0.07852  0.58721  0.24473  Biso   1.000  C
  H841     1.0000 0.18491  0.71320  0.37267  Biso   1.000  H
  H842     1.0000 0.14061  0.71511  0.46648  Biso   1.000  H
  H843     1.0000 0.11789  0.69429  0.33784  Biso   1.000  H
  C672     1.0000 0.08609  0.55090  0.04177  Biso   1.000  C
  H844     1.0000 0.09241  0.51691  0.20077  Biso   1.000  H
  H845     1.0000 0.09620  0.63000  0.22174  Biso   1.000  H
  C673     1.0000 0.00869  0.55450  0.23043  Biso   1.000  C
  C674     1.0000 0.01669  0.51769  0.03387  Biso   1.000  C
  H846     1.0000 0.10138  0.52798  0.00000  Biso   1.000  H
  H847     1.0000 0.10313  0.59081  0.00597  Biso   1.000  H
  H848     1.0000 0.99260  0.57660  0.27273  Biso   1.000  H
  H849     1.0000 0.99052  0.51372  0.26281  Biso   1.000  H
  C675     1.0000 0.99250  0.55108  0.09881  Biso   1.000  C
  H850     1.0000 0.99989  0.47700  0.06616  Biso   1.000  H
  H851     1.0000 0.00450  0.51400  0.95226  Biso   1.000  H
  H852     1.0000 0.00961  0.59200  0.06722  Biso   1.000  H
  H853     1.0000 0.94848  0.53058  0.08968  Biso   1.000  H
  C676     1.0000 0.98991  0.62449  0.67901  Biso   1.000  C
  C677     1.0000 0.96859  0.59551  0.55590  Biso   1.000  C
  C678     1.0000 0.97618  0.57368  0.76685  Biso   1.000  C
  H854     1.0000 0.96869  0.64590  0.70130  Biso   1.000  H
  H855     1.0000 0.03330  0.65351  0.67796  Biso   1.000  H
  C679     1.0000 0.90272  0.54972  0.55256  Biso   1.000  C
  H856     1.0000 0.97700  0.62740  0.49939  Biso   1.000  H
  H857     1.0000 0.99180  0.57619  0.53299  Biso   1.000  H
  C680     1.0000 0.90790  0.52889  0.76553  Biso   1.000  C
  H858     1.0000 0.99832  0.55300  0.74552  Biso   1.000  H
  H859     1.0000 0.98890  0.59068  0.84486  Biso   1.000  H
  C681     1.0000 0.88943  0.49882  0.64584  Biso   1.000  C
  N105     1.0000 0.88701  0.51978  0.43743  Biso   1.000  N
  H860     1.0000 0.87819  0.56899  0.56880  Biso   1.000  H
  H861     1.0000 0.89771  0.49809  0.82555  Biso   1.000  H
  H862     1.0000 0.88593  0.55022  0.78229  Biso   1.000  H
  N106     1.0000 0.82250  0.45690  0.64163  Biso   1.000  N
  H863     1.0000 0.91143  0.47732  0.62680  Biso   1.000  H
  C682     1.0000 0.84601  0.51750  0.37618  Biso   1.000  C
  C683     1.0000 0.79939  0.40309  0.60469  Biso   1.000  C
  C684     1.0000 0.83292  0.48602  0.25948  Biso   1.000  C
  C685     1.0000 0.80312  0.54252  0.41313  Biso   1.000  C
  C686     1.0000 0.72968  0.36619  0.59749  Biso   1.000  C
  C687     1.0000 0.83233  0.37152  0.56046  Biso   1.000  C
  C688     1.0000 0.80469  0.50028  0.17173  Biso   1.000  C
  C689     1.0000 0.85168  0.44479  0.23842  Biso   1.000  C
  H864     1.0000 0.77488  0.53559  0.35091  Biso   1.000  H
  H865     1.0000 0.78108  0.52188  0.48271  Biso   1.000  H
  H866     1.0000 0.82721  0.58548  0.42831  Biso   1.000  H
  C690     1.0000 0.69809  0.39590  0.59819  Biso   1.000  C
  C691     1.0000 0.69781  0.30190  0.59819  Biso   1.000  C
  H867     1.0000 0.86158  0.39649  0.50228  Biso   1.000  H
  H868     1.0000 0.80342  0.33311  0.52606  Biso   1.000  H
  H869     1.0000 0.85258  0.36459  0.62452  Biso   1.000  H
  C692     1.0000 0.79417  0.47199  0.06300  Biso   1.000  C
  H870     1.0000 0.79268  0.52889  0.18533  Biso   1.000  H
  C693     1.0000 0.84279  0.41581  0.13119  Biso   1.000  C
  H871     1.0000 0.87099  0.43590  0.29809  Biso   1.000  H
  C694     1.0000 0.63379  0.36350  0.59749  Biso   1.000  C
  H872     1.0000 0.71887  0.43818  0.59916  Biso   1.000  H
  C695     1.0000 0.63650  0.27028  0.59749  Biso   1.000  C
  H873     1.0000 0.71928  0.28108  0.59916  Biso   1.000  H
  C696     1.0000 0.76309  0.48748  0.96823  Biso   1.000  C
  C697     1.0000 0.81400  0.43098  0.04388  Biso   1.000  C
  C698     1.0000 0.86251  0.37079  0.10109  Biso   1.000  C
  C699     1.0000 0.59692  0.39631  0.60469  Biso   1.000  C
  C700     1.0000 0.60409  0.30222  0.59819  Biso   1.000  C
  C701     1.0000 0.60372  0.20061  0.60469  Biso   1.000  C
  N107     1.0000 0.76770  0.53969  0.97569  Biso   1.000  N
  C702     1.0000 0.72909  0.43991  0.88224  Biso   1.000  C
  H874     1.0000 0.80799  0.41280  0.97052  Biso   1.000  H
  C703     1.0000 0.86498  0.33698  0.20797  Biso   1.000  C
  C704     1.0000 0.89103  0.35302  0.20297  Biso   1.000  C
  N108     1.0000 0.86281  0.35799  0.99307  Biso   1.000  N
  N109     1.0000 0.54310  0.36560  0.64163  Biso   1.000  N
  C705     1.0000 0.62849  0.46078  0.56046  Biso   1.000  C
  H875     1.0000 0.56181  0.28071  0.59916  Biso   1.000  H
  N110     1.0000 0.63439  0.17751  0.64163  Biso   1.000  N
  C706     1.0000 0.53921  0.16772  0.56046  Biso   1.000  C
  C707     1.0000 0.73772  0.55842  0.88777  Biso   1.000  C
  H876     1.0000 0.69190  0.43932  0.86346  Biso   1.000  H
  H877     1.0000 0.71991  0.40118  0.91409  Biso   1.000  H
  H878     1.0000 0.75308  0.44788  0.81239  Biso   1.000  H
  H879     1.0000 0.82590  0.30081  0.21929  Biso   1.000  H
  H880     1.0000 0.87512  0.36241  0.27580  Biso   1.000  H
  H881     1.0000 0.89529  0.32509  0.19638  Biso   1.000  H
  H882     1.0000 0.86031  0.31912  0.24482  Biso   1.000  H
  H883     1.0000 0.91179  0.38728  0.25597  Biso   1.000  H
  H884     1.0000 0.92048  0.34318  0.17199  Biso   1.000  H
  C708     1.0000 0.87621  0.31092  0.95367  Biso   1.000  C
  C709     1.0000 0.50119  0.39061  0.64584  Biso   1.000  C
  H885     1.0000 0.60350  0.46511  0.50228  Biso   1.000  H
  H886     1.0000 0.66691  0.47030  0.52606  Biso   1.000  H
  H887     1.0000 0.63538  0.48798  0.62452  Biso   1.000  H
  C710     1.0000 0.60941  0.11058  0.64584  Biso   1.000  C
  H888     1.0000 0.53490  0.13842  0.50228  Biso   1.000  H
  H889     1.0000 0.52970  0.19660  0.52606  Biso   1.000  H
  H890     1.0000 0.51200  0.14740  0.62452  Biso   1.000  H
  C711     1.0000 0.68911  0.56530  0.95367  Biso   1.000  C
  H891     1.0000 0.71898  0.52748  0.82617  Biso   1.000  H
  C712     1.0000 0.78522  0.61902  0.83591  Biso   1.000  C
  C713     1.0000 0.82069  0.26231  0.88777  Biso   1.000  C
  H892     1.0000 0.88689  0.29329  0.01992  Biso   1.000  H
  C714     1.0000 0.93008  0.34259  0.86469  Biso   1.000  C
  C715     1.0000 0.45031  0.35302  0.55256  Biso   1.000  C
  C716     1.0000 0.47111  0.37899  0.76553  Biso   1.000  C
  H893     1.0000 0.52269  0.43408  0.62680  Biso   1.000  H
  C717     1.0000 0.64701  0.09732  0.55256  Biso   1.000  C
  C718     1.0000 0.62099  0.09208  0.76553  Biso   1.000  C
  H894     1.0000 0.56591  0.08862  0.62680  Biso   1.000  H
  N111     1.0000 0.64201  0.50479  0.99307  Biso   1.000  N
  H895     1.0000 0.70669  0.59359  0.01992  Biso   1.000  H
  C719     1.0000 0.65739  0.58749  0.86469  Biso   1.000  C
  H896     1.0000 0.81599  0.61410  0.79458  Biso   1.000  H
  H897     1.0000 0.80498  0.64859  0.89803  Biso   1.000  H
  C720     1.0000 0.75360  0.64139  0.75061  Biso   1.000  C
  N112     1.0000 0.77198  0.23228  0.97569  Biso   1.000  N
  H898     1.0000 0.80849  0.28099  0.82617  Biso   1.000  H
  C721     1.0000 0.83379  0.21478  0.83591  Biso   1.000  C
  C722     1.0000 0.94161  0.29698  0.81028  Biso   1.000  C
  H899     1.0000 0.92013  0.36332  0.80467  Biso   1.000  H
  H900     1.0000 0.96649  0.37280  0.90523  Biso   1.000  H
  C723     1.0000 0.40453  0.37311  0.55590  Biso   1.000  C
  N113     1.0000 0.48021  0.36719  0.43743  Biso   1.000  N
  H901     1.0000 0.43100  0.30919  0.56880  Biso   1.000  H
  C724     1.0000 0.42628  0.40250  0.76685  Biso   1.000  C
  H902     1.0000 0.50189  0.39959  0.82555  Biso   1.000  H
  H903     1.0000 0.44979  0.33571  0.78229  Biso   1.000  H
  N114     1.0000 0.63279  0.11300  0.43743  Biso   1.000  N
  H904     1.0000 0.69081  0.12179  0.56880  Biso   1.000  H
  C725     1.0000 0.62691  0.03139  0.55590  Biso   1.000  C
  C726     1.0000 0.59750  0.02378  0.76685  Biso   1.000  C
  H905     1.0000 0.60041  0.10229  0.82555  Biso   1.000  H
  H906     1.0000 0.66431  0.11409  0.78229  Biso   1.000  H
  C727     1.0000 0.62920  0.49171  0.10109  Biso   1.000  C
  C728     1.0000 0.70299  0.64458  0.81028  Biso   1.000  C
  H907     1.0000 0.63667  0.55678  0.80467  Biso   1.000  H
  H908     1.0000 0.62719  0.59368  0.90523  Biso   1.000  H
  H909     1.0000 0.78299  0.68139  0.72113  Biso   1.000  H
  H910     1.0000 0.73758  0.61378  0.68428  Biso   1.000  H
  C729     1.0000 0.72441  0.23688  0.96823  Biso   1.000  C
  H911     1.0000 0.79810  0.18398  0.79458  Biso   1.000  H
  H912     1.0000 0.84359  0.19501  0.89803  Biso   1.000  H
  C730     1.0000 0.88779  0.24640  0.75061  Biso   1.000  C
  H913     1.0000 0.95571  0.27989  0.87039  Biso   1.000  H
  H914     1.0000 0.97418  0.31730  0.75342  Biso   1.000  H
  H915     1.0000 0.37261  0.34960  0.49939  Biso   1.000  H
  H916     1.0000 0.42379  0.41558  0.53299  Biso   1.000  H
  C731     1.0000 0.37550  0.36541  0.67901  Biso   1.000  C
  C732     1.0000 0.48249  0.32851  0.37618  Biso   1.000  C
  H917     1.0000 0.44700  0.44529  0.74552  Biso   1.000  H
  H918     1.0000 0.40931  0.39822  0.84486  Biso   1.000  H
  C733     1.0000 0.67148  0.15400  0.37618  Biso   1.000  C
  H919     1.0000 0.65042  0.02301  0.49939  Biso   1.000  H
  H920     1.0000 0.58442  0.00820  0.53299  Biso   1.000  H
  C734     1.0000 0.63462  0.01011  0.67901  Biso   1.000  C
  H921     1.0000 0.55468  0.00169  0.74552  Biso   1.000  H
  H922     1.0000 0.60182  0.01112  0.84486  Biso   1.000  H
  C735     1.0000 0.58422  0.42702  0.13119  Biso   1.000  C
  C736     1.0000 0.66300  0.52798  0.20797  Biso   1.000  C
  C737     1.0000 0.64702  0.53801  0.20297  Biso   1.000  C
  H923     1.0000 0.72009  0.67579  0.87039  Biso   1.000  H
  H924     1.0000 0.68270  0.65688  0.75342  Biso   1.000  H
  C738     1.0000 0.67782  0.20581  0.06300  Biso   1.000  C
  C739     1.0000 0.71080  0.27092  0.88224  Biso   1.000  C
  H925     1.0000 0.89839  0.21702  0.72113  Biso   1.000  H
  H926     1.0000 0.87622  0.26240  0.68428  Biso   1.000  H
  H927     1.0000 0.34652  0.37981  0.67796  Biso   1.000  H
  H928     1.0000 0.35412  0.32281  0.70130  Biso   1.000  H
  C740     1.0000 0.51403  0.34692  0.25948  Biso   1.000  C
  C741     1.0000 0.45750  0.26062  0.41313  Biso   1.000  C
  C742     1.0000 0.65309  0.16708  0.25948  Biso   1.000  C
  C743     1.0000 0.73940  0.19688  0.41313  Biso   1.000  C
  H929     1.0000 0.67721  0.03130  0.70130  Biso   1.000  H
  H930     1.0000 0.62021  0.96669  0.67796  Biso   1.000  H
  C744     1.0000 0.55520  0.40692  0.23842  Biso   1.000  C
  C745     1.0000 0.56900  0.38300  0.04388  Biso   1.000  C
  H931     1.0000 0.69921  0.52511  0.21929  Biso   1.000  H
  H932     1.0000 0.63761  0.51272  0.27580  Biso   1.000  H
  H933     1.0000 0.67492  0.57022  0.19638  Biso   1.000  H
  H934     1.0000 0.68089  0.54120  0.24482  Biso   1.000  H
  H935     1.0000 0.61269  0.52452  0.25597  Biso   1.000  H
  H936     1.0000 0.65679  0.57728  0.17199  Biso   1.000  H
  C746     1.0000 0.61700  0.18599  0.04388  Biso   1.000  C
  C747     1.0000 0.69560  0.19528  0.17173  Biso   1.000  C
  H937     1.0000 0.74739  0.30810  0.86346  Biso   1.000  H
  H938     1.0000 0.68131  0.28012  0.91409  Biso   1.000  H
  H939     1.0000 0.69481  0.24691  0.81239  Biso   1.000  H
  C748     1.0000 0.49971  0.30441  0.17173  Biso   1.000  C
  H940     1.0000 0.46440  0.23930  0.35091  Biso   1.000  H
  H941     1.0000 0.47810  0.25921  0.48271  Biso   1.000  H
  H942     1.0000 0.41451  0.24171  0.42831  Biso   1.000  H
  C749     1.0000 0.59311  0.14831  0.23842  Biso   1.000  C
  H943     1.0000 0.76069  0.22508  0.35091  Biso   1.000  H
  H944     1.0000 0.74078  0.21888  0.48271  Biso   1.000  H
  H945     1.0000 0.75831  0.17282  0.42831  Biso   1.000  H
  H946     1.0000 0.56411  0.43508  0.29809  Biso   1.000  H
  C750     1.0000 0.52800  0.32222  0.06300  Biso   1.000  C
  H947     1.0000 0.58722  0.39521  0.97052  Biso   1.000  H
  C751     1.0000 0.57301  0.15719  0.13119  Biso   1.000  C
  H948     1.0000 0.60482  0.19200  0.97052  Biso   1.000  H
  H949     1.0000 0.73622  0.20731  0.18533  Biso   1.000  H
  H950     1.0000 0.47109  0.26381  0.18533  Biso   1.000  H
  H951     1.0000 0.56491  0.12899  0.29809  Biso   1.000  H
  C752     1.0000 0.51250  0.27561  0.96823  Biso   1.000  C
  C753     1.0000 0.50832  0.13751  0.10109  Biso   1.000  C
  N115     1.0000 0.46029  0.22800  0.97569  Biso   1.000  N
  C754     1.0000 0.56009  0.28919  0.88224  Biso   1.000  C
  N116     1.0000 0.49518  0.13719  0.99307  Biso   1.000  N
  C755     1.0000 0.47199  0.13500  0.20797  Biso   1.000  C
  C756     1.0000 0.46198  0.10899  0.20297  Biso   1.000  C
  C757     1.0000 0.44158  0.17929  0.88777  Biso   1.000  C
  H952     1.0000 0.56070  0.25260  0.86346  Biso   1.000  H
  H953     1.0000 0.59881  0.31871  0.91409  Biso   1.000  H
  H954     1.0000 0.55211  0.30518  0.81239  Biso   1.000  H
  C758     1.0000 0.43470  0.12379  0.95367  Biso   1.000  C
  H955     1.0000 0.47489  0.17410  0.21929  Biso   1.000  H
  H956     1.0000 0.48729  0.12489  0.27580  Biso   1.000  H
  H957     1.0000 0.42981  0.10470  0.19638  Biso   1.000  H
  H958     1.0000 0.45879  0.13970  0.24482  Biso   1.000  H
  H959     1.0000 0.47544  0.08816  0.25597  Biso   1.000  H
  H960     1.0000 0.42270  0.07951  0.17199  Biso   1.000  H
  H961     1.0000 0.47250  0.19150  0.82617  Biso   1.000  H
  C759     1.0000 0.38102  0.16621  0.83591  Biso   1.000  C
  H962     1.0000 0.40638  0.11309  0.01992  Biso   1.000  H
  C760     1.0000 0.41249  0.06989  0.86469  Biso   1.000  C
  H963     1.0000 0.38588  0.20189  0.79458  Biso   1.000  H
  H964     1.0000 0.35142  0.15642  0.89803  Biso   1.000  H
  C761     1.0000 0.35860  0.11222  0.75061  Biso   1.000  C
  C762     1.0000 0.35541  0.05841  0.81028  Biso   1.000  C
  H965     1.0000 0.44323  0.07992  0.80467  Biso   1.000  H
  H966     1.0000 0.40628  0.03349  0.90523  Biso   1.000  H
  H967     1.0000 0.31861  0.10161  0.72113  Biso   1.000  H
  H968     1.0000 0.38621  0.12379  0.68428  Biso   1.000  H
  H969     1.0000 0.32420  0.04429  0.87039  Biso   1.000  H
  H970     1.0000 0.34308  0.02579  0.75342  Biso   1.000  H
