data_image0
_cell_length_a       26.184
_cell_length_b       26.184
_cell_length_c       11.186
_cell_angle_alpha    90
_cell_angle_beta     90
_cell_angle_gamma    120

_symmetry_space_group_name_H-M    "P 1"
_symmetry_int_tables_number       1

loop_
  _symmetry_equiv_pos_as_xyz
  'x, y, z'

loop_
  _atom_site_label
  _atom_site_occupancy
  _atom_site_fract_x
  _atom_site_fract_y
  _atom_site_fract_z
  _atom_site_thermal_displace_type
  _atom_site_B_iso_or_equiv
  _atom_site_type_symbol
  C1       1.0000 0.83249  0.80041  0.18121  Biso   1.000  C
  C2       1.0000 0.80580  0.83608  0.14420  Biso   1.000  C
  H1       1.0000 0.82249  0.78850  0.26488  Biso   1.000  H
  H2       1.0000 0.87538  0.82378  0.17272  Biso   1.000  H
  H3       1.0000 0.81722  0.76521  0.13061  Biso   1.000  H
  H4       1.0000 0.87540  0.82382  0.17272  Biso   1.000  H
  N1       1.0000 0.77129  0.84781  0.20499  Biso   1.000  N
  C3       1.0000 0.82131  0.86320  0.02414  Biso   1.000  C
  C4       1.0000 0.75342  0.82550  0.32809  Biso   1.000  C
  C5       1.0000 0.81389  0.91039  0.99428  Biso   1.000  C
  C6       1.0000 0.84773  0.84402  0.93510  Biso   1.000  C
  C7       1.0000 0.84769  0.84402  0.93510  Biso   1.000  C
  C8       1.0000 0.68649  0.79048  0.33587  Biso   1.000  C
  H5       1.0000 0.77022  0.79992  0.35071  Biso   1.000  H
  C9       1.0000 0.77799  0.87908  0.40980  Biso   1.000  C
  C10      1.0000 0.77801  0.87912  0.40980  Biso   1.000  C
  H6       1.0000 0.79610  0.92371  0.05087  Biso   1.000  H
  C11      1.0000 0.83141  0.93901  0.88468  Biso   1.000  C
  C12      1.0000 0.86290  0.87092  0.82567  Biso   1.000  C
  H7       1.0000 0.85460  0.81240  0.95244  Biso   1.000  H
  C13      1.0000 0.66670  0.77152  0.46478  Biso   1.000  C
  H8       1.0000 0.67129  0.75520  0.28419  Biso   1.000  H
  H9       1.0000 0.67010  0.81500  0.30681  Biso   1.000  H
  C14      1.0000 0.75809  0.86188  0.53826  Biso   1.000  C
  C15      1.0000 0.75811  0.86192  0.53826  Biso   1.000  C
  N2       1.0000 0.84231  0.90818  0.40443  Biso   1.000  N
  H10      1.0000 0.76490  0.90682  0.38056  Biso   1.000  H
  C16      1.0000 0.85490  0.91771  0.79877  Biso   1.000  C
  C17      1.0000 0.82190  0.98950  0.85527  Biso   1.000  C
  C18      1.0000 0.89200  0.85152  0.73333  Biso   1.000  C
  H11      1.0000 0.62322  0.74912  0.46826  Biso   1.000  H
  H12      1.0000 0.68160  0.74541  0.49240  Biso   1.000  H
  C19      1.0000 0.68949  0.82391  0.54488  Biso   1.000  C
  H13      1.0000 0.77179  0.89791  0.58743  Biso   1.000  H
  H14      1.0000 0.77567  0.83908  0.57116  Biso   1.000  H
  H15      1.0000 0.77570  0.83912  0.57116  Biso   1.000  H
  H16      1.0000 0.77182  0.89791  0.58743  Biso   1.000  H
  H17      1.0000 0.77571  0.83908  0.57116  Biso   1.000  H
  C20      1.0000 0.87433  0.95802  0.36027  Biso   1.000  C
  C21      1.0000 0.87429  0.95802  0.36027  Biso   1.000  C
  H18      1.0000 0.86527  0.93548  0.72197  Biso   1.000  H
  H19      1.0000 0.86531  0.93548  0.72197  Biso   1.000  H
  N3       1.0000 0.82281  0.00278  0.74316  Biso   1.000  N
  C22      1.0000 0.81922  0.02531  0.95718  Biso   1.000  C
  N4       1.0000 0.82279  0.00282  0.74316  Biso   1.000  N
  N5       1.0000 0.82283  0.00282  0.74316  Biso   1.000  N
  N6       1.0000 0.87561  0.79498  0.73610  Biso   1.000  N
  C23      1.0000 0.93300  0.89641  0.64760  Biso   1.000  C
  H20      1.0000 0.67741  0.81059  0.62829  Biso   1.000  H
  H21      1.0000 0.67201  0.84830  0.52128  Biso   1.000  H
  C24      1.0000 0.93978  0.98108  0.35741  Biso   1.000  C
  C25      1.0000 0.85329  0.99890  0.31003  Biso   1.000  C
  C26      1.0000 0.93981  0.98113  0.35741  Biso   1.000  C
  C27      1.0000 0.81421  0.05058  0.70812  Biso   1.000  C
  C28      1.0000 0.81419  0.05063  0.70812  Biso   1.000  C
  C29      1.0000 0.81423  0.05063  0.70812  Biso   1.000  C
  H22      1.0000 0.84937  0.06668  0.94627  Biso   1.000  H
  H23      1.0000 0.78018  0.02178  0.95941  Biso   1.000  H
  H24      1.0000 0.84939  0.06672  0.94627  Biso   1.000  H
  H25      1.0000 0.84941  0.06668  0.94627  Biso   1.000  H
  H26      1.0000 0.82632  0.01072  0.03254  Biso   1.000  H
  C30      1.0000 0.90180  0.77090  0.65010  Biso   1.000  C
  H27      1.0000 0.95792  0.88261  0.61067  Biso   1.000  H
  H28      1.0000 0.95781  0.93350  0.68979  Biso   1.000  H
  H29      1.0000 0.91042  0.90272  0.58537  Biso   1.000  H
  C31      1.0000 0.96020  0.93972  0.35634  Biso   1.000  C
  C32      1.0000 0.97950  0.03982  0.35634  Biso   1.000  C
  H30      1.0000 0.82232  0.97751  0.25049  Biso   1.000  H
  H31      1.0000 0.88652  0.03312  0.27222  Biso   1.000  H
  H32      1.0000 0.83769  0.01208  0.37511  Biso   1.000  H
  C33      1.0000 0.86911  0.09821  0.65010  Biso   1.000  C
  H33      1.0000 0.80480  0.06690  0.78008  Biso   1.000  H
  C34      1.0000 0.76199  0.02681  0.61908  Biso   1.000  C
  C35      1.0000 0.94939  0.76358  0.70812  Biso   1.000  C
  H34      1.0000 0.91982  0.79961  0.58269  Biso   1.000  H
  C36      1.0000 0.85141  0.71291  0.59950  Biso   1.000  C
  H35      1.0000 0.93250  0.89861  0.35482  Biso   1.000  H
  C37      1.0000 0.01891  0.95868  0.35741  Biso   1.000  C
  C38      1.0000 0.01893  0.95872  0.35741  Biso   1.000  C
  H36      1.0000 0.96612  0.06752  0.35482  Biso   1.000  H
  C39      1.0000 0.04129  0.06020  0.35741  Biso   1.000  C
  N7       1.0000 0.91940  0.12440  0.73610  Biso   1.000  N
  H37      1.0000 0.87982  0.08022  0.58269  Biso   1.000  H
  C40      1.0000 0.86151  0.14861  0.59950  Biso   1.000  C
  H38      1.0000 0.72540  0.99771  0.66020  Biso   1.000  H
  H39      1.0000 0.76931  0.00639  0.55239  Biso   1.000  H
  C41      1.0000 0.75389  0.07598  0.56955  Biso   1.000  C
  H40      1.0000 0.76928  0.00639  0.55239  Biso   1.000  H
  N8       1.0000 0.99718  0.81999  0.74316  Biso   1.000  N
  H41      1.0000 0.93312  0.73792  0.78008  Biso   1.000  H
  C42      1.0000 0.97319  0.73518  0.61908  Biso   1.000  C
  H42      1.0000 0.83059  0.68539  0.66610  Biso   1.000  H
  H43      1.0000 0.82279  0.72089  0.55775  Biso   1.000  H
  C43      1.0000 0.87430  0.68451  0.51332  Biso   1.000  C
  C44      1.0000 0.04202  0.91630  0.36027  Biso   1.000  C
  C45      1.0000 0.04198  0.91630  0.36027  Biso   1.000  C
  C46      1.0000 0.06032  0.02051  0.35634  Biso   1.000  C
  C47      1.0000 0.06028  0.02051  0.35634  Biso   1.000  C
  C48      1.0000 0.08369  0.12568  0.36027  Biso   1.000  C
  C49      1.0000 0.95951  0.10800  0.73333  Biso   1.000  C
  H44      1.0000 0.85478  0.16939  0.66610  Biso   1.000  H
  H45      1.0000 0.89810  0.17719  0.55775  Biso   1.000  H
  C50      1.0000 0.81021  0.12568  0.51332  Biso   1.000  C
  H46      1.0000 0.74092  0.09252  0.63472  Biso   1.000  H
  H47      1.0000 0.72227  0.05958  0.50831  Biso   1.000  H
  H48      1.0000 0.72229  0.05962  0.50831  Biso   1.000  H
  C51      1.0000 0.01048  0.83238  0.85527  Biso   1.000  C
  C52      1.0000 0.01051  0.83242  0.85527  Biso   1.000  C
  H49      1.0000 0.99361  0.76288  0.55239  Biso   1.000  H
  C53      1.0000 0.92400  0.67790  0.56955  Biso   1.000  C
  H50      1.0000 0.99359  0.76292  0.55239  Biso   1.000  H
  H51      1.0000 0.99363  0.76292  0.55239  Biso   1.000  H
  H52      1.0000 0.00229  0.72769  0.66020  Biso   1.000  H
  H53      1.0000 0.88921  0.70899  0.44019  Biso   1.000  H
  H54      1.0000 0.84171  0.64522  0.48981  Biso   1.000  H
  N9       1.0000 0.09179  0.93411  0.40443  Biso   1.000  N
  C54      1.0000 0.00109  0.85438  0.31003  Biso   1.000  C
  N10      1.0000 0.09183  0.93411  0.40443  Biso   1.000  N
  H55      1.0000 0.10140  0.03391  0.35482  Biso   1.000  H
  N11      1.0000 0.06590  0.15770  0.40443  Biso   1.000  N
  C55      1.0000 0.14562  0.14672  0.31003  Biso   1.000  C
  C56      1.0000 0.96337  0.06699  0.64760  Biso   1.000  C
  C57      1.0000 0.96341  0.06699  0.64760  Biso   1.000  C
  C58      1.0000 0.00802  0.13710  0.82567  Biso   1.000  C
  H56      1.0000 0.81981  0.11082  0.44019  Biso   1.000  H
  H57      1.0000 0.80349  0.15832  0.48981  Biso   1.000  H
  C59      1.0000 0.97470  0.79388  0.95718  Biso   1.000  C
  C60      1.0000 0.97472  0.79392  0.95718  Biso   1.000  C
  C61      1.0000 0.06100  0.89240  0.88468  Biso   1.000  C
  H58      1.0000 0.90749  0.64839  0.63472  Biso   1.000  H
  H59      1.0000 0.94038  0.66268  0.50831  Biso   1.000  H
  C62      1.0000 0.12088  0.89888  0.40980  Biso   1.000  C
  C63      1.0000 0.12090  0.89892  0.40980  Biso   1.000  C
  H60      1.0000 0.96692  0.85341  0.27222  Biso   1.000  H
  H61      1.0000 0.98788  0.82559  0.37511  Biso   1.000  H
  H62      1.0000 0.98792  0.82559  0.37511  Biso   1.000  H
  H63      1.0000 0.02251  0.84481  0.25049  Biso   1.000  H
  C64      1.0000 0.10111  0.22200  0.40980  Biso   1.000  C
  H64      1.0000 0.14662  0.11351  0.27222  Biso   1.000  H
  H65      1.0000 0.17441  0.16229  0.37511  Biso   1.000  H
  H66      1.0000 0.15520  0.17772  0.25049  Biso   1.000  H
  H67      1.0000 0.92470  0.04211  0.61067  Biso   1.000  H
  H68      1.0000 0.97569  0.04220  0.68979  Biso   1.000  H
  H69      1.0000 0.99229  0.08961  0.58537  Biso   1.000  H
  C65      1.0000 0.99630  0.15232  0.93510  Biso   1.000  C
  C66      1.0000 0.06280  0.14509  0.79877  Biso   1.000  C
  H70      1.0000 0.98931  0.81562  0.03254  Biso   1.000  H
  H71      1.0000 0.93327  0.78268  0.94627  Biso   1.000  H
  H72      1.0000 0.97818  0.75838  0.95941  Biso   1.000  H
  H73      1.0000 0.93329  0.78272  0.94627  Biso   1.000  H
  H74      1.0000 0.97820  0.75842  0.95941  Biso   1.000  H
  H75      1.0000 0.93331  0.78268  0.94627  Biso   1.000  H
  C67      1.0000 0.08959  0.90351  0.99428  Biso   1.000  C
  C68      1.0000 0.08230  0.93720  0.79877  Biso   1.000  C
  C69      1.0000 0.08963  0.90351  0.99428  Biso   1.000  C
  C70      1.0000 0.17450  0.92790  0.32809  Biso   1.000  C
  C71      1.0000 0.13810  0.89619  0.53826  Biso   1.000  C
  H76      1.0000 0.09319  0.85809  0.38056  Biso   1.000  H
  C72      1.0000 0.07209  0.24660  0.32809  Biso   1.000  C
  C73      1.0000 0.10379  0.24189  0.53826  Biso   1.000  C
  H77      1.0000 0.14191  0.23509  0.38056  Biso   1.000  H
  C74      1.0000 0.04191  0.17869  0.02414  Biso   1.000  C
  H78      1.0000 0.95778  0.14540  0.95244  Biso   1.000  H
  H79      1.0000 0.95782  0.14540  0.95244  Biso   1.000  H
  C75      1.0000 0.10759  0.16859  0.88468  Biso   1.000  C
  H80      1.0000 0.07020  0.13468  0.72197  Biso   1.000  H
  H81      1.0000 0.07023  0.13472  0.72197  Biso   1.000  H
  C76      1.0000 0.13682  0.95811  0.02414  Biso   1.000  C
  C77      1.0000 0.13678  0.95811  0.02414  Biso   1.000  C
  H82      1.0000 0.07630  0.87242  0.05087  Biso   1.000  H
  H83      1.0000 0.06450  0.92979  0.72197  Biso   1.000  H
  C78      1.0000 0.12911  0.99202  0.82567  Biso   1.000  C
  N12      1.0000 0.15220  0.92349  0.20499  Biso   1.000  N
  H84      1.0000 0.20010  0.97032  0.35071  Biso   1.000  H
  C79      1.0000 0.20950  0.89601  0.33587  Biso   1.000  C
  C80      1.0000 0.17611  0.86558  0.54488  Biso   1.000  C
  H85      1.0000 0.10210  0.87392  0.58743  Biso   1.000  H
  H86      1.0000 0.16089  0.93658  0.57116  Biso   1.000  H
  N13      1.0000 0.07650  0.22870  0.20499  Biso   1.000  N
  H87      1.0000 0.02970  0.22980  0.35071  Biso   1.000  H
  C81      1.0000 0.10401  0.31350  0.33587  Biso   1.000  C
  C82      1.0000 0.13440  0.31050  0.54488  Biso   1.000  C
  H88      1.0000 0.12610  0.22821  0.58743  Biso   1.000  H
  H89      1.0000 0.06341  0.22429  0.57116  Biso   1.000  H
  H90      1.0000 0.06337  0.22429  0.57116  Biso   1.000  H
  C83      1.0000 0.03031  0.19421  0.14420  Biso   1.000  C
  C84      1.0000 0.09649  0.18610  0.99428  Biso   1.000  C
  C85      1.0000 0.16762  0.17812  0.85527  Biso   1.000  C
  C86      1.0000 0.16389  0.96970  0.14420  Biso   1.000  C
  C87      1.0000 0.15599  0.00370  0.93510  Biso   1.000  C
  C88      1.0000 0.14849  0.04048  0.73333  Biso   1.000  C
  H91      1.0000 0.24478  0.91608  0.28419  Biso   1.000  H
  H92      1.0000 0.18499  0.85509  0.30681  Biso   1.000  H
  C89      1.0000 0.22851  0.89522  0.46478  Biso   1.000  C
  H93      1.0000 0.24480  0.91612  0.28419  Biso   1.000  H
  H94      1.0000 0.18941  0.86682  0.62829  Biso   1.000  H
  H95      1.0000 0.15169  0.82369  0.52128  Biso   1.000  H
  H96      1.0000 0.08389  0.32872  0.28419  Biso   1.000  H
  H97      1.0000 0.14490  0.32991  0.30681  Biso   1.000  H
  C90      1.0000 0.10482  0.33330  0.46478  Biso   1.000  C
  C91      1.0000 0.10478  0.33330  0.46478  Biso   1.000  C
  H98      1.0000 0.08393  0.32872  0.28419  Biso   1.000  H
  H99      1.0000 0.13318  0.32259  0.62829  Biso   1.000  H
  H100     1.0000 0.17630  0.32801  0.52128  Biso   1.000  H
  C92      1.0000 0.96791  0.16749  0.18121  Biso   1.000  C
  H101     1.0000 0.12762  0.20392  0.05087  Biso   1.000  H
  N14      1.0000 0.17999  0.17719  0.74316  Biso   1.000  N
  C93      1.0000 0.20612  0.18081  0.95718  Biso   1.000  C
  C94      1.0000 0.20609  0.18081  0.95718  Biso   1.000  C
  C95      1.0000 0.19960  0.03210  0.18121  Biso   1.000  C
  H102     1.0000 0.18762  0.04220  0.95244  Biso   1.000  H
  N15      1.0000 0.20503  0.08061  0.73610  Biso   1.000  N
  C96      1.0000 0.10362  0.03660  0.64760  Biso   1.000  C
  N16      1.0000 0.20499  0.08061  0.73610  Biso   1.000  N
  C97      1.0000 0.10358  0.03660  0.64760  Biso   1.000  C
  H103     1.0000 0.25090  0.87410  0.46826  Biso   1.000  H
  H104     1.0000 0.25460  0.93619  0.49240  Biso   1.000  H
  H105     1.0000 0.12587  0.37679  0.46826  Biso   1.000  H
  H106     1.0000 0.06380  0.31840  0.49240  Biso   1.000  H
  H107     1.0000 0.12591  0.37679  0.46826  Biso   1.000  H
  H108     1.0000 0.96600  0.17750  0.26488  Biso   1.000  H
  H109     1.0000 0.94840  0.12458  0.17272  Biso   1.000  H
  H110     1.0000 0.94799  0.18279  0.13061  Biso   1.000  H
  H111     1.0000 0.94843  0.12462  0.17272  Biso   1.000  H
  C98      1.0000 0.23638  0.18579  0.70812  Biso   1.000  C
  C99      1.0000 0.23642  0.18579  0.70812  Biso   1.000  C
  H112     1.0000 0.21729  0.15060  0.94627  Biso   1.000  H
  H113     1.0000 0.24158  0.21979  0.95941  Biso   1.000  H
  H114     1.0000 0.24162  0.21979  0.95941  Biso   1.000  H
  H115     1.0000 0.18439  0.17371  0.03254  Biso   1.000  H
  H116     1.0000 0.21151  0.03400  0.26488  Biso   1.000  H
  H117     1.0000 0.17620  0.05160  0.17272  Biso   1.000  H
  H118     1.0000 0.23479  0.05199  0.13061  Biso   1.000  H
  C100     1.0000 0.22909  0.13089  0.65010  Biso   1.000  C
  H119     1.0000 0.11740  0.07532  0.61067  Biso   1.000  H
  H120     1.0000 0.06650  0.02430  0.68979  Biso   1.000  H
  H121     1.0000 0.09731  0.00772  0.58537  Biso   1.000  H
  H122     1.0000 0.26208  0.19518  0.78008  Biso   1.000  H
  C101     1.0000 0.26482  0.23800  0.61908  Biso   1.000  C
  H123     1.0000 0.20042  0.12021  0.58269  Biso   1.000  H
  C102     1.0000 0.28710  0.13852  0.59950  Biso   1.000  C
  H124     1.0000 0.23710  0.23068  0.55239  Biso   1.000  H
  H125     1.0000 0.27231  0.27461  0.66020  Biso   1.000  H
  C103     1.0000 0.32211  0.24612  0.56955  Biso   1.000  C
  H126     1.0000 0.31463  0.14522  0.66610  Biso   1.000  H
  H127     1.0000 0.27911  0.10191  0.55775  Biso   1.000  H
  C104     1.0000 0.31549  0.18980  0.51332  Biso   1.000  C
  H128     1.0000 0.35159  0.25908  0.63472  Biso   1.000  H
  H129     1.0000 0.33729  0.27769  0.50831  Biso   1.000  H
  H130     1.0000 0.29098  0.18019  0.44019  Biso   1.000  H
  H131     1.0000 0.35482  0.19651  0.48981  Biso   1.000  H
  H132     1.0000 0.35478  0.19651  0.48981  Biso   1.000  H
  C105     1.0000 0.83249  0.80041  0.18121  Biso   1.000  C
  C106     1.0000 0.80580  0.83608  0.14420  Biso   1.000  C
  H133     1.0000 0.82249  0.78850  0.26488  Biso   1.000  H
  H134     1.0000 0.81722  0.76521  0.13061  Biso   1.000  H
  H135     1.0000 0.87538  0.82378  0.17272  Biso   1.000  H
  H136     1.0000 0.87540  0.82382  0.17272  Biso   1.000  H
  N17      1.0000 0.77129  0.84781  0.20499  Biso   1.000  N
  C107     1.0000 0.82131  0.86320  0.02414  Biso   1.000  C
  C108     1.0000 0.75342  0.82550  0.32809  Biso   1.000  C
  C109     1.0000 0.81389  0.91039  0.99428  Biso   1.000  C
  C110     1.0000 0.84773  0.84402  0.93510  Biso   1.000  C
  C111     1.0000 0.84769  0.84402  0.93510  Biso   1.000  C
  C112     1.0000 0.68649  0.79048  0.33587  Biso   1.000  C
  H137     1.0000 0.77022  0.79992  0.35071  Biso   1.000  H
  C113     1.0000 0.77799  0.87908  0.40980  Biso   1.000  C
  C114     1.0000 0.77801  0.87912  0.40980  Biso   1.000  C
  H138     1.0000 0.79610  0.92371  0.05087  Biso   1.000  H
  C115     1.0000 0.83141  0.93901  0.88468  Biso   1.000  C
  C116     1.0000 0.86290  0.87092  0.82567  Biso   1.000  C
  H139     1.0000 0.85460  0.81240  0.95244  Biso   1.000  H
  C117     1.0000 0.66670  0.77152  0.46478  Biso   1.000  C
  H140     1.0000 0.67129  0.75520  0.28419  Biso   1.000  H
  H141     1.0000 0.67010  0.81500  0.30681  Biso   1.000  H
  C118     1.0000 0.75809  0.86188  0.53826  Biso   1.000  C
  C119     1.0000 0.75811  0.86192  0.53826  Biso   1.000  C
  N18      1.0000 0.84231  0.90818  0.40443  Biso   1.000  N
  H142     1.0000 0.76490  0.90682  0.38056  Biso   1.000  H
  C120     1.0000 0.85490  0.91771  0.79877  Biso   1.000  C
  C121     1.0000 0.82190  0.98950  0.85527  Biso   1.000  C
  C122     1.0000 0.89200  0.85152  0.73333  Biso   1.000  C
  H143     1.0000 0.62322  0.74912  0.46826  Biso   1.000  H
  H144     1.0000 0.68160  0.74541  0.49240  Biso   1.000  H
  C123     1.0000 0.68949  0.82391  0.54488  Biso   1.000  C
  H145     1.0000 0.77179  0.89791  0.58743  Biso   1.000  H
  H146     1.0000 0.77182  0.89791  0.58743  Biso   1.000  H
  H147     1.0000 0.77570  0.83912  0.57116  Biso   1.000  H
  H148     1.0000 0.77567  0.83908  0.57116  Biso   1.000  H
  H149     1.0000 0.77571  0.83908  0.57116  Biso   1.000  H
  C124     1.0000 0.87433  0.95802  0.36027  Biso   1.000  C
  C125     1.0000 0.87429  0.95802  0.36027  Biso   1.000  C
  H150     1.0000 0.86527  0.93548  0.72197  Biso   1.000  H
  H151     1.0000 0.86531  0.93548  0.72197  Biso   1.000  H
  N19      1.0000 0.82281  0.00278  0.74316  Biso   1.000  N
  C126     1.0000 0.81922  0.02531  0.95718  Biso   1.000  C
  N20      1.0000 0.82279  0.00282  0.74316  Biso   1.000  N
  N21      1.0000 0.82283  0.00282  0.74316  Biso   1.000  N
  N22      1.0000 0.87561  0.79498  0.73610  Biso   1.000  N
  C127     1.0000 0.93300  0.89641  0.64760  Biso   1.000  C
  H152     1.0000 0.67741  0.81059  0.62829  Biso   1.000  H
  H153     1.0000 0.67201  0.84830  0.52128  Biso   1.000  H
  C128     1.0000 0.85329  0.99890  0.31003  Biso   1.000  C
  C129     1.0000 0.93978  0.98108  0.35741  Biso   1.000  C
  C130     1.0000 0.93981  0.98113  0.35741  Biso   1.000  C
  C131     1.0000 0.81421  0.05058  0.70812  Biso   1.000  C
  C132     1.0000 0.81419  0.05063  0.70812  Biso   1.000  C
  C133     1.0000 0.81423  0.05063  0.70812  Biso   1.000  C
  H154     1.0000 0.84937  0.06668  0.94627  Biso   1.000  H
  H155     1.0000 0.78018  0.02178  0.95941  Biso   1.000  H
  H156     1.0000 0.84939  0.06672  0.94627  Biso   1.000  H
  H157     1.0000 0.84941  0.06668  0.94627  Biso   1.000  H
  H158     1.0000 0.82632  0.01072  0.03254  Biso   1.000  H
  C134     1.0000 0.90180  0.77090  0.65010  Biso   1.000  C
  H159     1.0000 0.95792  0.88261  0.61067  Biso   1.000  H
  H160     1.0000 0.95781  0.93350  0.68979  Biso   1.000  H
  H161     1.0000 0.91042  0.90272  0.58537  Biso   1.000  H
  H162     1.0000 0.82232  0.97751  0.25049  Biso   1.000  H
  H163     1.0000 0.88652  0.03312  0.27222  Biso   1.000  H
  H164     1.0000 0.83769  0.01208  0.37511  Biso   1.000  H
  C135     1.0000 0.96020  0.93972  0.35634  Biso   1.000  C
  C136     1.0000 0.97950  0.03982  0.35634  Biso   1.000  C
  C137     1.0000 0.86911  0.09821  0.65010  Biso   1.000  C
  H165     1.0000 0.80480  0.06690  0.78008  Biso   1.000  H
  C138     1.0000 0.76199  0.02681  0.61908  Biso   1.000  C
  C139     1.0000 0.94939  0.76358  0.70812  Biso   1.000  C
  H166     1.0000 0.91982  0.79961  0.58269  Biso   1.000  H
  C140     1.0000 0.85141  0.71291  0.59950  Biso   1.000  C
  H167     1.0000 0.93250  0.89861  0.35482  Biso   1.000  H
  C141     1.0000 0.01891  0.95868  0.35741  Biso   1.000  C
  C142     1.0000 0.01893  0.95872  0.35741  Biso   1.000  C
  H168     1.0000 0.96612  0.06752  0.35482  Biso   1.000  H
  C143     1.0000 0.04129  0.06020  0.35741  Biso   1.000  C
  N23      1.0000 0.91940  0.12440  0.73610  Biso   1.000  N
  H169     1.0000 0.87982  0.08022  0.58269  Biso   1.000  H
  C144     1.0000 0.86151  0.14861  0.59950  Biso   1.000  C
  H170     1.0000 0.72540  0.99771  0.66020  Biso   1.000  H
  H171     1.0000 0.76931  0.00639  0.55239  Biso   1.000  H
  C145     1.0000 0.75389  0.07598  0.56955  Biso   1.000  C
  H172     1.0000 0.76928  0.00639  0.55239  Biso   1.000  H
  N24      1.0000 0.99718  0.81999  0.74316  Biso   1.000  N
  H173     1.0000 0.93312  0.73792  0.78008  Biso   1.000  H
  C146     1.0000 0.97319  0.73518  0.61908  Biso   1.000  C
  H174     1.0000 0.83059  0.68539  0.66610  Biso   1.000  H
  H175     1.0000 0.82279  0.72089  0.55775  Biso   1.000  H
  C147     1.0000 0.87430  0.68451  0.51332  Biso   1.000  C
  C148     1.0000 0.04202  0.91630  0.36027  Biso   1.000  C
  C149     1.0000 0.04198  0.91630  0.36027  Biso   1.000  C
  C150     1.0000 0.06032  0.02051  0.35634  Biso   1.000  C
  C151     1.0000 0.06028  0.02051  0.35634  Biso   1.000  C
  C152     1.0000 0.08369  0.12568  0.36027  Biso   1.000  C
  C153     1.0000 0.95951  0.10800  0.73333  Biso   1.000  C
  H176     1.0000 0.85478  0.16939  0.66610  Biso   1.000  H
  H177     1.0000 0.89810  0.17719  0.55775  Biso   1.000  H
  C154     1.0000 0.81021  0.12568  0.51332  Biso   1.000  C
  H178     1.0000 0.74092  0.09252  0.63472  Biso   1.000  H
  H179     1.0000 0.72227  0.05958  0.50831  Biso   1.000  H
  H180     1.0000 0.72229  0.05962  0.50831  Biso   1.000  H
  C155     1.0000 0.01048  0.83238  0.85527  Biso   1.000  C
  C156     1.0000 0.01051  0.83242  0.85527  Biso   1.000  C
  H181     1.0000 0.99361  0.76288  0.55239  Biso   1.000  H
  C157     1.0000 0.92400  0.67790  0.56955  Biso   1.000  C
  H182     1.0000 0.99359  0.76292  0.55239  Biso   1.000  H
  H183     1.0000 0.99363  0.76292  0.55239  Biso   1.000  H
  H184     1.0000 0.00229  0.72769  0.66020  Biso   1.000  H
  H185     1.0000 0.88921  0.70899  0.44019  Biso   1.000  H
  H186     1.0000 0.84171  0.64522  0.48981  Biso   1.000  H
  N25      1.0000 0.09179  0.93411  0.40443  Biso   1.000  N
  C158     1.0000 0.00109  0.85438  0.31003  Biso   1.000  C
  N26      1.0000 0.09183  0.93411  0.40443  Biso   1.000  N
  H187     1.0000 0.10140  0.03391  0.35482  Biso   1.000  H
  N27      1.0000 0.06590  0.15770  0.40443  Biso   1.000  N
  C159     1.0000 0.14562  0.14672  0.31003  Biso   1.000  C
  C160     1.0000 0.96337  0.06699  0.64760  Biso   1.000  C
  C161     1.0000 0.96341  0.06699  0.64760  Biso   1.000  C
  C162     1.0000 0.00802  0.13710  0.82567  Biso   1.000  C
  H188     1.0000 0.81981  0.11082  0.44019  Biso   1.000  H
  H189     1.0000 0.80349  0.15832  0.48981  Biso   1.000  H
  C163     1.0000 0.97470  0.79388  0.95718  Biso   1.000  C
  C164     1.0000 0.97472  0.79392  0.95718  Biso   1.000  C
  C165     1.0000 0.06100  0.89240  0.88468  Biso   1.000  C
  H190     1.0000 0.90749  0.64839  0.63472  Biso   1.000  H
  H191     1.0000 0.94038  0.66268  0.50831  Biso   1.000  H
  C166     1.0000 0.12088  0.89888  0.40980  Biso   1.000  C
  C167     1.0000 0.12090  0.89892  0.40980  Biso   1.000  C
  H192     1.0000 0.96692  0.85341  0.27222  Biso   1.000  H
  H193     1.0000 0.98788  0.82559  0.37511  Biso   1.000  H
  H194     1.0000 0.98792  0.82559  0.37511  Biso   1.000  H
  H195     1.0000 0.02251  0.84481  0.25049  Biso   1.000  H
  C168     1.0000 0.10111  0.22200  0.40980  Biso   1.000  C
  H196     1.0000 0.14662  0.11351  0.27222  Biso   1.000  H
  H197     1.0000 0.17441  0.16229  0.37511  Biso   1.000  H
  H198     1.0000 0.15520  0.17772  0.25049  Biso   1.000  H
  H199     1.0000 0.92470  0.04211  0.61067  Biso   1.000  H
  H200     1.0000 0.97569  0.04220  0.68979  Biso   1.000  H
  H201     1.0000 0.99229  0.08961  0.58537  Biso   1.000  H
  C169     1.0000 0.99630  0.15232  0.93510  Biso   1.000  C
  C170     1.0000 0.06280  0.14509  0.79877  Biso   1.000  C
  H202     1.0000 0.98931  0.81562  0.03254  Biso   1.000  H
  H203     1.0000 0.93327  0.78268  0.94627  Biso   1.000  H
  H204     1.0000 0.97818  0.75838  0.95941  Biso   1.000  H
  H205     1.0000 0.93329  0.78272  0.94627  Biso   1.000  H
  H206     1.0000 0.97820  0.75842  0.95941  Biso   1.000  H
  H207     1.0000 0.93331  0.78268  0.94627  Biso   1.000  H
  C171     1.0000 0.08959  0.90351  0.99428  Biso   1.000  C
  C172     1.0000 0.08230  0.93720  0.79877  Biso   1.000  C
  C173     1.0000 0.08963  0.90351  0.99428  Biso   1.000  C
  C174     1.0000 0.17450  0.92790  0.32809  Biso   1.000  C
  C175     1.0000 0.13810  0.89619  0.53826  Biso   1.000  C
  H208     1.0000 0.09319  0.85809  0.38056  Biso   1.000  H
  C176     1.0000 0.07209  0.24660  0.32809  Biso   1.000  C
  C177     1.0000 0.10379  0.24189  0.53826  Biso   1.000  C
  H209     1.0000 0.14191  0.23509  0.38056  Biso   1.000  H
  C178     1.0000 0.04191  0.17869  0.02414  Biso   1.000  C
  H210     1.0000 0.95778  0.14540  0.95244  Biso   1.000  H
  H211     1.0000 0.95782  0.14540  0.95244  Biso   1.000  H
  C179     1.0000 0.10759  0.16859  0.88468  Biso   1.000  C
  H212     1.0000 0.07020  0.13468  0.72197  Biso   1.000  H
  H213     1.0000 0.07023  0.13472  0.72197  Biso   1.000  H
  C180     1.0000 0.13682  0.95811  0.02414  Biso   1.000  C
  C181     1.0000 0.13678  0.95811  0.02414  Biso   1.000  C
  H214     1.0000 0.07630  0.87242  0.05087  Biso   1.000  H
  H215     1.0000 0.06450  0.92979  0.72197  Biso   1.000  H
  C182     1.0000 0.12911  0.99202  0.82567  Biso   1.000  C
  N28      1.0000 0.15220  0.92349  0.20499  Biso   1.000  N
  H216     1.0000 0.20010  0.97032  0.35071  Biso   1.000  H
  C183     1.0000 0.20950  0.89601  0.33587  Biso   1.000  C
  C184     1.0000 0.17611  0.86558  0.54488  Biso   1.000  C
  H217     1.0000 0.10210  0.87392  0.58743  Biso   1.000  H
  H218     1.0000 0.16089  0.93658  0.57116  Biso   1.000  H
  N29      1.0000 0.07650  0.22870  0.20499  Biso   1.000  N
  H219     1.0000 0.02970  0.22980  0.35071  Biso   1.000  H
  C185     1.0000 0.10401  0.31350  0.33587  Biso   1.000  C
  C186     1.0000 0.13440  0.31050  0.54488  Biso   1.000  C
  H220     1.0000 0.12610  0.22821  0.58743  Biso   1.000  H
  H221     1.0000 0.06341  0.22429  0.57116  Biso   1.000  H
  H222     1.0000 0.06337  0.22429  0.57116  Biso   1.000  H
  C187     1.0000 0.03031  0.19421  0.14420  Biso   1.000  C
  C188     1.0000 0.09649  0.18610  0.99428  Biso   1.000  C
  C189     1.0000 0.16762  0.17812  0.85527  Biso   1.000  C
  C190     1.0000 0.16389  0.96970  0.14420  Biso   1.000  C
  C191     1.0000 0.15599  0.00370  0.93510  Biso   1.000  C
  C192     1.0000 0.14849  0.04048  0.73333  Biso   1.000  C
  H223     1.0000 0.24478  0.91608  0.28419  Biso   1.000  H
  H224     1.0000 0.18499  0.85509  0.30681  Biso   1.000  H
  C193     1.0000 0.22851  0.89522  0.46478  Biso   1.000  C
  H225     1.0000 0.24480  0.91612  0.28419  Biso   1.000  H
  H226     1.0000 0.18941  0.86682  0.62829  Biso   1.000  H
  H227     1.0000 0.15169  0.82369  0.52128  Biso   1.000  H
  H228     1.0000 0.08389  0.32872  0.28419  Biso   1.000  H
  H229     1.0000 0.14490  0.32991  0.30681  Biso   1.000  H
  C194     1.0000 0.10482  0.33330  0.46478  Biso   1.000  C
  C195     1.0000 0.10478  0.33330  0.46478  Biso   1.000  C
  H230     1.0000 0.08393  0.32872  0.28419  Biso   1.000  H
  H231     1.0000 0.13318  0.32259  0.62829  Biso   1.000  H
  H232     1.0000 0.17630  0.32801  0.52128  Biso   1.000  H
  C196     1.0000 0.96791  0.16749  0.18121  Biso   1.000  C
  H233     1.0000 0.12762  0.20392  0.05087  Biso   1.000  H
  N30      1.0000 0.17999  0.17719  0.74316  Biso   1.000  N
  C197     1.0000 0.20612  0.18081  0.95718  Biso   1.000  C
  C198     1.0000 0.20609  0.18081  0.95718  Biso   1.000  C
  C199     1.0000 0.19960  0.03210  0.18121  Biso   1.000  C
  H234     1.0000 0.18762  0.04220  0.95244  Biso   1.000  H
  N31      1.0000 0.20503  0.08061  0.73610  Biso   1.000  N
  C200     1.0000 0.10362  0.03660  0.64760  Biso   1.000  C
  N32      1.0000 0.20499  0.08061  0.73610  Biso   1.000  N
  C201     1.0000 0.10358  0.03660  0.64760  Biso   1.000  C
  H235     1.0000 0.25090  0.87410  0.46826  Biso   1.000  H
  H236     1.0000 0.25460  0.93619  0.49240  Biso   1.000  H
  H237     1.0000 0.12587  0.37679  0.46826  Biso   1.000  H
  H238     1.0000 0.06380  0.31840  0.49240  Biso   1.000  H
  H239     1.0000 0.12591  0.37679  0.46826  Biso   1.000  H
  H240     1.0000 0.96600  0.17750  0.26488  Biso   1.000  H
  H241     1.0000 0.94840  0.12458  0.17272  Biso   1.000  H
  H242     1.0000 0.94799  0.18279  0.13061  Biso   1.000  H
  H243     1.0000 0.94843  0.12462  0.17272  Biso   1.000  H
  C202     1.0000 0.23638  0.18579  0.70812  Biso   1.000  C
  C203     1.0000 0.23642  0.18579  0.70812  Biso   1.000  C
  H244     1.0000 0.21729  0.15060  0.94627  Biso   1.000  H
  H245     1.0000 0.24158  0.21979  0.95941  Biso   1.000  H
  H246     1.0000 0.24162  0.21979  0.95941  Biso   1.000  H
  H247     1.0000 0.18439  0.17371  0.03254  Biso   1.000  H
  H248     1.0000 0.21151  0.03400  0.26488  Biso   1.000  H
  H249     1.0000 0.17620  0.05160  0.17272  Biso   1.000  H
  H250     1.0000 0.23479  0.05199  0.13061  Biso   1.000  H
  C204     1.0000 0.22909  0.13089  0.65010  Biso   1.000  C
  H251     1.0000 0.11740  0.07532  0.61067  Biso   1.000  H
  H252     1.0000 0.06650  0.02430  0.68979  Biso   1.000  H
  H253     1.0000 0.09731  0.00772  0.58537  Biso   1.000  H
  H254     1.0000 0.26208  0.19518  0.78008  Biso   1.000  H
  C205     1.0000 0.26482  0.23800  0.61908  Biso   1.000  C
  H255     1.0000 0.20042  0.12021  0.58269  Biso   1.000  H
  C206     1.0000 0.28710  0.13852  0.59950  Biso   1.000  C
  H256     1.0000 0.23710  0.23068  0.55239  Biso   1.000  H
  H257     1.0000 0.27231  0.27461  0.66020  Biso   1.000  H
  C207     1.0000 0.32211  0.24612  0.56955  Biso   1.000  C
  H258     1.0000 0.31463  0.14522  0.66610  Biso   1.000  H
  H259     1.0000 0.27911  0.10191  0.55775  Biso   1.000  H
  C208     1.0000 0.31549  0.18980  0.51332  Biso   1.000  C
  H260     1.0000 0.35159  0.25908  0.63472  Biso   1.000  H
  H261     1.0000 0.33729  0.27769  0.50831  Biso   1.000  H
  H262     1.0000 0.29098  0.18019  0.44019  Biso   1.000  H
  H263     1.0000 0.35482  0.19651  0.48981  Biso   1.000  H
  H264     1.0000 0.35478  0.19651  0.48981  Biso   1.000  H
  C209     1.0000 0.83249  0.80041  0.18121  Biso   1.000  C
  C210     1.0000 0.80580  0.83608  0.14420  Biso   1.000  C
  H265     1.0000 0.82249  0.78850  0.26488  Biso   1.000  H
  H266     1.0000 0.81722  0.76521  0.13061  Biso   1.000  H
  H267     1.0000 0.87538  0.82378  0.17272  Biso   1.000  H
  H268     1.0000 0.87540  0.82382  0.17272  Biso   1.000  H
  N33      1.0000 0.77129  0.84781  0.20499  Biso   1.000  N
  C211     1.0000 0.82131  0.86320  0.02414  Biso   1.000  C
  C212     1.0000 0.75342  0.82550  0.32809  Biso   1.000  C
  C213     1.0000 0.81389  0.91039  0.99428  Biso   1.000  C
  C214     1.0000 0.84773  0.84402  0.93510  Biso   1.000  C
  C215     1.0000 0.84769  0.84402  0.93510  Biso   1.000  C
  C216     1.0000 0.68649  0.79048  0.33587  Biso   1.000  C
  H269     1.0000 0.77022  0.79992  0.35071  Biso   1.000  H
  C217     1.0000 0.77799  0.87908  0.40980  Biso   1.000  C
  C218     1.0000 0.77801  0.87912  0.40980  Biso   1.000  C
  H270     1.0000 0.79610  0.92371  0.05087  Biso   1.000  H
  C219     1.0000 0.83141  0.93901  0.88468  Biso   1.000  C
  C220     1.0000 0.86290  0.87092  0.82567  Biso   1.000  C
  H271     1.0000 0.85460  0.81240  0.95244  Biso   1.000  H
  C221     1.0000 0.66670  0.77152  0.46478  Biso   1.000  C
  H272     1.0000 0.67129  0.75520  0.28419  Biso   1.000  H
  H273     1.0000 0.67010  0.81500  0.30681  Biso   1.000  H
  C222     1.0000 0.75809  0.86188  0.53826  Biso   1.000  C
  C223     1.0000 0.75811  0.86192  0.53826  Biso   1.000  C
  N34      1.0000 0.84231  0.90818  0.40443  Biso   1.000  N
  H274     1.0000 0.76490  0.90682  0.38056  Biso   1.000  H
  C224     1.0000 0.85490  0.91771  0.79877  Biso   1.000  C
  C225     1.0000 0.82190  0.98950  0.85527  Biso   1.000  C
  C226     1.0000 0.89200  0.85152  0.73333  Biso   1.000  C
  H275     1.0000 0.62322  0.74912  0.46826  Biso   1.000  H
  H276     1.0000 0.68160  0.74541  0.49240  Biso   1.000  H
  C227     1.0000 0.68949  0.82391  0.54488  Biso   1.000  C
  H277     1.0000 0.77179  0.89791  0.58743  Biso   1.000  H
  H278     1.0000 0.77567  0.83908  0.57116  Biso   1.000  H
  H279     1.0000 0.77570  0.83912  0.57116  Biso   1.000  H
  H280     1.0000 0.77182  0.89791  0.58743  Biso   1.000  H
  H281     1.0000 0.77571  0.83908  0.57116  Biso   1.000  H
  C228     1.0000 0.87433  0.95802  0.36027  Biso   1.000  C
  C229     1.0000 0.87429  0.95802  0.36027  Biso   1.000  C
  H282     1.0000 0.86527  0.93548  0.72197  Biso   1.000  H
  H283     1.0000 0.86531  0.93548  0.72197  Biso   1.000  H
  N35      1.0000 0.82281  0.00278  0.74316  Biso   1.000  N
  C230     1.0000 0.81922  0.02531  0.95718  Biso   1.000  C
  N36      1.0000 0.82279  0.00282  0.74316  Biso   1.000  N
  N37      1.0000 0.82283  0.00282  0.74316  Biso   1.000  N
  N38      1.0000 0.87561  0.79498  0.73610  Biso   1.000  N
  C231     1.0000 0.93300  0.89641  0.64760  Biso   1.000  C
  H284     1.0000 0.67741  0.81059  0.62829  Biso   1.000  H
  H285     1.0000 0.67201  0.84830  0.52128  Biso   1.000  H
  C232     1.0000 0.85329  0.99890  0.31003  Biso   1.000  C
  C233     1.0000 0.93978  0.98108  0.35741  Biso   1.000  C
  C234     1.0000 0.93981  0.98113  0.35741  Biso   1.000  C
  C235     1.0000 0.81421  0.05058  0.70812  Biso   1.000  C
  C236     1.0000 0.81419  0.05063  0.70812  Biso   1.000  C
  C237     1.0000 0.81423  0.05063  0.70812  Biso   1.000  C
  H286     1.0000 0.84937  0.06668  0.94627  Biso   1.000  H
  H287     1.0000 0.78018  0.02178  0.95941  Biso   1.000  H
  H288     1.0000 0.84939  0.06672  0.94627  Biso   1.000  H
  H289     1.0000 0.84941  0.06668  0.94627  Biso   1.000  H
  H290     1.0000 0.82632  0.01072  0.03254  Biso   1.000  H
  C238     1.0000 0.90180  0.77090  0.65010  Biso   1.000  C
  H291     1.0000 0.95792  0.88261  0.61067  Biso   1.000  H
  H292     1.0000 0.95781  0.93350  0.68979  Biso   1.000  H
  H293     1.0000 0.91042  0.90272  0.58537  Biso   1.000  H
  H294     1.0000 0.82232  0.97751  0.25049  Biso   1.000  H
  H295     1.0000 0.88652  0.03312  0.27222  Biso   1.000  H
  H296     1.0000 0.83769  0.01208  0.37511  Biso   1.000  H
  C239     1.0000 0.96020  0.93972  0.35634  Biso   1.000  C
  C240     1.0000 0.97950  0.03982  0.35634  Biso   1.000  C
  C241     1.0000 0.86911  0.09821  0.65010  Biso   1.000  C
  H297     1.0000 0.80480  0.06690  0.78008  Biso   1.000  H
  C242     1.0000 0.76199  0.02681  0.61908  Biso   1.000  C
  C243     1.0000 0.94939  0.76358  0.70812  Biso   1.000  C
  H298     1.0000 0.91982  0.79961  0.58269  Biso   1.000  H
  C244     1.0000 0.85141  0.71291  0.59950  Biso   1.000  C
  H299     1.0000 0.93250  0.89861  0.35482  Biso   1.000  H
  C245     1.0000 0.01891  0.95868  0.35741  Biso   1.000  C
  C246     1.0000 0.01893  0.95872  0.35741  Biso   1.000  C
  H300     1.0000 0.96612  0.06752  0.35482  Biso   1.000  H
  C247     1.0000 0.04129  0.06020  0.35741  Biso   1.000  C
  N39      1.0000 0.91940  0.12440  0.73610  Biso   1.000  N
  H301     1.0000 0.87982  0.08022  0.58269  Biso   1.000  H
  C248     1.0000 0.86151  0.14861  0.59950  Biso   1.000  C
  H302     1.0000 0.72540  0.99771  0.66020  Biso   1.000  H
  H303     1.0000 0.76931  0.00639  0.55239  Biso   1.000  H
  C249     1.0000 0.75389  0.07598  0.56955  Biso   1.000  C
  H304     1.0000 0.76928  0.00639  0.55239  Biso   1.000  H
  N40      1.0000 0.99718  0.81999  0.74316  Biso   1.000  N
  H305     1.0000 0.93312  0.73792  0.78008  Biso   1.000  H
  C250     1.0000 0.97319  0.73518  0.61908  Biso   1.000  C
  H306     1.0000 0.83059  0.68539  0.66610  Biso   1.000  H
  H307     1.0000 0.82279  0.72089  0.55775  Biso   1.000  H
  C251     1.0000 0.87430  0.68451  0.51332  Biso   1.000  C
  C252     1.0000 0.04202  0.91630  0.36027  Biso   1.000  C
  C253     1.0000 0.04198  0.91630  0.36027  Biso   1.000  C
  C254     1.0000 0.06032  0.02051  0.35634  Biso   1.000  C
  C255     1.0000 0.06028  0.02051  0.35634  Biso   1.000  C
  C256     1.0000 0.08369  0.12568  0.36027  Biso   1.000  C
  C257     1.0000 0.95951  0.10800  0.73333  Biso   1.000  C
  H308     1.0000 0.85478  0.16939  0.66610  Biso   1.000  H
  H309     1.0000 0.89810  0.17719  0.55775  Biso   1.000  H
  C258     1.0000 0.81021  0.12568  0.51332  Biso   1.000  C
  H310     1.0000 0.74092  0.09252  0.63472  Biso   1.000  H
  H311     1.0000 0.72227  0.05958  0.50831  Biso   1.000  H
  H312     1.0000 0.72229  0.05962  0.50831  Biso   1.000  H
  C259     1.0000 0.01048  0.83238  0.85527  Biso   1.000  C
  C260     1.0000 0.01051  0.83242  0.85527  Biso   1.000  C
  H313     1.0000 0.99361  0.76288  0.55239  Biso   1.000  H
  C261     1.0000 0.92400  0.67790  0.56955  Biso   1.000  C
  H314     1.0000 0.99359  0.76292  0.55239  Biso   1.000  H
  H315     1.0000 0.99363  0.76292  0.55239  Biso   1.000  H
  H316     1.0000 0.00229  0.72769  0.66020  Biso   1.000  H
  H317     1.0000 0.88921  0.70899  0.44019  Biso   1.000  H
  H318     1.0000 0.84171  0.64522  0.48981  Biso   1.000  H
  N41      1.0000 0.09179  0.93411  0.40443  Biso   1.000  N
  C262     1.0000 0.00109  0.85438  0.31003  Biso   1.000  C
  N42      1.0000 0.09183  0.93411  0.40443  Biso   1.000  N
  H319     1.0000 0.10140  0.03391  0.35482  Biso   1.000  H
  N43      1.0000 0.06590  0.15770  0.40443  Biso   1.000  N
  C263     1.0000 0.14562  0.14672  0.31003  Biso   1.000  C
  C264     1.0000 0.96337  0.06699  0.64760  Biso   1.000  C
  C265     1.0000 0.96341  0.06699  0.64760  Biso   1.000  C
  C266     1.0000 0.00802  0.13710  0.82567  Biso   1.000  C
  H320     1.0000 0.81981  0.11082  0.44019  Biso   1.000  H
  H321     1.0000 0.80349  0.15832  0.48981  Biso   1.000  H
  C267     1.0000 0.97470  0.79388  0.95718  Biso   1.000  C
  C268     1.0000 0.97472  0.79392  0.95718  Biso   1.000  C
  C269     1.0000 0.06100  0.89240  0.88468  Biso   1.000  C
  H322     1.0000 0.90749  0.64839  0.63472  Biso   1.000  H
  H323     1.0000 0.94038  0.66268  0.50831  Biso   1.000  H
  C270     1.0000 0.12088  0.89888  0.40980  Biso   1.000  C
  C271     1.0000 0.12090  0.89892  0.40980  Biso   1.000  C
  H324     1.0000 0.96692  0.85341  0.27222  Biso   1.000  H
  H325     1.0000 0.98788  0.82559  0.37511  Biso   1.000  H
  H326     1.0000 0.98792  0.82559  0.37511  Biso   1.000  H
  H327     1.0000 0.02251  0.84481  0.25049  Biso   1.000  H
  C272     1.0000 0.10111  0.22200  0.40980  Biso   1.000  C
  H328     1.0000 0.14662  0.11351  0.27222  Biso   1.000  H
  H329     1.0000 0.17441  0.16229  0.37511  Biso   1.000  H
  H330     1.0000 0.15520  0.17772  0.25049  Biso   1.000  H
  H331     1.0000 0.92470  0.04211  0.61067  Biso   1.000  H
  H332     1.0000 0.97569  0.04220  0.68979  Biso   1.000  H
  H333     1.0000 0.99229  0.08961  0.58537  Biso   1.000  H
  C273     1.0000 0.99630  0.15232  0.93510  Biso   1.000  C
  C274     1.0000 0.06280  0.14509  0.79877  Biso   1.000  C
  H334     1.0000 0.98931  0.81562  0.03254  Biso   1.000  H
  H335     1.0000 0.93327  0.78268  0.94627  Biso   1.000  H
  H336     1.0000 0.97818  0.75838  0.95941  Biso   1.000  H
  H337     1.0000 0.93329  0.78272  0.94627  Biso   1.000  H
  H338     1.0000 0.97820  0.75842  0.95941  Biso   1.000  H
  H339     1.0000 0.93331  0.78268  0.94627  Biso   1.000  H
  C275     1.0000 0.08959  0.90351  0.99428  Biso   1.000  C
  C276     1.0000 0.08230  0.93720  0.79877  Biso   1.000  C
  C277     1.0000 0.08963  0.90351  0.99428  Biso   1.000  C
  C278     1.0000 0.17450  0.92790  0.32809  Biso   1.000  C
  C279     1.0000 0.13810  0.89619  0.53826  Biso   1.000  C
  H340     1.0000 0.09319  0.85809  0.38056  Biso   1.000  H
  C280     1.0000 0.07209  0.24660  0.32809  Biso   1.000  C
  C281     1.0000 0.10379  0.24189  0.53826  Biso   1.000  C
  H341     1.0000 0.14191  0.23509  0.38056  Biso   1.000  H
  C282     1.0000 0.04191  0.17869  0.02414  Biso   1.000  C
  H342     1.0000 0.95778  0.14540  0.95244  Biso   1.000  H
  H343     1.0000 0.95782  0.14540  0.95244  Biso   1.000  H
  C283     1.0000 0.10759  0.16859  0.88468  Biso   1.000  C
  H344     1.0000 0.07020  0.13468  0.72197  Biso   1.000  H
  H345     1.0000 0.07023  0.13472  0.72197  Biso   1.000  H
  C284     1.0000 0.13682  0.95811  0.02414  Biso   1.000  C
  C285     1.0000 0.13678  0.95811  0.02414  Biso   1.000  C
  H346     1.0000 0.07630  0.87242  0.05087  Biso   1.000  H
  H347     1.0000 0.06450  0.92979  0.72197  Biso   1.000  H
  C286     1.0000 0.12911  0.99202  0.82567  Biso   1.000  C
  N44      1.0000 0.15220  0.92349  0.20499  Biso   1.000  N
  H348     1.0000 0.20010  0.97032  0.35071  Biso   1.000  H
  C287     1.0000 0.20950  0.89601  0.33587  Biso   1.000  C
  C288     1.0000 0.17611  0.86558  0.54488  Biso   1.000  C
  H349     1.0000 0.10210  0.87392  0.58743  Biso   1.000  H
  H350     1.0000 0.16089  0.93658  0.57116  Biso   1.000  H
  N45      1.0000 0.07650  0.22870  0.20499  Biso   1.000  N
  H351     1.0000 0.02970  0.22980  0.35071  Biso   1.000  H
  C289     1.0000 0.10401  0.31350  0.33587  Biso   1.000  C
  C290     1.0000 0.13440  0.31050  0.54488  Biso   1.000  C
  H352     1.0000 0.12610  0.22821  0.58743  Biso   1.000  H
  H353     1.0000 0.06341  0.22429  0.57116  Biso   1.000  H
  H354     1.0000 0.06337  0.22429  0.57116  Biso   1.000  H
  C291     1.0000 0.03031  0.19421  0.14420  Biso   1.000  C
  C292     1.0000 0.09649  0.18610  0.99428  Biso   1.000  C
  C293     1.0000 0.16762  0.17812  0.85527  Biso   1.000  C
  C294     1.0000 0.16389  0.96970  0.14420  Biso   1.000  C
  C295     1.0000 0.15599  0.00370  0.93510  Biso   1.000  C
  C296     1.0000 0.14849  0.04048  0.73333  Biso   1.000  C
  H355     1.0000 0.24478  0.91608  0.28419  Biso   1.000  H
  H356     1.0000 0.18499  0.85509  0.30681  Biso   1.000  H
  C297     1.0000 0.22851  0.89522  0.46478  Biso   1.000  C
  H357     1.0000 0.24480  0.91612  0.28419  Biso   1.000  H
  H358     1.0000 0.18941  0.86682  0.62829  Biso   1.000  H
  H359     1.0000 0.15169  0.82369  0.52128  Biso   1.000  H
  H360     1.0000 0.08389  0.32872  0.28419  Biso   1.000  H
  H361     1.0000 0.14490  0.32991  0.30681  Biso   1.000  H
  C298     1.0000 0.10482  0.33330  0.46478  Biso   1.000  C
  C299     1.0000 0.10478  0.33330  0.46478  Biso   1.000  C
  H362     1.0000 0.08393  0.32872  0.28419  Biso   1.000  H
  H363     1.0000 0.13318  0.32259  0.62829  Biso   1.000  H
  H364     1.0000 0.17630  0.32801  0.52128  Biso   1.000  H
  C300     1.0000 0.96791  0.16749  0.18121  Biso   1.000  C
  H365     1.0000 0.12762  0.20392  0.05087  Biso   1.000  H
  N46      1.0000 0.17999  0.17719  0.74316  Biso   1.000  N
  C301     1.0000 0.20612  0.18081  0.95718  Biso   1.000  C
  C302     1.0000 0.20609  0.18081  0.95718  Biso   1.000  C
  C303     1.0000 0.19960  0.03210  0.18121  Biso   1.000  C
  H366     1.0000 0.18762  0.04220  0.95244  Biso   1.000  H
  N47      1.0000 0.20503  0.08061  0.73610  Biso   1.000  N
  C304     1.0000 0.10362  0.03660  0.64760  Biso   1.000  C
  N48      1.0000 0.20499  0.08061  0.73610  Biso   1.000  N
  C305     1.0000 0.10358  0.03660  0.64760  Biso   1.000  C
  H367     1.0000 0.25090  0.87410  0.46826  Biso   1.000  H
  H368     1.0000 0.25460  0.93619  0.49240  Biso   1.000  H
  H369     1.0000 0.12587  0.37679  0.46826  Biso   1.000  H
  H370     1.0000 0.06380  0.31840  0.49240  Biso   1.000  H
  H371     1.0000 0.12591  0.37679  0.46826  Biso   1.000  H
  H372     1.0000 0.96600  0.17750  0.26488  Biso   1.000  H
  H373     1.0000 0.94840  0.12458  0.17272  Biso   1.000  H
  H374     1.0000 0.94799  0.18279  0.13061  Biso   1.000  H
  H375     1.0000 0.94843  0.12462  0.17272  Biso   1.000  H
  C306     1.0000 0.23638  0.18579  0.70812  Biso   1.000  C
  C307     1.0000 0.23642  0.18579  0.70812  Biso   1.000  C
  H376     1.0000 0.21729  0.15060  0.94627  Biso   1.000  H
  H377     1.0000 0.24158  0.21979  0.95941  Biso   1.000  H
  H378     1.0000 0.24162  0.21979  0.95941  Biso   1.000  H
  H379     1.0000 0.18439  0.17371  0.03254  Biso   1.000  H
  H380     1.0000 0.21151  0.03400  0.26488  Biso   1.000  H
  H381     1.0000 0.17620  0.05160  0.17272  Biso   1.000  H
  H382     1.0000 0.23479  0.05199  0.13061  Biso   1.000  H
  C308     1.0000 0.22909  0.13089  0.65010  Biso   1.000  C
  H383     1.0000 0.11740  0.07532  0.61067  Biso   1.000  H
  H384     1.0000 0.06650  0.02430  0.68979  Biso   1.000  H
  H385     1.0000 0.09731  0.00772  0.58537  Biso   1.000  H
  H386     1.0000 0.26208  0.19518  0.78008  Biso   1.000  H
  C309     1.0000 0.26482  0.23800  0.61908  Biso   1.000  C
  H387     1.0000 0.20042  0.12021  0.58269  Biso   1.000  H
  C310     1.0000 0.28710  0.13852  0.59950  Biso   1.000  C
  H388     1.0000 0.23710  0.23068  0.55239  Biso   1.000  H
  H389     1.0000 0.27231  0.27461  0.66020  Biso   1.000  H
  C311     1.0000 0.32211  0.24612  0.56955  Biso   1.000  C
  H390     1.0000 0.31463  0.14522  0.66610  Biso   1.000  H
  H391     1.0000 0.27911  0.10191  0.55775  Biso   1.000  H
  C312     1.0000 0.31549  0.18980  0.51332  Biso   1.000  C
  H392     1.0000 0.35159  0.25908  0.63472  Biso   1.000  H
  H393     1.0000 0.33729  0.27769  0.50831  Biso   1.000  H
  H394     1.0000 0.29098  0.18019  0.44019  Biso   1.000  H
  H395     1.0000 0.35482  0.19651  0.48981  Biso   1.000  H
  H396     1.0000 0.35478  0.19651  0.48981  Biso   1.000  H
  C313     1.0000 0.83249  0.80041  0.18121  Biso   1.000  C
  C314     1.0000 0.80580  0.83608  0.14420  Biso   1.000  C
  H397     1.0000 0.82249  0.78850  0.26488  Biso   1.000  H
  H398     1.0000 0.81722  0.76521  0.13061  Biso   1.000  H
  H399     1.0000 0.87538  0.82378  0.17272  Biso   1.000  H
  H400     1.0000 0.87540  0.82382  0.17272  Biso   1.000  H
  N49      1.0000 0.77129  0.84781  0.20499  Biso   1.000  N
  C315     1.0000 0.82131  0.86320  0.02414  Biso   1.000  C
  C316     1.0000 0.75342  0.82550  0.32809  Biso   1.000  C
  C317     1.0000 0.81389  0.91039  0.99428  Biso   1.000  C
  C318     1.0000 0.84773  0.84402  0.93510  Biso   1.000  C
  C319     1.0000 0.84769  0.84402  0.93510  Biso   1.000  C
  C320     1.0000 0.68649  0.79048  0.33587  Biso   1.000  C
  H401     1.0000 0.77022  0.79992  0.35071  Biso   1.000  H
  C321     1.0000 0.77799  0.87908  0.40980  Biso   1.000  C
  C322     1.0000 0.77801  0.87912  0.40980  Biso   1.000  C
  H402     1.0000 0.79610  0.92371  0.05087  Biso   1.000  H
  C323     1.0000 0.83141  0.93901  0.88468  Biso   1.000  C
  C324     1.0000 0.86290  0.87092  0.82567  Biso   1.000  C
  H403     1.0000 0.85460  0.81240  0.95244  Biso   1.000  H
  C325     1.0000 0.66670  0.77152  0.46478  Biso   1.000  C
  H404     1.0000 0.67129  0.75520  0.28419  Biso   1.000  H
  H405     1.0000 0.67010  0.81500  0.30681  Biso   1.000  H
  C326     1.0000 0.75809  0.86188  0.53826  Biso   1.000  C
  C327     1.0000 0.75811  0.86192  0.53826  Biso   1.000  C
  N50      1.0000 0.84231  0.90818  0.40443  Biso   1.000  N
  H406     1.0000 0.76490  0.90682  0.38056  Biso   1.000  H
  C328     1.0000 0.85490  0.91771  0.79877  Biso   1.000  C
  C329     1.0000 0.82190  0.98950  0.85527  Biso   1.000  C
  C330     1.0000 0.89200  0.85152  0.73333  Biso   1.000  C
  H407     1.0000 0.62322  0.74912  0.46826  Biso   1.000  H
  H408     1.0000 0.68160  0.74541  0.49240  Biso   1.000  H
  C331     1.0000 0.68949  0.82391  0.54488  Biso   1.000  C
  H409     1.0000 0.77179  0.89791  0.58743  Biso   1.000  H
  H410     1.0000 0.77567  0.83908  0.57116  Biso   1.000  H
  H411     1.0000 0.77570  0.83912  0.57116  Biso   1.000  H
  H412     1.0000 0.77182  0.89791  0.58743  Biso   1.000  H
  H413     1.0000 0.77571  0.83908  0.57116  Biso   1.000  H
  C332     1.0000 0.87433  0.95802  0.36027  Biso   1.000  C
  C333     1.0000 0.87429  0.95802  0.36027  Biso   1.000  C
  H414     1.0000 0.86527  0.93548  0.72197  Biso   1.000  H
  H415     1.0000 0.86531  0.93548  0.72197  Biso   1.000  H
  N51      1.0000 0.82281  0.00278  0.74316  Biso   1.000  N
  C334     1.0000 0.81922  0.02531  0.95718  Biso   1.000  C
  N52      1.0000 0.82279  0.00282  0.74316  Biso   1.000  N
  N53      1.0000 0.82283  0.00282  0.74316  Biso   1.000  N
  N54      1.0000 0.87561  0.79498  0.73610  Biso   1.000  N
  C335     1.0000 0.93300  0.89641  0.64760  Biso   1.000  C
  H416     1.0000 0.67741  0.81059  0.62829  Biso   1.000  H
  H417     1.0000 0.67201  0.84830  0.52128  Biso   1.000  H
  C336     1.0000 0.85329  0.99890  0.31003  Biso   1.000  C
  C337     1.0000 0.93978  0.98108  0.35741  Biso   1.000  C
  C338     1.0000 0.93981  0.98113  0.35741  Biso   1.000  C
  C339     1.0000 0.81421  0.05058  0.70812  Biso   1.000  C
  C340     1.0000 0.81419  0.05063  0.70812  Biso   1.000  C
  C341     1.0000 0.81423  0.05063  0.70812  Biso   1.000  C
  H418     1.0000 0.84937  0.06668  0.94627  Biso   1.000  H
  H419     1.0000 0.78018  0.02178  0.95941  Biso   1.000  H
  H420     1.0000 0.84939  0.06672  0.94627  Biso   1.000  H
  H421     1.0000 0.84941  0.06668  0.94627  Biso   1.000  H
  H422     1.0000 0.82632  0.01072  0.03254  Biso   1.000  H
  C342     1.0000 0.90180  0.77090  0.65010  Biso   1.000  C
  H423     1.0000 0.95792  0.88261  0.61067  Biso   1.000  H
  H424     1.0000 0.95781  0.93350  0.68979  Biso   1.000  H
  H425     1.0000 0.91042  0.90272  0.58537  Biso   1.000  H
  H426     1.0000 0.82232  0.97751  0.25049  Biso   1.000  H
  H427     1.0000 0.88652  0.03312  0.27222  Biso   1.000  H
  H428     1.0000 0.83769  0.01208  0.37511  Biso   1.000  H
  C343     1.0000 0.96020  0.93972  0.35634  Biso   1.000  C
  C344     1.0000 0.97950  0.03982  0.35634  Biso   1.000  C
  C345     1.0000 0.86911  0.09821  0.65010  Biso   1.000  C
  H429     1.0000 0.80480  0.06690  0.78008  Biso   1.000  H
  C346     1.0000 0.76199  0.02681  0.61908  Biso   1.000  C
  C347     1.0000 0.94939  0.76358  0.70812  Biso   1.000  C
  H430     1.0000 0.91982  0.79961  0.58269  Biso   1.000  H
  C348     1.0000 0.85141  0.71291  0.59950  Biso   1.000  C
  H431     1.0000 0.93250  0.89861  0.35482  Biso   1.000  H
  C349     1.0000 0.01891  0.95868  0.35741  Biso   1.000  C
  C350     1.0000 0.01893  0.95872  0.35741  Biso   1.000  C
  H432     1.0000 0.96612  0.06752  0.35482  Biso   1.000  H
  C351     1.0000 0.04129  0.06020  0.35741  Biso   1.000  C
  N55      1.0000 0.91940  0.12440  0.73610  Biso   1.000  N
  H433     1.0000 0.87982  0.08022  0.58269  Biso   1.000  H
  C352     1.0000 0.86151  0.14861  0.59950  Biso   1.000  C
  H434     1.0000 0.72540  0.99771  0.66020  Biso   1.000  H
  H435     1.0000 0.76931  0.00639  0.55239  Biso   1.000  H
  C353     1.0000 0.75389  0.07598  0.56955  Biso   1.000  C
  H436     1.0000 0.76928  0.00639  0.55239  Biso   1.000  H
  N56      1.0000 0.99718  0.81999  0.74316  Biso   1.000  N
  H437     1.0000 0.93312  0.73792  0.78008  Biso   1.000  H
  C354     1.0000 0.97319  0.73518  0.61908  Biso   1.000  C
  H438     1.0000 0.83059  0.68539  0.66610  Biso   1.000  H
  H439     1.0000 0.82279  0.72089  0.55775  Biso   1.000  H
  C355     1.0000 0.87430  0.68451  0.51332  Biso   1.000  C
  C356     1.0000 0.04202  0.91630  0.36027  Biso   1.000  C
  C357     1.0000 0.04198  0.91630  0.36027  Biso   1.000  C
  C358     1.0000 0.06032  0.02051  0.35634  Biso   1.000  C
  C359     1.0000 0.06028  0.02051  0.35634  Biso   1.000  C
  C360     1.0000 0.08369  0.12568  0.36027  Biso   1.000  C
  C361     1.0000 0.95951  0.10800  0.73333  Biso   1.000  C
  H440     1.0000 0.85478  0.16939  0.66610  Biso   1.000  H
  H441     1.0000 0.89810  0.17719  0.55775  Biso   1.000  H
  C362     1.0000 0.81021  0.12568  0.51332  Biso   1.000  C
  H442     1.0000 0.74092  0.09252  0.63472  Biso   1.000  H
  H443     1.0000 0.72227  0.05958  0.50831  Biso   1.000  H
  H444     1.0000 0.72229  0.05962  0.50831  Biso   1.000  H
  C363     1.0000 0.01048  0.83238  0.85527  Biso   1.000  C
  C364     1.0000 0.01051  0.83242  0.85527  Biso   1.000  C
  H445     1.0000 0.99361  0.76288  0.55239  Biso   1.000  H
  C365     1.0000 0.92400  0.67790  0.56955  Biso   1.000  C
  H446     1.0000 0.99359  0.76292  0.55239  Biso   1.000  H
  H447     1.0000 0.99363  0.76292  0.55239  Biso   1.000  H
  H448     1.0000 0.00229  0.72769  0.66020  Biso   1.000  H
  H449     1.0000 0.88921  0.70899  0.44019  Biso   1.000  H
  H450     1.0000 0.84171  0.64522  0.48981  Biso   1.000  H
  N57      1.0000 0.09179  0.93411  0.40443  Biso   1.000  N
  C366     1.0000 0.00109  0.85438  0.31003  Biso   1.000  C
  N58      1.0000 0.09183  0.93411  0.40443  Biso   1.000  N
  H451     1.0000 0.10140  0.03391  0.35482  Biso   1.000  H
  N59      1.0000 0.06590  0.15770  0.40443  Biso   1.000  N
  C367     1.0000 0.14562  0.14672  0.31003  Biso   1.000  C
  C368     1.0000 0.96337  0.06699  0.64760  Biso   1.000  C
  C369     1.0000 0.96341  0.06699  0.64760  Biso   1.000  C
  C370     1.0000 0.00802  0.13710  0.82567  Biso   1.000  C
  H452     1.0000 0.81981  0.11082  0.44019  Biso   1.000  H
  H453     1.0000 0.80349  0.15832  0.48981  Biso   1.000  H
  C371     1.0000 0.97470  0.79388  0.95718  Biso   1.000  C
  C372     1.0000 0.97472  0.79392  0.95718  Biso   1.000  C
  C373     1.0000 0.06100  0.89240  0.88468  Biso   1.000  C
  H454     1.0000 0.90749  0.64839  0.63472  Biso   1.000  H
  H455     1.0000 0.94038  0.66268  0.50831  Biso   1.000  H
  C374     1.0000 0.12088  0.89888  0.40980  Biso   1.000  C
  C375     1.0000 0.12090  0.89892  0.40980  Biso   1.000  C
  H456     1.0000 0.96692  0.85341  0.27222  Biso   1.000  H
  H457     1.0000 0.98788  0.82559  0.37511  Biso   1.000  H
  H458     1.0000 0.98792  0.82559  0.37511  Biso   1.000  H
  H459     1.0000 0.02251  0.84481  0.25049  Biso   1.000  H
  C376     1.0000 0.10111  0.22200  0.40980  Biso   1.000  C
  H460     1.0000 0.14662  0.11351  0.27222  Biso   1.000  H
  H461     1.0000 0.17441  0.16229  0.37511  Biso   1.000  H
  H462     1.0000 0.15520  0.17772  0.25049  Biso   1.000  H
  H463     1.0000 0.92470  0.04211  0.61067  Biso   1.000  H
  H464     1.0000 0.97569  0.04220  0.68979  Biso   1.000  H
  H465     1.0000 0.99229  0.08961  0.58537  Biso   1.000  H
  C377     1.0000 0.99630  0.15232  0.93510  Biso   1.000  C
  C378     1.0000 0.06280  0.14509  0.79877  Biso   1.000  C
  H466     1.0000 0.98931  0.81562  0.03254  Biso   1.000  H
  H467     1.0000 0.93327  0.78268  0.94627  Biso   1.000  H
  H468     1.0000 0.97818  0.75838  0.95941  Biso   1.000  H
  H469     1.0000 0.93329  0.78272  0.94627  Biso   1.000  H
  H470     1.0000 0.97820  0.75842  0.95941  Biso   1.000  H
  H471     1.0000 0.93331  0.78268  0.94627  Biso   1.000  H
  C379     1.0000 0.08959  0.90351  0.99428  Biso   1.000  C
  C380     1.0000 0.08230  0.93720  0.79877  Biso   1.000  C
  C381     1.0000 0.08963  0.90351  0.99428  Biso   1.000  C
  C382     1.0000 0.17450  0.92790  0.32809  Biso   1.000  C
  C383     1.0000 0.13810  0.89619  0.53826  Biso   1.000  C
  H472     1.0000 0.09319  0.85809  0.38056  Biso   1.000  H
  C384     1.0000 0.07209  0.24660  0.32809  Biso   1.000  C
  C385     1.0000 0.10379  0.24189  0.53826  Biso   1.000  C
  H473     1.0000 0.14191  0.23509  0.38056  Biso   1.000  H
  C386     1.0000 0.04191  0.17869  0.02414  Biso   1.000  C
  H474     1.0000 0.95778  0.14540  0.95244  Biso   1.000  H
  H475     1.0000 0.95782  0.14540  0.95244  Biso   1.000  H
  C387     1.0000 0.10759  0.16859  0.88468  Biso   1.000  C
  H476     1.0000 0.07020  0.13468  0.72197  Biso   1.000  H
  H477     1.0000 0.07023  0.13472  0.72197  Biso   1.000  H
  C388     1.0000 0.13682  0.95811  0.02414  Biso   1.000  C
  C389     1.0000 0.13678  0.95811  0.02414  Biso   1.000  C
  H478     1.0000 0.07630  0.87242  0.05087  Biso   1.000  H
  H479     1.0000 0.06450  0.92979  0.72197  Biso   1.000  H
  C390     1.0000 0.12911  0.99202  0.82567  Biso   1.000  C
  N60      1.0000 0.15220  0.92349  0.20499  Biso   1.000  N
  H480     1.0000 0.20010  0.97032  0.35071  Biso   1.000  H
  C391     1.0000 0.20950  0.89601  0.33587  Biso   1.000  C
  C392     1.0000 0.17611  0.86558  0.54488  Biso   1.000  C
  H481     1.0000 0.10210  0.87392  0.58743  Biso   1.000  H
  H482     1.0000 0.16089  0.93658  0.57116  Biso   1.000  H
  N61      1.0000 0.07650  0.22870  0.20499  Biso   1.000  N
  H483     1.0000 0.02970  0.22980  0.35071  Biso   1.000  H
  C393     1.0000 0.10401  0.31350  0.33587  Biso   1.000  C
  C394     1.0000 0.13440  0.31050  0.54488  Biso   1.000  C
  H484     1.0000 0.12610  0.22821  0.58743  Biso   1.000  H
  H485     1.0000 0.06341  0.22429  0.57116  Biso   1.000  H
  H486     1.0000 0.06337  0.22429  0.57116  Biso   1.000  H
  C395     1.0000 0.03031  0.19421  0.14420  Biso   1.000  C
  C396     1.0000 0.09649  0.18610  0.99428  Biso   1.000  C
  C397     1.0000 0.16762  0.17812  0.85527  Biso   1.000  C
  C398     1.0000 0.16389  0.96970  0.14420  Biso   1.000  C
  C399     1.0000 0.15599  0.00370  0.93510  Biso   1.000  C
  C400     1.0000 0.14849  0.04048  0.73333  Biso   1.000  C
  H487     1.0000 0.24478  0.91608  0.28419  Biso   1.000  H
  H488     1.0000 0.18499  0.85509  0.30681  Biso   1.000  H
  C401     1.0000 0.22851  0.89522  0.46478  Biso   1.000  C
  H489     1.0000 0.24480  0.91612  0.28419  Biso   1.000  H
  H490     1.0000 0.18941  0.86682  0.62829  Biso   1.000  H
  H491     1.0000 0.15169  0.82369  0.52128  Biso   1.000  H
  H492     1.0000 0.08389  0.32872  0.28419  Biso   1.000  H
  H493     1.0000 0.14490  0.32991  0.30681  Biso   1.000  H
  C402     1.0000 0.10482  0.33330  0.46478  Biso   1.000  C
  C403     1.0000 0.10478  0.33330  0.46478  Biso   1.000  C
  H494     1.0000 0.08393  0.32872  0.28419  Biso   1.000  H
  H495     1.0000 0.13318  0.32259  0.62829  Biso   1.000  H
  H496     1.0000 0.17630  0.32801  0.52128  Biso   1.000  H
  C404     1.0000 0.96791  0.16749  0.18121  Biso   1.000  C
  H497     1.0000 0.12762  0.20392  0.05087  Biso   1.000  H
  N62      1.0000 0.17999  0.17719  0.74316  Biso   1.000  N
  C405     1.0000 0.20612  0.18081  0.95718  Biso   1.000  C
  C406     1.0000 0.20609  0.18081  0.95718  Biso   1.000  C
  C407     1.0000 0.19960  0.03210  0.18121  Biso   1.000  C
  H498     1.0000 0.18762  0.04220  0.95244  Biso   1.000  H
  N63      1.0000 0.20503  0.08061  0.73610  Biso   1.000  N
  C408     1.0000 0.10362  0.03660  0.64760  Biso   1.000  C
  N64      1.0000 0.20499  0.08061  0.73610  Biso   1.000  N
  C409     1.0000 0.10358  0.03660  0.64760  Biso   1.000  C
  H499     1.0000 0.25090  0.87410  0.46826  Biso   1.000  H
  H500     1.0000 0.25460  0.93619  0.49240  Biso   1.000  H
  H501     1.0000 0.12587  0.37679  0.46826  Biso   1.000  H
  H502     1.0000 0.06380  0.31840  0.49240  Biso   1.000  H
  H503     1.0000 0.12591  0.37679  0.46826  Biso   1.000  H
  H504     1.0000 0.96600  0.17750  0.26488  Biso   1.000  H
  H505     1.0000 0.94840  0.12458  0.17272  Biso   1.000  H
  H506     1.0000 0.94799  0.18279  0.13061  Biso   1.000  H
  H507     1.0000 0.94843  0.12462  0.17272  Biso   1.000  H
  C410     1.0000 0.23638  0.18579  0.70812  Biso   1.000  C
  C411     1.0000 0.23642  0.18579  0.70812  Biso   1.000  C
  H508     1.0000 0.21729  0.15060  0.94627  Biso   1.000  H
  H509     1.0000 0.24158  0.21979  0.95941  Biso   1.000  H
  H510     1.0000 0.24162  0.21979  0.95941  Biso   1.000  H
  H511     1.0000 0.18439  0.17371  0.03254  Biso   1.000  H
  H512     1.0000 0.21151  0.03400  0.26488  Biso   1.000  H
  H513     1.0000 0.17620  0.05160  0.17272  Biso   1.000  H
  H514     1.0000 0.23479  0.05199  0.13061  Biso   1.000  H
  C412     1.0000 0.22909  0.13089  0.65010  Biso   1.000  C
  H515     1.0000 0.11740  0.07532  0.61067  Biso   1.000  H
  H516     1.0000 0.06650  0.02430  0.68979  Biso   1.000  H
  H517     1.0000 0.09731  0.00772  0.58537  Biso   1.000  H
  H518     1.0000 0.26208  0.19518  0.78008  Biso   1.000  H
  C413     1.0000 0.26482  0.23800  0.61908  Biso   1.000  C
  H519     1.0000 0.20042  0.12021  0.58269  Biso   1.000  H
  C414     1.0000 0.28710  0.13852  0.59950  Biso   1.000  C
  H520     1.0000 0.23710  0.23068  0.55239  Biso   1.000  H
  H521     1.0000 0.27231  0.27461  0.66020  Biso   1.000  H
  C415     1.0000 0.32211  0.24612  0.56955  Biso   1.000  C
  H522     1.0000 0.31463  0.14522  0.66610  Biso   1.000  H
  H523     1.0000 0.27911  0.10191  0.55775  Biso   1.000  H
  C416     1.0000 0.31549  0.18980  0.51332  Biso   1.000  C
  H524     1.0000 0.35159  0.25908  0.63472  Biso   1.000  H
  H525     1.0000 0.33729  0.27769  0.50831  Biso   1.000  H
  H526     1.0000 0.29098  0.18019  0.44019  Biso   1.000  H
  H527     1.0000 0.35482  0.19651  0.48981  Biso   1.000  H
  H528     1.0000 0.35478  0.19651  0.48981  Biso   1.000  H
  C417     1.0000 0.65232  0.85650  0.99526  Biso   1.000  C
  C418     1.0000 0.58749  0.81042  0.01627  Biso   1.000  C
  H529     1.0000 0.67771  0.84649  0.04389  Biso   1.000  H
  H530     1.0000 0.65951  0.89570  0.02128  Biso   1.000  H
  C419     1.0000 0.66912  0.85932  0.86036  Biso   1.000  C
  C420     1.0000 0.54691  0.82320  0.93849  Biso   1.000  C
  N65      1.0000 0.57059  0.81059  0.14089  Biso   1.000  N
  H531     1.0000 0.58109  0.77042  0.99598  Biso   1.000  H
  C421     1.0000 0.62942  0.87440  0.79001  Biso   1.000  C
  H532     1.0000 0.71101  0.88980  0.84793  Biso   1.000  H
  H533     1.0000 0.66370  0.82082  0.83408  Biso   1.000  H
  N66      1.0000 0.48799  0.77289  0.95226  Biso   1.000  N
  H534     1.0000 0.54780  0.85981  0.96710  Biso   1.000  H
  C422     1.0000 0.56493  0.82982  0.80780  Biso   1.000  C
  C423     1.0000 0.54562  0.76402  0.20266  Biso   1.000  C
  H535     1.0000 0.63911  0.87630  0.70401  Biso   1.000  H
  H536     1.0000 0.63681  0.91379  0.81468  Biso   1.000  H
  C424     1.0000 0.44439  0.77650  0.99008  Biso   1.000  C
  H537     1.0000 0.55691  0.79110  0.77660  Biso   1.000  H
  H538     1.0000 0.54080  0.84221  0.76149  Biso   1.000  H
  C425     1.0000 0.52290  0.76852  0.32585  Biso   1.000  C
  C426     1.0000 0.53440  0.70621  0.16556  Biso   1.000  C
  C427     1.0000 0.38683  0.72072  0.99517  Biso   1.000  C
  C428     1.0000 0.44603  0.83202  0.03540  Biso   1.000  C
  C429     1.0000 0.51069  0.72539  0.41069  Biso   1.000  C
  C430     1.0000 0.51271  0.81491  0.35240  Biso   1.000  C
  H539     1.0000 0.53360  0.70400  0.07813  Biso   1.000  H
  H540     1.0000 0.49622  0.67591  0.19739  Biso   1.000  H
  H541     1.0000 0.56569  0.69959  0.19623  Biso   1.000  H
  C431     1.0000 0.38600  0.66621  0.99419  Biso   1.000  C
  C432     1.0000 0.33381  0.71979  0.99419  Biso   1.000  C
  H542     1.0000 0.48701  0.86281  0.04899  Biso   1.000  H
  H543     1.0000 0.42399  0.82338  0.11058  Biso   1.000  H
  H544     1.0000 0.42808  0.84570  0.97586  Biso   1.000  H
  C433     1.0000 0.48600  0.72742  0.52190  Biso   1.000  C
  H545     1.0000 0.51890  0.69461  0.39433  Biso   1.000  H
  C434     1.0000 0.49011  0.81760  0.46022  Biso   1.000  C
  H546     1.0000 0.52149  0.84468  0.29456  Biso   1.000  H
  C435     1.0000 0.33391  0.61320  0.99517  Biso   1.000  C
  H547     1.0000 0.42221  0.66621  0.99294  Biso   1.000  H
  C436     1.0000 0.27933  0.66612  0.99517  Biso   1.000  C
  H548     1.0000 0.33381  0.75600  0.99294  Biso   1.000  H
  C437     1.0000 0.47111  0.67962  0.61380  Biso   1.000  C
  C438     1.0000 0.47780  0.77549  0.54237  Biso   1.000  C
  C439     1.0000 0.47840  0.86651  0.49169  Biso   1.000  C
  C440     1.0000 0.33211  0.55561  0.99008  Biso   1.000  C
  C441     1.0000 0.28019  0.61400  0.99419  Biso   1.000  C
  C442     1.0000 0.22349  0.66789  0.99008  Biso   1.000  C
  N67      1.0000 0.50110  0.65351  0.60585  Biso   1.000  N
  C443     1.0000 0.42633  0.67102  0.70070  Biso   1.000  C
  H549     1.0000 0.46269  0.77849  0.61783  Biso   1.000  H
  N68      1.0000 0.46661  0.87211  0.59673  Biso   1.000  N
  C444     1.0000 0.48078  0.90519  0.38101  Biso   1.000  C
  N69      1.0000 0.28491  0.51199  0.95226  Biso   1.000  N
  C445     1.0000 0.38601  0.55402  0.03540  Biso   1.000  C
  H550     1.0000 0.24398  0.57779  0.99294  Biso   1.000  H
  C446     1.0000 0.16798  0.61400  0.03540  Biso   1.000  C
  N70      1.0000 0.22710  0.71512  0.95226  Biso   1.000  N
  C447     1.0000 0.49449  0.61020  0.69578  Biso   1.000  C
  H551     1.0000 0.41372  0.63411  0.74414  Biso   1.000  H
  H552     1.0000 0.39250  0.66912  0.65940  Biso   1.000  H
  H553     1.0000 0.44271  0.70409  0.75711  Biso   1.000  H
  C448     1.0000 0.45150  0.91630  0.63866  Biso   1.000  C
  H554     1.0000 0.49120  0.89112  0.30851  Biso   1.000  H
  H555     1.0000 0.44210  0.90192  0.36948  Biso   1.000  H
  H556     1.0000 0.51049  0.94651  0.39478  Biso   1.000  H
  H557     1.0000 0.45648  0.88058  0.29573  Biso   1.000  H
  H558     1.0000 0.45541  0.92869  0.38235  Biso   1.000  H
  C449     1.0000 0.27632  0.45312  0.93849  Biso   1.000  C
  H559     1.0000 0.37581  0.51301  0.04899  Biso   1.000  H
  H560     1.0000 0.39940  0.57598  0.11058  Biso   1.000  H
  H561     1.0000 0.41759  0.57188  0.97586  Biso   1.000  H
  H562     1.0000 0.13718  0.62418  0.04899  Biso   1.000  H
  H563     1.0000 0.17659  0.60059  0.11058  Biso   1.000  H
  H564     1.0000 0.15430  0.58242  0.97586  Biso   1.000  H
  C450     1.0000 0.17682  0.72372  0.93849  Biso   1.000  C
  C451     1.0000 0.46479  0.54851  0.63866  Biso   1.000  C
  H565     1.0000 0.46899  0.61038  0.76202  Biso   1.000  H
  C452     1.0000 0.55342  0.62502  0.74638  Biso   1.000  C
  C453     1.0000 0.38978  0.88428  0.69578  Biso   1.000  C
  C454     1.0000 0.49600  0.95678  0.73047  Biso   1.000  C
  H566     1.0000 0.45139  0.94020  0.56928  Biso   1.000  H
  C455     1.0000 0.22290  0.41251  0.01627  Biso   1.000  C
  H567     1.0000 0.31199  0.45220  0.96710  Biso   1.000  H
  C456     1.0000 0.26490  0.43509  0.80780  Biso   1.000  C
  C457     1.0000 0.18962  0.77712  0.01627  Biso   1.000  C
  H568     1.0000 0.14021  0.68800  0.96710  Biso   1.000  H
  C458     1.0000 0.17021  0.73509  0.80780  Biso   1.000  C
  N71      1.0000 0.40548  0.53338  0.59673  Biso   1.000  N
  C459     1.0000 0.46080  0.50401  0.73047  Biso   1.000  C
  H569     1.0000 0.48878  0.54860  0.56928  Biso   1.000  H
  H570     1.0000 0.57980  0.62820  0.67987  Biso   1.000  H
  H571     1.0000 0.57100  0.66401  0.78598  Biso   1.000  H
  C460     1.0000 0.55040  0.58110  0.83345  Biso   1.000  C
  N72      1.0000 0.34650  0.84759  0.60585  Biso   1.000  N
  H572     1.0000 0.38959  0.85862  0.76202  Biso   1.000  H
  C461     1.0000 0.37498  0.92838  0.74638  Biso   1.000  C
  H573     1.0000 0.53551  0.97760  0.69301  Biso   1.000  H
  H574     1.0000 0.49762  0.93262  0.79698  Biso   1.000  H
  C462     1.0000 0.48162  0.00212  0.78098  Biso   1.000  C
  N73      1.0000 0.23998  0.42940  0.14089  Biso   1.000  N
  C463     1.0000 0.20420  0.34768  0.99526  Biso   1.000  C
  H575     1.0000 0.18929  0.41890  0.99598  Biso   1.000  H
  H576     1.0000 0.23420  0.44311  0.77660  Biso   1.000  H
  H577     1.0000 0.30140  0.45921  0.76149  Biso   1.000  H
  C464     1.0000 0.24500  0.37061  0.79001  Biso   1.000  C
  N74      1.0000 0.18939  0.76001  0.14089  Biso   1.000  N
  C465     1.0000 0.14352  0.79582  0.99526  Biso   1.000  C
  H578     1.0000 0.22961  0.81072  0.99598  Biso   1.000  H
  H579     1.0000 0.20889  0.76579  0.77660  Biso   1.000  H
  H580     1.0000 0.15782  0.69862  0.76149  Biso   1.000  H
  C466     1.0000 0.12558  0.75498  0.79001  Biso   1.000  C
  C467     1.0000 0.38810  0.52161  0.49169  Biso   1.000  C
  C468     1.0000 0.52050  0.51839  0.78098  Biso   1.000  C
  H581     1.0000 0.44211  0.46450  0.69301  Biso   1.000  H
  H582     1.0000 0.43501  0.50238  0.79698  Biso   1.000  H
  H583     1.0000 0.52822  0.58141  0.90488  Biso   1.000  H
  H584     1.0000 0.59088  0.59239  0.85929  Biso   1.000  H
  C469     1.0000 0.32040  0.79150  0.61380  Biso   1.000  C
  H585     1.0000 0.37182  0.95162  0.67987  Biso   1.000  H
  H586     1.0000 0.33598  0.90699  0.78598  Biso   1.000  H
  C470     1.0000 0.41889  0.96931  0.83345  Biso   1.000  C
  H587     1.0000 0.48400  0.02933  0.71697  Biso   1.000  H
  H588     1.0000 0.51030  0.02549  0.84418  Biso   1.000  H
  C471     1.0000 0.21842  0.45440  0.20266  Biso   1.000  C
  H589     1.0000 0.16880  0.32232  0.04389  Biso   1.000  H
  H590     1.0000 0.23620  0.34049  0.02128  Biso   1.000  H
  C472     1.0000 0.19021  0.33092  0.86036  Biso   1.000  C
  H591     1.0000 0.23721  0.36091  0.70401  Biso   1.000  H
  H592     1.0000 0.27700  0.36320  0.81468  Biso   1.000  H
  C473     1.0000 0.23602  0.78162  0.20266  Biso   1.000  C
  H593     1.0000 0.15349  0.83119  0.04389  Biso   1.000  H
  H594     1.0000 0.10429  0.76380  0.02128  Biso   1.000  H
  C474     1.0000 0.14069  0.80980  0.86036  Biso   1.000  C
  H595     1.0000 0.12368  0.76279  0.70401  Biso   1.000  H
  H596     1.0000 0.08622  0.72301  0.81468  Biso   1.000  H
  C475     1.0000 0.32752  0.50992  0.46022  Biso   1.000  C
  C476     1.0000 0.42439  0.51918  0.38101  Biso   1.000  C
  H597     1.0000 0.54532  0.51601  0.71697  Biso   1.000  H
  H598     1.0000 0.51520  0.48968  0.84418  Biso   1.000  H
  C477     1.0000 0.27259  0.75860  0.52190  Biso   1.000  C
  C478     1.0000 0.32899  0.75529  0.70070  Biso   1.000  C
  H599     1.0000 0.41860  0.94682  0.90488  Biso   1.000  H
  H600     1.0000 0.40759  0.99850  0.85929  Biso   1.000  H
  C479     1.0000 0.24562  0.47711  0.32585  Biso   1.000  C
  C480     1.0000 0.17181  0.46560  0.16556  Biso   1.000  C
  H601     1.0000 0.17879  0.28898  0.84793  Biso   1.000  H
  H602     1.0000 0.15711  0.33630  0.83408  Biso   1.000  H
  C481     1.0000 0.23151  0.75441  0.32585  Biso   1.000  C
  C482     1.0000 0.29379  0.82819  0.16556  Biso   1.000  C
  H603     1.0000 0.11020  0.82122  0.84793  Biso   1.000  H
  H604     1.0000 0.17921  0.84292  0.83408  Biso   1.000  H
  C483     1.0000 0.30220  0.48730  0.35240  Biso   1.000  C
  C484     1.0000 0.29768  0.52218  0.54237  Biso   1.000  C
  H605     1.0000 0.39992  0.50882  0.30851  Biso   1.000  H
  H606     1.0000 0.45979  0.55790  0.36948  Biso   1.000  H
  H607     1.0000 0.43601  0.48950  0.39478  Biso   1.000  H
  H608     1.0000 0.42409  0.54348  0.29573  Biso   1.000  H
  H609     1.0000 0.47329  0.54458  0.38235  Biso   1.000  H
  C485     1.0000 0.22450  0.70228  0.54237  Biso   1.000  C
  C486     1.0000 0.27461  0.78532  0.41069  Biso   1.000  C
  H610     1.0000 0.36589  0.77959  0.74414  Biso   1.000  H
  H611     1.0000 0.33092  0.72341  0.65940  Biso   1.000  H
  H612     1.0000 0.29591  0.73862  0.75711  Biso   1.000  H
  C487     1.0000 0.21470  0.48928  0.41069  Biso   1.000  C
  H613     1.0000 0.17041  0.46640  0.07813  Biso   1.000  H
  H614     1.0000 0.17971  0.50379  0.19739  Biso   1.000  H
  H615     1.0000 0.13389  0.43429  0.19623  Biso   1.000  H
  C488     1.0000 0.18509  0.69779  0.35240  Biso   1.000  C
  H616     1.0000 0.29599  0.82960  0.07813  Biso   1.000  H
  H617     1.0000 0.32410  0.82029  0.19739  Biso   1.000  H
  H618     1.0000 0.30042  0.86611  0.19623  Biso   1.000  H
  H619     1.0000 0.32321  0.47852  0.29456  Biso   1.000  H
  C489     1.0000 0.24143  0.51402  0.52190  Biso   1.000  C
  H620     1.0000 0.31582  0.53731  0.61783  Biso   1.000  H
  C490     1.0000 0.18242  0.67252  0.46022  Biso   1.000  C
  H621     1.0000 0.22149  0.68420  0.61783  Biso   1.000  H
  H622     1.0000 0.30541  0.82431  0.39433  Biso   1.000  H
  H623     1.0000 0.17569  0.48108  0.39433  Biso   1.000  H
  H624     1.0000 0.15531  0.67679  0.29456  Biso   1.000  H
  C491     1.0000 0.20849  0.52888  0.61380  Biso   1.000  C
  C492     1.0000 0.13353  0.61192  0.49169  Biso   1.000  C
  N75      1.0000 0.15240  0.49890  0.60585  Biso   1.000  N
  C493     1.0000 0.24468  0.57369  0.70070  Biso   1.000  C
  N76      1.0000 0.12791  0.59450  0.59673  Biso   1.000  N
  C494     1.0000 0.09477  0.57559  0.38101  Biso   1.000  C
  C495     1.0000 0.11569  0.50551  0.69578  Biso   1.000  C
  H625     1.0000 0.22040  0.58630  0.74414  Biso   1.000  H
  H626     1.0000 0.27660  0.60751  0.65940  Biso   1.000  H
  H627     1.0000 0.26138  0.55729  0.75711  Biso   1.000  H
  C496     1.0000 0.08370  0.53519  0.63866  Biso   1.000  C
  H628     1.0000 0.10891  0.60011  0.30851  Biso   1.000  H
  H629     1.0000 0.09810  0.54022  0.36948  Biso   1.000  H
  H630     1.0000 0.05350  0.56399  0.39478  Biso   1.000  H
  H631     1.0000 0.11941  0.57589  0.29573  Biso   1.000  H
  H632     1.0000 0.07128  0.52668  0.38235  Biso   1.000  H
  H633     1.0000 0.14142  0.53100  0.76202  Biso   1.000  H
  C497     1.0000 0.07160  0.44660  0.74638  Biso   1.000  C
  C498     1.0000 0.04320  0.53920  0.73047  Biso   1.000  C
  H634     1.0000 0.05979  0.51120  0.56928  Biso   1.000  H
  H635     1.0000 0.04839  0.42018  0.67987  Biso   1.000  H
  H636     1.0000 0.09301  0.42900  0.78598  Biso   1.000  H
  C499     1.0000 0.03071  0.44959  0.83345  Biso   1.000  C
  C500     1.0000 0.99788  0.47949  0.78098  Biso   1.000  C
  H637     1.0000 0.02238  0.55790  0.69301  Biso   1.000  H
  H638     1.0000 0.06741  0.56500  0.79698  Biso   1.000  H
  H639     1.0000 0.05320  0.47182  0.90488  Biso   1.000  H
  H640     1.0000 0.00149  0.40911  0.85929  Biso   1.000  H
  H641     1.0000 0.97071  0.45471  0.71697  Biso   1.000  H
  H642     1.0000 0.97448  0.48479  0.84418  Biso   1.000  H
  C501     1.0000 0.60541  0.53140  0.19873  Biso   1.000  C
  C502     1.0000 0.59360  0.47570  0.26283  Biso   1.000  C
  C503     1.0000 0.55990  0.52051  0.10486  Biso   1.000  C
  H643     1.0000 0.60609  0.55980  0.25800  Biso   1.000  H
  H644     1.0000 0.64480  0.54952  0.16056  Biso   1.000  H
  C504     1.0000 0.53110  0.44311  0.32326  Biso   1.000  C
  N77      1.0000 0.63640  0.48942  0.35857  Biso   1.000  N
  H645     1.0000 0.59672  0.44840  0.20436  Biso   1.000  H
  C505     1.0000 0.50049  0.49052  0.15528  Biso   1.000  C
  H646     1.0000 0.56811  0.55861  0.06991  Biso   1.000  H
  H647     1.0000 0.56241  0.49612  0.03996  Biso   1.000  H
  C506     1.0000 0.48361  0.43209  0.22466  Biso   1.000  C
  N78      1.0000 0.52011  0.38600  0.36537  Biso   1.000  N
  H648     1.0000 0.52892  0.46701  0.39076  Biso   1.000  H
  C507     1.0000 0.66790  0.46419  0.35893  Biso   1.000  C
  H649     1.0000 0.47182  0.48121  0.08958  Biso   1.000  H
  H650     1.0000 0.49658  0.51799  0.21035  Biso   1.000  H
  H651     1.0000 0.48068  0.40179  0.16780  Biso   1.000  H
  H652     1.0000 0.44449  0.41709  0.26301  Biso   1.000  H
  C508     1.0000 0.50412  0.36991  0.47157  Biso   1.000  C
  C509     1.0000 0.71741  0.48501  0.44815  Biso   1.000  C
  C510     1.0000 0.66219  0.41842  0.27347  Biso   1.000  C
  C511     1.0000 0.49870  0.31011  0.50438  Biso   1.000  C
  C512     1.0000 0.50821  0.40651  0.57903  Biso   1.000  C
  C513     1.0000 0.48032  0.39381  0.56401  Biso   1.000  C
  C514     1.0000 0.71033  0.50842  0.55999  Biso   1.000  C
  C515     1.0000 0.76551  0.48152  0.42392  Biso   1.000  C
  H653     1.0000 0.67409  0.39249  0.31271  Biso   1.000  H
  H654     1.0000 0.68760  0.43729  0.20409  Biso   1.000  H
  H655     1.0000 0.62120  0.39509  0.24718  Biso   1.000  H
  C516     1.0000 0.47678  0.28400  0.61461  Biso   1.000  C
  C517     1.0000 0.51849  0.28400  0.42392  Biso   1.000  C
  H656     1.0000 0.49189  0.38089  0.64876  Biso   1.000  H
  H657     1.0000 0.54961  0.43592  0.59351  Biso   1.000  H
  H658     1.0000 0.48580  0.42662  0.56338  Biso   1.000  H
  H659     1.0000 0.47220  0.37092  0.63803  Biso   1.000  H
  H660     1.0000 0.50931  0.43522  0.58037  Biso   1.000  H
  H661     1.0000 0.44373  0.39112  0.53487  Biso   1.000  H
  C518     1.0000 0.75778  0.52778  0.64321  Biso   1.000  C
  H662     1.0000 0.67612  0.51080  0.57715  Biso   1.000  H
  C519     1.0000 0.81142  0.50132  0.50438  Biso   1.000  C
  H663     1.0000 0.76811  0.46512  0.34990  Biso   1.000  H
  H664     1.0000 0.46491  0.30310  0.67111  Biso   1.000  H
  C520     1.0000 0.47221  0.23002  0.64321  Biso   1.000  C
  C521     1.0000 0.51500  0.23240  0.44815  Biso   1.000  C
  H665     1.0000 0.53491  0.30301  0.34990  Biso   1.000  H
  C522     1.0000 0.80720  0.52320  0.61461  Biso   1.000  C
  C523     1.0000 0.75203  0.54882  0.76319  Biso   1.000  C
  C524     1.0000 0.86581  0.49590  0.47157  Biso   1.000  C
  C525     1.0000 0.49160  0.20189  0.55999  Biso   1.000  C
  C526     1.0000 0.45121  0.20321  0.76319  Biso   1.000  C
  C527     1.0000 0.53582  0.20370  0.35893  Biso   1.000  C
  H666     1.0000 0.83821  0.53510  0.67111  Biso   1.000  H
  N79      1.0000 0.79832  0.57082  0.83032  Biso   1.000  N
  C528     1.0000 0.69311  0.54189  0.79662  Biso   1.000  C
  N80      1.0000 0.86590  0.47989  0.36537  Biso   1.000  N
  C529     1.0000 0.89832  0.49180  0.57903  Biso   1.000  C
  C530     1.0000 0.91350  0.51971  0.56401  Biso   1.000  C
  H667     1.0000 0.48919  0.16528  0.57715  Biso   1.000  H
  N81      1.0000 0.42921  0.22751  0.83032  Biso   1.000  N
  C531     1.0000 0.45809  0.15122  0.79662  Biso   1.000  C
  N82      1.0000 0.51059  0.14698  0.35857  Biso   1.000  N
  C532     1.0000 0.58160  0.24378  0.27347  Biso   1.000  C
  C533     1.0000 0.79611  0.58749  0.95369  Biso   1.000  C
  H668     1.0000 0.66322  0.49991  0.79868  Biso   1.000  H
  H669     1.0000 0.68182  0.56200  0.73726  Biso   1.000  H
  H670     1.0000 0.69590  0.55931  0.87556  Biso   1.000  H
  C534     1.0000 0.91201  0.46891  0.32326  Biso   1.000  C
  H671     1.0000 0.88902  0.50811  0.64876  Biso   1.000  H
  H672     1.0000 0.88628  0.45039  0.59351  Biso   1.000  H
  H673     1.0000 0.94080  0.51420  0.56338  Biso   1.000  H
  H674     1.0000 0.89871  0.52778  0.63803  Biso   1.000  H
  H675     1.0000 0.92592  0.49069  0.58037  Biso   1.000  H
  H676     1.0000 0.94742  0.55631  0.53487  Biso   1.000  H
  C535     1.0000 0.41250  0.20859  0.95369  Biso   1.000  C
  H677     1.0000 0.50011  0.16330  0.79868  Biso   1.000  H
  H678     1.0000 0.43800  0.11982  0.73726  Biso   1.000  H
  H679     1.0000 0.44071  0.13662  0.87556  Biso   1.000  H
  C536     1.0000 0.52432  0.11792  0.26283  Biso   1.000  C
  H680     1.0000 0.60751  0.28162  0.31271  Biso   1.000  H
  H681     1.0000 0.56271  0.25031  0.20409  Biso   1.000  H
  H682     1.0000 0.60491  0.22610  0.24718  Biso   1.000  H
  H683     1.0000 0.75598  0.58079  0.97416  Biso   1.000  H
  C537     1.0000 0.84269  0.65131  0.97220  Biso   1.000  C
  C538     1.0000 0.81330  0.54952  0.03656  Biso   1.000  C
  C539     1.0000 0.88210  0.40642  0.26283  Biso   1.000  C
  H684     1.0000 0.93812  0.47111  0.39076  Biso   1.000  H
  C540     1.0000 0.94851  0.51640  0.22466  Biso   1.000  C
  H685     1.0000 0.41922  0.17521  0.97416  Biso   1.000  H
  C541     1.0000 0.34871  0.19139  0.97220  Biso   1.000  C
  C542     1.0000 0.45049  0.26380  0.03656  Biso   1.000  C
  H686     1.0000 0.55162  0.14831  0.20436  Biso   1.000  H
  C543     1.0000 0.46860  0.07400  0.19873  Biso   1.000  C
  C544     1.0000 0.55690  0.08798  0.32326  Biso   1.000  C
  H687     1.0000 0.83248  0.67649  0.92348  Biso   1.000  H
  H688     1.0000 0.88101  0.65730  0.94314  Biso   1.000  H
  C545     1.0000 0.84942  0.67111  0.10361  Biso   1.000  C
  N83      1.0000 0.76441  0.48849  0.02414  Biso   1.000  N
  C546     1.0000 0.81852  0.56822  0.16306  Biso   1.000  C
  H689     1.0000 0.85101  0.55261  0.00867  Biso   1.000  H
  N84      1.0000 0.85301  0.36360  0.35857  Biso   1.000  N
  H690     1.0000 0.85170  0.40329  0.20436  Biso   1.000  H
  C547     1.0000 0.92599  0.39460  0.19873  Biso   1.000  C
  H691     1.0000 0.92109  0.51932  0.16780  Biso   1.000  H
  H692     1.0000 0.97261  0.55552  0.26301  Biso   1.000  H
  C548     1.0000 0.99002  0.49951  0.15528  Biso   1.000  C
  H693     1.0000 0.32348  0.15598  0.92348  Biso   1.000  H
  H694     1.0000 0.34272  0.22372  0.94314  Biso   1.000  H
  C549     1.0000 0.32891  0.17829  0.10361  Biso   1.000  C
  N85      1.0000 0.51149  0.27589  0.02414  Biso   1.000  N
  C550     1.0000 0.43179  0.25031  0.16306  Biso   1.000  C
  H695     1.0000 0.44741  0.29842  0.00867  Biso   1.000  H
  H696     1.0000 0.44020  0.04630  0.25800  Biso   1.000  H
  H697     1.0000 0.45049  0.09530  0.16056  Biso   1.000  H
  C551     1.0000 0.47948  0.03938  0.10486  Biso   1.000  C
  N86      1.0000 0.61399  0.13411  0.36537  Biso   1.000  N
  H698     1.0000 0.53302  0.06192  0.39076  Biso   1.000  H
  C552     1.0000 0.56792  0.05151  0.22466  Biso   1.000  C
  H699     1.0000 0.88121  0.71269  0.11067  Biso   1.000  H
  H700     1.0000 0.81218  0.66828  0.13186  Biso   1.000  H
  C553     1.0000 0.86370  0.63270  0.17835  Biso   1.000  C
  C554     1.0000 0.77139  0.44929  0.97434  Biso   1.000  C
  H701     1.0000 0.82999  0.54419  0.21259  Biso   1.000  H
  H702     1.0000 0.77972  0.56112  0.19176  Biso   1.000  H
  C555     1.0000 0.79633  0.33211  0.35893  Biso   1.000  C
  H703     1.0000 0.95371  0.39390  0.25800  Biso   1.000  H
  H704     1.0000 0.90470  0.35522  0.16056  Biso   1.000  H
  C556     1.0000 0.96062  0.44011  0.10486  Biso   1.000  C
  H705     1.0000 0.00941  0.52822  0.08958  Biso   1.000  H
  H706     1.0000 0.02140  0.50340  0.21035  Biso   1.000  H
  H707     1.0000 0.28731  0.16850  0.11067  Biso   1.000  H
  H708     1.0000 0.33169  0.14390  0.13186  Biso   1.000  H
  C557     1.0000 0.36729  0.23099  0.17835  Biso   1.000  C
  C558     1.0000 0.55072  0.32210  0.97434  Biso   1.000  C
  H709     1.0000 0.45581  0.28581  0.21259  Biso   1.000  H
  H710     1.0000 0.43889  0.21860  0.19176  Biso   1.000  H
  H711     1.0000 0.44138  0.00948  0.06991  Biso   1.000  H
  H712     1.0000 0.50389  0.06628  0.03996  Biso   1.000  H
  C559     1.0000 0.50951  0.01001  0.15528  Biso   1.000  C
  C560     1.0000 0.63011  0.13419  0.47157  Biso   1.000  C
  H713     1.0000 0.59819  0.07889  0.16780  Biso   1.000  H
  H714     1.0000 0.58290  0.02739  0.26301  Biso   1.000  H
  H715     1.0000 0.86540  0.64381  0.26345  Biso   1.000  H
  H716     1.0000 0.90310  0.63922  0.15564  Biso   1.000  H
  C561     1.0000 0.71709  0.38790  0.97014  Biso   1.000  C
  C562     1.0000 0.82718  0.45639  0.91981  Biso   1.000  C
  C563     1.0000 0.76759  0.28259  0.44815  Biso   1.000  C
  C564     1.0000 0.75621  0.33780  0.27347  Biso   1.000  C
  H717     1.0000 0.99051  0.43191  0.06991  Biso   1.000  H
  H718     1.0000 0.93370  0.43760  0.03996  Biso   1.000  H
  H719     1.0000 0.35622  0.22160  0.26345  Biso   1.000  H
  H720     1.0000 0.36079  0.26389  0.15564  Biso   1.000  H
  C565     1.0000 0.61209  0.32920  0.97014  Biso   1.000  C
  C566     1.0000 0.54359  0.37079  0.91981  Biso   1.000  C
  H721     1.0000 0.51879  0.99061  0.08958  Biso   1.000  H
  H722     1.0000 0.48201  0.97861  0.21035  Biso   1.000  H
  C567     1.0000 0.68990  0.18861  0.50438  Biso   1.000  C
  C568     1.0000 0.59351  0.10169  0.57903  Biso   1.000  C
  C569     1.0000 0.60618  0.08648  0.56401  Biso   1.000  C
  C570     1.0000 0.66210  0.38340  0.96907  Biso   1.000  C
  C571     1.0000 0.72131  0.33789  0.96907  Biso   1.000  C
  H723     1.0000 0.82311  0.45321  0.83256  Biso   1.000  H
  H724     1.0000 0.83451  0.42552  0.95021  Biso   1.000  H
  H725     1.0000 0.86049  0.49519  0.94100  Biso   1.000  H
  C572     1.0000 0.71602  0.23452  0.42392  Biso   1.000  C
  C573     1.0000 0.79811  0.28969  0.55999  Biso   1.000  C
  H726     1.0000 0.71840  0.32590  0.31271  Biso   1.000  H
  H727     1.0000 0.74969  0.31240  0.20409  Biso   1.000  H
  H728     1.0000 0.77392  0.37881  0.24718  Biso   1.000  H
  C574     1.0000 0.61659  0.27871  0.96907  Biso   1.000  C
  H729     1.0000 0.54682  0.36991  0.83256  Biso   1.000  H
  H730     1.0000 0.57451  0.40902  0.95021  Biso   1.000  H
  H731     1.0000 0.50480  0.36532  0.94100  Biso   1.000  H
  C575     1.0000 0.71602  0.19280  0.61461  Biso   1.000  C
  H732     1.0000 0.61909  0.11100  0.64876  Biso   1.000  H
  H733     1.0000 0.56410  0.11369  0.59351  Biso   1.000  H
  H734     1.0000 0.57340  0.05918  0.56338  Biso   1.000  H
  H735     1.0000 0.62909  0.10130  0.63803  Biso   1.000  H
  H736     1.0000 0.56481  0.07409  0.58037  Biso   1.000  H
  H737     1.0000 0.60891  0.05261  0.53487  Biso   1.000  H
  H738     1.0000 0.65910  0.41811  0.96764  Biso   1.000  H
  C576     1.0000 0.67082  0.28290  0.97014  Biso   1.000  C
  H739     1.0000 0.75901  0.34089  0.96764  Biso   1.000  H
  H740     1.0000 0.69700  0.23192  0.34990  Biso   1.000  H
  C577     1.0000 0.77000  0.24219  0.64321  Biso   1.000  C
  H741     1.0000 0.83469  0.32391  0.57715  Biso   1.000  H
  H742     1.0000 0.58189  0.24100  0.96764  Biso   1.000  H
  H743     1.0000 0.69689  0.16180  0.67111  Biso   1.000  H
  C578     1.0000 0.67789  0.22861  0.97434  Biso   1.000  C
  C579     1.0000 0.79682  0.24802  0.76319  Biso   1.000  C
  C580     1.0000 0.62920  0.17278  0.91981  Biso   1.000  C
  N87      1.0000 0.72408  0.23558  0.02414  Biso   1.000  N
  N88      1.0000 0.77253  0.20171  0.83032  Biso   1.000  N
  C581     1.0000 0.84879  0.30689  0.79662  Biso   1.000  C
  H744     1.0000 0.63011  0.17688  0.83256  Biso   1.000  H
  H745     1.0000 0.59100  0.16551  0.95021  Biso   1.000  H
  H746     1.0000 0.63471  0.13949  0.94100  Biso   1.000  H
  C582     1.0000 0.73619  0.18672  0.03656  Biso   1.000  C
  C583     1.0000 0.79142  0.20392  0.95369  Biso   1.000  C
  H747     1.0000 0.83670  0.33679  0.79868  Biso   1.000  H
  H748     1.0000 0.88020  0.31822  0.73726  Biso   1.000  H
  H749     1.0000 0.86341  0.30411  0.87556  Biso   1.000  H
  C584     1.0000 0.74971  0.18151  0.16306  Biso   1.000  C
  H750     1.0000 0.70161  0.14901  0.00867  Biso   1.000  H
  H751     1.0000 0.82480  0.24400  0.97416  Biso   1.000  H
  C585     1.0000 0.80860  0.15730  0.97220  Biso   1.000  C
  C586     1.0000 0.76900  0.13631  0.17835  Biso   1.000  C
  H752     1.0000 0.71420  0.17000  0.21259  Biso   1.000  H
  H753     1.0000 0.78141  0.22032  0.19176  Biso   1.000  H
  H754     1.0000 0.84398  0.16749  0.92348  Biso   1.000  H
  H755     1.0000 0.77630  0.11898  0.94314  Biso   1.000  H
  C587     1.0000 0.82171  0.15060  0.10361  Biso   1.000  C
  H756     1.0000 0.77842  0.13459  0.26345  Biso   1.000  H
  H757     1.0000 0.73608  0.09689  0.15564  Biso   1.000  H
  H758     1.0000 0.83151  0.11880  0.11067  Biso   1.000  H
  H759     1.0000 0.85613  0.18782  0.13186  Biso   1.000  H
