data_image0
_cell_length_a       13.701
_cell_length_b       13.701
_cell_length_c       84.866
_cell_angle_alpha    90
_cell_angle_beta     90
_cell_angle_gamma    120

_symmetry_space_group_name_H-M    "P 1"
_symmetry_int_tables_number       1

loop_
  _symmetry_equiv_pos_as_xyz
  'x, y, z'

loop_
  _atom_site_label
  _atom_site_occupancy
  _atom_site_fract_x
  _atom_site_fract_y
  _atom_site_fract_z
  _atom_site_thermal_displace_type
  _atom_site_B_iso_or_equiv
  _atom_site_type_symbol
  C1       1.0000 0.52141  0.48578  0.46432  Biso   1.000  C
  C2       1.0000 0.45208  0.39982  0.45220  Biso   1.000  C
  N1       1.0000 0.53095  0.58135  0.46334  Biso   1.000  N
  C3       1.0000 0.57672  0.45072  0.47701  Biso   1.000  C
  C4       1.0000 0.44200  0.43833  0.43690  Biso   1.000  C
  C5       1.0000 0.40140  0.28503  0.45407  Biso   1.000  C
  C6       1.0000 0.60207  0.67339  0.47381  Biso   1.000  C
  H1       1.0000 0.59938  0.50348  0.48590  Biso   1.000  H
  H2       1.0000 0.64314  0.45131  0.47260  Biso   1.000  H
  H3       1.0000 0.52283  0.37462  0.48070  Biso   1.000  H
  C7       1.0000 0.37888  0.36450  0.42554  Biso   1.000  C
  H4       1.0000 0.48018  0.51688  0.43470  Biso   1.000  H
  C8       1.0000 0.33450  0.20859  0.44286  Biso   1.000  C
  H5       1.0000 0.41350  0.25697  0.46370  Biso   1.000  H
  H6       1.0000 0.62972  0.64431  0.48250  Biso   1.000  H
  C9       1.0000 0.53731  0.72589  0.48076  Biso   1.000  C
  C10      1.0000 0.70126  0.75994  0.46456  Biso   1.000  C
  C11      1.0000 0.38211  0.40993  0.40897  Biso   1.000  C
  C12      1.0000 0.32802  0.25300  0.42811  Biso   1.000  C
  C13      1.0000 0.28427  0.08639  0.44570  Biso   1.000  C
  H7       1.0000 0.50156  0.74519  0.47210  Biso   1.000  H
  H8       1.0000 0.47620  0.66951  0.48750  Biso   1.000  H
  C14      1.0000 0.60791  0.82913  0.49024  Biso   1.000  C
  N2       1.0000 0.76944  0.71165  0.45972  Biso   1.000  N
  C15      1.0000 0.77888  0.86512  0.47505  Biso   1.000  C
  H9       1.0000 0.67461  0.78371  0.45511  Biso   1.000  H
  N3       1.0000 0.29609  0.35439  0.40067  Biso   1.000  N
  C16      1.0000 0.48579  0.51511  0.40474  Biso   1.000  C
  H10      1.0000 0.28659  0.20269  0.41980  Biso   1.000  H
  N4       1.0000 0.28838  0.05782  0.45972  Biso   1.000  N
  C17      1.0000 0.25698  0.01298  0.43110  Biso   1.000  C
  C18      1.0000 0.19398  0.99806  0.43350  Biso   1.000  C
  H11      1.0000 0.63745  0.80924  0.49960  Biso   1.000  H
  H12      1.0000 0.56110  0.86091  0.49390  Biso   1.000  H
  C19      1.0000 0.70428  0.91560  0.48073  Biso   1.000  C
  C20      1.0000 0.80212  0.71569  0.44570  Biso   1.000  C
  H13      1.0000 0.80764  0.84220  0.48420  Biso   1.000  H
  H14      1.0000 0.84398  0.92159  0.46890  Biso   1.000  H
  C21      1.0000 0.28448  0.39889  0.38553  Biso   1.000  C
  H15      1.0000 0.54800  0.52421  0.41150  Biso   1.000  H
  H16      1.0000 0.47389  0.57933  0.40630  Biso   1.000  H
  H17      1.0000 0.50443  0.51182  0.39370  Biso   1.000  H
  C22      1.0000 0.24014  0.94134  0.46456  Biso   1.000  C
  H18      1.0000 0.21811  0.02486  0.42270  Biso   1.000  H
  H19      1.0000 0.30714  0.05680  0.42250  Biso   1.000  H
  H20      1.0000 0.18932  0.92465  0.43490  Biso   1.000  H
  H21      1.0000 0.17828  0.98593  0.42800  Biso   1.000  H
  H22      1.0000 0.26640  0.94817  0.43340  Biso   1.000  H
  H23      1.0000 0.12034  0.99048  0.43550  Biso   1.000  H
  H24      1.0000 0.75022  0.98370  0.48720  Biso   1.000  H
  H25      1.0000 0.67543  0.93760  0.47150  Biso   1.000  H
  C23      1.0000 0.87412  0.66555  0.44286  Biso   1.000  C
  C24      1.0000 0.80401  0.80604  0.43350  Biso   1.000  C
  C25      1.0000 0.75600  0.74300  0.43110  Biso   1.000  C
  C26      1.0000 0.29619  0.33357  0.37213  Biso   1.000  C
  C27      1.0000 0.16754  0.38954  0.38482  Biso   1.000  C
  H26      1.0000 0.34431  0.47988  0.38459  Biso   1.000  H
  C28      1.0000 0.32663  0.92878  0.47381  Biso   1.000  C
  C29      1.0000 0.13488  0.91387  0.47505  Biso   1.000  C
  H27      1.0000 0.21633  0.89094  0.45511  Biso   1.000  H
  C30      1.0000 0.92503  0.67204  0.42811  Biso   1.000  C
  C31      1.0000 0.88365  0.59863  0.45407  Biso   1.000  C
  H28      1.0000 0.73536  0.81076  0.43490  Biso   1.000  H
  H29      1.0000 0.80685  0.78194  0.42270  Biso   1.000  H
  H30      1.0000 0.87011  0.87970  0.43550  Biso   1.000  H
  H31      1.0000 0.80747  0.82172  0.42800  Biso   1.000  H
  H32      1.0000 0.68169  0.73364  0.43340  Biso   1.000  H
  H33      1.0000 0.74972  0.69294  0.42250  Biso   1.000  H
  C32      1.0000 0.27982  0.37732  0.35591  Biso   1.000  C
  N5       1.0000 0.41180  0.35153  0.37246  Biso   1.000  N
  H34      1.0000 0.24016  0.25157  0.37329  Biso   1.000  H
  C33      1.0000 0.15262  0.43530  0.36924  Biso   1.000  C
  H35      1.0000 0.10803  0.30964  0.38600  Biso   1.000  H
  H36      1.0000 0.15988  0.43260  0.39360  Biso   1.000  H
  N6       1.0000 0.41875  0.94969  0.46334  Biso   1.000  N
  H37      1.0000 0.35572  0.98550  0.48250  Biso   1.000  H
  C34      1.0000 0.27417  0.81147  0.48076  Biso   1.000  C
  C35      1.0000 0.08439  0.78880  0.48073  Biso   1.000  C
  H38      1.0000 0.15775  0.96545  0.48420  Biso   1.000  H
  H39      1.0000 0.07838  0.92246  0.46890  Biso   1.000  H
  C36      1.0000 0.98563  0.62113  0.42554  Biso   1.000  C
  H40      1.0000 0.91616  0.71342  0.41980  Biso   1.000  H
  C37      1.0000 0.94769  0.54789  0.45220  Biso   1.000  C
  H41      1.0000 0.84350  0.58649  0.46370  Biso   1.000  H
  C38      1.0000 0.16509  0.36872  0.35521  Biso   1.000  C
  H42      1.0000 0.33948  0.45679  0.35441  Biso   1.000  H
  H43      1.0000 0.28621  0.33214  0.34730  Biso   1.000  H
  C39      1.0000 0.43227  0.27348  0.37596  Biso   1.000  C
  H44      1.0000 0.21004  0.51612  0.36830  Biso   1.000  H
  H45      1.0000 0.07720  0.42839  0.36890  Biso   1.000  H
  C40      1.0000 0.51417  0.03557  0.46432  Biso   1.000  C
  H46      1.0000 0.25487  0.75652  0.47210  Biso   1.000  H
  H47      1.0000 0.33057  0.80675  0.48750  Biso   1.000  H
  C41      1.0000 0.17094  0.77885  0.49024  Biso   1.000  C
  H48      1.0000 0.01633  0.76655  0.48720  Biso   1.000  H
  H49      1.0000 0.06244  0.73789  0.47150  Biso   1.000  H
  C42      1.0000 0.02782  0.61793  0.40897  Biso   1.000  C
  C43      1.0000 0.99632  0.55801  0.43690  Biso   1.000  C
  C44      1.0000 0.96444  0.47862  0.46432  Biso   1.000  C
  H50      1.0000 0.10509  0.28857  0.35580  Biso   1.000  H
  H51      1.0000 0.15690  0.40007  0.34510  Biso   1.000  H
  C45      1.0000 0.55462  0.30332  0.37576  Biso   1.000  C
  C46      1.0000 0.34492  0.15339  0.38104  Biso   1.000  C
  C47      1.0000 0.60021  0.05234  0.45220  Biso   1.000  C
  C48      1.0000 0.54931  0.12600  0.47701  Biso   1.000  C
  H52      1.0000 0.19082  0.82824  0.49960  Biso   1.000  H
  H53      1.0000 0.13911  0.70031  0.49390  Biso   1.000  H
  N7       1.0000 0.05832  0.70389  0.40067  Biso   1.000  N
  C49      1.0000 0.02930  0.51418  0.40474  Biso   1.000  C
  H54      1.0000 0.03672  0.51983  0.43470  Biso   1.000  H
  C50      1.0000 0.87403  0.42333  0.47701  Biso   1.000  C
  N8       1.0000 0.05040  0.46909  0.46334  Biso   1.000  N
  C51      1.0000 0.63743  0.41608  0.37572  Biso   1.000  C
  C52      1.0000 0.58391  0.22132  0.37572  Biso   1.000  C
  H55      1.0000 0.28513  0.15541  0.38710  Biso   1.000  H
  H56      1.0000 0.38151  0.12204  0.38760  Biso   1.000  H
  H57      1.0000 0.31242  0.10619  0.37170  Biso   1.000  H
  C53      1.0000 0.56174  0.00371  0.43690  Biso   1.000  C
  C54      1.0000 0.71501  0.11639  0.45407  Biso   1.000  C
  H58      1.0000 0.49653  0.09591  0.48590  Biso   1.000  H
  H59      1.0000 0.54872  0.19182  0.47260  Biso   1.000  H
  H60      1.0000 0.62543  0.14816  0.48070  Biso   1.000  H
  C55      1.0000 0.11442  0.71552  0.38553  Biso   1.000  C
  H61      1.0000 0.97623  0.45199  0.41150  Biso   1.000  H
  H62      1.0000 0.10542  0.52615  0.40630  Biso   1.000  H
  H63      1.0000 0.00747  0.49564  0.39370  Biso   1.000  H
  H64      1.0000 0.90411  0.40058  0.48590  Biso   1.000  H
  H65      1.0000 0.80819  0.35692  0.47260  Biso   1.000  H
  H66      1.0000 0.85183  0.47719  0.48070  Biso   1.000  H
  C56      1.0000 0.07128  0.39788  0.47381  Biso   1.000  C
  H67      1.0000 0.61693  0.47289  0.37570  Biso   1.000  H
  C57      1.0000 0.74873  0.44541  0.37576  Biso   1.000  C
  C58      1.0000 0.69671  0.25132  0.37576  Biso   1.000  C
  H68      1.0000 0.52709  0.14403  0.37570  Biso   1.000  H
  C59      1.0000 0.63555  0.01441  0.42554  Biso   1.000  C
  H69      1.0000 0.48313  0.96342  0.43470  Biso   1.000  H
  C60      1.0000 0.79144  0.12591  0.44286  Biso   1.000  C
  H70      1.0000 0.74302  0.15651  0.46370  Biso   1.000  H
  C61      1.0000 0.03740  0.70381  0.37213  Biso   1.000  C
  H71      1.0000 0.13559  0.65569  0.38459  Biso   1.000  H
  C62      1.0000 0.22203  0.83250  0.38482  Biso   1.000  C
  C63      1.0000 0.05873  0.29877  0.46456  Biso   1.000  C
  H72      1.0000 0.01466  0.37032  0.48250  Biso   1.000  H
  C64      1.0000 0.18865  0.46269  0.48076  Biso   1.000  C
  C65      1.0000 0.84118  0.56770  0.37596  Biso   1.000  C
  C66      1.0000 0.77868  0.36257  0.37572  Biso   1.000  C
  C67      1.0000 0.72650  0.15878  0.37596  Biso   1.000  C
  C68      1.0000 0.59011  0.97227  0.40897  Biso   1.000  C
  C69      1.0000 0.74701  0.07501  0.42811  Biso   1.000  C
  C70      1.0000 0.91363  0.19789  0.44570  Biso   1.000  C
  N9       1.0000 0.93974  0.58818  0.37246  Biso   1.000  N
  C71      1.0000 0.09751  0.72024  0.35591  Biso   1.000  C
  H73      1.0000 0.01141  0.75986  0.37329  Biso   1.000  H
  H74      1.0000 0.20164  0.89200  0.38600  Biso   1.000  H
  H75      1.0000 0.27268  0.84009  0.39360  Biso   1.000  H
  C72      1.0000 0.28270  0.84742  0.36924  Biso   1.000  C
  N10      1.0000 0.94224  0.23059  0.45972  Biso   1.000  N
  C73      1.0000 0.08627  0.22115  0.47505  Biso   1.000  C
  H76      1.0000 0.10913  0.32540  0.45511  Biso   1.000  H
  H77      1.0000 0.24366  0.49842  0.47210  Biso   1.000  H
  H78      1.0000 0.19329  0.52379  0.48750  Biso   1.000  H
  C74      1.0000 0.22125  0.39215  0.49024  Biso   1.000  C
  C75      1.0000 0.80854  0.65510  0.38104  Biso   1.000  C
  H79      1.0000 0.85604  0.38313  0.37570  Biso   1.000  H
  N11      1.0000 0.64852  0.06034  0.37246  Biso   1.000  N
  C76      1.0000 0.84663  0.19148  0.38104  Biso   1.000  C
  N12      1.0000 0.64565  0.94176  0.40067  Biso   1.000  N
  C77      1.0000 0.48483  0.97076  0.40474  Biso   1.000  C
  H80      1.0000 0.79732  0.08394  0.41980  Biso   1.000  H
  C78      1.0000 0.98704  0.24399  0.43110  Biso   1.000  C
  C79      1.0000 0.00204  0.19603  0.43350  Biso   1.000  C
  C80      1.0000 0.20362  0.83495  0.35521  Biso   1.000  C
  H81      1.0000 0.11734  0.66049  0.35441  Biso   1.000  H
  H82      1.0000 0.04592  0.71384  0.34730  Biso   1.000  H
  H83      1.0000 0.30611  0.79003  0.36830  Biso   1.000  H
  H84      1.0000 0.35121  0.92285  0.36890  Biso   1.000  H
  C81      1.0000 0.21137  0.29573  0.48073  Biso   1.000  C
  H85      1.0000 0.03460  0.19241  0.48420  Biso   1.000  H
  H86      1.0000 0.07763  0.15600  0.46890  Biso   1.000  H
  H87      1.0000 0.17179  0.36257  0.49960  Biso   1.000  H
  H88      1.0000 0.29982  0.43892  0.49390  Biso   1.000  H
  H89      1.0000 0.87035  0.71494  0.38710  Biso   1.000  H
  H90      1.0000 0.74054  0.61852  0.38760  Biso   1.000  H
  H91      1.0000 0.79385  0.68763  0.37170  Biso   1.000  H
  C82      1.0000 0.66639  0.96266  0.37213  Biso   1.000  C
  H92      1.0000 0.84465  0.12970  0.38710  Biso   1.000  H
  H93      1.0000 0.87801  0.25949  0.38760  Biso   1.000  H
  H94      1.0000 0.89386  0.20623  0.37170  Biso   1.000  H
  C83      1.0000 0.60121  0.88572  0.38553  Biso   1.000  C
  H95      1.0000 0.47579  0.02377  0.41150  Biso   1.000  H
  H96      1.0000 0.42072  0.89465  0.40630  Biso   1.000  H
  H97      1.0000 0.48820  0.99267  0.39370  Biso   1.000  H
  H98      1.0000 0.97513  0.19317  0.42270  Biso   1.000  H
  H99      1.0000 0.94327  0.25031  0.42250  Biso   1.000  H
  H100     1.0000 0.07543  0.26472  0.43490  Biso   1.000  H
  H101     1.0000 0.01414  0.19249  0.42800  Biso   1.000  H
  H102     1.0000 0.05187  0.31832  0.43340  Biso   1.000  H
  H103     1.0000 0.00961  0.12987  0.43550  Biso   1.000  H
  H104     1.0000 0.18355  0.89495  0.35580  Biso   1.000  H
  H105     1.0000 0.24325  0.84312  0.34510  Biso   1.000  H
  H106     1.0000 0.23351  0.24980  0.48720  Biso   1.000  H
  H107     1.0000 0.26224  0.32464  0.47150  Biso   1.000  H
  C84      1.0000 0.62277  0.90257  0.35591  Biso   1.000  C
  H108     1.0000 0.74846  0.98871  0.37329  Biso   1.000  H
  H109     1.0000 0.52015  0.86448  0.38459  Biso   1.000  H
  C85      1.0000 0.61045  0.77809  0.38482  Biso   1.000  C
  C86      1.0000 0.63125  0.79647  0.35521  Biso   1.000  C
  H110     1.0000 0.54317  0.88277  0.35441  Biso   1.000  H
  H111     1.0000 0.66797  0.95415  0.34730  Biso   1.000  H
  H112     1.0000 0.69036  0.79849  0.38600  Biso   1.000  H
  H113     1.0000 0.56742  0.72736  0.39360  Biso   1.000  H
  C87      1.0000 0.56479  0.71741  0.36924  Biso   1.000  C
  H114     1.0000 0.71146  0.81661  0.35580  Biso   1.000  H
  H115     1.0000 0.59984  0.75686  0.34510  Biso   1.000  H
  H116     1.0000 0.48388  0.69398  0.36830  Biso   1.000  H
  H117     1.0000 0.57169  0.64890  0.36890  Biso   1.000  H
  C88      1.0000 0.45068  0.57672  0.52299  Biso   1.000  C
  C89      1.0000 0.48581  0.52143  0.53568  Biso   1.000  C
  H118     1.0000 0.50348  0.59939  0.51410  Biso   1.000  H
  H119     1.0000 0.45134  0.64313  0.52740  Biso   1.000  H
  H120     1.0000 0.37459  0.52278  0.51930  Biso   1.000  H
  N13      1.0000 0.58132  0.53087  0.53666  Biso   1.000  N
  C90      1.0000 0.39982  0.45207  0.54780  Biso   1.000  C
  C91      1.0000 0.67342  0.60209  0.52619  Biso   1.000  C
  C92      1.0000 0.43830  0.44204  0.56310  Biso   1.000  C
  C93      1.0000 0.28501  0.40142  0.54593  Biso   1.000  C
  C94      1.0000 0.72590  0.53728  0.51924  Biso   1.000  C
  H121     1.0000 0.64433  0.62973  0.51750  Biso   1.000  H
  C95      1.0000 0.75991  0.70120  0.53544  Biso   1.000  C
  C96      1.0000 0.36448  0.37892  0.57446  Biso   1.000  C
  H122     1.0000 0.51695  0.48022  0.56530  Biso   1.000  H
  C97      1.0000 0.20863  0.33450  0.55714  Biso   1.000  C
  H123     1.0000 0.25695  0.41347  0.53630  Biso   1.000  H
  C98      1.0000 0.82909  0.60790  0.50976  Biso   1.000  C
  H124     1.0000 0.74523  0.50163  0.52790  Biso   1.000  H
  H125     1.0000 0.66952  0.47617  0.51250  Biso   1.000  H
  C99      1.0000 0.86511  0.77890  0.52495  Biso   1.000  C
  N14      1.0000 0.71160  0.76938  0.54028  Biso   1.000  N
  H126     1.0000 0.78372  0.67465  0.54489  Biso   1.000  H
  C100     1.0000 0.25298  0.32801  0.57189  Biso   1.000  C
  C101     1.0000 0.40995  0.38212  0.59103  Biso   1.000  C
  C102     1.0000 0.08637  0.28427  0.55430  Biso   1.000  C
  H127     1.0000 0.80917  0.63740  0.50040  Biso   1.000  H
  H128     1.0000 0.86096  0.56113  0.50610  Biso   1.000  H
  C103     1.0000 0.91562  0.70432  0.51927  Biso   1.000  C
  H129     1.0000 0.84226  0.80764  0.51580  Biso   1.000  H
  H130     1.0000 0.92162  0.84405  0.53110  Biso   1.000  H
  C104     1.0000 0.71569  0.80208  0.55430  Biso   1.000  C
  H131     1.0000 0.20273  0.28663  0.58020  Biso   1.000  H
  N15      1.0000 0.35437  0.29607  0.59933  Biso   1.000  N
  C105     1.0000 0.51506  0.48578  0.59526  Biso   1.000  C
  N16      1.0000 0.05778  0.28840  0.54028  Biso   1.000  N
  C106     1.0000 0.01294  0.25697  0.56890  Biso   1.000  C
  C107     1.0000 0.99803  0.19401  0.56650  Biso   1.000  C
  H132     1.0000 0.98377  0.75025  0.51280  Biso   1.000  H
  H133     1.0000 0.93759  0.67541  0.52850  Biso   1.000  H
  C108     1.0000 0.66552  0.87414  0.55714  Biso   1.000  C
  C109     1.0000 0.80599  0.80402  0.56650  Biso   1.000  C
  C110     1.0000 0.74304  0.75606  0.56890  Biso   1.000  C
  C111     1.0000 0.39889  0.28452  0.61447  Biso   1.000  C
  H134     1.0000 0.52419  0.54798  0.58850  Biso   1.000  H
  H135     1.0000 0.57933  0.47390  0.59370  Biso   1.000  H
  H136     1.0000 0.51182  0.50441  0.60630  Biso   1.000  H
  C112     1.0000 0.94131  0.24011  0.53544  Biso   1.000  C
  H137     1.0000 0.02490  0.21811  0.57730  Biso   1.000  H
  H138     1.0000 0.05677  0.30711  0.57750  Biso   1.000  H
  H139     1.0000 0.92458  0.18929  0.56510  Biso   1.000  H
  H140     1.0000 0.98582  0.17833  0.57200  Biso   1.000  H
  H141     1.0000 0.94811  0.26640  0.56660  Biso   1.000  H
  H142     1.0000 0.99036  0.12027  0.56450  Biso   1.000  H
  C113     1.0000 0.67199  0.92504  0.57189  Biso   1.000  C
  C114     1.0000 0.59861  0.88366  0.54593  Biso   1.000  C
  H143     1.0000 0.81070  0.73533  0.56510  Biso   1.000  H
  H144     1.0000 0.78191  0.80680  0.57730  Biso   1.000  H
  H145     1.0000 0.87968  0.87009  0.56450  Biso   1.000  H
  H146     1.0000 0.82170  0.80756  0.57200  Biso   1.000  H
  H147     1.0000 0.73361  0.68173  0.56660  Biso   1.000  H
  H148     1.0000 0.69288  0.74974  0.57750  Biso   1.000  H
  H149     1.0000 0.47993  0.34428  0.61541  Biso   1.000  H
  C115     1.0000 0.38952  0.16755  0.61518  Biso   1.000  C
  C116     1.0000 0.33365  0.29624  0.62787  Biso   1.000  C
  C117     1.0000 0.92871  0.32658  0.52619  Biso   1.000  C
  C118     1.0000 0.91383  0.13493  0.52495  Biso   1.000  C
  H150     1.0000 0.89089  0.21634  0.54489  Biso   1.000  H
  H151     1.0000 0.71344  0.91611  0.58020  Biso   1.000  H
  C119     1.0000 0.62113  0.98564  0.57446  Biso   1.000  C
  C120     1.0000 0.54794  0.94771  0.54780  Biso   1.000  C
  H152     1.0000 0.58650  0.84354  0.53630  Biso   1.000  H
  H153     1.0000 0.30958  0.10796  0.61400  Biso   1.000  H
  H154     1.0000 0.43261  0.15988  0.60640  Biso   1.000  H
  C121     1.0000 0.43534  0.15263  0.63076  Biso   1.000  C
  N17      1.0000 0.35150  0.41179  0.62754  Biso   1.000  N
  C122     1.0000 0.37733  0.27980  0.64409  Biso   1.000  C
  H155     1.0000 0.25162  0.24019  0.62671  Biso   1.000  H
  N18      1.0000 0.94959  0.41870  0.53666  Biso   1.000  N
  H156     1.0000 0.98540  0.35574  0.51750  Biso   1.000  H
  C123     1.0000 0.81137  0.27407  0.51924  Biso   1.000  C
  C124     1.0000 0.78870  0.08436  0.51927  Biso   1.000  C
  H157     1.0000 0.96539  0.15777  0.51580  Biso   1.000  H
  H158     1.0000 0.92241  0.07838  0.53110  Biso   1.000  H
  C125     1.0000 0.55802  0.99634  0.56310  Biso   1.000  C
  C126     1.0000 0.61790  0.02778  0.59103  Biso   1.000  C
  C127     1.0000 0.47862  0.96440  0.53568  Biso   1.000  C
  H159     1.0000 0.51615  0.21002  0.63170  Biso   1.000  H
  H160     1.0000 0.42843  0.07720  0.63110  Biso   1.000  H
  C128     1.0000 0.36873  0.16510  0.64479  Biso   1.000  C
  C129     1.0000 0.27354  0.43235  0.62404  Biso   1.000  C
  H161     1.0000 0.45680  0.33947  0.64559  Biso   1.000  H
  H162     1.0000 0.33214  0.28621  0.65270  Biso   1.000  H
  C130     1.0000 0.03558  0.51418  0.53568  Biso   1.000  C
  H163     1.0000 0.75639  0.25477  0.52790  Biso   1.000  H
  H164     1.0000 0.80668  0.33054  0.51250  Biso   1.000  H
  C131     1.0000 0.77877  0.17092  0.50976  Biso   1.000  C
  H165     1.0000 0.76647  0.01627  0.51280  Biso   1.000  H
  H166     1.0000 0.73777  0.06237  0.52850  Biso   1.000  H
  H167     1.0000 0.51985  0.03663  0.56530  Biso   1.000  H
  N19      1.0000 0.70383  0.05820  0.59933  Biso   1.000  N
  C132     1.0000 0.51424  0.02921  0.59526  Biso   1.000  C
  C133     1.0000 0.42330  0.87405  0.52299  Biso   1.000  C
  N20      1.0000 0.46913  0.05036  0.53666  Biso   1.000  N
  H168     1.0000 0.28859  0.10510  0.64420  Biso   1.000  H
  H169     1.0000 0.40012  0.15693  0.65490  Biso   1.000  H
  C134     1.0000 0.30330  0.55464  0.62424  Biso   1.000  C
  C135     1.0000 0.15338  0.34487  0.61896  Biso   1.000  C
  C136     1.0000 0.12599  0.54933  0.52299  Biso   1.000  C
  C137     1.0000 0.05232  0.60023  0.54780  Biso   1.000  C
  H170     1.0000 0.82820  0.19081  0.50040  Biso   1.000  H
  H171     1.0000 0.70018  0.13914  0.50610  Biso   1.000  H
  C138     1.0000 0.71555  0.11433  0.61447  Biso   1.000  C
  H172     1.0000 0.45197  0.97620  0.58850  Biso   1.000  H
  H173     1.0000 0.52616  0.10531  0.59370  Biso   1.000  H
  H174     1.0000 0.49555  0.00730  0.60630  Biso   1.000  H
  H175     1.0000 0.40061  0.90414  0.51410  Biso   1.000  H
  H176     1.0000 0.35689  0.80823  0.52740  Biso   1.000  H
  H177     1.0000 0.47721  0.85180  0.51930  Biso   1.000  H
  C139     1.0000 0.39791  0.07126  0.52619  Biso   1.000  C
  C140     1.0000 0.22129  0.58388  0.62428  Biso   1.000  C
  C141     1.0000 0.41614  0.63740  0.62428  Biso   1.000  C
  H178     1.0000 0.15540  0.28511  0.61290  Biso   1.000  H
  H179     1.0000 0.12201  0.38153  0.61240  Biso   1.000  H
  H180     1.0000 0.10621  0.31242  0.62830  Biso   1.000  H
  H181     1.0000 0.09592  0.49648  0.51410  Biso   1.000  H
  H182     1.0000 0.19182  0.54874  0.52740  Biso   1.000  H
  H183     1.0000 0.14820  0.62543  0.51930  Biso   1.000  H
  C142     1.0000 0.00373  0.56172  0.56310  Biso   1.000  C
  C143     1.0000 0.11643  0.71502  0.54593  Biso   1.000  C
  H184     1.0000 0.65566  0.13557  0.61541  Biso   1.000  H
  C144     1.0000 0.83249  0.22195  0.61518  Biso   1.000  C
  C145     1.0000 0.70382  0.03730  0.62787  Biso   1.000  C
  H185     1.0000 0.37028  0.01455  0.51750  Biso   1.000  H
  C146     1.0000 0.46277  0.18858  0.51924  Biso   1.000  C
  C147     1.0000 0.29874  0.05862  0.53544  Biso   1.000  C
  H186     1.0000 0.14399  0.52708  0.62430  Biso   1.000  H
  C148     1.0000 0.25129  0.69673  0.62424  Biso   1.000  C
  C149     1.0000 0.44538  0.74873  0.62424  Biso   1.000  C
  H187     1.0000 0.47290  0.61692  0.62430  Biso   1.000  H
  C150     1.0000 0.01444  0.63554  0.57446  Biso   1.000  C
  H188     1.0000 0.96331  0.48308  0.56530  Biso   1.000  H
  C151     1.0000 0.12585  0.79138  0.55714  Biso   1.000  C
  H189     1.0000 0.15648  0.74300  0.53630  Biso   1.000  H
  H190     1.0000 0.89200  0.20156  0.61400  Biso   1.000  H
  H191     1.0000 0.84008  0.27261  0.60640  Biso   1.000  H
  C152     1.0000 0.84743  0.28264  0.63076  Biso   1.000  C
  N21      1.0000 0.58824  0.93971  0.62754  Biso   1.000  N
  C153     1.0000 0.72019  0.09748  0.64409  Biso   1.000  C
  H192     1.0000 0.75981  0.01134  0.62671  Biso   1.000  H
  H193     1.0000 0.49842  0.24353  0.52790  Biso   1.000  H
  H194     1.0000 0.52377  0.19322  0.51250  Biso   1.000  H
  C154     1.0000 0.39203  0.22111  0.50976  Biso   1.000  C
  N22      1.0000 0.23062  0.94223  0.54028  Biso   1.000  N
  C155     1.0000 0.22103  0.08610  0.52495  Biso   1.000  C
  H195     1.0000 0.32540  0.10902  0.54489  Biso   1.000  H
  C156     1.0000 0.36258  0.77873  0.62428  Biso   1.000  C
  C157     1.0000 0.15880  0.72648  0.62404  Biso   1.000  C
  C158     1.0000 0.56766  0.84118  0.62404  Biso   1.000  C
  C159     1.0000 0.07500  0.74705  0.57189  Biso   1.000  C
  C160     1.0000 0.97224  0.59012  0.59103  Biso   1.000  C
  C161     1.0000 0.19790  0.91358  0.55430  Biso   1.000  C
  H196     1.0000 0.79003  0.30606  0.63170  Biso   1.000  H
  H197     1.0000 0.92286  0.35115  0.63110  Biso   1.000  H
  C162     1.0000 0.83499  0.20358  0.64479  Biso   1.000  C
  H198     1.0000 0.66046  0.11728  0.64559  Biso   1.000  H
  H199     1.0000 0.71377  0.04581  0.65270  Biso   1.000  H
  H200     1.0000 0.36259  0.17172  0.50040  Biso   1.000  H
  H201     1.0000 0.43894  0.29974  0.50610  Biso   1.000  H
  C163     1.0000 0.29565  0.21125  0.51927  Biso   1.000  C
  H202     1.0000 0.19232  0.03452  0.51580  Biso   1.000  H
  H203     1.0000 0.15593  0.07750  0.53110  Biso   1.000  H
  H204     1.0000 0.38312  0.85602  0.62430  Biso   1.000  H
  N23      1.0000 0.06034  0.64852  0.62754  Biso   1.000  N
  C164     1.0000 0.19148  0.84658  0.61896  Biso   1.000  C
  C165     1.0000 0.65510  0.80848  0.61896  Biso   1.000  C
  H205     1.0000 0.08396  0.79736  0.58020  Biso   1.000  H
  N24      1.0000 0.94165  0.64557  0.59933  Biso   1.000  N
  C166     1.0000 0.97074  0.48494  0.59526  Biso   1.000  C
  C167     1.0000 0.24402  0.98699  0.56890  Biso   1.000  C
  C168     1.0000 0.19601  0.00190  0.56650  Biso   1.000  C
  H206     1.0000 0.89491  0.18344  0.64420  Biso   1.000  H
  H207     1.0000 0.84307  0.24311  0.65490  Biso   1.000  H
  H208     1.0000 0.24980  0.23342  0.51280  Biso   1.000  H
  H209     1.0000 0.32460  0.26216  0.52850  Biso   1.000  H
  C169     1.0000 0.96257  0.66639  0.62787  Biso   1.000  C
  H210     1.0000 0.12971  0.84464  0.61290  Biso   1.000  H
  H211     1.0000 0.25953  0.87801  0.61240  Biso   1.000  H
  H212     1.0000 0.20622  0.89386  0.62830  Biso   1.000  H
  H213     1.0000 0.71493  0.87034  0.61290  Biso   1.000  H
  H214     1.0000 0.61851  0.74056  0.61240  Biso   1.000  H
  H215     1.0000 0.68762  0.79382  0.62830  Biso   1.000  H
  C170     1.0000 0.88560  0.60107  0.61447  Biso   1.000  C
  H216     1.0000 0.02385  0.47584  0.58850  Biso   1.000  H
  H217     1.0000 0.89462  0.42072  0.59370  Biso   1.000  H
  H218     1.0000 0.99260  0.48823  0.60630  Biso   1.000  H
  H219     1.0000 0.19319  0.97510  0.57730  Biso   1.000  H
  H220     1.0000 0.25033  0.94325  0.57750  Biso   1.000  H
  H221     1.0000 0.26468  0.07531  0.56510  Biso   1.000  H
  H222     1.0000 0.19241  0.01412  0.57200  Biso   1.000  H
  H223     1.0000 0.31829  0.05188  0.56660  Biso   1.000  H
  H224     1.0000 0.12992  0.00957  0.56450  Biso   1.000  H
  C171     1.0000 0.90249  0.62273  0.64409  Biso   1.000  C
  H225     1.0000 0.98860  0.74839  0.62671  Biso   1.000  H
  H226     1.0000 0.86438  0.52008  0.61541  Biso   1.000  H
  C172     1.0000 0.77800  0.61051  0.61518  Biso   1.000  C
  C173     1.0000 0.79643  0.63133  0.64479  Biso   1.000  C
  H227     1.0000 0.88271  0.54318  0.64559  Biso   1.000  H
  H228     1.0000 0.95413  0.66791  0.65270  Biso   1.000  H
  H229     1.0000 0.79838  0.69041  0.61400  Biso   1.000  H
  H230     1.0000 0.72734  0.56745  0.60640  Biso   1.000  H
  C174     1.0000 0.71731  0.56475  0.63076  Biso   1.000  C
  H231     1.0000 0.81647  0.71140  0.64420  Biso   1.000  H
  H232     1.0000 0.75678  0.59989  0.65490  Biso   1.000  H
  H233     1.0000 0.69390  0.48393  0.63170  Biso   1.000  H
  H234     1.0000 0.64875  0.57158  0.63110  Biso   1.000  H
  C175     1.0000 0.23587  0.28941  0.31076  Biso   1.000  C
  C176     1.0000 0.29594  0.33307  0.29453  Biso   1.000  C
  C177     1.0000 0.12974  0.29801  0.31146  Biso   1.000  C
  H235     1.0000 0.21601  0.20985  0.31227  Biso   1.000  H
  H236     1.0000 0.28743  0.33459  0.31936  Biso   1.000  H
  C178     1.0000 0.21891  0.26775  0.28115  Biso   1.000  C
  N25      1.0000 0.39364  0.31520  0.29420  Biso   1.000  N
  H237     1.0000 0.32191  0.41507  0.29337  Biso   1.000  H
  C179     1.0000 0.05064  0.23134  0.29742  Biso   1.000  C
  H238     1.0000 0.14984  0.37807  0.31087  Biso   1.000  H
  H239     1.0000 0.09015  0.26657  0.32157  Biso   1.000  H
  N26      1.0000 0.27502  0.31225  0.26600  Biso   1.000  N
  H240     1.0000 0.19775  0.18676  0.28207  Biso   1.000  H
  C180     1.0000 0.11137  0.27719  0.28184  Biso   1.000  C
  C181     1.0000 0.49211  0.39316  0.29071  Biso   1.000  C
  H241     1.0000 0.02728  0.15061  0.29836  Biso   1.000  H
  H242     1.0000 0.98213  0.23826  0.29776  Biso   1.000  H
  C182     1.0000 0.30554  0.25680  0.25770  Biso   1.000  C
  H243     1.0000 0.13176  0.35709  0.28067  Biso   1.000  H
  H244     1.0000 0.06060  0.23404  0.27307  Biso   1.000  H
  C183     1.0000 0.58467  0.36341  0.29091  Biso   1.000  C
  C184     1.0000 0.52486  0.51326  0.28563  Biso   1.000  C
  C185     1.0000 0.34770  0.30214  0.24112  Biso   1.000  C
  C186     1.0000 0.30400  0.15153  0.26193  Biso   1.000  C
  C187     1.0000 0.55466  0.25056  0.29094  Biso   1.000  C
  C188     1.0000 0.69596  0.44541  0.29094  Biso   1.000  C
  H245     1.0000 0.46309  0.51132  0.27957  Biso   1.000  H
  H246     1.0000 0.59283  0.54469  0.27906  Biso   1.000  H
  H247     1.0000 0.53955  0.56045  0.29497  Biso   1.000  H
  C189     1.0000 0.40834  0.41364  0.23855  Biso   1.000  C
  C190     1.0000 0.33703  0.22839  0.22976  Biso   1.000  C
  H248     1.0000 0.35711  0.14243  0.25517  Biso   1.000  H
  H249     1.0000 0.22792  0.08740  0.26036  Biso   1.000  H
  H250     1.0000 0.32597  0.15490  0.27297  Biso   1.000  H
  H251     1.0000 0.47736  0.19376  0.29096  Biso   1.000  H
  C191     1.0000 0.63664  0.22123  0.29091  Biso   1.000  C
  C192     1.0000 0.77876  0.41541  0.29091  Biso   1.000  C
  H252     1.0000 0.71642  0.52270  0.29096  Biso   1.000  H
  C193     1.0000 0.45923  0.45805  0.22381  Biso   1.000  C
  H253     1.0000 0.41722  0.46395  0.24687  Biso   1.000  H
  H254     1.0000 0.29662  0.14976  0.23197  Biso   1.000  H
  C194     1.0000 0.38563  0.26691  0.21448  Biso   1.000  C
  C195     1.0000 0.60680  0.09894  0.29071  Biso   1.000  C
  C196     1.0000 0.74944  0.30408  0.29094  Biso   1.000  C
  C197     1.0000 0.90104  0.50786  0.29071  Biso   1.000  C
  C198     1.0000 0.44974  0.38170  0.21259  Biso   1.000  C
  C199     1.0000 0.53121  0.58026  0.22097  Biso   1.000  C
  C200     1.0000 0.36895  0.18086  0.20234  Biso   1.000  C
  N27      1.0000 0.68488  0.07846  0.29420  Biso   1.000  N
  C201     1.0000 0.48676  0.01155  0.28563  Biso   1.000  C
  H255     1.0000 0.80628  0.28360  0.29096  Biso   1.000  H
  N28      1.0000 0.92154  0.60638  0.29420  Biso   1.000  N
  C202     1.0000 0.98848  0.47516  0.28563  Biso   1.000  C
  H256     1.0000 0.48985  0.40968  0.20297  Biso   1.000  H
  N29      1.0000 0.56393  0.60891  0.20695  Biso   1.000  N
  C203     1.0000 0.52936  0.66867  0.23317  Biso   1.000  C
  C204     1.0000 0.57732  0.65366  0.23557  Biso   1.000  C
  N30      1.0000 0.28296  0.08537  0.20333  Biso   1.000  N
  C205     1.0000 0.45936  0.21601  0.18965  Biso   1.000  C
  C206     1.0000 0.66696  0.96292  0.29453  Biso   1.000  C
  H257     1.0000 0.45539  0.04821  0.27906  Biso   1.000  H
  H258     1.0000 0.48882  0.95188  0.27957  Biso   1.000  H
  H259     1.0000 0.43956  0.97918  0.29497  Biso   1.000  H
  C207     1.0000 0.03716  0.70406  0.29453  Biso   1.000  C
  H260     1.0000 0.95184  0.40715  0.27906  Biso   1.000  H
  H261     1.0000 0.04827  0.53694  0.27957  Biso   1.000  H
  H262     1.0000 0.02099  0.46050  0.29497  Biso   1.000  H
  C208     1.0000 0.63216  0.72539  0.20211  Biso   1.000  C
  H263     1.0000 0.59803  0.74207  0.23177  Biso   1.000  H
  H264     1.0000 0.52657  0.64178  0.24396  Biso   1.000  H
  H265     1.0000 0.46323  0.67625  0.23116  Biso   1.000  H
  H266     1.0000 0.52583  0.68089  0.23867  Biso   1.000  H
  H267     1.0000 0.65167  0.71856  0.23326  Biso   1.000  H
  H268     1.0000 0.58366  0.60984  0.24416  Biso   1.000  H
  C209     1.0000 0.26198  0.99334  0.19286  Biso   1.000  C
  H269     1.0000 0.42922  0.16316  0.18077  Biso   1.000  H
  H270     1.0000 0.52515  0.21533  0.19407  Biso   1.000  H
  H271     1.0000 0.48158  0.29211  0.18596  Biso   1.000  H
  C210     1.0000 0.73230  0.95129  0.28115  Biso   1.000  C
  C211     1.0000 0.71060  0.94657  0.31076  Biso   1.000  C
  H272     1.0000 0.58496  0.90696  0.29337  Biso   1.000  H
  C212     1.0000 0.04889  0.78109  0.28115  Biso   1.000  C
  C213     1.0000 0.05356  0.76415  0.31076  Biso   1.000  C
  H273     1.0000 0.09316  0.67811  0.29337  Biso   1.000  H
  C214     1.0000 0.73121  0.73794  0.19286  Biso   1.000  C
  C215     1.0000 0.55445  0.75286  0.19161  Biso   1.000  C
  H274     1.0000 0.65875  0.77578  0.21157  Biso   1.000  H
  H275     1.0000 0.31874  0.02233  0.18416  Biso   1.000  H
  C216     1.0000 0.14479  0.94084  0.18590  Biso   1.000  C
  C217     1.0000 0.27473  0.90687  0.20211  Biso   1.000  C
  H276     1.0000 0.81323  0.01096  0.28207  Biso   1.000  H
  N31      1.0000 0.68779  0.96283  0.26600  Biso   1.000  N
  C218     1.0000 0.72289  0.83422  0.28184  Biso   1.000  C
  H277     1.0000 0.79017  0.00615  0.31227  Biso   1.000  H
  C219     1.0000 0.70208  0.83186  0.31146  Biso   1.000  C
  H278     1.0000 0.66549  0.95297  0.31936  Biso   1.000  H
  H279     1.0000 0.98904  0.80225  0.28207  Biso   1.000  H
  N32      1.0000 0.03725  0.72496  0.26600  Biso   1.000  N
  C220     1.0000 0.16584  0.88872  0.28184  Biso   1.000  C
  H280     1.0000 0.99383  0.78396  0.31227  Biso   1.000  H
  C221     1.0000 0.16822  0.87026  0.31146  Biso   1.000  C
  H281     1.0000 0.04719  0.71258  0.31936  Biso   1.000  H
  N33      1.0000 0.80243  0.71704  0.20333  Biso   1.000  N
  H282     1.0000 0.70369  0.68131  0.18416  Biso   1.000  H
  C222     1.0000 0.79607  0.85526  0.18590  Biso   1.000  C
  C223     1.0000 0.62907  0.87801  0.18594  Biso   1.000  C
  H283     1.0000 0.52574  0.70128  0.18246  Biso   1.000  H
  H284     1.0000 0.48935  0.74426  0.19777  Biso   1.000  H
  H285     1.0000 0.08966  0.92154  0.19457  Biso   1.000  H
  H286     1.0000 0.14006  0.99722  0.17916  Biso   1.000  H
  C224     1.0000 0.11211  0.83768  0.17643  Biso   1.000  C
  N34      1.0000 0.39120  0.95516  0.20695  Biso   1.000  N
  C225     1.0000 0.24713  0.80161  0.19161  Biso   1.000  C
  H287     1.0000 0.22419  0.88302  0.21157  Biso   1.000  H
  C226     1.0000 0.74325  0.04880  0.25770  Biso   1.000  C
  H288     1.0000 0.64293  0.77472  0.28067  Biso   1.000  H
  H289     1.0000 0.76589  0.82664  0.27307  Biso   1.000  H
  C227     1.0000 0.76857  0.81931  0.29742  Biso   1.000  C
  H290     1.0000 0.62201  0.77186  0.31087  Biso   1.000  H
  H291     1.0000 0.73349  0.82360  0.32157  Biso   1.000  H
  C228     1.0000 0.95127  0.69446  0.25770  Biso   1.000  C
  H292     1.0000 0.22534  0.86832  0.28067  Biso   1.000  H
  H293     1.0000 0.17343  0.93937  0.27307  Biso   1.000  H
  C229     1.0000 0.18078  0.94940  0.29742  Biso   1.000  C
  H294     1.0000 0.22825  0.85020  0.31087  Biso   1.000  H
  H295     1.0000 0.17642  0.90987  0.32157  Biso   1.000  H
  C230     1.0000 0.81193  0.63108  0.20234  Biso   1.000  C
  H296     1.0000 0.83176  0.91029  0.19457  Biso   1.000  H
  H297     1.0000 0.85718  0.85998  0.17916  Biso   1.000  H
  C231     1.0000 0.72545  0.88787  0.17643  Biso   1.000  C
  H298     1.0000 0.58315  0.90018  0.17947  Biso   1.000  H
  H299     1.0000 0.65795  0.92892  0.19517  Biso   1.000  H
  H300     1.0000 0.16154  0.85757  0.16706  Biso   1.000  H
  H301     1.0000 0.03356  0.80582  0.17277  Biso   1.000  H
  C232     1.0000 0.12204  0.75113  0.18594  Biso   1.000  C
  C233     1.0000 0.41979  0.95103  0.22097  Biso   1.000  C
  H302     1.0000 0.29873  0.82453  0.18246  Biso   1.000  H
  H303     1.0000 0.25575  0.74514  0.19777  Biso   1.000  H
  C234     1.0000 0.69786  0.04559  0.24112  Biso   1.000  C
  C235     1.0000 0.84844  0.15246  0.26193  Biso   1.000  C
  H304     1.0000 0.84942  0.87678  0.29836  Biso   1.000  H
  H305     1.0000 0.76177  0.74396  0.29776  Biso   1.000  H
  C236     1.0000 0.95451  0.65232  0.24112  Biso   1.000  C
  C237     1.0000 0.84751  0.69597  0.26193  Biso   1.000  C
  H306     1.0000 0.12337  0.97283  0.29836  Biso   1.000  H
  H307     1.0000 0.25616  0.01783  0.29776  Biso   1.000  H
  C238     1.0000 0.88124  0.61439  0.21448  Biso   1.000  C
  C239     1.0000 0.75664  0.54065  0.18965  Biso   1.000  C
  H308     1.0000 0.69594  0.83849  0.16706  Biso   1.000  H
  H309     1.0000 0.77228  0.96651  0.17277  Biso   1.000  H
  H310     1.0000 0.09982  0.68303  0.17947  Biso   1.000  H
  H311     1.0000 0.07112  0.72913  0.19517  Biso   1.000  H
  C240     1.0000 0.54194  0.00118  0.22381  Biso   1.000  C
  C241     1.0000 0.33138  0.86077  0.23317  Biso   1.000  C
  C242     1.0000 0.34636  0.92373  0.23557  Biso   1.000  C
  C243     1.0000 0.58632  0.99477  0.23855  Biso   1.000  C
  C244     1.0000 0.77164  0.10864  0.22976  Biso   1.000  C
  H312     1.0000 0.85757  0.21466  0.25517  Biso   1.000  H
  H313     1.0000 0.91264  0.14058  0.26036  Biso   1.000  H
  H314     1.0000 0.84520  0.17109  0.27297  Biso   1.000  H
  C245     1.0000 0.89140  0.66302  0.22976  Biso   1.000  C
  C246     1.0000 0.00537  0.59172  0.23855  Biso   1.000  C
  H315     1.0000 0.78535  0.64288  0.25517  Biso   1.000  H
  H316     1.0000 0.85943  0.77208  0.26036  Biso   1.000  H
  H317     1.0000 0.82896  0.67406  0.27297  Biso   1.000  H
  C247     1.0000 0.93194  0.55025  0.21259  Biso   1.000  C
  H318     1.0000 0.73399  0.57082  0.18077  Biso   1.000  H
  H319     1.0000 0.69027  0.47491  0.19407  Biso   1.000  H
  H320     1.0000 0.81059  0.51848  0.18596  Biso   1.000  H
  C248     1.0000 0.61839  0.06810  0.21259  Biso   1.000  C
  H321     1.0000 0.25800  0.85605  0.23177  Biso   1.000  H
  H322     1.0000 0.35825  0.88488  0.24396  Biso   1.000  H
  H323     1.0000 0.32370  0.78703  0.23116  Biso   1.000  H
  H324     1.0000 0.31912  0.84501  0.23867  Biso   1.000  H
  H325     1.0000 0.28141  0.93308  0.23326  Biso   1.000  H
  H326     1.0000 0.39008  0.97379  0.24416  Biso   1.000  H
  H327     1.0000 0.53610  0.95331  0.24687  Biso   1.000  H
  C249     1.0000 0.73312  0.11875  0.21448  Biso   1.000  C
  H328     1.0000 0.85025  0.14690  0.23197  Biso   1.000  H
  H329     1.0000 0.85319  0.70339  0.23197  Biso   1.000  H
  C250     1.0000 0.99889  0.54082  0.22381  Biso   1.000  C
  H330     1.0000 0.04674  0.58279  0.24687  Biso   1.000  H
  H331     1.0000 0.91984  0.51014  0.20297  Biso   1.000  H
  H332     1.0000 0.59033  0.08015  0.20297  Biso   1.000  H
  C251     1.0000 0.81918  0.18811  0.20234  Biso   1.000  C
  C252     1.0000 0.04906  0.46876  0.22097  Biso   1.000  C
  N35      1.0000 0.91463  0.19755  0.20333  Biso   1.000  N
  C253     1.0000 0.78406  0.24340  0.18965  Biso   1.000  C
  N36      1.0000 0.04498  0.43606  0.20695  Biso   1.000  N
  C254     1.0000 0.13937  0.47070  0.23317  Biso   1.000  C
  C255     1.0000 0.07630  0.42266  0.23557  Biso   1.000  C
  C256     1.0000 0.00673  0.26876  0.19286  Biso   1.000  C
  H333     1.0000 0.83685  0.26607  0.18077  Biso   1.000  H
  H334     1.0000 0.78464  0.30981  0.19407  Biso   1.000  H
  H335     1.0000 0.70797  0.18946  0.18596  Biso   1.000  H
  C257     1.0000 0.09329  0.36788  0.20211  Biso   1.000  C
  H336     1.0000 0.14407  0.40201  0.23177  Biso   1.000  H
  H337     1.0000 0.11529  0.47348  0.24396  Biso   1.000  H
  H338     1.0000 0.21306  0.53677  0.23116  Biso   1.000  H
  H339     1.0000 0.15504  0.47415  0.23867  Biso   1.000  H
  H340     1.0000 0.06699  0.34841  0.23326  Biso   1.000  H
  H341     1.0000 0.02621  0.41634  0.24416  Biso   1.000  H
  H342     1.0000 0.97771  0.29641  0.18416  Biso   1.000  H
  C258     1.0000 0.05928  0.20395  0.18590  Biso   1.000  C
  C259     1.0000 0.19849  0.44558  0.19161  Biso   1.000  C
  H343     1.0000 0.11705  0.34124  0.21157  Biso   1.000  H
  H344     1.0000 0.07861  0.16830  0.19457  Biso   1.000  H
  H345     1.0000 0.00282  0.14285  0.17916  Biso   1.000  H
  C260     1.0000 0.16247  0.27458  0.17643  Biso   1.000  C
  C261     1.0000 0.24900  0.37099  0.18594  Biso   1.000  C
  H346     1.0000 0.17552  0.47424  0.18246  Biso   1.000  H
  H347     1.0000 0.25496  0.51064  0.19777  Biso   1.000  H
  H348     1.0000 0.14255  0.30408  0.16706  Biso   1.000  H
  H349     1.0000 0.19426  0.22780  0.17277  Biso   1.000  H
  H350     1.0000 0.31703  0.41684  0.17947  Biso   1.000  H
  H351     1.0000 0.27096  0.34209  0.19517  Biso   1.000  H
  C262     1.0000 0.28935  0.23581  0.68924  Biso   1.000  C
  C263     1.0000 0.29797  0.12970  0.68854  Biso   1.000  C
  H352     1.0000 0.20982  0.21601  0.68773  Biso   1.000  H
  H353     1.0000 0.33460  0.28747  0.68064  Biso   1.000  H
  C264     1.0000 0.33305  0.29590  0.70547  Biso   1.000  C
  C265     1.0000 0.23137  0.05065  0.70258  Biso   1.000  C
  H354     1.0000 0.37811  0.14985  0.68913  Biso   1.000  H
  H355     1.0000 0.26656  0.09009  0.67843  Biso   1.000  H
  C266     1.0000 0.26779  0.21896  0.71885  Biso   1.000  C
  N37      1.0000 0.31522  0.39367  0.70580  Biso   1.000  N
  H356     1.0000 0.41511  0.32194  0.70663  Biso   1.000  H
  C267     1.0000 0.27718  0.11133  0.71816  Biso   1.000  C
  H357     1.0000 0.15054  0.02722  0.70164  Biso   1.000  H
  H358     1.0000 0.23824  0.98222  0.70224  Biso   1.000  H
  N38      1.0000 0.31223  0.27500  0.73400  Biso   1.000  N
  H359     1.0000 0.18674  0.19772  0.71793  Biso   1.000  H
  C268     1.0000 0.39312  0.49210  0.70929  Biso   1.000  C
  H360     1.0000 0.35708  0.13173  0.71933  Biso   1.000  H
  H361     1.0000 0.23408  0.06060  0.72693  Biso   1.000  H
  C269     1.0000 0.25676  0.30551  0.74230  Biso   1.000  C
  C270     1.0000 0.36334  0.58464  0.70909  Biso   1.000  C
  C271     1.0000 0.51330  0.52489  0.71437  Biso   1.000  C
  C272     1.0000 0.30218  0.34773  0.75888  Biso   1.000  C
  C273     1.0000 0.15160  0.30408  0.73807  Biso   1.000  C
  C274     1.0000 0.44542  0.69597  0.70906  Biso   1.000  C
  C275     1.0000 0.25053  0.55464  0.70906  Biso   1.000  C
  H362     1.0000 0.51127  0.46303  0.72043  Biso   1.000  H
  H363     1.0000 0.54464  0.59282  0.72094  Biso   1.000  H
  H364     1.0000 0.56048  0.53955  0.70503  Biso   1.000  H
  C276     1.0000 0.41364  0.40833  0.76145  Biso   1.000  C
  C277     1.0000 0.22836  0.33703  0.77024  Biso   1.000  C
  H365     1.0000 0.14246  0.35717  0.74483  Biso   1.000  H
  H366     1.0000 0.08742  0.22797  0.73964  Biso   1.000  H
  H367     1.0000 0.15485  0.32591  0.72703  Biso   1.000  H
  C278     1.0000 0.41535  0.77873  0.70909  Biso   1.000  C
  H368     1.0000 0.52267  0.71645  0.70904  Biso   1.000  H
  H369     1.0000 0.19379  0.47735  0.70904  Biso   1.000  H
  C279     1.0000 0.22125  0.63664  0.70909  Biso   1.000  C
  C280     1.0000 0.45807  0.45923  0.77619  Biso   1.000  C
  H370     1.0000 0.46401  0.41726  0.75313  Biso   1.000  H
  H371     1.0000 0.14979  0.29666  0.76803  Biso   1.000  H
  C281     1.0000 0.26691  0.38566  0.78552  Biso   1.000  C
  C282     1.0000 0.30409  0.74949  0.70906  Biso   1.000  C
  C283     1.0000 0.50788  0.90102  0.70929  Biso   1.000  C
  C284     1.0000 0.09897  0.60681  0.70929  Biso   1.000  C
  C285     1.0000 0.38163  0.44971  0.78741  Biso   1.000  C
  C286     1.0000 0.58025  0.53121  0.77903  Biso   1.000  C
  C287     1.0000 0.18091  0.36897  0.79766  Biso   1.000  C
  H372     1.0000 0.28359  0.80629  0.70904  Biso   1.000  H
  N39      1.0000 0.60640  0.92159  0.70580  Biso   1.000  N
  C288     1.0000 0.47516  0.98842  0.71437  Biso   1.000  C
  N40      1.0000 0.07850  0.68485  0.70580  Biso   1.000  N
  C289     1.0000 0.01155  0.48671  0.71437  Biso   1.000  C
  H373     1.0000 0.40965  0.48983  0.79703  Biso   1.000  H
  N41      1.0000 0.60886  0.56391  0.79305  Biso   1.000  N
  C290     1.0000 0.66866  0.52935  0.76683  Biso   1.000  C
  C291     1.0000 0.65366  0.57731  0.76443  Biso   1.000  C
  N42      1.0000 0.08533  0.28292  0.79667  Biso   1.000  N
  C292     1.0000 0.21594  0.45932  0.81035  Biso   1.000  C
  C293     1.0000 0.70406  0.03705  0.70547  Biso   1.000  C
  H374     1.0000 0.40717  0.95184  0.72094  Biso   1.000  H
  H375     1.0000 0.53693  0.04817  0.72043  Biso   1.000  H
  H376     1.0000 0.46051  0.02087  0.70503  Biso   1.000  H
  C294     1.0000 0.96286  0.66698  0.70547  Biso   1.000  C
  H377     1.0000 0.04820  0.45536  0.72094  Biso   1.000  H
  H378     1.0000 0.95176  0.48873  0.72043  Biso   1.000  H
  H379     1.0000 0.97904  0.43951  0.70503  Biso   1.000  H
  C295     1.0000 0.72540  0.63217  0.79789  Biso   1.000  C
  H380     1.0000 0.74205  0.59804  0.76823  Biso   1.000  H
  H381     1.0000 0.64180  0.52657  0.75604  Biso   1.000  H
  H382     1.0000 0.67628  0.46328  0.76884  Biso   1.000  H
  H383     1.0000 0.68083  0.52581  0.76133  Biso   1.000  H
  H384     1.0000 0.71857  0.65164  0.76674  Biso   1.000  H
  H385     1.0000 0.60989  0.58363  0.75584  Biso   1.000  H
  C296     1.0000 0.99328  0.26202  0.80714  Biso   1.000  C
  H386     1.0000 0.16316  0.42923  0.81923  Biso   1.000  H
  H387     1.0000 0.21535  0.52514  0.80593  Biso   1.000  H
  H388     1.0000 0.29209  0.48157  0.81404  Biso   1.000  H
  C297     1.0000 0.78108  0.04876  0.71885  Biso   1.000  C
  C298     1.0000 0.76417  0.05348  0.68924  Biso   1.000  C
  H389     1.0000 0.67807  0.09309  0.70663  Biso   1.000  H
  C299     1.0000 0.95117  0.73221  0.71885  Biso   1.000  C
  C300     1.0000 0.94644  0.71064  0.68924  Biso   1.000  C
  H390     1.0000 0.90690  0.58498  0.70663  Biso   1.000  H
  C301     1.0000 0.73802  0.73129  0.80714  Biso   1.000  C
  C302     1.0000 0.75289  0.55447  0.80839  Biso   1.000  C
  H391     1.0000 0.77575  0.65872  0.78843  Biso   1.000  H
  H392     1.0000 0.02237  0.31874  0.81584  Biso   1.000  H
  C303     1.0000 0.94076  0.14471  0.81410  Biso   1.000  C
  C304     1.0000 0.90676  0.27466  0.79789  Biso   1.000  C
  H393     1.0000 0.80233  0.98909  0.71793  Biso   1.000  H
  N43      1.0000 0.72497  0.03713  0.73400  Biso   1.000  N
  C305     1.0000 0.88861  0.16574  0.71816  Biso   1.000  C
  H394     1.0000 0.78401  0.99390  0.68773  Biso   1.000  H
  C306     1.0000 0.87028  0.16819  0.68854  Biso   1.000  C
  H395     1.0000 0.71265  0.04708  0.68064  Biso   1.000  H
  H396     1.0000 0.01098  0.81329  0.71793  Biso   1.000  H
  N44      1.0000 0.96272  0.68771  0.73400  Biso   1.000  N
  C307     1.0000 0.83417  0.72286  0.71816  Biso   1.000  C
  H397     1.0000 0.00618  0.79011  0.68773  Biso   1.000  H
  C308     1.0000 0.83179  0.70204  0.68854  Biso   1.000  C
  H398     1.0000 0.95291  0.66546  0.68064  Biso   1.000  H
  N45      1.0000 0.71710  0.80242  0.79667  Biso   1.000  N
  H399     1.0000 0.68129  0.70364  0.81584  Biso   1.000  H
  C309     1.0000 0.85527  0.79601  0.81410  Biso   1.000  C
  C310     1.0000 0.87799  0.62906  0.81406  Biso   1.000  C
  H400     1.0000 0.70130  0.52573  0.81754  Biso   1.000  H
  H401     1.0000 0.74426  0.48932  0.80223  Biso   1.000  H
  H402     1.0000 0.92146  0.08976  0.80543  Biso   1.000  H
  H403     1.0000 0.99719  0.14007  0.82084  Biso   1.000  H
  C311     1.0000 0.83756  0.11217  0.82357  Biso   1.000  C
  N46      1.0000 0.95508  0.39114  0.79305  Biso   1.000  N
  C312     1.0000 0.80153  0.24710  0.80839  Biso   1.000  C
  H404     1.0000 0.88295  0.22427  0.78843  Biso   1.000  H
  C313     1.0000 0.69452  0.95125  0.74230  Biso   1.000  C
  H405     1.0000 0.86822  0.22524  0.71933  Biso   1.000  H
  H406     1.0000 0.93938  0.17341  0.72693  Biso   1.000  H
  C314     1.0000 0.94943  0.18066  0.70258  Biso   1.000  C
  H407     1.0000 0.85021  0.22819  0.68913  Biso   1.000  H
  H408     1.0000 0.90984  0.17636  0.67843  Biso   1.000  H
  C315     1.0000 0.04880  0.74325  0.74230  Biso   1.000  C
  H409     1.0000 0.77466  0.64296  0.71933  Biso   1.000  H
  H410     1.0000 0.82658  0.76592  0.72693  Biso   1.000  H
  C316     1.0000 0.81924  0.76862  0.70258  Biso   1.000  C
  H411     1.0000 0.77176  0.62198  0.68913  Biso   1.000  H
  H412     1.0000 0.82357  0.73348  0.67843  Biso   1.000  H
  C317     1.0000 0.63106  0.81194  0.79766  Biso   1.000  C
  H413     1.0000 0.91029  0.83175  0.80543  Biso   1.000  H
  H414     1.0000 0.85998  0.85711  0.82084  Biso   1.000  H
  C318     1.0000 0.88788  0.72547  0.82357  Biso   1.000  C
  H415     1.0000 0.90020  0.58312  0.82053  Biso   1.000  H
  H416     1.0000 0.92886  0.65796  0.80483  Biso   1.000  H
  H417     1.0000 0.85744  0.16156  0.83294  Biso   1.000  H
  H418     1.0000 0.80576  0.03354  0.82723  Biso   1.000  H
  C319     1.0000 0.75104  0.12204  0.81406  Biso   1.000  C
  C320     1.0000 0.95097  0.41971  0.77903  Biso   1.000  C
  H419     1.0000 0.82444  0.29877  0.81754  Biso   1.000  H
  H420     1.0000 0.74503  0.25570  0.80223  Biso   1.000  H
  C321     1.0000 0.65225  0.95445  0.75888  Biso   1.000  C
  C322     1.0000 0.69596  0.84759  0.73807  Biso   1.000  C
  H421     1.0000 0.97277  0.12326  0.70164  Biso   1.000  H
  H422     1.0000 0.01780  0.25609  0.70224  Biso   1.000  H
  C323     1.0000 0.04558  0.69783  0.75888  Biso   1.000  C
  C324     1.0000 0.15248  0.84843  0.73807  Biso   1.000  C
  H423     1.0000 0.87666  0.84944  0.70164  Biso   1.000  H
  H424     1.0000 0.74382  0.76171  0.70224  Biso   1.000  H
  C325     1.0000 0.61439  0.88122  0.78552  Biso   1.000  C
  C326     1.0000 0.54065  0.75665  0.81035  Biso   1.000  C
  H425     1.0000 0.83846  0.69597  0.83294  Biso   1.000  H
  H426     1.0000 0.96652  0.77224  0.82723  Biso   1.000  H
  H427     1.0000 0.68295  0.09987  0.82053  Biso   1.000  H
  H428     1.0000 0.72909  0.07113  0.80483  Biso   1.000  H
  C327     1.0000 0.00112  0.54191  0.77619  Biso   1.000  C
  C328     1.0000 0.86064  0.33130  0.76683  Biso   1.000  C
  C329     1.0000 0.92368  0.34630  0.76443  Biso   1.000  C
  C330     1.0000 0.66295  0.89133  0.77024  Biso   1.000  C
  C331     1.0000 0.59168  0.00527  0.76145  Biso   1.000  C
  H429     1.0000 0.64290  0.78539  0.74483  Biso   1.000  H
  H430     1.0000 0.77212  0.85947  0.73964  Biso   1.000  H
  H431     1.0000 0.67410  0.82896  0.72703  Biso   1.000  H
  C332     1.0000 0.10869  0.77165  0.77024  Biso   1.000  C
  C333     1.0000 0.99464  0.58633  0.76145  Biso   1.000  C
  H432     1.0000 0.21470  0.85753  0.74483  Biso   1.000  H
  H433     1.0000 0.14058  0.91265  0.73964  Biso   1.000  H
  H434     1.0000 0.17106  0.84515  0.72703  Biso   1.000  H
  C334     1.0000 0.55028  0.93195  0.78741  Biso   1.000  C
  H435     1.0000 0.57077  0.73398  0.81923  Biso   1.000  H
  H436     1.0000 0.47489  0.69024  0.80593  Biso   1.000  H
  H437     1.0000 0.51850  0.81059  0.81404  Biso   1.000  H
  C335     1.0000 0.06810  0.61835  0.78741  Biso   1.000  C
  H438     1.0000 0.85602  0.25798  0.76823  Biso   1.000  H
  H439     1.0000 0.88478  0.35827  0.75604  Biso   1.000  H
  H440     1.0000 0.78692  0.32371  0.76884  Biso   1.000  H
  H441     1.0000 0.84501  0.31916  0.76133  Biso   1.000  H
  H442     1.0000 0.93305  0.28141  0.76674  Biso   1.000  H
  H443     1.0000 0.97377  0.39013  0.75584  Biso   1.000  H
  H444     1.0000 0.70342  0.85315  0.76803  Biso   1.000  H
  C336     1.0000 0.54082  0.99887  0.77619  Biso   1.000  C
  H445     1.0000 0.58281  0.04666  0.75313  Biso   1.000  H
  H446     1.0000 0.14692  0.85029  0.76803  Biso   1.000  H
  C337     1.0000 0.11878  0.73314  0.78552  Biso   1.000  C
  H447     1.0000 0.95328  0.53601  0.75313  Biso   1.000  H
  H448     1.0000 0.51012  0.91982  0.79703  Biso   1.000  H
  H449     1.0000 0.08016  0.59037  0.79703  Biso   1.000  H
  C338     1.0000 0.46878  0.04893  0.77903  Biso   1.000  C
  C339     1.0000 0.18808  0.81919  0.79766  Biso   1.000  C
  N47      1.0000 0.43610  0.04489  0.79305  Biso   1.000  N
  C340     1.0000 0.47074  0.13928  0.76683  Biso   1.000  C
  C341     1.0000 0.42262  0.07632  0.76443  Biso   1.000  C
  N48      1.0000 0.19758  0.91468  0.79667  Biso   1.000  N
  C342     1.0000 0.24335  0.78404  0.81035  Biso   1.000  C
  C343     1.0000 0.36784  0.09318  0.79789  Biso   1.000  C
  H450     1.0000 0.40201  0.14400  0.76823  Biso   1.000  H
  H451     1.0000 0.47343  0.11517  0.75604  Biso   1.000  H
  H452     1.0000 0.53669  0.21294  0.76884  Biso   1.000  H
  H453     1.0000 0.47424  0.15504  0.76133  Biso   1.000  H
  H454     1.0000 0.34842  0.06688  0.76674  Biso   1.000  H
  H455     1.0000 0.41638  0.02618  0.75584  Biso   1.000  H
  C344     1.0000 0.26885  0.00671  0.80714  Biso   1.000  C
  H456     1.0000 0.26612  0.83689  0.81923  Biso   1.000  H
  H457     1.0000 0.30977  0.78463  0.80593  Biso   1.000  H
  H458     1.0000 0.18946  0.70794  0.81404  Biso   1.000  H
  C345     1.0000 0.44561  0.19836  0.80839  Biso   1.000  C
  H459     1.0000 0.34119  0.11694  0.78843  Biso   1.000  H
  H460     1.0000 0.29635  0.97763  0.81584  Biso   1.000  H
  C346     1.0000 0.20394  0.05921  0.81410  Biso   1.000  C
  C347     1.0000 0.37093  0.24884  0.81406  Biso   1.000  C
  H461     1.0000 0.47429  0.17543  0.81754  Biso   1.000  H
  H462     1.0000 0.51075  0.25491  0.80223  Biso   1.000  H
  H463     1.0000 0.16833  0.07851  0.80543  Biso   1.000  H
  H464     1.0000 0.14286  0.00275  0.82084  Biso   1.000  H
  C348     1.0000 0.27449  0.16237  0.82357  Biso   1.000  C
  H465     1.0000 0.41681  0.31694  0.82053  Biso   1.000  H
  H466     1.0000 0.34208  0.27084  0.80483  Biso   1.000  H
  H467     1.0000 0.30411  0.14248  0.83294  Biso   1.000  H
  H468     1.0000 0.22768  0.19414  0.82723  Biso   1.000  H
  C349     1.0000 0.55452  0.05874  0.15691  Biso   1.000  C
  C350     1.0000 0.52195  0.12937  0.14743  Biso   1.000  C
  H469     1.0000 0.50510  0.02924  0.16626  Biso   1.000  H
  H470     1.0000 0.63320  0.10560  0.16057  Biso   1.000  H
  H471     1.0000 0.50517  0.02924  0.16626  Biso   1.000  H
  H472     1.0000 0.63315  0.10552  0.16057  Biso   1.000  H
  H473     1.0000 0.63308  0.10552  0.16057  Biso   1.000  H
  C351     1.0000 0.54467  0.96241  0.14740  Biso   1.000  C
  C352     1.0000 0.54474  0.96241  0.14740  Biso   1.000  C
  C353     1.0000 0.40466  0.06456  0.14048  Biso   1.000  C
  C354     1.0000 0.40459  0.06456  0.14048  Biso   1.000  C
  H474     1.0000 0.57697  0.16510  0.13877  Biso   1.000  H
  H475     1.0000 0.52666  0.19047  0.15417  Biso   1.000  H
  H476     1.0000 0.57693  0.16502  0.13877  Biso   1.000  H
  C355     1.0000 0.55459  0.05874  0.15691  Biso   1.000  C
  H477     1.0000 0.52659  0.19047  0.15417  Biso   1.000  H
  C356     1.0000 0.41950  0.88783  0.14173  Biso   1.000  C
  C357     1.0000 0.41964  0.88783  0.14173  Biso   1.000  C
  H478     1.0000 0.56685  0.91656  0.15387  Biso   1.000  H
  H479     1.0000 0.59554  0.99132  0.13817  Biso   1.000  H
  H480     1.0000 0.56681  0.91648  0.15387  Biso   1.000  H
  H481     1.0000 0.59562  0.99132  0.13817  Biso   1.000  H
  N49      1.0000 0.38378  0.13577  0.13000  Biso   1.000  N
  N50      1.0000 0.38370  0.13577  0.13000  Biso   1.000  N
  H482     1.0000 0.34796  0.03700  0.14916  Biso   1.000  H
  H483     1.0000 0.34792  0.03691  0.14916  Biso   1.000  H
  C358     1.0000 0.39201  0.96553  0.13123  Biso   1.000  C
  C359     1.0000 0.39215  0.96553  0.13123  Biso   1.000  C
  H484     1.0000 0.36795  0.85917  0.15086  Biso   1.000  H
  H485     1.0000 0.41098  0.82276  0.13557  Biso   1.000  H
  H486     1.0000 0.36791  0.85909  0.15086  Biso   1.000  H
  H487     1.0000 0.41101  0.82268  0.13557  Biso   1.000  H
  C360     1.0000 0.29774  0.14530  0.13098  Biso   1.000  C
  C361     1.0000 0.29777  0.14521  0.13098  Biso   1.000  C
  C362     1.0000 0.29770  0.14521  0.13098  Biso   1.000  C
  N51      1.0000 0.27558  0.89735  0.12639  Biso   1.000  N
  H488     1.0000 0.44240  0.99216  0.12177  Biso   1.000  H
  H489     1.0000 0.44254  0.99216  0.12177  Biso   1.000  H
  C363     1.0000 0.20733  0.09001  0.14367  Biso   1.000  C
  C364     1.0000 0.28107  0.21457  0.11886  Biso   1.000  C
  C365     1.0000 0.20736  0.08993  0.14367  Biso   1.000  C
  C366     1.0000 0.20740  0.09001  0.14367  Biso   1.000  C
  C367     1.0000 0.28100  0.21457  0.11886  Biso   1.000  C
  C368     1.0000 0.20729  0.08993  0.14367  Biso   1.000  C
  C369     1.0000 0.24697  0.86465  0.11237  Biso   1.000  C
  H490     1.0000 0.23741  0.06725  0.15257  Biso   1.000  H
  H491     1.0000 0.14157  0.02360  0.13927  Biso   1.000  H
  H492     1.0000 0.18514  0.14386  0.14736  Biso   1.000  H
  H493     1.0000 0.23748  0.06725  0.15257  Biso   1.000  H
  H494     1.0000 0.14153  0.02351  0.13927  Biso   1.000  H
  H495     1.0000 0.14146  0.02351  0.13927  Biso   1.000  H
  C370     1.0000 0.32963  0.22469  0.10356  Biso   1.000  C
  C371     1.0000 0.21695  0.26531  0.12073  Biso   1.000  C
  C372     1.0000 0.32966  0.22460  0.10356  Biso   1.000  C
  C373     1.0000 0.21691  0.26522  0.12073  Biso   1.000  C
  C374     1.0000 0.32970  0.22469  0.10356  Biso   1.000  C
  C375     1.0000 0.32958  0.22460  0.10356  Biso   1.000  C
  C376     1.0000 0.12479  0.79267  0.10953  Biso   1.000  C
  C377     1.0000 0.33534  0.86271  0.10017  Biso   1.000  C
  C378     1.0000 0.12475  0.79259  0.10953  Biso   1.000  C
  C379     1.0000 0.12482  0.79259  0.10953  Biso   1.000  C
  C380     1.0000 0.32031  0.91075  0.09777  Biso   1.000  C
  C381     1.0000 0.31893  0.28781  0.09220  Biso   1.000  C
  H496     1.0000 0.37010  0.18651  0.10137  Biso   1.000  H
  C382     1.0000 0.31896  0.28773  0.09220  Biso   1.000  C
  H497     1.0000 0.37005  0.18642  0.10137  Biso   1.000  H
  C383     1.0000 0.31900  0.28781  0.09220  Biso   1.000  C
  C384     1.0000 0.31889  0.28773  0.09220  Biso   1.000  C
  H498     1.0000 0.36998  0.18642  0.10137  Biso   1.000  H
  C385     1.0000 0.20745  0.33214  0.10953  Biso   1.000  C
  H499     1.0000 0.17680  0.25317  0.13037  Biso   1.000  H
  H500     1.0000 0.17687  0.25317  0.13037  Biso   1.000  H
  C386     1.0000 0.20738  0.33214  0.10953  Biso   1.000  C
  C387     1.0000 0.08029  0.74177  0.09477  Biso   1.000  C
  C388     1.0000 0.04828  0.78315  0.12073  Biso   1.000  C
  C389     1.0000 0.08032  0.74169  0.09477  Biso   1.000  C
  C390     1.0000 0.04835  0.78315  0.12073  Biso   1.000  C
  C391     1.0000 0.08036  0.74177  0.09477  Biso   1.000  C
  H501     1.0000 0.40870  0.93148  0.10157  Biso   1.000  H
  H502     1.0000 0.30848  0.85993  0.08936  Biso   1.000  H
  H503     1.0000 0.34288  0.79664  0.10216  Biso   1.000  H
  H504     1.0000 0.40880  0.93140  0.10157  Biso   1.000  H
  H505     1.0000 0.34303  0.79664  0.10216  Biso   1.000  H
  H506     1.0000 0.40885  0.93148  0.10157  Biso   1.000  H
  H507     1.0000 0.34755  0.85925  0.09467  Biso   1.000  H
  H508     1.0000 0.38524  0.98500  0.10006  Biso   1.000  H
  H509     1.0000 0.27650  0.91699  0.08916  Biso   1.000  H
  C392     1.0000 0.25833  0.33872  0.09477  Biso   1.000  C
  C393     1.0000 0.36119  0.28461  0.07564  Biso   1.000  C
  C394     1.0000 0.25836  0.33863  0.09477  Biso   1.000  C
  C395     1.0000 0.36115  0.28452  0.07564  Biso   1.000  C
  C396     1.0000 0.25840  0.33872  0.09477  Biso   1.000  C
  C397     1.0000 0.25829  0.33863  0.09477  Biso   1.000  C
  C398     1.0000 0.36108  0.28452  0.07564  Biso   1.000  C
  C399     1.0000 0.13542  0.38237  0.11237  Biso   1.000  C
  C400     1.0000 0.13550  0.38237  0.11237  Biso   1.000  C
  C401     1.0000 0.96890  0.68117  0.09220  Biso   1.000  C
  C402     1.0000 0.96886  0.68109  0.09220  Biso   1.000  C
  H510     1.0000 0.13062  0.75062  0.08647  Biso   1.000  H
  C403     1.0000 0.93366  0.71902  0.11886  Biso   1.000  C
  C404     1.0000 0.93352  0.71902  0.11886  Biso   1.000  C
  H511     1.0000 0.07629  0.82327  0.13037  Biso   1.000  H
  H512     1.0000 0.07632  0.82318  0.13037  Biso   1.000  H
  H513     1.0000 0.07637  0.82327  0.13037  Biso   1.000  H
  H514     1.0000 0.24946  0.38010  0.08647  Biso   1.000  H
  H515     1.0000 0.24942  0.38001  0.08647  Biso   1.000  H
  N52      1.0000 0.39162  0.37057  0.06734  Biso   1.000  N
  C405     1.0000 0.36260  0.18086  0.07141  Biso   1.000  C
  N53      1.0000 0.39169  0.37057  0.06734  Biso   1.000  N
  C406     1.0000 0.36267  0.18086  0.07141  Biso   1.000  C
  N54      1.0000 0.10270  0.37824  0.12639  Biso   1.000  N
  C407     1.0000 0.13739  0.47272  0.10017  Biso   1.000  C
  N55      1.0000 0.10278  0.37824  0.12639  Biso   1.000  N
  C408     1.0000 0.13735  0.47263  0.10017  Biso   1.000  C
  C409     1.0000 0.13727  0.47263  0.10017  Biso   1.000  C
  C410     1.0000 0.08930  0.40968  0.09777  Biso   1.000  C
  C411     1.0000 0.89516  0.67047  0.10356  Biso   1.000  C
  C412     1.0000 0.92348  0.63895  0.07564  Biso   1.000  C
  C413     1.0000 0.89504  0.67039  0.10356  Biso   1.000  C
  C414     1.0000 0.89509  0.67047  0.10356  Biso   1.000  C
  C415     1.0000 0.89512  0.67039  0.10356  Biso   1.000  C
  C416     1.0000 0.84759  0.70233  0.13098  Biso   1.000  C
  C417     1.0000 0.84751  0.70233  0.13098  Biso   1.000  C
  C418     1.0000 0.44773  0.38220  0.05219  Biso   1.000  C
  C419     1.0000 0.44776  0.38212  0.05219  Biso   1.000  C
  C420     1.0000 0.44780  0.38220  0.05219  Biso   1.000  C
  C421     1.0000 0.44768  0.38212  0.05219  Biso   1.000  C
  H516     1.0000 0.30953  0.11866  0.07817  Biso   1.000  H
  H517     1.0000 0.43876  0.19275  0.07296  Biso   1.000  H
  H518     1.0000 0.34073  0.16224  0.06037  Biso   1.000  H
  H519     1.0000 0.43868  0.19275  0.07296  Biso   1.000  H
  C422     1.0000 0.03456  0.42662  0.13123  Biso   1.000  C
  C423     1.0000 0.03452  0.42653  0.13123  Biso   1.000  C
  H520     1.0000 0.06862  0.47735  0.10157  Biso   1.000  H
  H521     1.0000 0.14015  0.44861  0.08936  Biso   1.000  H
  H522     1.0000 0.20341  0.54638  0.10216  Biso   1.000  H
  H523     1.0000 0.14011  0.44853  0.08936  Biso   1.000  H
  H524     1.0000 0.20349  0.54638  0.10216  Biso   1.000  H
  H525     1.0000 0.14085  0.48839  0.09467  Biso   1.000  H
  H526     1.0000 0.01502  0.40024  0.10006  Biso   1.000  H
  H527     1.0000 0.08303  0.35962  0.08916  Biso   1.000  H
  H528     1.0000 0.81654  0.63002  0.10137  Biso   1.000  H
  H529     1.0000 0.81640  0.63002  0.10137  Biso   1.000  H
  N56      1.0000 0.97895  0.60844  0.06734  Biso   1.000  N
  C424     1.0000 0.81835  0.63743  0.07141  Biso   1.000  C
  C425     1.0000 0.81828  0.63743  0.07141  Biso   1.000  C
  N57      1.0000 0.75213  0.61636  0.13000  Biso   1.000  N
  C426     1.0000 0.88266  0.79276  0.14367  Biso   1.000  C
  N58      1.0000 0.75209  0.61628  0.13000  Biso   1.000  N
  H530     1.0000 0.46897  0.32237  0.05127  Biso   1.000  H
  C427     1.0000 0.55534  0.49918  0.05148  Biso   1.000  C
  C428     1.0000 0.37078  0.37049  0.03880  Biso   1.000  C
  C429     1.0000 0.55541  0.49918  0.05148  Biso   1.000  C
  H531     1.0000 0.46890  0.32237  0.05127  Biso   1.000  H
  C430     1.0000 0.37071  0.37049  0.03880  Biso   1.000  C
  C431     1.0000 0.11226  0.53180  0.14173  Biso   1.000  C
  H532     1.0000 0.00791  0.45038  0.12177  Biso   1.000  H
  C432     1.0000 0.11222  0.53171  0.14173  Biso   1.000  C
  H533     1.0000 0.00798  0.45038  0.12177  Biso   1.000  H
  C433     1.0000 0.11215  0.53171  0.14173  Biso   1.000  C
  C434     1.0000 0.93545  0.34006  0.14048  Biso   1.000  C
  C435     1.0000 0.93454  0.55231  0.05219  Biso   1.000  C
  C436     1.0000 0.93439  0.55231  0.05219  Biso   1.000  C
  H534     1.0000 0.80921  0.69053  0.07817  Biso   1.000  H
  H535     1.0000 0.75417  0.56133  0.07296  Biso   1.000  H
  H536     1.0000 0.82157  0.65935  0.06037  Biso   1.000  H
  H537     1.0000 0.75410  0.56133  0.07296  Biso   1.000  H
  H538     1.0000 0.82150  0.65935  0.06037  Biso   1.000  H
  C437     1.0000 0.66000  0.59546  0.14048  Biso   1.000  C
  C438     1.0000 0.65996  0.59538  0.14048  Biso   1.000  C
  H539     1.0000 0.82988  0.76267  0.15257  Biso   1.000  H
  H540     1.0000 0.88214  0.85858  0.13927  Biso   1.000  H
  H541     1.0000 0.95885  0.81492  0.14736  Biso   1.000  H
  H542     1.0000 0.82976  0.76259  0.15257  Biso   1.000  H
  H543     1.0000 0.88210  0.85850  0.13927  Biso   1.000  H
  H544     1.0000 0.95877  0.81492  0.14736  Biso   1.000  H
  H545     1.0000 0.82981  0.76267  0.15257  Biso   1.000  H
  H546     1.0000 0.82984  0.76259  0.15257  Biso   1.000  H
  H547     1.0000 0.53494  0.55868  0.05267  Biso   1.000  H
  H548     1.0000 0.60606  0.50677  0.06027  Biso   1.000  H
  C439     1.0000 0.61607  0.51410  0.03590  Biso   1.000  C
  C440     1.0000 0.61603  0.51401  0.03590  Biso   1.000  C
  H549     1.0000 0.60599  0.50677  0.06027  Biso   1.000  H
  C441     1.0000 0.61596  0.51401  0.03590  Biso   1.000  C
  N59      1.0000 0.27304  0.25486  0.03913  Biso   1.000  N
  C442     1.0000 0.43085  0.38684  0.02258  Biso   1.000  C
  H550     1.0000 0.34475  0.42645  0.03997  Biso   1.000  H
  C443     1.0000 0.43077  0.38684  0.02258  Biso   1.000  C
  H551     1.0000 0.34468  0.42645  0.03997  Biso   1.000  H
  C444     1.0000 0.03766  0.58228  0.14740  Biso   1.000  C
  H552     1.0000 0.14094  0.50887  0.15086  Biso   1.000  H
  H553     1.0000 0.17735  0.58826  0.13557  Biso   1.000  H
  C445     1.0000 0.03758  0.58228  0.14740  Biso   1.000  C
  H554     1.0000 0.17728  0.58826  0.13557  Biso   1.000  H
  N60      1.0000 0.86421  0.24795  0.13000  Biso   1.000  N
  H555     1.0000 0.96303  0.31099  0.14916  Biso   1.000  H
  C446     1.0000 0.87062  0.39257  0.14743  Biso   1.000  C
  H556     1.0000 0.96310  0.31099  0.14916  Biso   1.000  H
  C447     1.0000 0.87069  0.39257  0.14743  Biso   1.000  C
  N61      1.0000 0.86428  0.24795  0.13000  Biso   1.000  N
  H557     1.0000 0.85346  0.53116  0.05127  Biso   1.000  H
  C448     1.0000 0.94390  0.44477  0.05148  Biso   1.000  C
  C449     1.0000 0.99984  0.62934  0.03880  Biso   1.000  C
  H558     1.0000 0.85341  0.53107  0.05127  Biso   1.000  H
  C450     1.0000 0.94379  0.44469  0.05148  Biso   1.000  C
  C451     1.0000 0.99969  0.62934  0.03880  Biso   1.000  C
  C452     1.0000 0.94383  0.44477  0.05148  Biso   1.000  C
  H559     1.0000 0.68909  0.65218  0.14916  Biso   1.000  H
  C453     1.0000 0.60755  0.47815  0.14743  Biso   1.000  C
  C454     1.0000 0.57344  0.60802  0.13123  Biso   1.000  C
  H560     1.0000 0.68905  0.65210  0.14916  Biso   1.000  H
  C455     1.0000 0.60740  0.47815  0.14743  Biso   1.000  C
  H561     1.0000 0.63949  0.45671  0.03496  Biso   1.000  H
  H562     1.0000 0.68455  0.58944  0.03556  Biso   1.000  H
  C456     1.0000 0.53695  0.50154  0.02188  Biso   1.000  C
  H563     1.0000 0.63945  0.45662  0.03496  Biso   1.000  H
  H564     1.0000 0.63938  0.45662  0.03496  Biso   1.000  H
  H565     1.0000 0.68447  0.58944  0.03556  Biso   1.000  H
  C457     1.0000 0.53688  0.50154  0.02188  Biso   1.000  C
  C458     1.0000 0.17456  0.23438  0.04263  Biso   1.000  C
  C459     1.0000 0.17448  0.23438  0.04263  Biso   1.000  C
  H566     1.0000 0.45064  0.32717  0.02107  Biso   1.000  H
  H567     1.0000 0.37925  0.38043  0.01396  Biso   1.000  H
  H568     1.0000 0.37918  0.38043  0.01396  Biso   1.000  H
  H569     1.0000 0.08353  0.65038  0.15387  Biso   1.000  H
  H570     1.0000 0.00873  0.60428  0.13817  Biso   1.000  H
  C460     1.0000 0.94121  0.49581  0.15691  Biso   1.000  C
  C461     1.0000 0.94124  0.49573  0.15691  Biso   1.000  C
  C462     1.0000 0.94129  0.49581  0.15691  Biso   1.000  C
  C463     1.0000 0.85471  0.15246  0.13098  Biso   1.000  C
  C464     1.0000 0.85479  0.15246  0.13098  Biso   1.000  C
  H571     1.0000 0.83494  0.41187  0.13877  Biso   1.000  H
  H572     1.0000 0.80951  0.33619  0.15417  Biso   1.000  H
  H573     1.0000 0.80958  0.33619  0.15417  Biso   1.000  H
  H574     1.0000 0.90080  0.39404  0.06027  Biso   1.000  H
  C465     1.0000 0.89812  0.38401  0.03590  Biso   1.000  C
  C466     1.0000 0.89797  0.38401  0.03590  Biso   1.000  C
  H575     1.0000 0.02380  0.46517  0.05267  Biso   1.000  H
  H576     1.0000 0.02376  0.46508  0.05267  Biso   1.000  H
  N62      1.0000 0.98197  0.72702  0.03913  Biso   1.000  N
  C467     1.0000 0.95607  0.56925  0.02258  Biso   1.000  C
  N63      1.0000 0.98182  0.72702  0.03913  Biso   1.000  N
  H577     1.0000 0.08183  0.65538  0.03997  Biso   1.000  H
  H578     1.0000 0.08179  0.65530  0.03997  Biso   1.000  H
  H579     1.0000 0.58821  0.42311  0.13877  Biso   1.000  H
  H580     1.0000 0.66387  0.47343  0.15417  Biso   1.000  H
  C468     1.0000 0.50424  0.44553  0.15691  Biso   1.000  C
  H581     1.0000 0.66380  0.47343  0.15417  Biso   1.000  H
  N64      1.0000 0.62180  0.72458  0.12639  Biso   1.000  N
  C469     1.0000 0.46825  0.58055  0.14173  Biso   1.000  C
  H582     1.0000 0.54970  0.55762  0.12177  Biso   1.000  H
  N65      1.0000 0.62168  0.72449  0.12639  Biso   1.000  N
  N66      1.0000 0.62172  0.72458  0.12639  Biso   1.000  N
  H583     1.0000 0.51682  0.56155  0.02247  Biso   1.000  H
  H584     1.0000 0.57656  0.50980  0.01177  Biso   1.000  H
  H585     1.0000 0.51689  0.56155  0.02247  Biso   1.000  H
  H586     1.0000 0.57651  0.50972  0.01177  Biso   1.000  H
  C470     1.0000 0.08203  0.11209  0.04243  Biso   1.000  C
  C471     1.0000 0.14184  0.32178  0.04771  Biso   1.000  C
  C472     1.0000 0.08206  0.11201  0.04243  Biso   1.000  C
  C473     1.0000 0.08210  0.11209  0.04243  Biso   1.000  C
  C474     1.0000 0.08199  0.11201  0.04243  Biso   1.000  C
  H587     1.0000 0.97071  0.47584  0.16626  Biso   1.000  H
  H588     1.0000 0.89440  0.52758  0.16057  Biso   1.000  H
  H589     1.0000 0.89448  0.52758  0.16057  Biso   1.000  H
  H590     1.0000 0.97078  0.47584  0.16626  Biso   1.000  H
  C475     1.0000 0.91002  0.11740  0.14367  Biso   1.000  C
  C476     1.0000 0.78546  0.06650  0.11886  Biso   1.000  C
  C477     1.0000 0.91006  0.11732  0.14367  Biso   1.000  C
  C478     1.0000 0.78541  0.06641  0.11886  Biso   1.000  C
  C479     1.0000 0.91010  0.11740  0.14367  Biso   1.000  C
  H591     1.0000 0.81733  0.36066  0.03496  Biso   1.000  H
  H592     1.0000 0.90507  0.31557  0.03556  Biso   1.000  H
  C480     1.0000 0.96477  0.46315  0.02188  Biso   1.000  C
  H593     1.0000 0.81729  0.36058  0.03496  Biso   1.000  H
  H594     1.0000 0.90488  0.31549  0.03556  Biso   1.000  H
  C481     1.0000 0.96462  0.46315  0.02188  Biso   1.000  C
  H595     1.0000 0.90492  0.31557  0.03556  Biso   1.000  H
  H596     1.0000 0.90503  0.31549  0.03556  Biso   1.000  H
  C482     1.0000 0.05977  0.82554  0.04263  Biso   1.000  C
  C483     1.0000 0.05984  0.82554  0.04263  Biso   1.000  C
  H597     1.0000 0.87654  0.54945  0.02107  Biso   1.000  H
  H598     1.0000 0.00128  0.62083  0.01396  Biso   1.000  H
  H599     1.0000 0.52419  0.49492  0.16626  Biso   1.000  H
  H600     1.0000 0.47252  0.36690  0.16057  Biso   1.000  H
  C484     1.0000 0.41776  0.45548  0.14740  Biso   1.000  C
  H601     1.0000 0.47237  0.36690  0.16057  Biso   1.000  H
  C485     1.0000 0.41772  0.45539  0.14740  Biso   1.000  C
  C486     1.0000 0.61776  0.75315  0.11237  Biso   1.000  C
  C487     1.0000 0.61769  0.75315  0.11237  Biso   1.000  C
  H602     1.0000 0.49112  0.63212  0.15086  Biso   1.000  H
  H603     1.0000 0.41175  0.58914  0.13557  Biso   1.000  H
  C488     1.0000 0.11206  0.02924  0.04238  Biso   1.000  C
  C489     1.0000 0.11199  0.02924  0.04238  Biso   1.000  C
  C490     1.0000 0.97073  0.08276  0.04238  Biso   1.000  C
  C491     1.0000 0.97080  0.08276  0.04238  Biso   1.000  C
  H604     1.0000 0.20365  0.38161  0.05377  Biso   1.000  H
  H605     1.0000 0.07385  0.28520  0.05426  Biso   1.000  H
  H606     1.0000 0.12716  0.35431  0.03837  Biso   1.000  H
  H607     1.0000 0.20361  0.38153  0.05377  Biso   1.000  H
  H608     1.0000 0.07380  0.28511  0.05426  Biso   1.000  H
  H609     1.0000 0.12712  0.35422  0.03837  Biso   1.000  H
  H610     1.0000 0.93275  0.17016  0.15257  Biso   1.000  H
  H611     1.0000 0.97645  0.11799  0.13927  Biso   1.000  H
  H612     1.0000 0.85613  0.04130  0.14736  Biso   1.000  H
  H613     1.0000 0.97640  0.11791  0.13927  Biso   1.000  H
  H614     1.0000 0.85609  0.04121  0.14736  Biso   1.000  H
  H615     1.0000 0.97648  0.11791  0.13927  Biso   1.000  H
  H616     1.0000 0.85617  0.04121  0.14736  Biso   1.000  H
  C492     1.0000 0.73478  0.95171  0.12073  Biso   1.000  C
  C493     1.0000 0.73470  0.95171  0.12073  Biso   1.000  C
  C494     1.0000 0.77537  0.10501  0.10356  Biso   1.000  C
  C495     1.0000 0.77533  0.10493  0.10356  Biso   1.000  C
  H617     1.0000 0.93328  0.42353  0.01177  Biso   1.000  H
  H618     1.0000 0.93321  0.42353  0.01177  Biso   1.000  H
  H619     1.0000 0.04479  0.48320  0.02247  Biso   1.000  H
  C496     1.0000 0.03006  0.91808  0.04243  Biso   1.000  C
  C497     1.0000 0.03009  0.91800  0.04243  Biso   1.000  C
  C498     1.0000 0.03013  0.91808  0.04243  Biso   1.000  C
  C499     1.0000 0.17998  0.85824  0.04771  Biso   1.000  C
  C500     1.0000 0.18005  0.85824  0.04771  Biso   1.000  C
  H620     1.0000 0.34971  0.43323  0.15387  Biso   1.000  H
  H621     1.0000 0.39581  0.40457  0.13817  Biso   1.000  H
  H622     1.0000 0.39577  0.40449  0.13817  Biso   1.000  H
  C501     1.0000 0.66791  0.87535  0.10953  Biso   1.000  C
  C502     1.0000 0.52743  0.66474  0.10017  Biso   1.000  C
  C503     1.0000 0.52736  0.66474  0.10017  Biso   1.000  C
  C504     1.0000 0.59040  0.67974  0.09777  Biso   1.000  C
  H623     1.0000 0.18934  0.04981  0.04236  Biso   1.000  H
  H624     1.0000 0.18938  0.04972  0.04236  Biso   1.000  H
  H625     1.0000 0.18930  0.04972  0.04236  Biso   1.000  H
  C505     1.0000 0.88804  0.97008  0.04243  Biso   1.000  C
  C506     1.0000 0.88800  0.97000  0.04243  Biso   1.000  C
  H626     1.0000 0.95023  0.13957  0.04236  Biso   1.000  H
  H627     1.0000 0.95030  0.13957  0.04236  Biso   1.000  H
  H628     1.0000 0.74684  0.92373  0.13037  Biso   1.000  H
  C507     1.0000 0.71226  0.03118  0.09220  Biso   1.000  C
  H629     1.0000 0.81355  0.18356  0.10137  Biso   1.000  H
  C508     1.0000 0.71221  0.03110  0.09220  Biso   1.000  C
  C509     1.0000 0.91733  0.88808  0.04238  Biso   1.000  C
  C510     1.0000 0.91728  0.88799  0.04238  Biso   1.000  C
  H630     1.0000 0.17799  0.79647  0.05377  Biso   1.000  H
  H631     1.0000 0.21136  0.92626  0.05426  Biso   1.000  H
  H632     1.0000 0.22709  0.87291  0.03837  Biso   1.000  H
  H633     1.0000 0.17795  0.79638  0.05377  Biso   1.000  H
  H634     1.0000 0.22716  0.87291  0.03837  Biso   1.000  H
  C511     1.0000 0.66137  0.91977  0.09477  Biso   1.000  C
  C512     1.0000 0.66132  0.91968  0.09477  Biso   1.000  C
  H635     1.0000 0.52269  0.59133  0.10157  Biso   1.000  H
  H636     1.0000 0.55153  0.69162  0.08936  Biso   1.000  H
  H637     1.0000 0.45371  0.65715  0.10216  Biso   1.000  H
  H638     1.0000 0.55138  0.69162  0.08936  Biso   1.000  H
  H639     1.0000 0.51161  0.65252  0.09467  Biso   1.000  H
  H640     1.0000 0.59977  0.61485  0.10006  Biso   1.000  H
  H641     1.0000 0.64052  0.72348  0.08916  Biso   1.000  H
  C513     1.0000 0.76576  0.94025  0.04263  Biso   1.000  C
  C514     1.0000 0.76569  0.94025  0.04263  Biso   1.000  C
  C515     1.0000 0.71548  0.07661  0.07564  Biso   1.000  C
  C516     1.0000 0.71544  0.07652  0.07564  Biso   1.000  C
  H642     1.0000 0.86047  0.81071  0.04236  Biso   1.000  H
  H643     1.0000 0.86039  0.81071  0.04236  Biso   1.000  H
  H644     1.0000 0.62008  0.86945  0.08647  Biso   1.000  H
  H645     1.0000 0.62000  0.86945  0.08647  Biso   1.000  H
  C517     1.0000 0.67834  0.82015  0.04771  Biso   1.000  C
  C518     1.0000 0.67827  0.82015  0.04771  Biso   1.000  C
  N67      1.0000 0.74518  0.01820  0.03913  Biso   1.000  N
  N68      1.0000 0.74514  0.01812  0.03913  Biso   1.000  N
  N69      1.0000 0.62939  0.02107  0.06734  Biso   1.000  N
  C519     1.0000 0.81916  0.18179  0.07141  Biso   1.000  C
  N70      1.0000 0.62947  0.02107  0.06734  Biso   1.000  N
  C520     1.0000 0.81912  0.18170  0.07141  Biso   1.000  C
  H646     1.0000 0.61855  0.82217  0.05377  Biso   1.000  H
  H647     1.0000 0.71495  0.78871  0.05426  Biso   1.000  H
  H648     1.0000 0.64584  0.77295  0.03837  Biso   1.000  H
  H649     1.0000 0.61836  0.82209  0.05377  Biso   1.000  H
  H650     1.0000 0.71488  0.78871  0.05426  Biso   1.000  H
  H651     1.0000 0.64569  0.77295  0.03837  Biso   1.000  H
  H652     1.0000 0.61841  0.82217  0.05377  Biso   1.000  H
  H653     1.0000 0.61851  0.82209  0.05377  Biso   1.000  H
  C521     1.0000 0.62950  0.00025  0.03880  Biso   1.000  C
  C522     1.0000 0.62957  0.00025  0.03880  Biso   1.000  C
  C523     1.0000 0.61785  0.06557  0.05219  Biso   1.000  C
  H654     1.0000 0.88137  0.19089  0.07817  Biso   1.000  H
  H655     1.0000 0.80726  0.24601  0.07296  Biso   1.000  H
  H656     1.0000 0.83774  0.17850  0.06037  Biso   1.000  H
  H657     1.0000 0.88133  0.19081  0.07817  Biso   1.000  H
  H658     1.0000 0.80722  0.24592  0.07296  Biso   1.000  H
  H659     1.0000 0.83769  0.17842  0.06037  Biso   1.000  H
  H660     1.0000 0.83777  0.17842  0.06037  Biso   1.000  H
  H661     1.0000 0.57365  0.91833  0.03997  Biso   1.000  H
  H662     1.0000 0.57350  0.91833  0.03997  Biso   1.000  H
  C524     1.0000 0.61312  0.04399  0.02258  Biso   1.000  C
  C525     1.0000 0.61315  0.04391  0.02258  Biso   1.000  C
  C526     1.0000 0.61319  0.04399  0.02258  Biso   1.000  C
  H663     1.0000 0.67762  0.14656  0.05127  Biso   1.000  H
  C527     1.0000 0.50080  0.05613  0.05148  Biso   1.000  C
  H664     1.0000 0.67769  0.14656  0.05127  Biso   1.000  H
  C528     1.0000 0.50088  0.05613  0.05148  Biso   1.000  C
  H665     1.0000 0.61958  0.99882  0.01396  Biso   1.000  H
  H666     1.0000 0.61951  0.99882  0.01396  Biso   1.000  H
  C529     1.0000 0.49847  0.03540  0.02188  Biso   1.000  C
  H667     1.0000 0.67286  0.12347  0.02107  Biso   1.000  H
  C530     1.0000 0.49842  0.03531  0.02188  Biso   1.000  C
  H668     1.0000 0.44134  0.97632  0.05267  Biso   1.000  H
  H669     1.0000 0.49326  0.09928  0.06027  Biso   1.000  H
  C531     1.0000 0.48592  0.10198  0.03590  Biso   1.000  C
  C532     1.0000 0.48599  0.10198  0.03590  Biso   1.000  C
  H670     1.0000 0.43844  0.95533  0.02247  Biso   1.000  H
  H671     1.0000 0.49020  0.06675  0.01177  Biso   1.000  H
  H672     1.0000 0.49028  0.06675  0.01177  Biso   1.000  H
  H673     1.0000 0.54334  0.18280  0.03496  Biso   1.000  H
  H674     1.0000 0.41050  0.09507  0.03556  Biso   1.000  H
  H675     1.0000 0.54330  0.18272  0.03496  Biso   1.000  H
  H676     1.0000 0.41057  0.09507  0.03556  Biso   1.000  H
  H677     1.0000 0.54337  0.18272  0.03496  Biso   1.000  H
  C533     1.0000 0.55452  0.05874  0.15691  Biso   1.000  C
  C534     1.0000 0.52195  0.12937  0.14743  Biso   1.000  C
  H678     1.0000 0.50517  0.02924  0.16626  Biso   1.000  H
  H679     1.0000 0.63320  0.10560  0.16057  Biso   1.000  H
  H680     1.0000 0.50510  0.02924  0.16626  Biso   1.000  H
  C535     1.0000 0.54467  0.96241  0.14740  Biso   1.000  C
  C536     1.0000 0.54474  0.96241  0.14740  Biso   1.000  C
  H681     1.0000 0.63315  0.10552  0.16057  Biso   1.000  H
  H682     1.0000 0.63308  0.10552  0.16057  Biso   1.000  H
  C537     1.0000 0.40466  0.06456  0.14048  Biso   1.000  C
  H683     1.0000 0.52666  0.19047  0.15417  Biso   1.000  H
  H684     1.0000 0.57697  0.16510  0.13877  Biso   1.000  H
  C538     1.0000 0.55459  0.05874  0.15691  Biso   1.000  C
  H685     1.0000 0.57693  0.16502  0.13877  Biso   1.000  H
  C539     1.0000 0.40459  0.06456  0.14048  Biso   1.000  C
  H686     1.0000 0.52659  0.19047  0.15417  Biso   1.000  H
  H687     1.0000 0.56685  0.91656  0.15387  Biso   1.000  H
  H688     1.0000 0.59554  0.99132  0.13817  Biso   1.000  H
  C540     1.0000 0.41950  0.88783  0.14173  Biso   1.000  C
  H689     1.0000 0.56681  0.91648  0.15387  Biso   1.000  H
  H690     1.0000 0.59562  0.99132  0.13817  Biso   1.000  H
  C541     1.0000 0.41964  0.88783  0.14173  Biso   1.000  C
  N71      1.0000 0.38378  0.13577  0.13000  Biso   1.000  N
  H691     1.0000 0.34796  0.03700  0.14916  Biso   1.000  H
  H692     1.0000 0.34792  0.03691  0.14916  Biso   1.000  H
  C542     1.0000 0.39201  0.96553  0.13123  Biso   1.000  C
  C543     1.0000 0.39215  0.96553  0.13123  Biso   1.000  C
  N72      1.0000 0.38370  0.13577  0.13000  Biso   1.000  N
  H693     1.0000 0.36795  0.85917  0.15086  Biso   1.000  H
  H694     1.0000 0.41098  0.82276  0.13557  Biso   1.000  H
  H695     1.0000 0.36791  0.85909  0.15086  Biso   1.000  H
  H696     1.0000 0.41101  0.82268  0.13557  Biso   1.000  H
  C544     1.0000 0.29774  0.14530  0.13098  Biso   1.000  C
  C545     1.0000 0.29777  0.14521  0.13098  Biso   1.000  C
  C546     1.0000 0.29770  0.14521  0.13098  Biso   1.000  C
  N73      1.0000 0.27558  0.89735  0.12639  Biso   1.000  N
  H697     1.0000 0.44240  0.99216  0.12177  Biso   1.000  H
  H698     1.0000 0.44254  0.99216  0.12177  Biso   1.000  H
  C547     1.0000 0.28107  0.21457  0.11886  Biso   1.000  C
  C548     1.0000 0.20733  0.09001  0.14367  Biso   1.000  C
  C549     1.0000 0.20736  0.08993  0.14367  Biso   1.000  C
  C550     1.0000 0.20740  0.09001  0.14367  Biso   1.000  C
  C551     1.0000 0.28100  0.21457  0.11886  Biso   1.000  C
  C552     1.0000 0.20729  0.08993  0.14367  Biso   1.000  C
  C553     1.0000 0.24697  0.86465  0.11237  Biso   1.000  C
  C554     1.0000 0.21695  0.26531  0.12073  Biso   1.000  C
  C555     1.0000 0.21691  0.26522  0.12073  Biso   1.000  C
  C556     1.0000 0.32963  0.22469  0.10356  Biso   1.000  C
  C557     1.0000 0.32966  0.22460  0.10356  Biso   1.000  C
  C558     1.0000 0.32970  0.22469  0.10356  Biso   1.000  C
  C559     1.0000 0.32958  0.22460  0.10356  Biso   1.000  C
  H699     1.0000 0.18514  0.14386  0.14736  Biso   1.000  H
  H700     1.0000 0.23748  0.06725  0.15257  Biso   1.000  H
  H701     1.0000 0.14157  0.02360  0.13927  Biso   1.000  H
  H702     1.0000 0.23741  0.06725  0.15257  Biso   1.000  H
  H703     1.0000 0.14153  0.02351  0.13927  Biso   1.000  H
  H704     1.0000 0.14146  0.02351  0.13927  Biso   1.000  H
  C560     1.0000 0.33534  0.86271  0.10017  Biso   1.000  C
  C561     1.0000 0.12479  0.79267  0.10953  Biso   1.000  C
  C562     1.0000 0.12475  0.79259  0.10953  Biso   1.000  C
  C563     1.0000 0.12482  0.79259  0.10953  Biso   1.000  C
  C564     1.0000 0.32031  0.91075  0.09777  Biso   1.000  C
  C565     1.0000 0.20745  0.33214  0.10953  Biso   1.000  C
  H705     1.0000 0.17687  0.25317  0.13037  Biso   1.000  H
  H706     1.0000 0.17680  0.25317  0.13037  Biso   1.000  H
  C566     1.0000 0.20738  0.33214  0.10953  Biso   1.000  C
  H707     1.0000 0.37010  0.18651  0.10137  Biso   1.000  H
  C567     1.0000 0.31893  0.28781  0.09220  Biso   1.000  C
  C568     1.0000 0.31896  0.28773  0.09220  Biso   1.000  C
  H708     1.0000 0.37005  0.18642  0.10137  Biso   1.000  H
  C569     1.0000 0.31900  0.28781  0.09220  Biso   1.000  C
  C570     1.0000 0.31889  0.28773  0.09220  Biso   1.000  C
  H709     1.0000 0.36998  0.18642  0.10137  Biso   1.000  H
  H710     1.0000 0.30848  0.85993  0.08936  Biso   1.000  H
  H711     1.0000 0.40870  0.93148  0.10157  Biso   1.000  H
  H712     1.0000 0.34288  0.79664  0.10216  Biso   1.000  H
  H713     1.0000 0.40880  0.93140  0.10157  Biso   1.000  H
  H714     1.0000 0.34303  0.79664  0.10216  Biso   1.000  H
  H715     1.0000 0.40885  0.93148  0.10157  Biso   1.000  H
  C571     1.0000 0.08029  0.74177  0.09477  Biso   1.000  C
  C572     1.0000 0.04828  0.78315  0.12073  Biso   1.000  C
  C573     1.0000 0.08032  0.74169  0.09477  Biso   1.000  C
  C574     1.0000 0.04835  0.78315  0.12073  Biso   1.000  C
  C575     1.0000 0.08036  0.74177  0.09477  Biso   1.000  C
  H716     1.0000 0.34755  0.85925  0.09467  Biso   1.000  H
  H717     1.0000 0.38524  0.98500  0.10006  Biso   1.000  H
  H718     1.0000 0.27650  0.91699  0.08916  Biso   1.000  H
  C576     1.0000 0.13542  0.38237  0.11237  Biso   1.000  C
  C577     1.0000 0.25833  0.33872  0.09477  Biso   1.000  C
  C578     1.0000 0.25836  0.33863  0.09477  Biso   1.000  C
  C579     1.0000 0.13550  0.38237  0.11237  Biso   1.000  C
  C580     1.0000 0.25840  0.33872  0.09477  Biso   1.000  C
  C581     1.0000 0.25829  0.33863  0.09477  Biso   1.000  C
  C582     1.0000 0.36119  0.28461  0.07564  Biso   1.000  C
  C583     1.0000 0.36115  0.28452  0.07564  Biso   1.000  C
  C584     1.0000 0.36108  0.28452  0.07564  Biso   1.000  C
  C585     1.0000 0.96890  0.68117  0.09220  Biso   1.000  C
  C586     1.0000 0.96886  0.68109  0.09220  Biso   1.000  C
  H719     1.0000 0.13062  0.75062  0.08647  Biso   1.000  H
  C587     1.0000 0.93366  0.71902  0.11886  Biso   1.000  C
  C588     1.0000 0.93352  0.71902  0.11886  Biso   1.000  C
  H720     1.0000 0.07629  0.82327  0.13037  Biso   1.000  H
  H721     1.0000 0.07632  0.82318  0.13037  Biso   1.000  H
  H722     1.0000 0.07637  0.82327  0.13037  Biso   1.000  H
  N74      1.0000 0.10278  0.37824  0.12639  Biso   1.000  N
  C589     1.0000 0.13739  0.47272  0.10017  Biso   1.000  C
  N75      1.0000 0.10270  0.37824  0.12639  Biso   1.000  N
  C590     1.0000 0.13735  0.47263  0.10017  Biso   1.000  C
  C591     1.0000 0.13727  0.47263  0.10017  Biso   1.000  C
  C592     1.0000 0.08930  0.40968  0.09777  Biso   1.000  C
  H723     1.0000 0.24946  0.38010  0.08647  Biso   1.000  H
  H724     1.0000 0.24942  0.38001  0.08647  Biso   1.000  H
  N76      1.0000 0.39169  0.37057  0.06734  Biso   1.000  N
  C593     1.0000 0.36267  0.18086  0.07141  Biso   1.000  C
  N77      1.0000 0.39162  0.37057  0.06734  Biso   1.000  N
  C594     1.0000 0.36260  0.18086  0.07141  Biso   1.000  C
  C595     1.0000 0.92348  0.63895  0.07564  Biso   1.000  C
  C596     1.0000 0.89516  0.67047  0.10356  Biso   1.000  C
  C597     1.0000 0.89504  0.67039  0.10356  Biso   1.000  C
  C598     1.0000 0.89509  0.67047  0.10356  Biso   1.000  C
  C599     1.0000 0.89512  0.67039  0.10356  Biso   1.000  C
  C600     1.0000 0.84759  0.70233  0.13098  Biso   1.000  C
  C601     1.0000 0.84751  0.70233  0.13098  Biso   1.000  C
  C602     1.0000 0.03456  0.42662  0.13123  Biso   1.000  C
  C603     1.0000 0.03452  0.42653  0.13123  Biso   1.000  C
  H725     1.0000 0.06862  0.47735  0.10157  Biso   1.000  H
  H726     1.0000 0.14015  0.44861  0.08936  Biso   1.000  H
  H727     1.0000 0.20349  0.54638  0.10216  Biso   1.000  H
  H728     1.0000 0.14011  0.44853  0.08936  Biso   1.000  H
  H729     1.0000 0.20341  0.54638  0.10216  Biso   1.000  H
  H730     1.0000 0.14085  0.48839  0.09467  Biso   1.000  H
  H731     1.0000 0.01502  0.40024  0.10006  Biso   1.000  H
  H732     1.0000 0.08303  0.35962  0.08916  Biso   1.000  H
  C604     1.0000 0.44773  0.38220  0.05219  Biso   1.000  C
  C605     1.0000 0.44776  0.38212  0.05219  Biso   1.000  C
  C606     1.0000 0.44780  0.38220  0.05219  Biso   1.000  C
  C607     1.0000 0.44768  0.38212  0.05219  Biso   1.000  C
  H733     1.0000 0.30953  0.11866  0.07817  Biso   1.000  H
  H734     1.0000 0.43876  0.19275  0.07296  Biso   1.000  H
  H735     1.0000 0.34073  0.16224  0.06037  Biso   1.000  H
  H736     1.0000 0.43868  0.19275  0.07296  Biso   1.000  H
  N78      1.0000 0.97895  0.60844  0.06734  Biso   1.000  N
  C608     1.0000 0.81835  0.63743  0.07141  Biso   1.000  C
  C609     1.0000 0.81828  0.63743  0.07141  Biso   1.000  C
  H737     1.0000 0.81654  0.63002  0.10137  Biso   1.000  H
  H738     1.0000 0.81640  0.63002  0.10137  Biso   1.000  H
  N79      1.0000 0.75213  0.61636  0.13000  Biso   1.000  N
  C610     1.0000 0.88266  0.79276  0.14367  Biso   1.000  C
  N80      1.0000 0.75209  0.61628  0.13000  Biso   1.000  N
  C611     1.0000 0.11226  0.53180  0.14173  Biso   1.000  C
  H739     1.0000 0.00798  0.45038  0.12177  Biso   1.000  H
  H740     1.0000 0.00791  0.45038  0.12177  Biso   1.000  H
  C612     1.0000 0.93545  0.34006  0.14048  Biso   1.000  C
  C613     1.0000 0.11222  0.53171  0.14173  Biso   1.000  C
  C614     1.0000 0.11215  0.53171  0.14173  Biso   1.000  C
  H741     1.0000 0.46897  0.32237  0.05127  Biso   1.000  H
  C615     1.0000 0.37078  0.37049  0.03880  Biso   1.000  C
  C616     1.0000 0.55534  0.49918  0.05148  Biso   1.000  C
  C617     1.0000 0.55541  0.49918  0.05148  Biso   1.000  C
  H742     1.0000 0.46890  0.32237  0.05127  Biso   1.000  H
  C618     1.0000 0.37071  0.37049  0.03880  Biso   1.000  C
  C619     1.0000 0.93454  0.55231  0.05219  Biso   1.000  C
  C620     1.0000 0.93439  0.55231  0.05219  Biso   1.000  C
  H743     1.0000 0.80921  0.69053  0.07817  Biso   1.000  H
  H744     1.0000 0.75417  0.56133  0.07296  Biso   1.000  H
  H745     1.0000 0.82157  0.65935  0.06037  Biso   1.000  H
  H746     1.0000 0.75410  0.56133  0.07296  Biso   1.000  H
  H747     1.0000 0.82150  0.65935  0.06037  Biso   1.000  H
  C621     1.0000 0.66000  0.59546  0.14048  Biso   1.000  C
  C622     1.0000 0.65996  0.59538  0.14048  Biso   1.000  C
  H748     1.0000 0.82988  0.76267  0.15257  Biso   1.000  H
  H749     1.0000 0.88214  0.85858  0.13927  Biso   1.000  H
  H750     1.0000 0.95885  0.81492  0.14736  Biso   1.000  H
  H751     1.0000 0.82976  0.76259  0.15257  Biso   1.000  H
  H752     1.0000 0.88210  0.85850  0.13927  Biso   1.000  H
  H753     1.0000 0.95877  0.81492  0.14736  Biso   1.000  H
  H754     1.0000 0.82981  0.76267  0.15257  Biso   1.000  H
  H755     1.0000 0.82984  0.76259  0.15257  Biso   1.000  H
  C623     1.0000 0.03766  0.58228  0.14740  Biso   1.000  C
  H756     1.0000 0.14094  0.50887  0.15086  Biso   1.000  H
  H757     1.0000 0.17735  0.58826  0.13557  Biso   1.000  H
  C624     1.0000 0.03758  0.58228  0.14740  Biso   1.000  C
  H758     1.0000 0.17728  0.58826  0.13557  Biso   1.000  H
  N81      1.0000 0.86421  0.24795  0.13000  Biso   1.000  N
  H759     1.0000 0.96303  0.31099  0.14916  Biso   1.000  H
  C625     1.0000 0.87062  0.39257  0.14743  Biso   1.000  C
  H760     1.0000 0.96310  0.31099  0.14916  Biso   1.000  H
  C626     1.0000 0.87069  0.39257  0.14743  Biso   1.000  C
  N82      1.0000 0.86428  0.24795  0.13000  Biso   1.000  N
  N83      1.0000 0.27304  0.25486  0.03913  Biso   1.000  N
  C627     1.0000 0.43085  0.38684  0.02258  Biso   1.000  C
  H761     1.0000 0.34475  0.42645  0.03997  Biso   1.000  H
  C628     1.0000 0.43077  0.38684  0.02258  Biso   1.000  C
  H762     1.0000 0.34468  0.42645  0.03997  Biso   1.000  H
  H763     1.0000 0.53494  0.55868  0.05267  Biso   1.000  H
  H764     1.0000 0.60606  0.50677  0.06027  Biso   1.000  H
  C629     1.0000 0.61607  0.51410  0.03590  Biso   1.000  C
  C630     1.0000 0.61603  0.51401  0.03590  Biso   1.000  C
  H765     1.0000 0.60599  0.50677  0.06027  Biso   1.000  H
  C631     1.0000 0.61596  0.51401  0.03590  Biso   1.000  C
  H766     1.0000 0.85346  0.53116  0.05127  Biso   1.000  H
  C632     1.0000 0.94390  0.44477  0.05148  Biso   1.000  C
  C633     1.0000 0.99984  0.62934  0.03880  Biso   1.000  C
  H767     1.0000 0.85341  0.53107  0.05127  Biso   1.000  H
  C634     1.0000 0.94379  0.44469  0.05148  Biso   1.000  C
  C635     1.0000 0.99969  0.62934  0.03880  Biso   1.000  C
  C636     1.0000 0.94383  0.44477  0.05148  Biso   1.000  C
  H768     1.0000 0.68909  0.65218  0.14916  Biso   1.000  H
  C637     1.0000 0.57344  0.60802  0.13123  Biso   1.000  C
  H769     1.0000 0.68905  0.65210  0.14916  Biso   1.000  H
  C638     1.0000 0.60755  0.47815  0.14743  Biso   1.000  C
  C639     1.0000 0.60740  0.47815  0.14743  Biso   1.000  C
  H770     1.0000 0.08353  0.65038  0.15387  Biso   1.000  H
  H771     1.0000 0.00873  0.60428  0.13817  Biso   1.000  H
  C640     1.0000 0.94121  0.49581  0.15691  Biso   1.000  C
  C641     1.0000 0.94124  0.49573  0.15691  Biso   1.000  C
  C642     1.0000 0.94129  0.49581  0.15691  Biso   1.000  C
  C643     1.0000 0.85471  0.15246  0.13098  Biso   1.000  C
  C644     1.0000 0.85479  0.15246  0.13098  Biso   1.000  C
  H772     1.0000 0.83494  0.41187  0.13877  Biso   1.000  H
  H773     1.0000 0.80951  0.33619  0.15417  Biso   1.000  H
  H774     1.0000 0.80958  0.33619  0.15417  Biso   1.000  H
  C645     1.0000 0.17456  0.23438  0.04263  Biso   1.000  C
  C646     1.0000 0.17448  0.23438  0.04263  Biso   1.000  C
  C647     1.0000 0.53695  0.50154  0.02188  Biso   1.000  C
  H775     1.0000 0.45064  0.32717  0.02107  Biso   1.000  H
  H776     1.0000 0.37925  0.38043  0.01396  Biso   1.000  H
  C648     1.0000 0.53688  0.50154  0.02188  Biso   1.000  C
  H777     1.0000 0.37918  0.38043  0.01396  Biso   1.000  H
  H778     1.0000 0.68455  0.58944  0.03556  Biso   1.000  H
  H779     1.0000 0.63949  0.45671  0.03496  Biso   1.000  H
  H780     1.0000 0.63945  0.45662  0.03496  Biso   1.000  H
  H781     1.0000 0.63938  0.45662  0.03496  Biso   1.000  H
  H782     1.0000 0.68447  0.58944  0.03556  Biso   1.000  H
  H783     1.0000 0.90080  0.39404  0.06027  Biso   1.000  H
  C649     1.0000 0.89812  0.38401  0.03590  Biso   1.000  C
  C650     1.0000 0.89797  0.38401  0.03590  Biso   1.000  C
  H784     1.0000 0.02380  0.46517  0.05267  Biso   1.000  H
  H785     1.0000 0.02376  0.46508  0.05267  Biso   1.000  H
  C651     1.0000 0.95607  0.56925  0.02258  Biso   1.000  C
  N84      1.0000 0.98197  0.72702  0.03913  Biso   1.000  N
  N85      1.0000 0.98182  0.72702  0.03913  Biso   1.000  N
  H786     1.0000 0.08183  0.65538  0.03997  Biso   1.000  H
  H787     1.0000 0.08179  0.65530  0.03997  Biso   1.000  H
  C652     1.0000 0.46825  0.58055  0.14173  Biso   1.000  C
  N86      1.0000 0.62180  0.72458  0.12639  Biso   1.000  N
  H788     1.0000 0.54970  0.55762  0.12177  Biso   1.000  H
  N87      1.0000 0.62168  0.72449  0.12639  Biso   1.000  N
  N88      1.0000 0.62172  0.72458  0.12639  Biso   1.000  N
  H789     1.0000 0.58821  0.42311  0.13877  Biso   1.000  H
  H790     1.0000 0.66387  0.47343  0.15417  Biso   1.000  H
  C653     1.0000 0.50424  0.44553  0.15691  Biso   1.000  C
  H791     1.0000 0.66380  0.47343  0.15417  Biso   1.000  H
  H792     1.0000 0.97071  0.47584  0.16626  Biso   1.000  H
  H793     1.0000 0.89440  0.52758  0.16057  Biso   1.000  H
  H794     1.0000 0.89448  0.52758  0.16057  Biso   1.000  H
  H795     1.0000 0.97078  0.47584  0.16626  Biso   1.000  H
  C654     1.0000 0.91002  0.11740  0.14367  Biso   1.000  C
  C655     1.0000 0.78546  0.06650  0.11886  Biso   1.000  C
  C656     1.0000 0.91006  0.11732  0.14367  Biso   1.000  C
  C657     1.0000 0.78541  0.06641  0.11886  Biso   1.000  C
  C658     1.0000 0.91010  0.11740  0.14367  Biso   1.000  C
  C659     1.0000 0.14184  0.32178  0.04771  Biso   1.000  C
  C660     1.0000 0.08203  0.11209  0.04243  Biso   1.000  C
  C661     1.0000 0.08206  0.11201  0.04243  Biso   1.000  C
  C662     1.0000 0.08210  0.11209  0.04243  Biso   1.000  C
  C663     1.0000 0.08199  0.11201  0.04243  Biso   1.000  C
  H796     1.0000 0.51682  0.56155  0.02247  Biso   1.000  H
  H797     1.0000 0.57656  0.50980  0.01177  Biso   1.000  H
  H798     1.0000 0.57651  0.50972  0.01177  Biso   1.000  H
  H799     1.0000 0.51689  0.56155  0.02247  Biso   1.000  H
  H800     1.0000 0.81733  0.36066  0.03496  Biso   1.000  H
  H801     1.0000 0.90507  0.31557  0.03556  Biso   1.000  H
  C664     1.0000 0.96477  0.46315  0.02188  Biso   1.000  C
  H802     1.0000 0.81729  0.36058  0.03496  Biso   1.000  H
  H803     1.0000 0.90488  0.31549  0.03556  Biso   1.000  H
  C665     1.0000 0.96462  0.46315  0.02188  Biso   1.000  C
  H804     1.0000 0.90492  0.31557  0.03556  Biso   1.000  H
  H805     1.0000 0.90503  0.31549  0.03556  Biso   1.000  H
  H806     1.0000 0.00128  0.62083  0.01396  Biso   1.000  H
  H807     1.0000 0.87654  0.54945  0.02107  Biso   1.000  H
  C666     1.0000 0.05977  0.82554  0.04263  Biso   1.000  C
  C667     1.0000 0.05984  0.82554  0.04263  Biso   1.000  C
  H808     1.0000 0.41175  0.58914  0.13557  Biso   1.000  H
  C668     1.0000 0.41776  0.45548  0.14740  Biso   1.000  C
  C669     1.0000 0.41772  0.45539  0.14740  Biso   1.000  C
  H809     1.0000 0.49112  0.63212  0.15086  Biso   1.000  H
  C670     1.0000 0.61776  0.75315  0.11237  Biso   1.000  C
  C671     1.0000 0.61769  0.75315  0.11237  Biso   1.000  C
  H810     1.0000 0.52419  0.49492  0.16626  Biso   1.000  H
  H811     1.0000 0.47252  0.36690  0.16057  Biso   1.000  H
  H812     1.0000 0.47237  0.36690  0.16057  Biso   1.000  H
  H813     1.0000 0.93275  0.17016  0.15257  Biso   1.000  H
  H814     1.0000 0.97645  0.11799  0.13927  Biso   1.000  H
  H815     1.0000 0.85613  0.04130  0.14736  Biso   1.000  H
  H816     1.0000 0.97640  0.11791  0.13927  Biso   1.000  H
  H817     1.0000 0.85609  0.04121  0.14736  Biso   1.000  H
  H818     1.0000 0.97648  0.11791  0.13927  Biso   1.000  H
  H819     1.0000 0.85617  0.04121  0.14736  Biso   1.000  H
  C672     1.0000 0.73478  0.95171  0.12073  Biso   1.000  C
  C673     1.0000 0.73470  0.95171  0.12073  Biso   1.000  C
  C674     1.0000 0.77537  0.10501  0.10356  Biso   1.000  C
  C675     1.0000 0.77533  0.10493  0.10356  Biso   1.000  C
  H820     1.0000 0.20365  0.38161  0.05377  Biso   1.000  H
  H821     1.0000 0.07385  0.28520  0.05426  Biso   1.000  H
  H822     1.0000 0.12716  0.35431  0.03837  Biso   1.000  H
  H823     1.0000 0.20361  0.38153  0.05377  Biso   1.000  H
  H824     1.0000 0.07380  0.28511  0.05426  Biso   1.000  H
  H825     1.0000 0.12712  0.35422  0.03837  Biso   1.000  H
  C676     1.0000 0.11206  0.02924  0.04238  Biso   1.000  C
  C677     1.0000 0.97073  0.08276  0.04238  Biso   1.000  C
  C678     1.0000 0.97080  0.08276  0.04238  Biso   1.000  C
  C679     1.0000 0.11199  0.02924  0.04238  Biso   1.000  C
  H826     1.0000 0.93328  0.42353  0.01177  Biso   1.000  H
  H827     1.0000 0.93321  0.42353  0.01177  Biso   1.000  H
  H828     1.0000 0.04479  0.48320  0.02247  Biso   1.000  H
  C680     1.0000 0.03006  0.91808  0.04243  Biso   1.000  C
  C681     1.0000 0.17998  0.85824  0.04771  Biso   1.000  C
  C682     1.0000 0.03009  0.91800  0.04243  Biso   1.000  C
  C683     1.0000 0.03013  0.91808  0.04243  Biso   1.000  C
  C684     1.0000 0.18005  0.85824  0.04771  Biso   1.000  C
  H829     1.0000 0.39581  0.40457  0.13817  Biso   1.000  H
  H830     1.0000 0.34971  0.43323  0.15387  Biso   1.000  H
  H831     1.0000 0.39577  0.40449  0.13817  Biso   1.000  H
  C685     1.0000 0.66791  0.87535  0.10953  Biso   1.000  C
  C686     1.0000 0.52743  0.66474  0.10017  Biso   1.000  C
  C687     1.0000 0.52736  0.66474  0.10017  Biso   1.000  C
  C688     1.0000 0.59040  0.67974  0.09777  Biso   1.000  C
  H832     1.0000 0.74684  0.92373  0.13037  Biso   1.000  H
  C689     1.0000 0.71226  0.03118  0.09220  Biso   1.000  C
  H833     1.0000 0.81355  0.18356  0.10137  Biso   1.000  H
  C690     1.0000 0.71221  0.03110  0.09220  Biso   1.000  C
  H834     1.0000 0.18934  0.04981  0.04236  Biso   1.000  H
  H835     1.0000 0.18938  0.04972  0.04236  Biso   1.000  H
  H836     1.0000 0.18930  0.04972  0.04236  Biso   1.000  H
  C691     1.0000 0.88804  0.97008  0.04243  Biso   1.000  C
  C692     1.0000 0.88800  0.97000  0.04243  Biso   1.000  C
  H837     1.0000 0.95023  0.13957  0.04236  Biso   1.000  H
  H838     1.0000 0.95030  0.13957  0.04236  Biso   1.000  H
  C693     1.0000 0.91733  0.88808  0.04238  Biso   1.000  C
  C694     1.0000 0.91728  0.88799  0.04238  Biso   1.000  C
  H839     1.0000 0.21136  0.92626  0.05426  Biso   1.000  H
  H840     1.0000 0.17795  0.79638  0.05377  Biso   1.000  H
  H841     1.0000 0.17799  0.79647  0.05377  Biso   1.000  H
  H842     1.0000 0.22709  0.87291  0.03837  Biso   1.000  H
  H843     1.0000 0.22716  0.87291  0.03837  Biso   1.000  H
  C695     1.0000 0.66137  0.91977  0.09477  Biso   1.000  C
  C696     1.0000 0.66132  0.91968  0.09477  Biso   1.000  C
  H844     1.0000 0.52269  0.59133  0.10157  Biso   1.000  H
  H845     1.0000 0.55153  0.69162  0.08936  Biso   1.000  H
  H846     1.0000 0.45371  0.65715  0.10216  Biso   1.000  H
  H847     1.0000 0.55138  0.69162  0.08936  Biso   1.000  H
  H848     1.0000 0.51161  0.65252  0.09467  Biso   1.000  H
  H849     1.0000 0.59977  0.61485  0.10006  Biso   1.000  H
  H850     1.0000 0.64052  0.72348  0.08916  Biso   1.000  H
  C697     1.0000 0.71548  0.07661  0.07564  Biso   1.000  C
  C698     1.0000 0.71544  0.07652  0.07564  Biso   1.000  C
  C699     1.0000 0.76576  0.94025  0.04263  Biso   1.000  C
  C700     1.0000 0.76569  0.94025  0.04263  Biso   1.000  C
  H851     1.0000 0.86047  0.81071  0.04236  Biso   1.000  H
  H852     1.0000 0.86039  0.81071  0.04236  Biso   1.000  H
  H853     1.0000 0.62008  0.86945  0.08647  Biso   1.000  H
  H854     1.0000 0.62000  0.86945  0.08647  Biso   1.000  H
  N89      1.0000 0.62939  0.02107  0.06734  Biso   1.000  N
  C701     1.0000 0.81916  0.18179  0.07141  Biso   1.000  C
  N90      1.0000 0.62947  0.02107  0.06734  Biso   1.000  N
  C702     1.0000 0.81912  0.18170  0.07141  Biso   1.000  C
  C703     1.0000 0.67834  0.82015  0.04771  Biso   1.000  C
  C704     1.0000 0.67827  0.82015  0.04771  Biso   1.000  C
  N91      1.0000 0.74518  0.01820  0.03913  Biso   1.000  N
  N92      1.0000 0.74514  0.01812  0.03913  Biso   1.000  N
  C705     1.0000 0.61785  0.06557  0.05219  Biso   1.000  C
  H855     1.0000 0.88137  0.19089  0.07817  Biso   1.000  H
  H856     1.0000 0.80726  0.24601  0.07296  Biso   1.000  H
  H857     1.0000 0.83774  0.17850  0.06037  Biso   1.000  H
  H858     1.0000 0.88133  0.19081  0.07817  Biso   1.000  H
  H859     1.0000 0.80722  0.24592  0.07296  Biso   1.000  H
  H860     1.0000 0.83769  0.17842  0.06037  Biso   1.000  H
  H861     1.0000 0.83777  0.17842  0.06037  Biso   1.000  H
  H862     1.0000 0.61855  0.82217  0.05377  Biso   1.000  H
  H863     1.0000 0.71495  0.78871  0.05426  Biso   1.000  H
  H864     1.0000 0.64584  0.77295  0.03837  Biso   1.000  H
  H865     1.0000 0.61836  0.82209  0.05377  Biso   1.000  H
  H866     1.0000 0.71488  0.78871  0.05426  Biso   1.000  H
  H867     1.0000 0.64569  0.77295  0.03837  Biso   1.000  H
  H868     1.0000 0.61841  0.82217  0.05377  Biso   1.000  H
  H869     1.0000 0.61851  0.82209  0.05377  Biso   1.000  H
  C706     1.0000 0.62950  0.00025  0.03880  Biso   1.000  C
  C707     1.0000 0.62957  0.00025  0.03880  Biso   1.000  C
  H870     1.0000 0.67762  0.14656  0.05127  Biso   1.000  H
  C708     1.0000 0.50080  0.05613  0.05148  Biso   1.000  C
  H871     1.0000 0.67769  0.14656  0.05127  Biso   1.000  H
  C709     1.0000 0.50088  0.05613  0.05148  Biso   1.000  C
  H872     1.0000 0.57365  0.91833  0.03997  Biso   1.000  H
  H873     1.0000 0.57350  0.91833  0.03997  Biso   1.000  H
  C710     1.0000 0.61312  0.04399  0.02258  Biso   1.000  C
  C711     1.0000 0.61315  0.04391  0.02258  Biso   1.000  C
  C712     1.0000 0.61319  0.04399  0.02258  Biso   1.000  C
  H874     1.0000 0.44134  0.97632  0.05267  Biso   1.000  H
  H875     1.0000 0.49326  0.09928  0.06027  Biso   1.000  H
  C713     1.0000 0.48592  0.10198  0.03590  Biso   1.000  C
  C714     1.0000 0.48599  0.10198  0.03590  Biso   1.000  C
  H876     1.0000 0.61958  0.99882  0.01396  Biso   1.000  H
  H877     1.0000 0.61951  0.99882  0.01396  Biso   1.000  H
  C715     1.0000 0.49847  0.03540  0.02188  Biso   1.000  C
  H878     1.0000 0.67286  0.12347  0.02107  Biso   1.000  H
  C716     1.0000 0.49842  0.03531  0.02188  Biso   1.000  C
  H879     1.0000 0.54334  0.18280  0.03496  Biso   1.000  H
  H880     1.0000 0.41050  0.09507  0.03556  Biso   1.000  H
  H881     1.0000 0.54330  0.18272  0.03496  Biso   1.000  H
  H882     1.0000 0.41057  0.09507  0.03556  Biso   1.000  H
  H883     1.0000 0.54337  0.18272  0.03496  Biso   1.000  H
  H884     1.0000 0.43844  0.95533  0.02247  Biso   1.000  H
  H885     1.0000 0.49020  0.06675  0.01177  Biso   1.000  H
  H886     1.0000 0.49028  0.06675  0.01177  Biso   1.000  H
  C717     1.0000 0.55452  0.05874  0.15691  Biso   1.000  C
  C718     1.0000 0.52195  0.12937  0.14743  Biso   1.000  C
  C719     1.0000 0.54467  0.96241  0.14740  Biso   1.000  C
  C720     1.0000 0.54474  0.96241  0.14740  Biso   1.000  C
  H887     1.0000 0.50510  0.02924  0.16626  Biso   1.000  H
  H888     1.0000 0.63320  0.10560  0.16057  Biso   1.000  H
  H889     1.0000 0.50517  0.02924  0.16626  Biso   1.000  H
  H890     1.0000 0.63315  0.10552  0.16057  Biso   1.000  H
  H891     1.0000 0.63308  0.10552  0.16057  Biso   1.000  H
  C721     1.0000 0.40466  0.06456  0.14048  Biso   1.000  C
  H892     1.0000 0.52666  0.19047  0.15417  Biso   1.000  H
  H893     1.0000 0.57697  0.16510  0.13877  Biso   1.000  H
  H894     1.0000 0.57693  0.16502  0.13877  Biso   1.000  H
  C722     1.0000 0.55459  0.05874  0.15691  Biso   1.000  C
  C723     1.0000 0.40459  0.06456  0.14048  Biso   1.000  C
  H895     1.0000 0.52659  0.19047  0.15417  Biso   1.000  H
  C724     1.0000 0.41950  0.88783  0.14173  Biso   1.000  C
  C725     1.0000 0.41964  0.88783  0.14173  Biso   1.000  C
  H896     1.0000 0.56685  0.91656  0.15387  Biso   1.000  H
  H897     1.0000 0.59554  0.99132  0.13817  Biso   1.000  H
  H898     1.0000 0.56681  0.91648  0.15387  Biso   1.000  H
  H899     1.0000 0.59562  0.99132  0.13817  Biso   1.000  H
  N93      1.0000 0.38378  0.13577  0.13000  Biso   1.000  N
  C726     1.0000 0.39201  0.96553  0.13123  Biso   1.000  C
  C727     1.0000 0.39215  0.96553  0.13123  Biso   1.000  C
  H900     1.0000 0.34796  0.03700  0.14916  Biso   1.000  H
  H901     1.0000 0.34792  0.03691  0.14916  Biso   1.000  H
  N94      1.0000 0.38370  0.13577  0.13000  Biso   1.000  N
  H902     1.0000 0.36795  0.85917  0.15086  Biso   1.000  H
  H903     1.0000 0.41098  0.82276  0.13557  Biso   1.000  H
  H904     1.0000 0.36791  0.85909  0.15086  Biso   1.000  H
  H905     1.0000 0.41101  0.82268  0.13557  Biso   1.000  H
  C728     1.0000 0.29774  0.14530  0.13098  Biso   1.000  C
  C729     1.0000 0.29777  0.14521  0.13098  Biso   1.000  C
  C730     1.0000 0.29770  0.14521  0.13098  Biso   1.000  C
  N95      1.0000 0.27558  0.89735  0.12639  Biso   1.000  N
  H906     1.0000 0.44240  0.99216  0.12177  Biso   1.000  H
  H907     1.0000 0.44254  0.99216  0.12177  Biso   1.000  H
  C731     1.0000 0.28107  0.21457  0.11886  Biso   1.000  C
  C732     1.0000 0.20733  0.09001  0.14367  Biso   1.000  C
  C733     1.0000 0.20736  0.08993  0.14367  Biso   1.000  C
  C734     1.0000 0.20740  0.09001  0.14367  Biso   1.000  C
  C735     1.0000 0.28100  0.21457  0.11886  Biso   1.000  C
  C736     1.0000 0.20729  0.08993  0.14367  Biso   1.000  C
  C737     1.0000 0.24697  0.86465  0.11237  Biso   1.000  C
  C738     1.0000 0.32963  0.22469  0.10356  Biso   1.000  C
  C739     1.0000 0.21695  0.26531  0.12073  Biso   1.000  C
  C740     1.0000 0.32966  0.22460  0.10356  Biso   1.000  C
  C741     1.0000 0.21691  0.26522  0.12073  Biso   1.000  C
  C742     1.0000 0.32970  0.22469  0.10356  Biso   1.000  C
  C743     1.0000 0.32958  0.22460  0.10356  Biso   1.000  C
  H908     1.0000 0.18514  0.14386  0.14736  Biso   1.000  H
  H909     1.0000 0.23741  0.06725  0.15257  Biso   1.000  H
  H910     1.0000 0.14157  0.02360  0.13927  Biso   1.000  H
  H911     1.0000 0.23748  0.06725  0.15257  Biso   1.000  H
  H912     1.0000 0.14153  0.02351  0.13927  Biso   1.000  H
  H913     1.0000 0.14146  0.02351  0.13927  Biso   1.000  H
  C744     1.0000 0.33534  0.86271  0.10017  Biso   1.000  C
  C745     1.0000 0.12479  0.79267  0.10953  Biso   1.000  C
  C746     1.0000 0.12475  0.79259  0.10953  Biso   1.000  C
  C747     1.0000 0.12482  0.79259  0.10953  Biso   1.000  C
  C748     1.0000 0.32031  0.91075  0.09777  Biso   1.000  C
  C749     1.0000 0.31893  0.28781  0.09220  Biso   1.000  C
  H914     1.0000 0.37010  0.18651  0.10137  Biso   1.000  H
  C750     1.0000 0.31896  0.28773  0.09220  Biso   1.000  C
  H915     1.0000 0.37005  0.18642  0.10137  Biso   1.000  H
  C751     1.0000 0.31900  0.28781  0.09220  Biso   1.000  C
  C752     1.0000 0.31889  0.28773  0.09220  Biso   1.000  C
  H916     1.0000 0.36998  0.18642  0.10137  Biso   1.000  H
  C753     1.0000 0.20745  0.33214  0.10953  Biso   1.000  C
  H917     1.0000 0.17680  0.25317  0.13037  Biso   1.000  H
  H918     1.0000 0.17687  0.25317  0.13037  Biso   1.000  H
  C754     1.0000 0.20738  0.33214  0.10953  Biso   1.000  C
  H919     1.0000 0.30848  0.85993  0.08936  Biso   1.000  H
  H920     1.0000 0.40870  0.93148  0.10157  Biso   1.000  H
  H921     1.0000 0.34288  0.79664  0.10216  Biso   1.000  H
  H922     1.0000 0.40880  0.93140  0.10157  Biso   1.000  H
  H923     1.0000 0.34303  0.79664  0.10216  Biso   1.000  H
  H924     1.0000 0.40885  0.93148  0.10157  Biso   1.000  H
  C755     1.0000 0.08029  0.74177  0.09477  Biso   1.000  C
  C756     1.0000 0.04828  0.78315  0.12073  Biso   1.000  C
  C757     1.0000 0.08032  0.74169  0.09477  Biso   1.000  C
  C758     1.0000 0.04835  0.78315  0.12073  Biso   1.000  C
  C759     1.0000 0.08036  0.74177  0.09477  Biso   1.000  C
  H925     1.0000 0.34755  0.85925  0.09467  Biso   1.000  H
  H926     1.0000 0.38524  0.98500  0.10006  Biso   1.000  H
  H927     1.0000 0.27650  0.91699  0.08916  Biso   1.000  H
  C760     1.0000 0.25833  0.33872  0.09477  Biso   1.000  C
  C761     1.0000 0.36119  0.28461  0.07564  Biso   1.000  C
  C762     1.0000 0.25836  0.33863  0.09477  Biso   1.000  C
  C763     1.0000 0.36115  0.28452  0.07564  Biso   1.000  C
  C764     1.0000 0.25840  0.33872  0.09477  Biso   1.000  C
  C765     1.0000 0.25829  0.33863  0.09477  Biso   1.000  C
  C766     1.0000 0.36108  0.28452  0.07564  Biso   1.000  C
  C767     1.0000 0.13542  0.38237  0.11237  Biso   1.000  C
  C768     1.0000 0.13550  0.38237  0.11237  Biso   1.000  C
  C769     1.0000 0.96890  0.68117  0.09220  Biso   1.000  C
  C770     1.0000 0.96886  0.68109  0.09220  Biso   1.000  C
  H928     1.0000 0.13062  0.75062  0.08647  Biso   1.000  H
  C771     1.0000 0.93366  0.71902  0.11886  Biso   1.000  C
  C772     1.0000 0.93352  0.71902  0.11886  Biso   1.000  C
  H929     1.0000 0.07629  0.82327  0.13037  Biso   1.000  H
  H930     1.0000 0.07632  0.82318  0.13037  Biso   1.000  H
  H931     1.0000 0.07637  0.82327  0.13037  Biso   1.000  H
  H932     1.0000 0.24946  0.38010  0.08647  Biso   1.000  H
  H933     1.0000 0.24942  0.38001  0.08647  Biso   1.000  H
  N96      1.0000 0.39162  0.37057  0.06734  Biso   1.000  N
  C773     1.0000 0.36260  0.18086  0.07141  Biso   1.000  C
  N97      1.0000 0.39169  0.37057  0.06734  Biso   1.000  N
  C774     1.0000 0.36267  0.18086  0.07141  Biso   1.000  C
  N98      1.0000 0.10270  0.37824  0.12639  Biso   1.000  N
  C775     1.0000 0.13739  0.47272  0.10017  Biso   1.000  C
  N99      1.0000 0.10278  0.37824  0.12639  Biso   1.000  N
  C776     1.0000 0.13735  0.47263  0.10017  Biso   1.000  C
  C777     1.0000 0.13727  0.47263  0.10017  Biso   1.000  C
  C778     1.0000 0.08930  0.40968  0.09777  Biso   1.000  C
  C779     1.0000 0.92348  0.63895  0.07564  Biso   1.000  C
  C780     1.0000 0.89516  0.67047  0.10356  Biso   1.000  C
  C781     1.0000 0.89504  0.67039  0.10356  Biso   1.000  C
  C782     1.0000 0.89509  0.67047  0.10356  Biso   1.000  C
  C783     1.0000 0.89512  0.67039  0.10356  Biso   1.000  C
  C784     1.0000 0.84759  0.70233  0.13098  Biso   1.000  C
  C785     1.0000 0.84751  0.70233  0.13098  Biso   1.000  C
  C786     1.0000 0.44773  0.38220  0.05219  Biso   1.000  C
  C787     1.0000 0.44776  0.38212  0.05219  Biso   1.000  C
  C788     1.0000 0.44780  0.38220  0.05219  Biso   1.000  C
  C789     1.0000 0.44768  0.38212  0.05219  Biso   1.000  C
  H934     1.0000 0.30953  0.11866  0.07817  Biso   1.000  H
  H935     1.0000 0.43876  0.19275  0.07296  Biso   1.000  H
  H936     1.0000 0.34073  0.16224  0.06037  Biso   1.000  H
  H937     1.0000 0.43868  0.19275  0.07296  Biso   1.000  H
  C790     1.0000 0.03456  0.42662  0.13123  Biso   1.000  C
  C791     1.0000 0.03452  0.42653  0.13123  Biso   1.000  C
  H938     1.0000 0.06862  0.47735  0.10157  Biso   1.000  H
  H939     1.0000 0.14015  0.44861  0.08936  Biso   1.000  H
  H940     1.0000 0.20341  0.54638  0.10216  Biso   1.000  H
  H941     1.0000 0.14011  0.44853  0.08936  Biso   1.000  H
  H942     1.0000 0.20349  0.54638  0.10216  Biso   1.000  H
  H943     1.0000 0.14085  0.48839  0.09467  Biso   1.000  H
  H944     1.0000 0.01502  0.40024  0.10006  Biso   1.000  H
  H945     1.0000 0.08303  0.35962  0.08916  Biso   1.000  H
  N100     1.0000 0.97895  0.60844  0.06734  Biso   1.000  N
  C792     1.0000 0.81835  0.63743  0.07141  Biso   1.000  C
  C793     1.0000 0.81828  0.63743  0.07141  Biso   1.000  C
  H946     1.0000 0.81654  0.63002  0.10137  Biso   1.000  H
  H947     1.0000 0.81640  0.63002  0.10137  Biso   1.000  H
  N101     1.0000 0.75213  0.61636  0.13000  Biso   1.000  N
  C794     1.0000 0.88266  0.79276  0.14367  Biso   1.000  C
  N102     1.0000 0.75209  0.61628  0.13000  Biso   1.000  N
  H948     1.0000 0.46897  0.32237  0.05127  Biso   1.000  H
  C795     1.0000 0.37078  0.37049  0.03880  Biso   1.000  C
  C796     1.0000 0.55534  0.49918  0.05148  Biso   1.000  C
  C797     1.0000 0.55541  0.49918  0.05148  Biso   1.000  C
  H949     1.0000 0.46890  0.32237  0.05127  Biso   1.000  H
  C798     1.0000 0.37071  0.37049  0.03880  Biso   1.000  C
  C799     1.0000 0.93545  0.34006  0.14048  Biso   1.000  C
  C800     1.0000 0.11226  0.53180  0.14173  Biso   1.000  C
  H950     1.0000 0.00791  0.45038  0.12177  Biso   1.000  H
  C801     1.0000 0.11222  0.53171  0.14173  Biso   1.000  C
  H951     1.0000 0.00798  0.45038  0.12177  Biso   1.000  H
  C802     1.0000 0.11215  0.53171  0.14173  Biso   1.000  C
  C803     1.0000 0.93454  0.55231  0.05219  Biso   1.000  C
  C804     1.0000 0.93439  0.55231  0.05219  Biso   1.000  C
  H952     1.0000 0.80921  0.69053  0.07817  Biso   1.000  H
  H953     1.0000 0.75417  0.56133  0.07296  Biso   1.000  H
  H954     1.0000 0.82157  0.65935  0.06037  Biso   1.000  H
  H955     1.0000 0.75410  0.56133  0.07296  Biso   1.000  H
  H956     1.0000 0.82150  0.65935  0.06037  Biso   1.000  H
  C805     1.0000 0.66000  0.59546  0.14048  Biso   1.000  C
  C806     1.0000 0.65996  0.59538  0.14048  Biso   1.000  C
  H957     1.0000 0.82988  0.76267  0.15257  Biso   1.000  H
  H958     1.0000 0.88214  0.85858  0.13927  Biso   1.000  H
  H959     1.0000 0.95885  0.81492  0.14736  Biso   1.000  H
  H960     1.0000 0.82976  0.76259  0.15257  Biso   1.000  H
  H961     1.0000 0.88210  0.85850  0.13927  Biso   1.000  H
  H962     1.0000 0.95877  0.81492  0.14736  Biso   1.000  H
  H963     1.0000 0.82981  0.76267  0.15257  Biso   1.000  H
  H964     1.0000 0.82984  0.76259  0.15257  Biso   1.000  H
  N103     1.0000 0.27304  0.25486  0.03913  Biso   1.000  N
  C807     1.0000 0.43085  0.38684  0.02258  Biso   1.000  C
  H965     1.0000 0.34475  0.42645  0.03997  Biso   1.000  H
  C808     1.0000 0.43077  0.38684  0.02258  Biso   1.000  C
  H966     1.0000 0.34468  0.42645  0.03997  Biso   1.000  H
  H967     1.0000 0.53494  0.55868  0.05267  Biso   1.000  H
  H968     1.0000 0.60606  0.50677  0.06027  Biso   1.000  H
  C809     1.0000 0.61607  0.51410  0.03590  Biso   1.000  C
  C810     1.0000 0.61603  0.51401  0.03590  Biso   1.000  C
  H969     1.0000 0.60599  0.50677  0.06027  Biso   1.000  H
  C811     1.0000 0.61596  0.51401  0.03590  Biso   1.000  C
  N104     1.0000 0.86421  0.24795  0.13000  Biso   1.000  N
  H970     1.0000 0.96303  0.31099  0.14916  Biso   1.000  H
  C812     1.0000 0.87062  0.39257  0.14743  Biso   1.000  C
  H971     1.0000 0.96310  0.31099  0.14916  Biso   1.000  H
  C813     1.0000 0.87069  0.39257  0.14743  Biso   1.000  C
  N105     1.0000 0.86428  0.24795  0.13000  Biso   1.000  N
  C814     1.0000 0.03766  0.58228  0.14740  Biso   1.000  C
  H972     1.0000 0.14094  0.50887  0.15086  Biso   1.000  H
  H973     1.0000 0.17735  0.58826  0.13557  Biso   1.000  H
  C815     1.0000 0.03758  0.58228  0.14740  Biso   1.000  C
  H974     1.0000 0.17728  0.58826  0.13557  Biso   1.000  H
  H975     1.0000 0.85346  0.53116  0.05127  Biso   1.000  H
  C816     1.0000 0.94390  0.44477  0.05148  Biso   1.000  C
  C817     1.0000 0.99984  0.62934  0.03880  Biso   1.000  C
  H976     1.0000 0.85341  0.53107  0.05127  Biso   1.000  H
  C818     1.0000 0.94379  0.44469  0.05148  Biso   1.000  C
  C819     1.0000 0.99969  0.62934  0.03880  Biso   1.000  C
  C820     1.0000 0.94383  0.44477  0.05148  Biso   1.000  C
  H977     1.0000 0.68909  0.65218  0.14916  Biso   1.000  H
  C821     1.0000 0.57344  0.60802  0.13123  Biso   1.000  C
  H978     1.0000 0.68905  0.65210  0.14916  Biso   1.000  H
  C822     1.0000 0.60755  0.47815  0.14743  Biso   1.000  C
  C823     1.0000 0.60740  0.47815  0.14743  Biso   1.000  C
  C824     1.0000 0.17456  0.23438  0.04263  Biso   1.000  C
  C825     1.0000 0.17448  0.23438  0.04263  Biso   1.000  C
  C826     1.0000 0.53695  0.50154  0.02188  Biso   1.000  C
  H979     1.0000 0.45064  0.32717  0.02107  Biso   1.000  H
  H980     1.0000 0.37925  0.38043  0.01396  Biso   1.000  H
  C827     1.0000 0.53688  0.50154  0.02188  Biso   1.000  C
  H981     1.0000 0.37918  0.38043  0.01396  Biso   1.000  H
  H982     1.0000 0.68455  0.58944  0.03556  Biso   1.000  H
  H983     1.0000 0.63949  0.45671  0.03496  Biso   1.000  H
  H984     1.0000 0.63945  0.45662  0.03496  Biso   1.000  H
  H985     1.0000 0.63938  0.45662  0.03496  Biso   1.000  H
  H986     1.0000 0.68447  0.58944  0.03556  Biso   1.000  H
  C828     1.0000 0.85471  0.15246  0.13098  Biso   1.000  C
  C829     1.0000 0.85479  0.15246  0.13098  Biso   1.000  C
  H987     1.0000 0.83494  0.41187  0.13877  Biso   1.000  H
  H988     1.0000 0.80951  0.33619  0.15417  Biso   1.000  H
  C830     1.0000 0.94121  0.49581  0.15691  Biso   1.000  C
  H989     1.0000 0.80958  0.33619  0.15417  Biso   1.000  H
  C831     1.0000 0.94124  0.49573  0.15691  Biso   1.000  C
  C832     1.0000 0.94129  0.49581  0.15691  Biso   1.000  C
  H990     1.0000 0.08353  0.65038  0.15387  Biso   1.000  H
  H991     1.0000 0.00873  0.60428  0.13817  Biso   1.000  H
  H992     1.0000 0.90080  0.39404  0.06027  Biso   1.000  H
  C833     1.0000 0.89812  0.38401  0.03590  Biso   1.000  C
  C834     1.0000 0.89797  0.38401  0.03590  Biso   1.000  C
  H993     1.0000 0.02380  0.46517  0.05267  Biso   1.000  H
  H994     1.0000 0.02376  0.46508  0.05267  Biso   1.000  H
  C835     1.0000 0.95607  0.56925  0.02258  Biso   1.000  C
  N106     1.0000 0.98197  0.72702  0.03913  Biso   1.000  N
  N107     1.0000 0.98182  0.72702  0.03913  Biso   1.000  N
  H995     1.0000 0.08183  0.65538  0.03997  Biso   1.000  H
  H996     1.0000 0.08179  0.65530  0.03997  Biso   1.000  H
  C836     1.0000 0.46825  0.58055  0.14173  Biso   1.000  C
  N108     1.0000 0.62180  0.72458  0.12639  Biso   1.000  N
  H997     1.0000 0.54970  0.55762  0.12177  Biso   1.000  H
  N109     1.0000 0.62168  0.72449  0.12639  Biso   1.000  N
  N110     1.0000 0.62172  0.72458  0.12639  Biso   1.000  N
  H998     1.0000 0.58821  0.42311  0.13877  Biso   1.000  H
  H999     1.0000 0.66387  0.47343  0.15417  Biso   1.000  H
  C837     1.0000 0.50424  0.44553  0.15691  Biso   1.000  C
  H1000    1.0000 0.66380  0.47343  0.15417  Biso   1.000  H
  C838     1.0000 0.14184  0.32178  0.04771  Biso   1.000  C
  C839     1.0000 0.08203  0.11209  0.04243  Biso   1.000  C
  C840     1.0000 0.08206  0.11201  0.04243  Biso   1.000  C
  C841     1.0000 0.08210  0.11209  0.04243  Biso   1.000  C
  C842     1.0000 0.08199  0.11201  0.04243  Biso   1.000  C
  H1001    1.0000 0.51682  0.56155  0.02247  Biso   1.000  H
  H1002    1.0000 0.57656  0.50980  0.01177  Biso   1.000  H
  H1003    1.0000 0.51689  0.56155  0.02247  Biso   1.000  H
  H1004    1.0000 0.57651  0.50972  0.01177  Biso   1.000  H
  C843     1.0000 0.91002  0.11740  0.14367  Biso   1.000  C
  C844     1.0000 0.78546  0.06650  0.11886  Biso   1.000  C
  C845     1.0000 0.91006  0.11732  0.14367  Biso   1.000  C
  C846     1.0000 0.78541  0.06641  0.11886  Biso   1.000  C
  C847     1.0000 0.91010  0.11740  0.14367  Biso   1.000  C
  H1005    1.0000 0.97071  0.47584  0.16626  Biso   1.000  H
  H1006    1.0000 0.89440  0.52758  0.16057  Biso   1.000  H
  H1007    1.0000 0.89448  0.52758  0.16057  Biso   1.000  H
  H1008    1.0000 0.97078  0.47584  0.16626  Biso   1.000  H
  H1009    1.0000 0.81733  0.36066  0.03496  Biso   1.000  H
  H1010    1.0000 0.90507  0.31557  0.03556  Biso   1.000  H
  C848     1.0000 0.96477  0.46315  0.02188  Biso   1.000  C
  H1011    1.0000 0.81729  0.36058  0.03496  Biso   1.000  H
  H1012    1.0000 0.90488  0.31549  0.03556  Biso   1.000  H
  C849     1.0000 0.96462  0.46315  0.02188  Biso   1.000  C
  H1013    1.0000 0.90492  0.31557  0.03556  Biso   1.000  H
  H1014    1.0000 0.90503  0.31549  0.03556  Biso   1.000  H
  H1015    1.0000 0.00128  0.62083  0.01396  Biso   1.000  H
  H1016    1.0000 0.87654  0.54945  0.02107  Biso   1.000  H
  C850     1.0000 0.05977  0.82554  0.04263  Biso   1.000  C
  C851     1.0000 0.05984  0.82554  0.04263  Biso   1.000  C
  H1017    1.0000 0.41175  0.58914  0.13557  Biso   1.000  H
  C852     1.0000 0.41776  0.45548  0.14740  Biso   1.000  C
  C853     1.0000 0.41772  0.45539  0.14740  Biso   1.000  C
  H1018    1.0000 0.49112  0.63212  0.15086  Biso   1.000  H
  C854     1.0000 0.61776  0.75315  0.11237  Biso   1.000  C
  C855     1.0000 0.61769  0.75315  0.11237  Biso   1.000  C
  H1019    1.0000 0.52419  0.49492  0.16626  Biso   1.000  H
  H1020    1.0000 0.47252  0.36690  0.16057  Biso   1.000  H
  H1021    1.0000 0.47237  0.36690  0.16057  Biso   1.000  H
  H1022    1.0000 0.20365  0.38161  0.05377  Biso   1.000  H
  H1023    1.0000 0.07385  0.28520  0.05426  Biso   1.000  H
  H1024    1.0000 0.12716  0.35431  0.03837  Biso   1.000  H
  H1025    1.0000 0.20361  0.38153  0.05377  Biso   1.000  H
  H1026    1.0000 0.07380  0.28511  0.05426  Biso   1.000  H
  H1027    1.0000 0.12712  0.35422  0.03837  Biso   1.000  H
  C856     1.0000 0.11206  0.02924  0.04238  Biso   1.000  C
  C857     1.0000 0.97073  0.08276  0.04238  Biso   1.000  C
  C858     1.0000 0.97080  0.08276  0.04238  Biso   1.000  C
  C859     1.0000 0.11199  0.02924  0.04238  Biso   1.000  C
  H1028    1.0000 0.93275  0.17016  0.15257  Biso   1.000  H
  H1029    1.0000 0.97645  0.11799  0.13927  Biso   1.000  H
  H1030    1.0000 0.85613  0.04130  0.14736  Biso   1.000  H
  H1031    1.0000 0.97640  0.11791  0.13927  Biso   1.000  H
  H1032    1.0000 0.85609  0.04121  0.14736  Biso   1.000  H
  H1033    1.0000 0.97648  0.11791  0.13927  Biso   1.000  H
  H1034    1.0000 0.85617  0.04121  0.14736  Biso   1.000  H
  C860     1.0000 0.73478  0.95171  0.12073  Biso   1.000  C
  C861     1.0000 0.73470  0.95171  0.12073  Biso   1.000  C
  C862     1.0000 0.77537  0.10501  0.10356  Biso   1.000  C
  C863     1.0000 0.77533  0.10493  0.10356  Biso   1.000  C
  H1035    1.0000 0.93328  0.42353  0.01177  Biso   1.000  H
  H1036    1.0000 0.93321  0.42353  0.01177  Biso   1.000  H
  H1037    1.0000 0.04479  0.48320  0.02247  Biso   1.000  H
  C864     1.0000 0.03006  0.91808  0.04243  Biso   1.000  C
  C865     1.0000 0.17998  0.85824  0.04771  Biso   1.000  C
  C866     1.0000 0.03009  0.91800  0.04243  Biso   1.000  C
  C867     1.0000 0.03013  0.91808  0.04243  Biso   1.000  C
  C868     1.0000 0.18005  0.85824  0.04771  Biso   1.000  C
  H1038    1.0000 0.39581  0.40457  0.13817  Biso   1.000  H
  H1039    1.0000 0.34971  0.43323  0.15387  Biso   1.000  H
  H1040    1.0000 0.39577  0.40449  0.13817  Biso   1.000  H
  C869     1.0000 0.66791  0.87535  0.10953  Biso   1.000  C
  C870     1.0000 0.52743  0.66474  0.10017  Biso   1.000  C
  C871     1.0000 0.52736  0.66474  0.10017  Biso   1.000  C
  C872     1.0000 0.59040  0.67974  0.09777  Biso   1.000  C
  H1041    1.0000 0.18934  0.04981  0.04236  Biso   1.000  H
  H1042    1.0000 0.18938  0.04972  0.04236  Biso   1.000  H
  H1043    1.0000 0.18930  0.04972  0.04236  Biso   1.000  H
  C873     1.0000 0.88804  0.97008  0.04243  Biso   1.000  C
  C874     1.0000 0.88800  0.97000  0.04243  Biso   1.000  C
  H1044    1.0000 0.95023  0.13957  0.04236  Biso   1.000  H
  H1045    1.0000 0.95030  0.13957  0.04236  Biso   1.000  H
  H1046    1.0000 0.74684  0.92373  0.13037  Biso   1.000  H
  C875     1.0000 0.71226  0.03118  0.09220  Biso   1.000  C
  H1047    1.0000 0.81355  0.18356  0.10137  Biso   1.000  H
  C876     1.0000 0.71221  0.03110  0.09220  Biso   1.000  C
  C877     1.0000 0.91733  0.88808  0.04238  Biso   1.000  C
  C878     1.0000 0.91728  0.88799  0.04238  Biso   1.000  C
  H1048    1.0000 0.21136  0.92626  0.05426  Biso   1.000  H
  H1049    1.0000 0.17795  0.79638  0.05377  Biso   1.000  H
  H1050    1.0000 0.17799  0.79647  0.05377  Biso   1.000  H
  H1051    1.0000 0.22709  0.87291  0.03837  Biso   1.000  H
  H1052    1.0000 0.22716  0.87291  0.03837  Biso   1.000  H
  C879     1.0000 0.66137  0.91977  0.09477  Biso   1.000  C
  C880     1.0000 0.66132  0.91968  0.09477  Biso   1.000  C
  H1053    1.0000 0.52269  0.59133  0.10157  Biso   1.000  H
  H1054    1.0000 0.55153  0.69162  0.08936  Biso   1.000  H
  H1055    1.0000 0.45371  0.65715  0.10216  Biso   1.000  H
  H1056    1.0000 0.55138  0.69162  0.08936  Biso   1.000  H
  H1057    1.0000 0.51161  0.65252  0.09467  Biso   1.000  H
  H1058    1.0000 0.59977  0.61485  0.10006  Biso   1.000  H
  H1059    1.0000 0.64052  0.72348  0.08916  Biso   1.000  H
  C881     1.0000 0.76576  0.94025  0.04263  Biso   1.000  C
  C882     1.0000 0.76569  0.94025  0.04263  Biso   1.000  C
  C883     1.0000 0.71548  0.07661  0.07564  Biso   1.000  C
  C884     1.0000 0.71544  0.07652  0.07564  Biso   1.000  C
  H1060    1.0000 0.86047  0.81071  0.04236  Biso   1.000  H
  H1061    1.0000 0.86039  0.81071  0.04236  Biso   1.000  H
  H1062    1.0000 0.62008  0.86945  0.08647  Biso   1.000  H
  H1063    1.0000 0.62000  0.86945  0.08647  Biso   1.000  H
  C885     1.0000 0.67834  0.82015  0.04771  Biso   1.000  C
  C886     1.0000 0.67827  0.82015  0.04771  Biso   1.000  C
  N111     1.0000 0.74518  0.01820  0.03913  Biso   1.000  N
  N112     1.0000 0.74514  0.01812  0.03913  Biso   1.000  N
  N113     1.0000 0.62939  0.02107  0.06734  Biso   1.000  N
  C887     1.0000 0.81916  0.18179  0.07141  Biso   1.000  C
  N114     1.0000 0.62947  0.02107  0.06734  Biso   1.000  N
  C888     1.0000 0.81912  0.18170  0.07141  Biso   1.000  C
  H1064    1.0000 0.61855  0.82217  0.05377  Biso   1.000  H
  H1065    1.0000 0.71495  0.78871  0.05426  Biso   1.000  H
  H1066    1.0000 0.64584  0.77295  0.03837  Biso   1.000  H
  H1067    1.0000 0.61836  0.82209  0.05377  Biso   1.000  H
  H1068    1.0000 0.71488  0.78871  0.05426  Biso   1.000  H
  H1069    1.0000 0.64569  0.77295  0.03837  Biso   1.000  H
  H1070    1.0000 0.61841  0.82217  0.05377  Biso   1.000  H
  H1071    1.0000 0.61851  0.82209  0.05377  Biso   1.000  H
  C889     1.0000 0.62950  0.00025  0.03880  Biso   1.000  C
  C890     1.0000 0.62957  0.00025  0.03880  Biso   1.000  C
  C891     1.0000 0.61785  0.06557  0.05219  Biso   1.000  C
  H1072    1.0000 0.88137  0.19089  0.07817  Biso   1.000  H
  H1073    1.0000 0.80726  0.24601  0.07296  Biso   1.000  H
  H1074    1.0000 0.83774  0.17850  0.06037  Biso   1.000  H
  H1075    1.0000 0.88133  0.19081  0.07817  Biso   1.000  H
  H1076    1.0000 0.80722  0.24592  0.07296  Biso   1.000  H
  H1077    1.0000 0.83769  0.17842  0.06037  Biso   1.000  H
  H1078    1.0000 0.83777  0.17842  0.06037  Biso   1.000  H
  H1079    1.0000 0.57365  0.91833  0.03997  Biso   1.000  H
  H1080    1.0000 0.57350  0.91833  0.03997  Biso   1.000  H
  C892     1.0000 0.61312  0.04399  0.02258  Biso   1.000  C
  C893     1.0000 0.61315  0.04391  0.02258  Biso   1.000  C
  C894     1.0000 0.61319  0.04399  0.02258  Biso   1.000  C
  H1081    1.0000 0.67762  0.14656  0.05127  Biso   1.000  H
  C895     1.0000 0.50080  0.05613  0.05148  Biso   1.000  C
  H1082    1.0000 0.67769  0.14656  0.05127  Biso   1.000  H
  C896     1.0000 0.50088  0.05613  0.05148  Biso   1.000  C
  H1083    1.0000 0.61958  0.99882  0.01396  Biso   1.000  H
  H1084    1.0000 0.61951  0.99882  0.01396  Biso   1.000  H
  C897     1.0000 0.49847  0.03540  0.02188  Biso   1.000  C
  H1085    1.0000 0.67286  0.12347  0.02107  Biso   1.000  H
  C898     1.0000 0.49842  0.03531  0.02188  Biso   1.000  C
  H1086    1.0000 0.44134  0.97632  0.05267  Biso   1.000  H
  H1087    1.0000 0.49326  0.09928  0.06027  Biso   1.000  H
  C899     1.0000 0.48592  0.10198  0.03590  Biso   1.000  C
  C900     1.0000 0.48599  0.10198  0.03590  Biso   1.000  C
  H1088    1.0000 0.43844  0.95533  0.02247  Biso   1.000  H
  H1089    1.0000 0.49020  0.06675  0.01177  Biso   1.000  H
  H1090    1.0000 0.49028  0.06675  0.01177  Biso   1.000  H
  H1091    1.0000 0.54334  0.18280  0.03496  Biso   1.000  H
  H1092    1.0000 0.41050  0.09507  0.03556  Biso   1.000  H
  H1093    1.0000 0.54330  0.18272  0.03496  Biso   1.000  H
  H1094    1.0000 0.41057  0.09507  0.03556  Biso   1.000  H
  H1095    1.0000 0.54337  0.18272  0.03496  Biso   1.000  H
  C901     1.0000 0.55452  0.05874  0.15691  Biso   1.000  C
  C902     1.0000 0.52195  0.12937  0.14743  Biso   1.000  C
  C903     1.0000 0.54467  0.96241  0.14740  Biso   1.000  C
  C904     1.0000 0.54474  0.96241  0.14740  Biso   1.000  C
  H1096    1.0000 0.50510  0.02924  0.16626  Biso   1.000  H
  H1097    1.0000 0.63320  0.10560  0.16057  Biso   1.000  H
  H1098    1.0000 0.50517  0.02924  0.16626  Biso   1.000  H
  H1099    1.0000 0.63315  0.10552  0.16057  Biso   1.000  H
  H1100    1.0000 0.63308  0.10552  0.16057  Biso   1.000  H
  C905     1.0000 0.40466  0.06456  0.14048  Biso   1.000  C
  H1101    1.0000 0.57697  0.16510  0.13877  Biso   1.000  H
  H1102    1.0000 0.52666  0.19047  0.15417  Biso   1.000  H
  H1103    1.0000 0.57693  0.16502  0.13877  Biso   1.000  H
  C906     1.0000 0.55459  0.05874  0.15691  Biso   1.000  C
  C907     1.0000 0.40459  0.06456  0.14048  Biso   1.000  C
  H1104    1.0000 0.52659  0.19047  0.15417  Biso   1.000  H
  C908     1.0000 0.41950  0.88783  0.14173  Biso   1.000  C
  C909     1.0000 0.41964  0.88783  0.14173  Biso   1.000  C
  H1105    1.0000 0.56685  0.91656  0.15387  Biso   1.000  H
  H1106    1.0000 0.59554  0.99132  0.13817  Biso   1.000  H
  H1107    1.0000 0.56681  0.91648  0.15387  Biso   1.000  H
  H1108    1.0000 0.59562  0.99132  0.13817  Biso   1.000  H
  C910     1.0000 0.39201  0.96553  0.13123  Biso   1.000  C
  C911     1.0000 0.39215  0.96553  0.13123  Biso   1.000  C
  N115     1.0000 0.38378  0.13577  0.13000  Biso   1.000  N
  H1109    1.0000 0.34796  0.03700  0.14916  Biso   1.000  H
  H1110    1.0000 0.34792  0.03691  0.14916  Biso   1.000  H
  N116     1.0000 0.38370  0.13577  0.13000  Biso   1.000  N
  H1111    1.0000 0.36795  0.85917  0.15086  Biso   1.000  H
  H1112    1.0000 0.41098  0.82276  0.13557  Biso   1.000  H
  H1113    1.0000 0.36791  0.85909  0.15086  Biso   1.000  H
  H1114    1.0000 0.41101  0.82268  0.13557  Biso   1.000  H
  N117     1.0000 0.27558  0.89735  0.12639  Biso   1.000  N
  H1115    1.0000 0.44240  0.99216  0.12177  Biso   1.000  H
  H1116    1.0000 0.44254  0.99216  0.12177  Biso   1.000  H
  C912     1.0000 0.29774  0.14530  0.13098  Biso   1.000  C
  C913     1.0000 0.29777  0.14521  0.13098  Biso   1.000  C
  C914     1.0000 0.29770  0.14521  0.13098  Biso   1.000  C
  C915     1.0000 0.24697  0.86465  0.11237  Biso   1.000  C
  C916     1.0000 0.28107  0.21457  0.11886  Biso   1.000  C
  C917     1.0000 0.20733  0.09001  0.14367  Biso   1.000  C
  C918     1.0000 0.20736  0.08993  0.14367  Biso   1.000  C
  C919     1.0000 0.20740  0.09001  0.14367  Biso   1.000  C
  C920     1.0000 0.28100  0.21457  0.11886  Biso   1.000  C
  C921     1.0000 0.20729  0.08993  0.14367  Biso   1.000  C
  C922     1.0000 0.33534  0.86271  0.10017  Biso   1.000  C
  C923     1.0000 0.12479  0.79267  0.10953  Biso   1.000  C
  C924     1.0000 0.12475  0.79259  0.10953  Biso   1.000  C
  C925     1.0000 0.12482  0.79259  0.10953  Biso   1.000  C
  C926     1.0000 0.32031  0.91075  0.09777  Biso   1.000  C
  C927     1.0000 0.32963  0.22469  0.10356  Biso   1.000  C
  C928     1.0000 0.21695  0.26531  0.12073  Biso   1.000  C
  C929     1.0000 0.32966  0.22460  0.10356  Biso   1.000  C
  C930     1.0000 0.21691  0.26522  0.12073  Biso   1.000  C
  C931     1.0000 0.32970  0.22469  0.10356  Biso   1.000  C
  C932     1.0000 0.32958  0.22460  0.10356  Biso   1.000  C
  H1117    1.0000 0.18514  0.14386  0.14736  Biso   1.000  H
  H1118    1.0000 0.23741  0.06725  0.15257  Biso   1.000  H
  H1119    1.0000 0.14157  0.02360  0.13927  Biso   1.000  H
  H1120    1.0000 0.23748  0.06725  0.15257  Biso   1.000  H
  H1121    1.0000 0.14153  0.02351  0.13927  Biso   1.000  H
  H1122    1.0000 0.14146  0.02351  0.13927  Biso   1.000  H
  H1123    1.0000 0.30848  0.85993  0.08936  Biso   1.000  H
  H1124    1.0000 0.40870  0.93148  0.10157  Biso   1.000  H
  H1125    1.0000 0.34288  0.79664  0.10216  Biso   1.000  H
  H1126    1.0000 0.40880  0.93140  0.10157  Biso   1.000  H
  H1127    1.0000 0.34303  0.79664  0.10216  Biso   1.000  H
  H1128    1.0000 0.40885  0.93148  0.10157  Biso   1.000  H
  C933     1.0000 0.08029  0.74177  0.09477  Biso   1.000  C
  C934     1.0000 0.04828  0.78315  0.12073  Biso   1.000  C
  C935     1.0000 0.08032  0.74169  0.09477  Biso   1.000  C
  C936     1.0000 0.04835  0.78315  0.12073  Biso   1.000  C
  C937     1.0000 0.08036  0.74177  0.09477  Biso   1.000  C
  H1129    1.0000 0.34755  0.85925  0.09467  Biso   1.000  H
  H1130    1.0000 0.38524  0.98500  0.10006  Biso   1.000  H
  H1131    1.0000 0.27650  0.91699  0.08916  Biso   1.000  H
  C938     1.0000 0.31893  0.28781  0.09220  Biso   1.000  C
  H1132    1.0000 0.37010  0.18651  0.10137  Biso   1.000  H
  C939     1.0000 0.31896  0.28773  0.09220  Biso   1.000  C
  H1133    1.0000 0.37005  0.18642  0.10137  Biso   1.000  H
  C940     1.0000 0.31900  0.28781  0.09220  Biso   1.000  C
  C941     1.0000 0.31889  0.28773  0.09220  Biso   1.000  C
  H1134    1.0000 0.36998  0.18642  0.10137  Biso   1.000  H
  C942     1.0000 0.20745  0.33214  0.10953  Biso   1.000  C
  H1135    1.0000 0.17680  0.25317  0.13037  Biso   1.000  H
  H1136    1.0000 0.17687  0.25317  0.13037  Biso   1.000  H
  C943     1.0000 0.20738  0.33214  0.10953  Biso   1.000  C
  C944     1.0000 0.96890  0.68117  0.09220  Biso   1.000  C
  C945     1.0000 0.96886  0.68109  0.09220  Biso   1.000  C
  H1137    1.0000 0.13062  0.75062  0.08647  Biso   1.000  H
  C946     1.0000 0.93366  0.71902  0.11886  Biso   1.000  C
  C947     1.0000 0.93352  0.71902  0.11886  Biso   1.000  C
  H1138    1.0000 0.07629  0.82327  0.13037  Biso   1.000  H
  H1139    1.0000 0.07632  0.82318  0.13037  Biso   1.000  H
  H1140    1.0000 0.07637  0.82327  0.13037  Biso   1.000  H
  C948     1.0000 0.25833  0.33872  0.09477  Biso   1.000  C
  C949     1.0000 0.36119  0.28461  0.07564  Biso   1.000  C
  C950     1.0000 0.25836  0.33863  0.09477  Biso   1.000  C
  C951     1.0000 0.36115  0.28452  0.07564  Biso   1.000  C
  C952     1.0000 0.25840  0.33872  0.09477  Biso   1.000  C
  C953     1.0000 0.25829  0.33863  0.09477  Biso   1.000  C
  C954     1.0000 0.36108  0.28452  0.07564  Biso   1.000  C
  C955     1.0000 0.13542  0.38237  0.11237  Biso   1.000  C
  C956     1.0000 0.13550  0.38237  0.11237  Biso   1.000  C
  C957     1.0000 0.92348  0.63895  0.07564  Biso   1.000  C
  C958     1.0000 0.89516  0.67047  0.10356  Biso   1.000  C
  C959     1.0000 0.89504  0.67039  0.10356  Biso   1.000  C
  C960     1.0000 0.89509  0.67047  0.10356  Biso   1.000  C
  C961     1.0000 0.89512  0.67039  0.10356  Biso   1.000  C
  C962     1.0000 0.84759  0.70233  0.13098  Biso   1.000  C
  C963     1.0000 0.84751  0.70233  0.13098  Biso   1.000  C
  H1141    1.0000 0.24946  0.38010  0.08647  Biso   1.000  H
  H1142    1.0000 0.24942  0.38001  0.08647  Biso   1.000  H
  N118     1.0000 0.39162  0.37057  0.06734  Biso   1.000  N
  C964     1.0000 0.36260  0.18086  0.07141  Biso   1.000  C
  N119     1.0000 0.39169  0.37057  0.06734  Biso   1.000  N
  C965     1.0000 0.36267  0.18086  0.07141  Biso   1.000  C
  N120     1.0000 0.10270  0.37824  0.12639  Biso   1.000  N
  C966     1.0000 0.13739  0.47272  0.10017  Biso   1.000  C
  N121     1.0000 0.10278  0.37824  0.12639  Biso   1.000  N
  C967     1.0000 0.13735  0.47263  0.10017  Biso   1.000  C
  C968     1.0000 0.13727  0.47263  0.10017  Biso   1.000  C
  C969     1.0000 0.08930  0.40968  0.09777  Biso   1.000  C
  N122     1.0000 0.97895  0.60844  0.06734  Biso   1.000  N
  C970     1.0000 0.81835  0.63743  0.07141  Biso   1.000  C
  C971     1.0000 0.81828  0.63743  0.07141  Biso   1.000  C
  H1143    1.0000 0.81654  0.63002  0.10137  Biso   1.000  H
  H1144    1.0000 0.81640  0.63002  0.10137  Biso   1.000  H
  N123     1.0000 0.75213  0.61636  0.13000  Biso   1.000  N
  C972     1.0000 0.88266  0.79276  0.14367  Biso   1.000  C
  N124     1.0000 0.75209  0.61628  0.13000  Biso   1.000  N
  C973     1.0000 0.44773  0.38220  0.05219  Biso   1.000  C
  C974     1.0000 0.44776  0.38212  0.05219  Biso   1.000  C
  C975     1.0000 0.44780  0.38220  0.05219  Biso   1.000  C
  C976     1.0000 0.44768  0.38212  0.05219  Biso   1.000  C
  H1145    1.0000 0.30953  0.11866  0.07817  Biso   1.000  H
  H1146    1.0000 0.34073  0.16224  0.06037  Biso   1.000  H
  H1147    1.0000 0.43876  0.19275  0.07296  Biso   1.000  H
  H1148    1.0000 0.43868  0.19275  0.07296  Biso   1.000  H
  C977     1.0000 0.03456  0.42662  0.13123  Biso   1.000  C
  C978     1.0000 0.03452  0.42653  0.13123  Biso   1.000  C
  H1149    1.0000 0.06862  0.47735  0.10157  Biso   1.000  H
  H1150    1.0000 0.14015  0.44861  0.08936  Biso   1.000  H
  H1151    1.0000 0.20341  0.54638  0.10216  Biso   1.000  H
  H1152    1.0000 0.14011  0.44853  0.08936  Biso   1.000  H
  H1153    1.0000 0.20349  0.54638  0.10216  Biso   1.000  H
  H1154    1.0000 0.14085  0.48839  0.09467  Biso   1.000  H
  H1155    1.0000 0.01502  0.40024  0.10006  Biso   1.000  H
  H1156    1.0000 0.08303  0.35962  0.08916  Biso   1.000  H
  C979     1.0000 0.93454  0.55231  0.05219  Biso   1.000  C
  C980     1.0000 0.93439  0.55231  0.05219  Biso   1.000  C
  H1157    1.0000 0.80921  0.69053  0.07817  Biso   1.000  H
  H1158    1.0000 0.75417  0.56133  0.07296  Biso   1.000  H
  H1159    1.0000 0.82157  0.65935  0.06037  Biso   1.000  H
  H1160    1.0000 0.75410  0.56133  0.07296  Biso   1.000  H
  H1161    1.0000 0.82150  0.65935  0.06037  Biso   1.000  H
  C981     1.0000 0.66000  0.59546  0.14048  Biso   1.000  C
  C982     1.0000 0.65996  0.59538  0.14048  Biso   1.000  C
  H1162    1.0000 0.82988  0.76267  0.15257  Biso   1.000  H
  H1163    1.0000 0.88214  0.85858  0.13927  Biso   1.000  H
  H1164    1.0000 0.95885  0.81492  0.14736  Biso   1.000  H
  H1165    1.0000 0.82976  0.76259  0.15257  Biso   1.000  H
  H1166    1.0000 0.88210  0.85850  0.13927  Biso   1.000  H
  H1167    1.0000 0.95877  0.81492  0.14736  Biso   1.000  H
  H1168    1.0000 0.82981  0.76267  0.15257  Biso   1.000  H
  H1169    1.0000 0.82984  0.76259  0.15257  Biso   1.000  H
  H1170    1.0000 0.46897  0.32237  0.05127  Biso   1.000  H
  C983     1.0000 0.55534  0.49918  0.05148  Biso   1.000  C
  C984     1.0000 0.37078  0.37049  0.03880  Biso   1.000  C
  C985     1.0000 0.55541  0.49918  0.05148  Biso   1.000  C
  H1171    1.0000 0.46890  0.32237  0.05127  Biso   1.000  H
  C986     1.0000 0.37071  0.37049  0.03880  Biso   1.000  C
  C987     1.0000 0.93545  0.34006  0.14048  Biso   1.000  C
  C988     1.0000 0.11226  0.53180  0.14173  Biso   1.000  C
  H1172    1.0000 0.00791  0.45038  0.12177  Biso   1.000  H
  C989     1.0000 0.11222  0.53171  0.14173  Biso   1.000  C
  H1173    1.0000 0.00798  0.45038  0.12177  Biso   1.000  H
  C990     1.0000 0.11215  0.53171  0.14173  Biso   1.000  C
  H1174    1.0000 0.85346  0.53116  0.05127  Biso   1.000  H
  C991     1.0000 0.94390  0.44477  0.05148  Biso   1.000  C
  C992     1.0000 0.99984  0.62934  0.03880  Biso   1.000  C
  H1175    1.0000 0.85341  0.53107  0.05127  Biso   1.000  H
  C993     1.0000 0.94379  0.44469  0.05148  Biso   1.000  C
  C994     1.0000 0.99969  0.62934  0.03880  Biso   1.000  C
  C995     1.0000 0.94383  0.44477  0.05148  Biso   1.000  C
  H1176    1.0000 0.68909  0.65218  0.14916  Biso   1.000  H
  C996     1.0000 0.57344  0.60802  0.13123  Biso   1.000  C
  H1177    1.0000 0.68905  0.65210  0.14916  Biso   1.000  H
  C997     1.0000 0.60755  0.47815  0.14743  Biso   1.000  C
  C998     1.0000 0.60740  0.47815  0.14743  Biso   1.000  C
  H1178    1.0000 0.53494  0.55868  0.05267  Biso   1.000  H
  H1179    1.0000 0.60606  0.50677  0.06027  Biso   1.000  H
  C999     1.0000 0.61607  0.51410  0.03590  Biso   1.000  C
  C1000    1.0000 0.61603  0.51401  0.03590  Biso   1.000  C
  H1180    1.0000 0.60599  0.50677  0.06027  Biso   1.000  H
  C1001    1.0000 0.61596  0.51401  0.03590  Biso   1.000  C
  N125     1.0000 0.27304  0.25486  0.03913  Biso   1.000  N
  C1002    1.0000 0.43085  0.38684  0.02258  Biso   1.000  C
  H1181    1.0000 0.34475  0.42645  0.03997  Biso   1.000  H
  C1003    1.0000 0.43077  0.38684  0.02258  Biso   1.000  C
  H1182    1.0000 0.34468  0.42645  0.03997  Biso   1.000  H
  N126     1.0000 0.86421  0.24795  0.13000  Biso   1.000  N
  H1183    1.0000 0.96303  0.31099  0.14916  Biso   1.000  H
  C1004    1.0000 0.87062  0.39257  0.14743  Biso   1.000  C
  H1184    1.0000 0.96310  0.31099  0.14916  Biso   1.000  H
  C1005    1.0000 0.87069  0.39257  0.14743  Biso   1.000  C
  N127     1.0000 0.86428  0.24795  0.13000  Biso   1.000  N
  H1185    1.0000 0.14094  0.50887  0.15086  Biso   1.000  H
  C1006    1.0000 0.03766  0.58228  0.14740  Biso   1.000  C
  H1186    1.0000 0.17735  0.58826  0.13557  Biso   1.000  H
  C1007    1.0000 0.03758  0.58228  0.14740  Biso   1.000  C
  H1187    1.0000 0.17728  0.58826  0.13557  Biso   1.000  H
  H1188    1.0000 0.90080  0.39404  0.06027  Biso   1.000  H
  C1008    1.0000 0.89812  0.38401  0.03590  Biso   1.000  C
  C1009    1.0000 0.89797  0.38401  0.03590  Biso   1.000  C
  H1189    1.0000 0.02380  0.46517  0.05267  Biso   1.000  H
  H1190    1.0000 0.02376  0.46508  0.05267  Biso   1.000  H
  C1010    1.0000 0.95607  0.56925  0.02258  Biso   1.000  C
  N128     1.0000 0.98197  0.72702  0.03913  Biso   1.000  N
  N129     1.0000 0.98182  0.72702  0.03913  Biso   1.000  N
  H1191    1.0000 0.08183  0.65538  0.03997  Biso   1.000  H
  H1192    1.0000 0.08179  0.65530  0.03997  Biso   1.000  H
  C1011    1.0000 0.46825  0.58055  0.14173  Biso   1.000  C
  N130     1.0000 0.62180  0.72458  0.12639  Biso   1.000  N
  H1193    1.0000 0.54970  0.55762  0.12177  Biso   1.000  H
  N131     1.0000 0.62168  0.72449  0.12639  Biso   1.000  N
  N132     1.0000 0.62172  0.72458  0.12639  Biso   1.000  N
  H1194    1.0000 0.58821  0.42311  0.13877  Biso   1.000  H
  H1195    1.0000 0.66387  0.47343  0.15417  Biso   1.000  H
  C1012    1.0000 0.50424  0.44553  0.15691  Biso   1.000  C
  H1196    1.0000 0.66380  0.47343  0.15417  Biso   1.000  H
  H1197    1.0000 0.63949  0.45671  0.03496  Biso   1.000  H
  H1198    1.0000 0.68455  0.58944  0.03556  Biso   1.000  H
  C1013    1.0000 0.53695  0.50154  0.02188  Biso   1.000  C
  H1199    1.0000 0.63945  0.45662  0.03496  Biso   1.000  H
  H1200    1.0000 0.63938  0.45662  0.03496  Biso   1.000  H
  H1201    1.0000 0.68447  0.58944  0.03556  Biso   1.000  H
  C1014    1.0000 0.53688  0.50154  0.02188  Biso   1.000  C
  C1015    1.0000 0.17456  0.23438  0.04263  Biso   1.000  C
  C1016    1.0000 0.17448  0.23438  0.04263  Biso   1.000  C
  H1202    1.0000 0.45064  0.32717  0.02107  Biso   1.000  H
  H1203    1.0000 0.37925  0.38043  0.01396  Biso   1.000  H
  H1204    1.0000 0.37918  0.38043  0.01396  Biso   1.000  H
  C1017    1.0000 0.85471  0.15246  0.13098  Biso   1.000  C
  C1018    1.0000 0.85479  0.15246  0.13098  Biso   1.000  C
  H1205    1.0000 0.83494  0.41187  0.13877  Biso   1.000  H
  H1206    1.0000 0.80951  0.33619  0.15417  Biso   1.000  H
  C1019    1.0000 0.94121  0.49581  0.15691  Biso   1.000  C
  H1207    1.0000 0.80958  0.33619  0.15417  Biso   1.000  H
  C1020    1.0000 0.94124  0.49573  0.15691  Biso   1.000  C
  C1021    1.0000 0.94129  0.49581  0.15691  Biso   1.000  C
  H1208    1.0000 0.08353  0.65038  0.15387  Biso   1.000  H
  H1209    1.0000 0.00873  0.60428  0.13817  Biso   1.000  H
  H1210    1.0000 0.81733  0.36066  0.03496  Biso   1.000  H
  H1211    1.0000 0.90507  0.31557  0.03556  Biso   1.000  H
  C1022    1.0000 0.96477  0.46315  0.02188  Biso   1.000  C
  H1212    1.0000 0.81729  0.36058  0.03496  Biso   1.000  H
  H1213    1.0000 0.90488  0.31549  0.03556  Biso   1.000  H
  C1023    1.0000 0.96462  0.46315  0.02188  Biso   1.000  C
  H1214    1.0000 0.90492  0.31557  0.03556  Biso   1.000  H
  H1215    1.0000 0.90503  0.31549  0.03556  Biso   1.000  H
  H1216    1.0000 0.00128  0.62083  0.01396  Biso   1.000  H
  H1217    1.0000 0.87654  0.54945  0.02107  Biso   1.000  H
  C1024    1.0000 0.05977  0.82554  0.04263  Biso   1.000  C
  C1025    1.0000 0.05984  0.82554  0.04263  Biso   1.000  C
  H1218    1.0000 0.41175  0.58914  0.13557  Biso   1.000  H
  C1026    1.0000 0.41776  0.45548  0.14740  Biso   1.000  C
  C1027    1.0000 0.41772  0.45539  0.14740  Biso   1.000  C
  H1219    1.0000 0.49112  0.63212  0.15086  Biso   1.000  H
  C1028    1.0000 0.61776  0.75315  0.11237  Biso   1.000  C
  C1029    1.0000 0.61769  0.75315  0.11237  Biso   1.000  C
  H1220    1.0000 0.52419  0.49492  0.16626  Biso   1.000  H
  H1221    1.0000 0.47252  0.36690  0.16057  Biso   1.000  H
  H1222    1.0000 0.47237  0.36690  0.16057  Biso   1.000  H
  H1223    1.0000 0.51682  0.56155  0.02247  Biso   1.000  H
  H1224    1.0000 0.57656  0.50980  0.01177  Biso   1.000  H
  H1225    1.0000 0.51689  0.56155  0.02247  Biso   1.000  H
  H1226    1.0000 0.57651  0.50972  0.01177  Biso   1.000  H
  C1030    1.0000 0.14184  0.32178  0.04771  Biso   1.000  C
  C1031    1.0000 0.08203  0.11209  0.04243  Biso   1.000  C
  C1032    1.0000 0.08206  0.11201  0.04243  Biso   1.000  C
  C1033    1.0000 0.08210  0.11209  0.04243  Biso   1.000  C
  C1034    1.0000 0.08199  0.11201  0.04243  Biso   1.000  C
  C1035    1.0000 0.91002  0.11740  0.14367  Biso   1.000  C
  C1036    1.0000 0.78546  0.06650  0.11886  Biso   1.000  C
  C1037    1.0000 0.91006  0.11732  0.14367  Biso   1.000  C
  C1038    1.0000 0.78541  0.06641  0.11886  Biso   1.000  C
  C1039    1.0000 0.91010  0.11740  0.14367  Biso   1.000  C
  H1227    1.0000 0.97071  0.47584  0.16626  Biso   1.000  H
  H1228    1.0000 0.89440  0.52758  0.16057  Biso   1.000  H
  H1229    1.0000 0.89448  0.52758  0.16057  Biso   1.000  H
  H1230    1.0000 0.97078  0.47584  0.16626  Biso   1.000  H
  H1231    1.0000 0.93328  0.42353  0.01177  Biso   1.000  H
  H1232    1.0000 0.93321  0.42353  0.01177  Biso   1.000  H
  H1233    1.0000 0.04479  0.48320  0.02247  Biso   1.000  H
  C1040    1.0000 0.03006  0.91808  0.04243  Biso   1.000  C
  C1041    1.0000 0.17998  0.85824  0.04771  Biso   1.000  C
  C1042    1.0000 0.03009  0.91800  0.04243  Biso   1.000  C
  C1043    1.0000 0.03013  0.91808  0.04243  Biso   1.000  C
  C1044    1.0000 0.18005  0.85824  0.04771  Biso   1.000  C
  H1234    1.0000 0.39581  0.40457  0.13817  Biso   1.000  H
  H1235    1.0000 0.34971  0.43323  0.15387  Biso   1.000  H
  H1236    1.0000 0.39577  0.40449  0.13817  Biso   1.000  H
  C1045    1.0000 0.66791  0.87535  0.10953  Biso   1.000  C
  C1046    1.0000 0.52743  0.66474  0.10017  Biso   1.000  C
  C1047    1.0000 0.52736  0.66474  0.10017  Biso   1.000  C
  C1048    1.0000 0.59040  0.67974  0.09777  Biso   1.000  C
  H1237    1.0000 0.20365  0.38161  0.05377  Biso   1.000  H
  H1238    1.0000 0.07385  0.28520  0.05426  Biso   1.000  H
  H1239    1.0000 0.12716  0.35431  0.03837  Biso   1.000  H
  H1240    1.0000 0.20361  0.38153  0.05377  Biso   1.000  H
  H1241    1.0000 0.07380  0.28511  0.05426  Biso   1.000  H
  H1242    1.0000 0.12712  0.35422  0.03837  Biso   1.000  H
  C1049    1.0000 0.97073  0.08276  0.04238  Biso   1.000  C
  C1050    1.0000 0.97080  0.08276  0.04238  Biso   1.000  C
  C1051    1.0000 0.11206  0.02924  0.04238  Biso   1.000  C
  C1052    1.0000 0.11199  0.02924  0.04238  Biso   1.000  C
  H1243    1.0000 0.93275  0.17016  0.15257  Biso   1.000  H
  H1244    1.0000 0.97645  0.11799  0.13927  Biso   1.000  H
  H1245    1.0000 0.85613  0.04130  0.14736  Biso   1.000  H
  H1246    1.0000 0.97640  0.11791  0.13927  Biso   1.000  H
  H1247    1.0000 0.85609  0.04121  0.14736  Biso   1.000  H
  H1248    1.0000 0.97648  0.11791  0.13927  Biso   1.000  H
  H1249    1.0000 0.85617  0.04121  0.14736  Biso   1.000  H
  C1053    1.0000 0.73478  0.95171  0.12073  Biso   1.000  C
  C1054    1.0000 0.73470  0.95171  0.12073  Biso   1.000  C
  C1055    1.0000 0.77537  0.10501  0.10356  Biso   1.000  C
  C1056    1.0000 0.77533  0.10493  0.10356  Biso   1.000  C
  C1057    1.0000 0.91733  0.88808  0.04238  Biso   1.000  C
  C1058    1.0000 0.91728  0.88799  0.04238  Biso   1.000  C
  H1250    1.0000 0.21136  0.92626  0.05426  Biso   1.000  H
  H1251    1.0000 0.17795  0.79638  0.05377  Biso   1.000  H
  H1252    1.0000 0.17799  0.79647  0.05377  Biso   1.000  H
  H1253    1.0000 0.22709  0.87291  0.03837  Biso   1.000  H
  H1254    1.0000 0.22716  0.87291  0.03837  Biso   1.000  H
  C1059    1.0000 0.66137  0.91977  0.09477  Biso   1.000  C
  C1060    1.0000 0.66132  0.91968  0.09477  Biso   1.000  C
  H1255    1.0000 0.52269  0.59133  0.10157  Biso   1.000  H
  H1256    1.0000 0.55153  0.69162  0.08936  Biso   1.000  H
  H1257    1.0000 0.45371  0.65715  0.10216  Biso   1.000  H
  H1258    1.0000 0.55138  0.69162  0.08936  Biso   1.000  H
  H1259    1.0000 0.51161  0.65252  0.09467  Biso   1.000  H
  H1260    1.0000 0.59977  0.61485  0.10006  Biso   1.000  H
  H1261    1.0000 0.64052  0.72348  0.08916  Biso   1.000  H
  C1061    1.0000 0.88804  0.97008  0.04243  Biso   1.000  C
  C1062    1.0000 0.88800  0.97000  0.04243  Biso   1.000  C
  H1262    1.0000 0.95023  0.13957  0.04236  Biso   1.000  H
  H1263    1.0000 0.95030  0.13957  0.04236  Biso   1.000  H
  H1264    1.0000 0.18934  0.04981  0.04236  Biso   1.000  H
  H1265    1.0000 0.18938  0.04972  0.04236  Biso   1.000  H
  H1266    1.0000 0.18930  0.04972  0.04236  Biso   1.000  H
  H1267    1.0000 0.74684  0.92373  0.13037  Biso   1.000  H
  C1063    1.0000 0.71226  0.03118  0.09220  Biso   1.000  C
  H1268    1.0000 0.81355  0.18356  0.10137  Biso   1.000  H
  C1064    1.0000 0.71221  0.03110  0.09220  Biso   1.000  C
  H1269    1.0000 0.86047  0.81071  0.04236  Biso   1.000  H
  H1270    1.0000 0.86039  0.81071  0.04236  Biso   1.000  H
  H1271    1.0000 0.62008  0.86945  0.08647  Biso   1.000  H
  H1272    1.0000 0.62000  0.86945  0.08647  Biso   1.000  H
  C1065    1.0000 0.76576  0.94025  0.04263  Biso   1.000  C
  C1066    1.0000 0.76569  0.94025  0.04263  Biso   1.000  C
  C1067    1.0000 0.71548  0.07661  0.07564  Biso   1.000  C
  C1068    1.0000 0.71544  0.07652  0.07564  Biso   1.000  C
  C1069    1.0000 0.67834  0.82015  0.04771  Biso   1.000  C
  C1070    1.0000 0.67827  0.82015  0.04771  Biso   1.000  C
  N133     1.0000 0.74518  0.01820  0.03913  Biso   1.000  N
  N134     1.0000 0.74514  0.01812  0.03913  Biso   1.000  N
  N135     1.0000 0.62939  0.02107  0.06734  Biso   1.000  N
  C1071    1.0000 0.81916  0.18179  0.07141  Biso   1.000  C
  N136     1.0000 0.62947  0.02107  0.06734  Biso   1.000  N
  C1072    1.0000 0.81912  0.18170  0.07141  Biso   1.000  C
  H1273    1.0000 0.61855  0.82217  0.05377  Biso   1.000  H
  H1274    1.0000 0.71495  0.78871  0.05426  Biso   1.000  H
  H1275    1.0000 0.64584  0.77295  0.03837  Biso   1.000  H
  H1276    1.0000 0.61836  0.82209  0.05377  Biso   1.000  H
  H1277    1.0000 0.71488  0.78871  0.05426  Biso   1.000  H
  H1278    1.0000 0.64569  0.77295  0.03837  Biso   1.000  H
  H1279    1.0000 0.61841  0.82217  0.05377  Biso   1.000  H
  H1280    1.0000 0.61851  0.82209  0.05377  Biso   1.000  H
  C1073    1.0000 0.62950  0.00025  0.03880  Biso   1.000  C
  C1074    1.0000 0.62957  0.00025  0.03880  Biso   1.000  C
  C1075    1.0000 0.61785  0.06557  0.05219  Biso   1.000  C
  H1281    1.0000 0.88137  0.19089  0.07817  Biso   1.000  H
  H1282    1.0000 0.80726  0.24601  0.07296  Biso   1.000  H
  H1283    1.0000 0.83774  0.17850  0.06037  Biso   1.000  H
  H1284    1.0000 0.88133  0.19081  0.07817  Biso   1.000  H
  H1285    1.0000 0.80722  0.24592  0.07296  Biso   1.000  H
  H1286    1.0000 0.83769  0.17842  0.06037  Biso   1.000  H
  H1287    1.0000 0.83777  0.17842  0.06037  Biso   1.000  H
  H1288    1.0000 0.57365  0.91833  0.03997  Biso   1.000  H
  H1289    1.0000 0.57350  0.91833  0.03997  Biso   1.000  H
  C1076    1.0000 0.61312  0.04399  0.02258  Biso   1.000  C
  C1077    1.0000 0.61315  0.04391  0.02258  Biso   1.000  C
  C1078    1.0000 0.61319  0.04399  0.02258  Biso   1.000  C
  H1290    1.0000 0.67762  0.14656  0.05127  Biso   1.000  H
  C1079    1.0000 0.50080  0.05613  0.05148  Biso   1.000  C
  H1291    1.0000 0.67769  0.14656  0.05127  Biso   1.000  H
  C1080    1.0000 0.50088  0.05613  0.05148  Biso   1.000  C
  H1292    1.0000 0.61958  0.99882  0.01396  Biso   1.000  H
  H1293    1.0000 0.61951  0.99882  0.01396  Biso   1.000  H
  C1081    1.0000 0.49847  0.03540  0.02188  Biso   1.000  C
  H1294    1.0000 0.67286  0.12347  0.02107  Biso   1.000  H
  C1082    1.0000 0.49842  0.03531  0.02188  Biso   1.000  C
  H1295    1.0000 0.44134  0.97632  0.05267  Biso   1.000  H
  H1296    1.0000 0.49326  0.09928  0.06027  Biso   1.000  H
  C1083    1.0000 0.48592  0.10198  0.03590  Biso   1.000  C
  C1084    1.0000 0.48599  0.10198  0.03590  Biso   1.000  C
  H1297    1.0000 0.43844  0.95533  0.02247  Biso   1.000  H
  H1298    1.0000 0.49020  0.06675  0.01177  Biso   1.000  H
  H1299    1.0000 0.49028  0.06675  0.01177  Biso   1.000  H
  H1300    1.0000 0.54334  0.18280  0.03496  Biso   1.000  H
  H1301    1.0000 0.41050  0.09507  0.03556  Biso   1.000  H
  H1302    1.0000 0.54330  0.18272  0.03496  Biso   1.000  H
  H1303    1.0000 0.41057  0.09507  0.03556  Biso   1.000  H
  H1304    1.0000 0.54337  0.18272  0.03496  Biso   1.000  H
  C1085    1.0000 0.44546  0.50424  0.84309  Biso   1.000  C
  C1086    1.0000 0.47811  0.60748  0.85257  Biso   1.000  C
  H1305    1.0000 0.49494  0.52421  0.83374  Biso   1.000  H
  H1306    1.0000 0.36688  0.47247  0.83943  Biso   1.000  H
  C1087    1.0000 0.45544  0.41777  0.85260  Biso   1.000  C
  H1307    1.0000 0.49482  0.52413  0.83374  Biso   1.000  H
  C1088    1.0000 0.45536  0.41777  0.85260  Biso   1.000  C
  C1089    1.0000 0.47803  0.60748  0.85257  Biso   1.000  C
  H1308    1.0000 0.49486  0.52421  0.83374  Biso   1.000  H
  H1309    1.0000 0.49489  0.52413  0.83374  Biso   1.000  H
  C1090    1.0000 0.59545  0.65999  0.85952  Biso   1.000  C
  H1310    1.0000 0.42313  0.58818  0.86123  Biso   1.000  H
  H1311    1.0000 0.47338  0.66386  0.84583  Biso   1.000  H
  C1091    1.0000 0.59537  0.65999  0.85952  Biso   1.000  C
  H1312    1.0000 0.42306  0.58818  0.86123  Biso   1.000  H
  H1313    1.0000 0.43321  0.34967  0.84613  Biso   1.000  H
  H1314    1.0000 0.40451  0.39577  0.86183  Biso   1.000  H
  C1092    1.0000 0.58052  0.46825  0.85827  Biso   1.000  C
  H1315    1.0000 0.43314  0.34967  0.84613  Biso   1.000  H
  H1316    1.0000 0.40444  0.39577  0.86183  Biso   1.000  H
  C1093    1.0000 0.58045  0.46825  0.85827  Biso   1.000  C
  N137     1.0000 0.61633  0.75210  0.87000  Biso   1.000  N
  H1317    1.0000 0.65210  0.68906  0.85084  Biso   1.000  H
  C1094    1.0000 0.60801  0.57343  0.86877  Biso   1.000  C
  N138     1.0000 0.61621  0.75202  0.87000  Biso   1.000  N
  C1095    1.0000 0.60793  0.57343  0.86877  Biso   1.000  C
  N139     1.0000 0.61625  0.75210  0.87000  Biso   1.000  N
  H1318    1.0000 0.65203  0.68906  0.85084  Biso   1.000  H
  N140     1.0000 0.61628  0.75202  0.87000  Biso   1.000  N
  H1319    1.0000 0.63213  0.49118  0.84914  Biso   1.000  H
  H1320    1.0000 0.58915  0.41179  0.86443  Biso   1.000  H
  H1321    1.0000 0.63206  0.49118  0.84914  Biso   1.000  H
  H1322    1.0000 0.58903  0.41170  0.86443  Biso   1.000  H
  H1323    1.0000 0.58908  0.41179  0.86443  Biso   1.000  H
  C1096    1.0000 0.70231  0.84759  0.86902  Biso   1.000  C
  C1097    1.0000 0.70224  0.84759  0.86902  Biso   1.000  C
  N141     1.0000 0.72452  0.62181  0.87361  Biso   1.000  N
  H1324    1.0000 0.55759  0.54966  0.87823  Biso   1.000  H
  N142     1.0000 0.72448  0.62172  0.87361  Biso   1.000  N
  C1098    1.0000 0.79269  0.88265  0.85633  Biso   1.000  C
  C1099    1.0000 0.71902  0.93355  0.88114  Biso   1.000  C
  C1100    1.0000 0.71895  0.93355  0.88114  Biso   1.000  C
  C1101    1.0000 0.75311  0.61768  0.88763  Biso   1.000  C
  C1102    1.0000 0.75304  0.61768  0.88763  Biso   1.000  C
  H1325    1.0000 0.76266  0.82989  0.84743  Biso   1.000  H
  H1326    1.0000 0.85852  0.88206  0.86073  Biso   1.000  H
  H1327    1.0000 0.81490  0.95875  0.85264  Biso   1.000  H
  H1328    1.0000 0.76258  0.82989  0.84743  Biso   1.000  H
  H1329    1.0000 0.85844  0.88206  0.86073  Biso   1.000  H
  H1330    1.0000 0.81483  0.95875  0.85264  Biso   1.000  H
  C1103    1.0000 0.67042  0.89504  0.89644  Biso   1.000  C
  C1104    1.0000 0.67035  0.89504  0.89644  Biso   1.000  C
  C1105    1.0000 0.78306  0.04834  0.87927  Biso   1.000  C
  C1106    1.0000 0.78301  0.04826  0.87927  Biso   1.000  C
  C1107    1.0000 0.87537  0.66791  0.89047  Biso   1.000  C
  C1108    1.0000 0.66473  0.52733  0.89983  Biso   1.000  C
  C1109    1.0000 0.87526  0.66782  0.89047  Biso   1.000  C
  C1110    1.0000 0.66466  0.52733  0.89983  Biso   1.000  C
  C1111    1.0000 0.87530  0.66791  0.89047  Biso   1.000  C
  C1112    1.0000 0.67968  0.59037  0.90223  Biso   1.000  C
  C1113    1.0000 0.68113  0.96887  0.90780  Biso   1.000  C
  H1331    1.0000 0.63005  0.81649  0.89863  Biso   1.000  H
  C1114    1.0000 0.68106  0.96887  0.90780  Biso   1.000  C
  H1332    1.0000 0.62998  0.81649  0.89863  Biso   1.000  H
  C1115    1.0000 0.79255  0.12470  0.89047  Biso   1.000  C
  H1333    1.0000 0.82318  0.07632  0.86963  Biso   1.000  H
  C1116    1.0000 0.79262  0.12470  0.89047  Biso   1.000  C
  H1334    1.0000 0.82313  0.07624  0.86963  Biso   1.000  H
  C1117    1.0000 0.91968  0.66133  0.90523  Biso   1.000  C
  C1118    1.0000 0.95171  0.73474  0.87927  Biso   1.000  C
  C1119    1.0000 0.95163  0.73474  0.87927  Biso   1.000  C
  H1335    1.0000 0.59132  0.52270  0.89843  Biso   1.000  H
  H1336    1.0000 0.69160  0.55143  0.91064  Biso   1.000  H
  H1337    1.0000 0.65710  0.45367  0.89784  Biso   1.000  H
  H1338    1.0000 0.59121  0.52261  0.89843  Biso   1.000  H
  H1339    1.0000 0.69153  0.55143  0.91064  Biso   1.000  H
  H1340    1.0000 0.59125  0.52270  0.89843  Biso   1.000  H
  H1341    1.0000 0.59128  0.52261  0.89843  Biso   1.000  H
  H1342    1.0000 0.65251  0.51166  0.90533  Biso   1.000  H
  H1343    1.0000 0.61480  0.59973  0.89994  Biso   1.000  H
  H1344    1.0000 0.72347  0.64043  0.91084  Biso   1.000  H
  C1120    1.0000 0.63893  0.92344  0.92436  Biso   1.000  C
  C1121    1.0000 0.63886  0.92344  0.92436  Biso   1.000  C
  C1122    1.0000 0.74159  0.08028  0.90523  Biso   1.000  C
  C1123    1.0000 0.74166  0.08028  0.90523  Biso   1.000  C
  C1124    1.0000 0.86460  0.24690  0.88763  Biso   1.000  C
  H1345    1.0000 0.86942  0.61995  0.91353  Biso   1.000  H
  H1346    1.0000 0.86935  0.61995  0.91353  Biso   1.000  H
  C1125    1.0000 0.03111  0.71224  0.90780  Biso   1.000  C
  C1126    1.0000 0.03118  0.71224  0.90780  Biso   1.000  C
  H1347    1.0000 0.92369  0.74688  0.86963  Biso   1.000  H
  C1127    1.0000 0.06648  0.78548  0.88114  Biso   1.000  C
  N143     1.0000 0.60839  0.97898  0.93266  Biso   1.000  N
  C1128    1.0000 0.63743  0.81826  0.92859  Biso   1.000  C
  C1129    1.0000 0.63736  0.81826  0.92859  Biso   1.000  C
  H1348    1.0000 0.75054  0.13060  0.91353  Biso   1.000  H
  N144     1.0000 0.89721  0.27547  0.87361  Biso   1.000  N
  C1130    1.0000 0.86260  0.33531  0.89983  Biso   1.000  C
  C1131    1.0000 0.86268  0.33531  0.89983  Biso   1.000  C
  C1132    1.0000 0.91072  0.32031  0.90223  Biso   1.000  C
  C1133    1.0000 0.10493  0.77536  0.89644  Biso   1.000  C
  C1134    1.0000 0.07657  0.71544  0.92436  Biso   1.000  C
  C1135    1.0000 0.10500  0.77536  0.89644  Biso   1.000  C
  C1136    1.0000 0.15243  0.85475  0.86902  Biso   1.000  C
  C1137    1.0000 0.15251  0.85475  0.86902  Biso   1.000  C
  C1138    1.0000 0.55234  0.93448  0.94781  Biso   1.000  C
  C1139    1.0000 0.55227  0.93448  0.94781  Biso   1.000  C
  H1349    1.0000 0.69054  0.80916  0.92183  Biso   1.000  H
  H1350    1.0000 0.56131  0.75404  0.92704  Biso   1.000  H
  H1351    1.0000 0.65930  0.82155  0.93963  Biso   1.000  H
  H1352    1.0000 0.69047  0.80916  0.92183  Biso   1.000  H
  H1353    1.0000 0.56124  0.75404  0.92704  Biso   1.000  H
  H1354    1.0000 0.65922  0.82155  0.93963  Biso   1.000  H
  C1140    1.0000 0.96548  0.39203  0.86877  Biso   1.000  C
  C1141    1.0000 0.96544  0.39194  0.86877  Biso   1.000  C
  H1355    1.0000 0.93142  0.40872  0.89843  Biso   1.000  H
  H1356    1.0000 0.85982  0.30842  0.91064  Biso   1.000  H
  H1357    1.0000 0.79655  0.34289  0.89784  Biso   1.000  H
  H1358    1.0000 0.85978  0.30834  0.91064  Biso   1.000  H
  H1359    1.0000 0.85985  0.30834  0.91064  Biso   1.000  H
  H1360    1.0000 0.85923  0.34753  0.90533  Biso   1.000  H
  H1361    1.0000 0.98492  0.38520  0.89994  Biso   1.000  H
  H1362    1.0000 0.91691  0.27648  0.91084  Biso   1.000  H
  H1363    1.0000 0.18358  0.81354  0.89863  Biso   1.000  H
  N145     1.0000 0.02104  0.62948  0.93266  Biso   1.000  N
  C1142    1.0000 0.18173  0.81919  0.92859  Biso   1.000  C
  N146     1.0000 0.02111  0.62948  0.93266  Biso   1.000  N
  C1143    1.0000 0.18180  0.81919  0.92859  Biso   1.000  C
  N147     1.0000 0.24799  0.86428  0.87000  Biso   1.000  N
  C1144    1.0000 0.11731  0.91004  0.85633  Biso   1.000  C
  C1145    1.0000 0.11738  0.91004  0.85633  Biso   1.000  C
  H1364    1.0000 0.53112  0.85349  0.94873  Biso   1.000  H
  C1146    1.0000 0.44474  0.94392  0.94852  Biso   1.000  C
  C1147    1.0000 0.62930  0.99980  0.96120  Biso   1.000  C
  H1365    1.0000 0.53104  0.85349  0.94873  Biso   1.000  H
  C1148    1.0000 0.44462  0.94384  0.94852  Biso   1.000  C
  C1149    1.0000 0.44466  0.94392  0.94852  Biso   1.000  C
  C1150    1.0000 0.44469  0.94384  0.94852  Biso   1.000  C
  C1151    1.0000 0.88770  0.41950  0.85827  Biso   1.000  C
  H1366    1.0000 0.99207  0.44243  0.87823  Biso   1.000  H
  C1152    1.0000 0.88777  0.41950  0.85827  Biso   1.000  C
  H1367    1.0000 0.99210  0.44234  0.87823  Biso   1.000  H
  H1368    1.0000 0.99214  0.44243  0.87823  Biso   1.000  H
  C1153    1.0000 0.06453  0.40459  0.85952  Biso   1.000  C
  C1154    1.0000 0.06551  0.61785  0.94781  Biso   1.000  C
  C1155    1.0000 0.06558  0.61785  0.94781  Biso   1.000  C
  H1369    1.0000 0.19086  0.88139  0.92183  Biso   1.000  H
  H1370    1.0000 0.24600  0.80730  0.92704  Biso   1.000  H
  H1371    1.0000 0.17849  0.83781  0.93963  Biso   1.000  H
  H1372    1.0000 0.24596  0.80722  0.92704  Biso   1.000  H
  H1373    1.0000 0.17844  0.83773  0.93963  Biso   1.000  H
  H1374    1.0000 0.19093  0.88139  0.92183  Biso   1.000  H
  H1375    1.0000 0.17852  0.83773  0.93963  Biso   1.000  H
  C1156    1.0000 0.34009  0.93549  0.85952  Biso   1.000  C
  H1376    1.0000 0.17014  0.93280  0.84743  Biso   1.000  H
  H1377    1.0000 0.11796  0.97645  0.86073  Biso   1.000  H
  H1378    1.0000 0.04126  0.85619  0.85264  Biso   1.000  H
  H1379    1.0000 0.17021  0.93280  0.84743  Biso   1.000  H
  H1380    1.0000 0.04133  0.85619  0.85264  Biso   1.000  H
  H1381    1.0000 0.39404  0.90077  0.93973  Biso   1.000  H
  C1157    1.0000 0.38400  0.89807  0.96410  Biso   1.000  C
  H1382    1.0000 0.39397  0.90077  0.93973  Biso   1.000  H
  C1158    1.0000 0.38393  0.89807  0.96410  Biso   1.000  C
  H1383    1.0000 0.46508  0.02373  0.94733  Biso   1.000  H
  H1384    1.0000 0.46504  0.02365  0.94733  Biso   1.000  H
  H1385    1.0000 0.46511  0.02365  0.94733  Biso   1.000  H
  N148     1.0000 0.72704  0.98185  0.96087  Biso   1.000  N
  C1159    1.0000 0.56919  0.95606  0.97742  Biso   1.000  C
  N149     1.0000 0.72696  0.98185  0.96087  Biso   1.000  N
  H1386    1.0000 0.65523  0.08172  0.96003  Biso   1.000  H
  H1387    1.0000 0.65519  0.08163  0.96003  Biso   1.000  H
  C1160    1.0000 0.96227  0.54457  0.85260  Biso   1.000  C
  H1388    1.0000 0.85899  0.36793  0.84914  Biso   1.000  H
  H1389    1.0000 0.82260  0.41091  0.86443  Biso   1.000  H
  C1161    1.0000 0.96235  0.54457  0.85260  Biso   1.000  C
  H1390    1.0000 0.85909  0.36784  0.84914  Biso   1.000  H
  H1391    1.0000 0.85913  0.36793  0.84914  Biso   1.000  H
  H1392    1.0000 0.82274  0.41091  0.86443  Biso   1.000  H
  N150     1.0000 0.13575  0.38369  0.87000  Biso   1.000  N
  H1393    1.0000 0.03690  0.34787  0.85084  Biso   1.000  H
  C1162    1.0000 0.12939  0.52190  0.85257  Biso   1.000  C
  H1394    1.0000 0.14659  0.67768  0.94873  Biso   1.000  H
  C1163    1.0000 0.05614  0.50087  0.94852  Biso   1.000  C
  C1164    1.0000 0.00028  0.62956  0.96120  Biso   1.000  C
  C1165    1.0000 0.05621  0.50087  0.94852  Biso   1.000  C
  H1395    1.0000 0.31095  0.96305  0.85084  Biso   1.000  H
  C1166    1.0000 0.39257  0.87068  0.85257  Biso   1.000  C
  H1396    1.0000 0.31103  0.96305  0.85084  Biso   1.000  H
  C1167    1.0000 0.39264  0.87068  0.85257  Biso   1.000  C
  C1168    1.0000 0.42661  0.03452  0.86877  Biso   1.000  C
  C1169    1.0000 0.42657  0.03444  0.86877  Biso   1.000  C
  H1397    1.0000 0.36060  0.81725  0.96504  Biso   1.000  H
  H1398    1.0000 0.31549  0.90498  0.96444  Biso   1.000  H
  C1170    1.0000 0.46313  0.96465  0.97812  Biso   1.000  C
  H1399    1.0000 0.36053  0.81725  0.96504  Biso   1.000  H
  C1171    1.0000 0.46306  0.96465  0.97812  Biso   1.000  C
  C1172    1.0000 0.82550  0.05980  0.95737  Biso   1.000  C
  H1400    1.0000 0.54945  0.87658  0.97893  Biso   1.000  H
  H1401    1.0000 0.54938  0.87658  0.97893  Biso   1.000  H
  H1402    1.0000 0.62082  0.00123  0.98604  Biso   1.000  H
  H1403    1.0000 0.62078  0.00115  0.98604  Biso   1.000  H
  H1404    1.0000 0.91647  0.56682  0.84613  Biso   1.000  H
  H1405    1.0000 0.99123  0.59548  0.86183  Biso   1.000  H
  C1173    1.0000 0.05877  0.55452  0.84309  Biso   1.000  C
  C1174    1.0000 0.14525  0.29772  0.86902  Biso   1.000  C
  C1175    1.0000 0.14521  0.29764  0.86902  Biso   1.000  C
  H1406    1.0000 0.16508  0.57694  0.86123  Biso   1.000  H
  H1407    1.0000 0.19051  0.52662  0.84583  Biso   1.000  H
  H1408    1.0000 0.16504  0.57685  0.86123  Biso   1.000  H
  H1409    1.0000 0.97632  0.44137  0.94733  Biso   1.000  H
  H1410    1.0000 0.97625  0.44137  0.94733  Biso   1.000  H
  H1411    1.0000 0.09928  0.49328  0.93973  Biso   1.000  H
  C1176    1.0000 0.10196  0.48595  0.96410  Biso   1.000  C
  H1412    1.0000 0.91836  0.57360  0.96003  Biso   1.000  H
  H1413    1.0000 0.91824  0.57352  0.96003  Biso   1.000  H
  H1414    1.0000 0.91829  0.57360  0.96003  Biso   1.000  H
  N151     1.0000 0.01817  0.74519  0.96087  Biso   1.000  N
  C1177    1.0000 0.04400  0.61321  0.97742  Biso   1.000  C
  C1178    1.0000 0.04395  0.61313  0.97742  Biso   1.000  C
  N152     1.0000 0.01824  0.74519  0.96087  Biso   1.000  N
  H1415    1.0000 0.41185  0.83495  0.86123  Biso   1.000  H
  H1416    1.0000 0.33618  0.80958  0.84583  Biso   1.000  H
  C1179    1.0000 0.49576  0.94131  0.84309  Biso   1.000  C
  C1180    1.0000 0.49579  0.94122  0.84309  Biso   1.000  C
  C1181    1.0000 0.49583  0.94131  0.84309  Biso   1.000  C
  H1417    1.0000 0.41193  0.83495  0.86123  Biso   1.000  H
  N153     1.0000 0.37822  0.10270  0.87361  Biso   1.000  N
  C1182    1.0000 0.53173  0.11222  0.85827  Biso   1.000  C
  H1418    1.0000 0.45030  0.00789  0.87823  Biso   1.000  H
  C1183    1.0000 0.53169  0.11214  0.85827  Biso   1.000  C
  H1419    1.0000 0.45037  0.00789  0.87823  Biso   1.000  H
  H1420    1.0000 0.42351  0.93330  0.98823  Biso   1.000  H
  H1421    1.0000 0.42340  0.93322  0.98823  Biso   1.000  H
  H1422    1.0000 0.42344  0.93330  0.98823  Biso   1.000  H
  H1423    1.0000 0.42347  0.93322  0.98823  Biso   1.000  H
  H1424    1.0000 0.48316  0.04472  0.97753  Biso   1.000  H
  H1425    1.0000 0.48320  0.04463  0.97753  Biso   1.000  H
  H1426    1.0000 0.48324  0.04472  0.97753  Biso   1.000  H
  C1184    1.0000 0.91795  0.02997  0.95757  Biso   1.000  C
  C1185    1.0000 0.85818  0.17990  0.95229  Biso   1.000  C
  H1427    1.0000 0.02926  0.50513  0.83374  Biso   1.000  H
  H1428    1.0000 0.10553  0.63315  0.83943  Biso   1.000  H
  H1429    1.0000 0.02929  0.50505  0.83374  Biso   1.000  H
  H1430    1.0000 0.10549  0.63307  0.83943  Biso   1.000  H
  H1431    1.0000 0.02933  0.50513  0.83374  Biso   1.000  H
  H1432    1.0000 0.02922  0.50505  0.83374  Biso   1.000  H
  C1186    1.0000 0.21456  0.28103  0.88114  Biso   1.000  C
  C1187    1.0000 0.08989  0.20729  0.85633  Biso   1.000  C
  C1188    1.0000 0.21452  0.28095  0.88114  Biso   1.000  C
  C1189    1.0000 0.08996  0.20729  0.85633  Biso   1.000  C
  C1190    1.0000 0.21445  0.28095  0.88114  Biso   1.000  C
  H1433    1.0000 0.18277  0.54334  0.96504  Biso   1.000  H
  H1434    1.0000 0.09509  0.41061  0.96444  Biso   1.000  H
  C1191    1.0000 0.03540  0.49851  0.97812  Biso   1.000  C
  H1435    1.0000 0.09505  0.41052  0.96444  Biso   1.000  H
  C1192    1.0000 0.03536  0.49842  0.97812  Biso   1.000  C
  C1193    1.0000 0.94024  0.76567  0.95737  Biso   1.000  C
  C1194    1.0000 0.94017  0.76567  0.95737  Biso   1.000  C
  H1436    1.0000 0.99888  0.61962  0.98604  Biso   1.000  H
  H1437    1.0000 0.99877  0.61953  0.98604  Biso   1.000  H
  H1438    1.0000 0.99881  0.61962  0.98604  Biso   1.000  H
  H1439    1.0000 0.12346  0.67288  0.97893  Biso   1.000  H
  H1440    1.0000 0.12354  0.67288  0.97893  Biso   1.000  H
  H1441    1.0000 0.47584  0.97080  0.83374  Biso   1.000  H
  H1442    1.0000 0.52758  0.89445  0.83943  Biso   1.000  H
  H1443    1.0000 0.47587  0.97072  0.83374  Biso   1.000  H
  H1444    1.0000 0.47591  0.97080  0.83374  Biso   1.000  H
  C1195    1.0000 0.58224  0.03764  0.85260  Biso   1.000  C
  C1196    1.0000 0.58220  0.03755  0.85260  Biso   1.000  C
  C1197    1.0000 0.38239  0.13540  0.88763  Biso   1.000  C
  H1445    1.0000 0.50884  0.14088  0.84914  Biso   1.000  H
  H1446    1.0000 0.58821  0.17729  0.86443  Biso   1.000  H
  H1447    1.0000 0.58835  0.17729  0.86443  Biso   1.000  H
  C1198    1.0000 0.88803  0.91729  0.95762  Biso   1.000  C
  C1199    1.0000 0.88796  0.91729  0.95762  Biso   1.000  C
  C1200    1.0000 0.02924  0.11197  0.95762  Biso   1.000  C
  H1448    1.0000 0.79630  0.17788  0.94623  Biso   1.000  H
  H1449    1.0000 0.92616  0.21134  0.94574  Biso   1.000  H
  H1450    1.0000 0.87287  0.22710  0.96163  Biso   1.000  H
  H1451    1.0000 0.92611  0.21125  0.94574  Biso   1.000  H
  H1452    1.0000 0.79637  0.17788  0.94623  Biso   1.000  H
  H1453    1.0000 0.87295  0.22710  0.96163  Biso   1.000  H
  C1201    1.0000 0.22460  0.32958  0.89644  Biso   1.000  C
  C1202    1.0000 0.26519  0.21690  0.87927  Biso   1.000  C
  C1203    1.0000 0.26526  0.21690  0.87927  Biso   1.000  C
  H1454    1.0000 0.06727  0.23738  0.84743  Biso   1.000  H
  H1455    1.0000 0.02355  0.14147  0.86073  Biso   1.000  H
  H1456    1.0000 0.14384  0.18513  0.85264  Biso   1.000  H
  H1457    1.0000 0.02362  0.14147  0.86073  Biso   1.000  H
  H1458    1.0000 0.14379  0.18504  0.85264  Biso   1.000  H
  H1459    1.0000 0.95533  0.43850  0.97753  Biso   1.000  H
  H1460    1.0000 0.95529  0.43842  0.97753  Biso   1.000  H
  H1461    1.0000 0.95526  0.43850  0.97753  Biso   1.000  H
  H1462    1.0000 0.06674  0.49025  0.98823  Biso   1.000  H
  H1463    1.0000 0.06682  0.49025  0.98823  Biso   1.000  H
  C1204    1.0000 0.97000  0.88796  0.95757  Biso   1.000  C
  C1205    1.0000 0.82012  0.67827  0.95229  Biso   1.000  C
  C1206    1.0000 0.82005  0.67827  0.95229  Biso   1.000  C
  H1464    1.0000 0.65042  0.08349  0.84613  Biso   1.000  H
  H1465    1.0000 0.60421  0.00873  0.86183  Biso   1.000  H
  H1466    1.0000 0.60424  0.00865  0.86183  Biso   1.000  H
  H1467    1.0000 0.60428  0.00873  0.86183  Biso   1.000  H
  H1468    1.0000 0.65027  0.08349  0.84613  Biso   1.000  H
  H1469    1.0000 0.60417  0.00865  0.86183  Biso   1.000  H
  C1207    1.0000 0.33210  0.20737  0.89047  Biso   1.000  C
  C1208    1.0000 0.47269  0.13734  0.89983  Biso   1.000  C
  C1209    1.0000 0.47265  0.13725  0.89983  Biso   1.000  C
  C1210    1.0000 0.40962  0.08930  0.90223  Biso   1.000  C
  H1470    1.0000 0.81073  0.86048  0.95764  Biso   1.000  H
  H1471    1.0000 0.81065  0.86048  0.95764  Biso   1.000  H
  C1211    1.0000 0.11204  0.08197  0.95757  Biso   1.000  C
  H1472    1.0000 0.04982  0.18934  0.95764  Biso   1.000  H
  H1473    1.0000 0.04978  0.18925  0.95764  Biso   1.000  H
  H1474    1.0000 0.04963  0.18925  0.95764  Biso   1.000  H
  C1212    1.0000 0.28771  0.31888  0.90780  Biso   1.000  C
  H1475    1.0000 0.18644  0.37003  0.89863  Biso   1.000  H
  H1476    1.0000 0.18640  0.36995  0.89863  Biso   1.000  H
  H1477    1.0000 0.25309  0.17678  0.86963  Biso   1.000  H
  H1478    1.0000 0.25316  0.17678  0.86963  Biso   1.000  H
  C1213    1.0000 0.08280  0.97080  0.95762  Biso   1.000  C
  C1214    1.0000 0.08276  0.97072  0.95762  Biso   1.000  C
  H1479    1.0000 0.82210  0.61844  0.94623  Biso   1.000  H
  H1480    1.0000 0.78871  0.71485  0.94574  Biso   1.000  H
  H1481    1.0000 0.77291  0.64574  0.96163  Biso   1.000  H
  H1482    1.0000 0.82203  0.61844  0.94623  Biso   1.000  H
  H1483    1.0000 0.78863  0.71485  0.94574  Biso   1.000  H
  H1484    1.0000 0.77284  0.64574  0.96163  Biso   1.000  H
  C1215    1.0000 0.33858  0.25828  0.90523  Biso   1.000  C
  C1216    1.0000 0.33872  0.25828  0.90523  Biso   1.000  C
  H1485    1.0000 0.47735  0.06857  0.89843  Biso   1.000  H
  H1486    1.0000 0.44861  0.14012  0.91064  Biso   1.000  H
  H1487    1.0000 0.54638  0.20341  0.89784  Biso   1.000  H
  H1488    1.0000 0.44857  0.14004  0.91064  Biso   1.000  H
  H1489    1.0000 0.54646  0.20341  0.89784  Biso   1.000  H
  H1490    1.0000 0.48829  0.14079  0.90533  Biso   1.000  H
  H1491    1.0000 0.40026  0.01497  0.89994  Biso   1.000  H
  H1492    1.0000 0.35961  0.08298  0.91084  Biso   1.000  H
  C1217    1.0000 0.23436  0.17451  0.95737  Biso   1.000  C
  C1218    1.0000 0.23443  0.17451  0.95737  Biso   1.000  C
  C1219    1.0000 0.28452  0.36110  0.92436  Biso   1.000  C
  H1493    1.0000 0.13952  0.95024  0.95764  Biso   1.000  H
  H1494    1.0000 0.13960  0.95024  0.95764  Biso   1.000  H
  H1495    1.0000 0.38013  0.24943  0.91353  Biso   1.000  H
  H1496    1.0000 0.38009  0.24935  0.91353  Biso   1.000  H
  H1497    1.0000 0.37995  0.24935  0.91353  Biso   1.000  H
  N154     1.0000 0.25494  0.27303  0.96087  Biso   1.000  N
  C1220    1.0000 0.32172  0.14181  0.95229  Biso   1.000  C
  N155     1.0000 0.25489  0.27294  0.96087  Biso   1.000  N
  N156     1.0000 0.25482  0.27294  0.96087  Biso   1.000  N
  N157     1.0000 0.37057  0.39161  0.93266  Biso   1.000  N
  C1221    1.0000 0.18091  0.36262  0.92859  Biso   1.000  C
  C1222    1.0000 0.18076  0.36262  0.92859  Biso   1.000  C
  C1223    1.0000 0.37041  0.37071  0.96120  Biso   1.000  C
  H1498    1.0000 0.38159  0.20358  0.94623  Biso   1.000  H
  H1499    1.0000 0.28516  0.07379  0.94574  Biso   1.000  H
  H1500    1.0000 0.35432  0.12714  0.96163  Biso   1.000  H
  H1501    1.0000 0.35427  0.12706  0.96163  Biso   1.000  H
  C1224    1.0000 0.38221  0.44774  0.94781  Biso   1.000  C
  C1225    1.0000 0.38217  0.44765  0.94781  Biso   1.000  C
  H1502    1.0000 0.11867  0.30952  0.92183  Biso   1.000  H
  H1503    1.0000 0.19283  0.43872  0.92704  Biso   1.000  H
  H1504    1.0000 0.16221  0.34070  0.93963  Biso   1.000  H
  H1505    1.0000 0.11863  0.30944  0.92183  Biso   1.000  H
  H1506    1.0000 0.19276  0.43872  0.92704  Biso   1.000  H
  C1226    1.0000 0.38688  0.43080  0.97742  Biso   1.000  C
  H1507    1.0000 0.42644  0.34466  0.96003  Biso   1.000  H
  H1508    1.0000 0.32236  0.46889  0.94873  Biso   1.000  H
  C1227    1.0000 0.49919  0.55528  0.94852  Biso   1.000  C
  H1509    1.0000 0.32243  0.46889  0.94873  Biso   1.000  H
  C1228    1.0000 0.49905  0.55528  0.94852  Biso   1.000  C
  C1229    1.0000 0.50154  0.53690  0.97812  Biso   1.000  C
  H1510    1.0000 0.32708  0.45060  0.97893  Biso   1.000  H
  H1511    1.0000 0.38051  0.37922  0.98604  Biso   1.000  H
  H1512    1.0000 0.32716  0.45060  0.97893  Biso   1.000  H
  C1230    1.0000 0.50146  0.53690  0.97812  Biso   1.000  C
  H1513    1.0000 0.55870  0.53488  0.94733  Biso   1.000  H
  H1514    1.0000 0.50682  0.60601  0.93973  Biso   1.000  H
  C1231    1.0000 0.51410  0.61604  0.96410  Biso   1.000  C
  C1232    1.0000 0.51413  0.61596  0.96410  Biso   1.000  C
  H1515    1.0000 0.55855  0.53488  0.94733  Biso   1.000  H
  H1516    1.0000 0.50675  0.60601  0.93973  Biso   1.000  H
  C1233    1.0000 0.51406  0.61596  0.96410  Biso   1.000  C
  H1517    1.0000 0.56165  0.51685  0.97753  Biso   1.000  H
  H1518    1.0000 0.50981  0.57651  0.98823  Biso   1.000  H
  H1519    1.0000 0.56161  0.51676  0.97753  Biso   1.000  H
  H1520    1.0000 0.56153  0.51676  0.97753  Biso   1.000  H
  H1521    1.0000 0.50966  0.57651  0.98823  Biso   1.000  H
  H1522    1.0000 0.45658  0.63939  0.96504  Biso   1.000  H
  H1523    1.0000 0.58948  0.68448  0.96444  Biso   1.000  H
  H1524    1.0000 0.45665  0.63939  0.96504  Biso   1.000  H
  C1234    1.0000 0.44546  0.50424  0.84309  Biso   1.000  C
  C1235    1.0000 0.47811  0.60748  0.85257  Biso   1.000  C
  H1525    1.0000 0.36688  0.47247  0.83943  Biso   1.000  H
  C1236    1.0000 0.45536  0.41777  0.85260  Biso   1.000  C
  H1526    1.0000 0.49494  0.52421  0.83374  Biso   1.000  H
  C1237    1.0000 0.45544  0.41777  0.85260  Biso   1.000  C
  H1527    1.0000 0.49482  0.52413  0.83374  Biso   1.000  H
  C1238    1.0000 0.47803  0.60748  0.85257  Biso   1.000  C
  H1528    1.0000 0.49486  0.52421  0.83374  Biso   1.000  H
  H1529    1.0000 0.49489  0.52413  0.83374  Biso   1.000  H
  H1530    1.0000 0.47338  0.66386  0.84583  Biso   1.000  H
  C1239    1.0000 0.59537  0.65999  0.85952  Biso   1.000  C
  H1531    1.0000 0.42306  0.58818  0.86123  Biso   1.000  H
  C1240    1.0000 0.59545  0.65999  0.85952  Biso   1.000  C
  H1532    1.0000 0.42313  0.58818  0.86123  Biso   1.000  H
  H1533    1.0000 0.43314  0.34967  0.84613  Biso   1.000  H
  H1534    1.0000 0.40444  0.39577  0.86183  Biso   1.000  H
  C1241    1.0000 0.58045  0.46825  0.85827  Biso   1.000  C
  H1535    1.0000 0.43321  0.34967  0.84613  Biso   1.000  H
  H1536    1.0000 0.40451  0.39577  0.86183  Biso   1.000  H
  C1242    1.0000 0.58052  0.46825  0.85827  Biso   1.000  C
  H1537    1.0000 0.65210  0.68906  0.85084  Biso   1.000  H
  C1243    1.0000 0.60793  0.57343  0.86877  Biso   1.000  C
  C1244    1.0000 0.60801  0.57343  0.86877  Biso   1.000  C
  N158     1.0000 0.61633  0.75210  0.87000  Biso   1.000  N
  N159     1.0000 0.61621  0.75202  0.87000  Biso   1.000  N
  N160     1.0000 0.61625  0.75210  0.87000  Biso   1.000  N
  H1538    1.0000 0.65203  0.68906  0.85084  Biso   1.000  H
  N161     1.0000 0.61628  0.75202  0.87000  Biso   1.000  N
  H1539    1.0000 0.63206  0.49118  0.84914  Biso   1.000  H
  H1540    1.0000 0.63213  0.49118  0.84914  Biso   1.000  H
  H1541    1.0000 0.58903  0.41170  0.86443  Biso   1.000  H
  H1542    1.0000 0.58915  0.41179  0.86443  Biso   1.000  H
  H1543    1.0000 0.58908  0.41179  0.86443  Biso   1.000  H
  H1544    1.0000 0.55759  0.54966  0.87823  Biso   1.000  H
  N162     1.0000 0.72452  0.62181  0.87361  Biso   1.000  N
  N163     1.0000 0.72448  0.62172  0.87361  Biso   1.000  N
  C1245    1.0000 0.70231  0.84759  0.86902  Biso   1.000  C
  C1246    1.0000 0.70224  0.84759  0.86902  Biso   1.000  C
  C1247    1.0000 0.75311  0.61768  0.88763  Biso   1.000  C
  C1248    1.0000 0.75304  0.61768  0.88763  Biso   1.000  C
  C1249    1.0000 0.79269  0.88265  0.85633  Biso   1.000  C
  C1250    1.0000 0.71895  0.93355  0.88114  Biso   1.000  C
  C1251    1.0000 0.71902  0.93355  0.88114  Biso   1.000  C
  C1252    1.0000 0.66466  0.52733  0.89983  Biso   1.000  C
  C1253    1.0000 0.87526  0.66782  0.89047  Biso   1.000  C
  C1254    1.0000 0.87537  0.66791  0.89047  Biso   1.000  C
  C1255    1.0000 0.66473  0.52733  0.89983  Biso   1.000  C
  C1256    1.0000 0.87530  0.66791  0.89047  Biso   1.000  C
  C1257    1.0000 0.67968  0.59037  0.90223  Biso   1.000  C
  H1545    1.0000 0.76258  0.82989  0.84743  Biso   1.000  H
  H1546    1.0000 0.85844  0.88206  0.86073  Biso   1.000  H
  H1547    1.0000 0.81483  0.95875  0.85264  Biso   1.000  H
  H1548    1.0000 0.85852  0.88206  0.86073  Biso   1.000  H
  H1549    1.0000 0.81490  0.95875  0.85264  Biso   1.000  H
  H1550    1.0000 0.76266  0.82989  0.84743  Biso   1.000  H
  C1258    1.0000 0.67035  0.89504  0.89644  Biso   1.000  C
  C1259    1.0000 0.67042  0.89504  0.89644  Biso   1.000  C
  C1260    1.0000 0.78306  0.04834  0.87927  Biso   1.000  C
  C1261    1.0000 0.78301  0.04826  0.87927  Biso   1.000  C
  H1551    1.0000 0.65710  0.45367  0.89784  Biso   1.000  H
  H1552    1.0000 0.69153  0.55143  0.91064  Biso   1.000  H
  H1553    1.0000 0.69160  0.55143  0.91064  Biso   1.000  H
  H1554    1.0000 0.59132  0.52270  0.89843  Biso   1.000  H
  H1555    1.0000 0.59121  0.52261  0.89843  Biso   1.000  H
  H1556    1.0000 0.59125  0.52270  0.89843  Biso   1.000  H
  H1557    1.0000 0.59128  0.52261  0.89843  Biso   1.000  H
  C1262    1.0000 0.91968  0.66133  0.90523  Biso   1.000  C
  C1263    1.0000 0.95163  0.73474  0.87927  Biso   1.000  C
  C1264    1.0000 0.95171  0.73474  0.87927  Biso   1.000  C
  H1558    1.0000 0.65251  0.51166  0.90533  Biso   1.000  H
  H1559    1.0000 0.61480  0.59973  0.89994  Biso   1.000  H
  H1560    1.0000 0.72347  0.64043  0.91084  Biso   1.000  H
  C1265    1.0000 0.68106  0.96887  0.90780  Biso   1.000  C
  H1561    1.0000 0.62998  0.81649  0.89863  Biso   1.000  H
  C1266    1.0000 0.68113  0.96887  0.90780  Biso   1.000  C
  H1562    1.0000 0.63005  0.81649  0.89863  Biso   1.000  H
  H1563    1.0000 0.82318  0.07632  0.86963  Biso   1.000  H
  C1267    1.0000 0.79255  0.12470  0.89047  Biso   1.000  C
  C1268    1.0000 0.79262  0.12470  0.89047  Biso   1.000  C
  H1564    1.0000 0.82313  0.07624  0.86963  Biso   1.000  H
  H1565    1.0000 0.86935  0.61995  0.91353  Biso   1.000  H
  H1566    1.0000 0.86942  0.61995  0.91353  Biso   1.000  H
  C1269    1.0000 0.03111  0.71224  0.90780  Biso   1.000  C
  C1270    1.0000 0.03118  0.71224  0.90780  Biso   1.000  C
  H1567    1.0000 0.92369  0.74688  0.86963  Biso   1.000  H
  C1271    1.0000 0.06648  0.78548  0.88114  Biso   1.000  C
  C1272    1.0000 0.63886  0.92344  0.92436  Biso   1.000  C
  C1273    1.0000 0.63893  0.92344  0.92436  Biso   1.000  C
  C1274    1.0000 0.74159  0.08028  0.90523  Biso   1.000  C
  C1275    1.0000 0.74166  0.08028  0.90523  Biso   1.000  C
  C1276    1.0000 0.86460  0.24690  0.88763  Biso   1.000  C
  C1277    1.0000 0.10493  0.77536  0.89644  Biso   1.000  C
  C1278    1.0000 0.07657  0.71544  0.92436  Biso   1.000  C
  C1279    1.0000 0.10500  0.77536  0.89644  Biso   1.000  C
  C1280    1.0000 0.15243  0.85475  0.86902  Biso   1.000  C
  C1281    1.0000 0.15251  0.85475  0.86902  Biso   1.000  C
  N164     1.0000 0.60839  0.97898  0.93266  Biso   1.000  N
  C1282    1.0000 0.63736  0.81826  0.92859  Biso   1.000  C
  C1283    1.0000 0.63743  0.81826  0.92859  Biso   1.000  C
  H1568    1.0000 0.75054  0.13060  0.91353  Biso   1.000  H
  N165     1.0000 0.89721  0.27547  0.87361  Biso   1.000  N
  C1284    1.0000 0.86260  0.33531  0.89983  Biso   1.000  C
  C1285    1.0000 0.86268  0.33531  0.89983  Biso   1.000  C
  C1286    1.0000 0.91072  0.32031  0.90223  Biso   1.000  C
  H1569    1.0000 0.18358  0.81354  0.89863  Biso   1.000  H
  N166     1.0000 0.02104  0.62948  0.93266  Biso   1.000  N
  C1287    1.0000 0.18173  0.81919  0.92859  Biso   1.000  C
  N167     1.0000 0.02111  0.62948  0.93266  Biso   1.000  N
  C1288    1.0000 0.18180  0.81919  0.92859  Biso   1.000  C
  N168     1.0000 0.24799  0.86428  0.87000  Biso   1.000  N
  C1289    1.0000 0.11731  0.91004  0.85633  Biso   1.000  C
  C1290    1.0000 0.11738  0.91004  0.85633  Biso   1.000  C
  C1291    1.0000 0.55227  0.93448  0.94781  Biso   1.000  C
  C1292    1.0000 0.55234  0.93448  0.94781  Biso   1.000  C
  H1570    1.0000 0.69047  0.80916  0.92183  Biso   1.000  H
  H1571    1.0000 0.56124  0.75404  0.92704  Biso   1.000  H
  H1572    1.0000 0.65922  0.82155  0.93963  Biso   1.000  H
  H1573    1.0000 0.65930  0.82155  0.93963  Biso   1.000  H
  H1574    1.0000 0.69054  0.80916  0.92183  Biso   1.000  H
  H1575    1.0000 0.56131  0.75404  0.92704  Biso   1.000  H
  C1293    1.0000 0.96548  0.39203  0.86877  Biso   1.000  C
  C1294    1.0000 0.96544  0.39194  0.86877  Biso   1.000  C
  H1576    1.0000 0.79655  0.34289  0.89784  Biso   1.000  H
  H1577    1.0000 0.93142  0.40872  0.89843  Biso   1.000  H
  H1578    1.0000 0.85982  0.30842  0.91064  Biso   1.000  H
  H1579    1.0000 0.85978  0.30834  0.91064  Biso   1.000  H
  H1580    1.0000 0.85985  0.30834  0.91064  Biso   1.000  H
  H1581    1.0000 0.85923  0.34753  0.90533  Biso   1.000  H
  H1582    1.0000 0.98492  0.38520  0.89994  Biso   1.000  H
  H1583    1.0000 0.91691  0.27648  0.91084  Biso   1.000  H
  C1295    1.0000 0.06551  0.61785  0.94781  Biso   1.000  C
  C1296    1.0000 0.06558  0.61785  0.94781  Biso   1.000  C
  H1584    1.0000 0.19086  0.88139  0.92183  Biso   1.000  H
  H1585    1.0000 0.24600  0.80730  0.92704  Biso   1.000  H
  H1586    1.0000 0.17849  0.83781  0.93963  Biso   1.000  H
  H1587    1.0000 0.24596  0.80722  0.92704  Biso   1.000  H
  H1588    1.0000 0.17844  0.83773  0.93963  Biso   1.000  H
  H1589    1.0000 0.19093  0.88139  0.92183  Biso   1.000  H
  H1590    1.0000 0.17852  0.83773  0.93963  Biso   1.000  H
  C1297    1.0000 0.34009  0.93549  0.85952  Biso   1.000  C
  H1591    1.0000 0.17014  0.93280  0.84743  Biso   1.000  H
  H1592    1.0000 0.11796  0.97645  0.86073  Biso   1.000  H
  H1593    1.0000 0.04126  0.85619  0.85264  Biso   1.000  H
  H1594    1.0000 0.17021  0.93280  0.84743  Biso   1.000  H
  H1595    1.0000 0.04133  0.85619  0.85264  Biso   1.000  H
  C1298    1.0000 0.62930  0.99980  0.96120  Biso   1.000  C
  H1596    1.0000 0.53104  0.85349  0.94873  Biso   1.000  H
  H1597    1.0000 0.53112  0.85349  0.94873  Biso   1.000  H
  C1299    1.0000 0.44474  0.94392  0.94852  Biso   1.000  C
  C1300    1.0000 0.44462  0.94384  0.94852  Biso   1.000  C
  C1301    1.0000 0.44466  0.94392  0.94852  Biso   1.000  C
  C1302    1.0000 0.44469  0.94384  0.94852  Biso   1.000  C
  C1303    1.0000 0.06453  0.40459  0.85952  Biso   1.000  C
  C1304    1.0000 0.88770  0.41950  0.85827  Biso   1.000  C
  H1598    1.0000 0.99207  0.44243  0.87823  Biso   1.000  H
  C1305    1.0000 0.88777  0.41950  0.85827  Biso   1.000  C
  H1599    1.0000 0.99210  0.44234  0.87823  Biso   1.000  H
  H1600    1.0000 0.99214  0.44243  0.87823  Biso   1.000  H
  H1601    1.0000 0.14659  0.67768  0.94873  Biso   1.000  H
  C1306    1.0000 0.05614  0.50087  0.94852  Biso   1.000  C
  C1307    1.0000 0.00028  0.62956  0.96120  Biso   1.000  C
  C1308    1.0000 0.05621  0.50087  0.94852  Biso   1.000  C
  H1602    1.0000 0.31095  0.96305  0.85084  Biso   1.000  H
  C1309    1.0000 0.39257  0.87068  0.85257  Biso   1.000  C
  H1603    1.0000 0.31103  0.96305  0.85084  Biso   1.000  H
  C1310    1.0000 0.39264  0.87068  0.85257  Biso   1.000  C
  C1311    1.0000 0.42661  0.03452  0.86877  Biso   1.000  C
  C1312    1.0000 0.42657  0.03444  0.86877  Biso   1.000  C
  C1313    1.0000 0.56919  0.95606  0.97742  Biso   1.000  C
  N169     1.0000 0.72696  0.98185  0.96087  Biso   1.000  N
  N170     1.0000 0.72704  0.98185  0.96087  Biso   1.000  N
  H1604    1.0000 0.65523  0.08172  0.96003  Biso   1.000  H
  H1605    1.0000 0.65519  0.08163  0.96003  Biso   1.000  H
  H1606    1.0000 0.39397  0.90077  0.93973  Biso   1.000  H
  C1314    1.0000 0.38393  0.89807  0.96410  Biso   1.000  C
  C1315    1.0000 0.38400  0.89807  0.96410  Biso   1.000  C
  H1607    1.0000 0.39404  0.90077  0.93973  Biso   1.000  H
  H1608    1.0000 0.46508  0.02373  0.94733  Biso   1.000  H
  H1609    1.0000 0.46504  0.02365  0.94733  Biso   1.000  H
  H1610    1.0000 0.46511  0.02365  0.94733  Biso   1.000  H
  N171     1.0000 0.13575  0.38369  0.87000  Biso   1.000  N
  H1611    1.0000 0.03690  0.34787  0.85084  Biso   1.000  H
  C1316    1.0000 0.12939  0.52190  0.85257  Biso   1.000  C
  C1317    1.0000 0.96227  0.54457  0.85260  Biso   1.000  C
  H1612    1.0000 0.85899  0.36793  0.84914  Biso   1.000  H
  H1613    1.0000 0.82260  0.41091  0.86443  Biso   1.000  H
  C1318    1.0000 0.96235  0.54457  0.85260  Biso   1.000  C
  H1614    1.0000 0.85909  0.36784  0.84914  Biso   1.000  H
  H1615    1.0000 0.85913  0.36793  0.84914  Biso   1.000  H
  H1616    1.0000 0.82274  0.41091  0.86443  Biso   1.000  H
  H1617    1.0000 0.97625  0.44137  0.94733  Biso   1.000  H
  H1618    1.0000 0.97632  0.44137  0.94733  Biso   1.000  H
  H1619    1.0000 0.09928  0.49328  0.93973  Biso   1.000  H
  C1319    1.0000 0.10196  0.48595  0.96410  Biso   1.000  C
  H1620    1.0000 0.91824  0.57352  0.96003  Biso   1.000  H
  H1621    1.0000 0.91836  0.57360  0.96003  Biso   1.000  H
  H1622    1.0000 0.91829  0.57360  0.96003  Biso   1.000  H
  N172     1.0000 0.01817  0.74519  0.96087  Biso   1.000  N
  C1320    1.0000 0.04400  0.61321  0.97742  Biso   1.000  C
  C1321    1.0000 0.04395  0.61313  0.97742  Biso   1.000  C
  N173     1.0000 0.01824  0.74519  0.96087  Biso   1.000  N
  H1623    1.0000 0.41185  0.83495  0.86123  Biso   1.000  H
  H1624    1.0000 0.33618  0.80958  0.84583  Biso   1.000  H
  C1322    1.0000 0.49576  0.94131  0.84309  Biso   1.000  C
  C1323    1.0000 0.49579  0.94122  0.84309  Biso   1.000  C
  C1324    1.0000 0.49583  0.94131  0.84309  Biso   1.000  C
  H1625    1.0000 0.41193  0.83495  0.86123  Biso   1.000  H
  N174     1.0000 0.37822  0.10270  0.87361  Biso   1.000  N
  C1325    1.0000 0.53173  0.11222  0.85827  Biso   1.000  C
  H1626    1.0000 0.45030  0.00789  0.87823  Biso   1.000  H
  C1326    1.0000 0.53169  0.11214  0.85827  Biso   1.000  C
  H1627    1.0000 0.45037  0.00789  0.87823  Biso   1.000  H
  C1327    1.0000 0.46306  0.96465  0.97812  Biso   1.000  C
  H1628    1.0000 0.54938  0.87658  0.97893  Biso   1.000  H
  C1328    1.0000 0.46313  0.96465  0.97812  Biso   1.000  C
  H1629    1.0000 0.54945  0.87658  0.97893  Biso   1.000  H
  H1630    1.0000 0.62082  0.00123  0.98604  Biso   1.000  H
  H1631    1.0000 0.62078  0.00115  0.98604  Biso   1.000  H
  C1329    1.0000 0.82550  0.05980  0.95737  Biso   1.000  C
  H1632    1.0000 0.31549  0.90498  0.96444  Biso   1.000  H
  H1633    1.0000 0.36053  0.81725  0.96504  Biso   1.000  H
  H1634    1.0000 0.36060  0.81725  0.96504  Biso   1.000  H
  C1330    1.0000 0.14521  0.29764  0.86902  Biso   1.000  C
  C1331    1.0000 0.14525  0.29772  0.86902  Biso   1.000  C
  C1332    1.0000 0.05877  0.55452  0.84309  Biso   1.000  C
  H1635    1.0000 0.16508  0.57694  0.86123  Biso   1.000  H
  H1636    1.0000 0.16504  0.57685  0.86123  Biso   1.000  H
  H1637    1.0000 0.19051  0.52662  0.84583  Biso   1.000  H
  H1638    1.0000 0.91647  0.56682  0.84613  Biso   1.000  H
  H1639    1.0000 0.99123  0.59548  0.86183  Biso   1.000  H
  H1640    1.0000 0.18277  0.54334  0.96504  Biso   1.000  H
  H1641    1.0000 0.09509  0.41061  0.96444  Biso   1.000  H
  C1333    1.0000 0.03540  0.49851  0.97812  Biso   1.000  C
  H1642    1.0000 0.09505  0.41052  0.96444  Biso   1.000  H
  C1334    1.0000 0.03536  0.49842  0.97812  Biso   1.000  C
  C1335    1.0000 0.94017  0.76567  0.95737  Biso   1.000  C
  C1336    1.0000 0.94024  0.76567  0.95737  Biso   1.000  C
  H1643    1.0000 0.99877  0.61953  0.98604  Biso   1.000  H
  H1644    1.0000 0.99888  0.61962  0.98604  Biso   1.000  H
  H1645    1.0000 0.99881  0.61962  0.98604  Biso   1.000  H
  H1646    1.0000 0.12346  0.67288  0.97893  Biso   1.000  H
  H1647    1.0000 0.12354  0.67288  0.97893  Biso   1.000  H
  H1648    1.0000 0.47584  0.97080  0.83374  Biso   1.000  H
  H1649    1.0000 0.52758  0.89445  0.83943  Biso   1.000  H
  H1650    1.0000 0.47587  0.97072  0.83374  Biso   1.000  H
  H1651    1.0000 0.47591  0.97080  0.83374  Biso   1.000  H
  C1337    1.0000 0.58224  0.03764  0.85260  Biso   1.000  C
  C1338    1.0000 0.58220  0.03755  0.85260  Biso   1.000  C
  C1339    1.0000 0.38239  0.13540  0.88763  Biso   1.000  C
  H1652    1.0000 0.50884  0.14088  0.84914  Biso   1.000  H
  H1653    1.0000 0.58821  0.17729  0.86443  Biso   1.000  H
  H1654    1.0000 0.58835  0.17729  0.86443  Biso   1.000  H
  H1655    1.0000 0.42351  0.93330  0.98823  Biso   1.000  H
  H1656    1.0000 0.42340  0.93322  0.98823  Biso   1.000  H
  H1657    1.0000 0.42344  0.93330  0.98823  Biso   1.000  H
  H1658    1.0000 0.42347  0.93322  0.98823  Biso   1.000  H
  H1659    1.0000 0.48316  0.04472  0.97753  Biso   1.000  H
  H1660    1.0000 0.48320  0.04463  0.97753  Biso   1.000  H
  H1661    1.0000 0.48324  0.04472  0.97753  Biso   1.000  H
  C1340    1.0000 0.91795  0.02997  0.95757  Biso   1.000  C
  C1341    1.0000 0.85818  0.17990  0.95229  Biso   1.000  C
  C1342    1.0000 0.21456  0.28103  0.88114  Biso   1.000  C
  C1343    1.0000 0.08989  0.20729  0.85633  Biso   1.000  C
  C1344    1.0000 0.21452  0.28095  0.88114  Biso   1.000  C
  C1345    1.0000 0.08996  0.20729  0.85633  Biso   1.000  C
  C1346    1.0000 0.21445  0.28095  0.88114  Biso   1.000  C
  H1662    1.0000 0.02926  0.50513  0.83374  Biso   1.000  H
  H1663    1.0000 0.10553  0.63315  0.83943  Biso   1.000  H
  H1664    1.0000 0.02929  0.50505  0.83374  Biso   1.000  H
  H1665    1.0000 0.10549  0.63307  0.83943  Biso   1.000  H
  H1666    1.0000 0.02933  0.50513  0.83374  Biso   1.000  H
  H1667    1.0000 0.02922  0.50505  0.83374  Biso   1.000  H
  H1668    1.0000 0.95529  0.43842  0.97753  Biso   1.000  H
  H1669    1.0000 0.95533  0.43850  0.97753  Biso   1.000  H
  H1670    1.0000 0.95526  0.43850  0.97753  Biso   1.000  H
  H1671    1.0000 0.06674  0.49025  0.98823  Biso   1.000  H
  H1672    1.0000 0.06682  0.49025  0.98823  Biso   1.000  H
  C1347    1.0000 0.97000  0.88796  0.95757  Biso   1.000  C
  C1348    1.0000 0.82005  0.67827  0.95229  Biso   1.000  C
  C1349    1.0000 0.82012  0.67827  0.95229  Biso   1.000  C
  H1673    1.0000 0.65042  0.08349  0.84613  Biso   1.000  H
  H1674    1.0000 0.60421  0.00873  0.86183  Biso   1.000  H
  H1675    1.0000 0.60424  0.00865  0.86183  Biso   1.000  H
  H1676    1.0000 0.60428  0.00873  0.86183  Biso   1.000  H
  H1677    1.0000 0.65027  0.08349  0.84613  Biso   1.000  H
  H1678    1.0000 0.60417  0.00865  0.86183  Biso   1.000  H
  C1350    1.0000 0.47269  0.13734  0.89983  Biso   1.000  C
  C1351    1.0000 0.47265  0.13725  0.89983  Biso   1.000  C
  C1352    1.0000 0.33210  0.20737  0.89047  Biso   1.000  C
  C1353    1.0000 0.40962  0.08930  0.90223  Biso   1.000  C
  C1354    1.0000 0.02924  0.11197  0.95762  Biso   1.000  C
  C1355    1.0000 0.88796  0.91729  0.95762  Biso   1.000  C
  C1356    1.0000 0.88803  0.91729  0.95762  Biso   1.000  C
  H1679    1.0000 0.79630  0.17788  0.94623  Biso   1.000  H
  H1680    1.0000 0.92616  0.21134  0.94574  Biso   1.000  H
  H1681    1.0000 0.87287  0.22710  0.96163  Biso   1.000  H
  H1682    1.0000 0.92611  0.21125  0.94574  Biso   1.000  H
  H1683    1.0000 0.79637  0.17788  0.94623  Biso   1.000  H
  H1684    1.0000 0.87295  0.22710  0.96163  Biso   1.000  H
  C1357    1.0000 0.22460  0.32958  0.89644  Biso   1.000  C
  C1358    1.0000 0.26519  0.21690  0.87927  Biso   1.000  C
  C1359    1.0000 0.26526  0.21690  0.87927  Biso   1.000  C
  H1685    1.0000 0.06727  0.23738  0.84743  Biso   1.000  H
  H1686    1.0000 0.02355  0.14147  0.86073  Biso   1.000  H
  H1687    1.0000 0.14384  0.18513  0.85264  Biso   1.000  H
  H1688    1.0000 0.02362  0.14147  0.86073  Biso   1.000  H
  H1689    1.0000 0.14379  0.18504  0.85264  Biso   1.000  H
  C1360    1.0000 0.08280  0.97080  0.95762  Biso   1.000  C
  C1361    1.0000 0.08276  0.97072  0.95762  Biso   1.000  C
  H1690    1.0000 0.82203  0.61844  0.94623  Biso   1.000  H
  H1691    1.0000 0.78863  0.71485  0.94574  Biso   1.000  H
  H1692    1.0000 0.77284  0.64574  0.96163  Biso   1.000  H
  H1693    1.0000 0.82210  0.61844  0.94623  Biso   1.000  H
  H1694    1.0000 0.78871  0.71485  0.94574  Biso   1.000  H
  H1695    1.0000 0.77291  0.64574  0.96163  Biso   1.000  H
  H1696    1.0000 0.47735  0.06857  0.89843  Biso   1.000  H
  H1697    1.0000 0.44861  0.14012  0.91064  Biso   1.000  H
  H1698    1.0000 0.54638  0.20341  0.89784  Biso   1.000  H
  H1699    1.0000 0.44857  0.14004  0.91064  Biso   1.000  H
  H1700    1.0000 0.54646  0.20341  0.89784  Biso   1.000  H
  C1362    1.0000 0.33858  0.25828  0.90523  Biso   1.000  C
  C1363    1.0000 0.33872  0.25828  0.90523  Biso   1.000  C
  H1701    1.0000 0.48829  0.14079  0.90533  Biso   1.000  H
  H1702    1.0000 0.40026  0.01497  0.89994  Biso   1.000  H
  H1703    1.0000 0.35961  0.08298  0.91084  Biso   1.000  H
  C1364    1.0000 0.11204  0.08197  0.95757  Biso   1.000  C
  H1704    1.0000 0.04982  0.18934  0.95764  Biso   1.000  H
  H1705    1.0000 0.04978  0.18925  0.95764  Biso   1.000  H
  H1706    1.0000 0.04963  0.18925  0.95764  Biso   1.000  H
  H1707    1.0000 0.81065  0.86048  0.95764  Biso   1.000  H
  H1708    1.0000 0.81073  0.86048  0.95764  Biso   1.000  H
  C1365    1.0000 0.28771  0.31888  0.90780  Biso   1.000  C
  H1709    1.0000 0.18644  0.37003  0.89863  Biso   1.000  H
  H1710    1.0000 0.18640  0.36995  0.89863  Biso   1.000  H
  H1711    1.0000 0.25309  0.17678  0.86963  Biso   1.000  H
  H1712    1.0000 0.25316  0.17678  0.86963  Biso   1.000  H
  H1713    1.0000 0.13952  0.95024  0.95764  Biso   1.000  H
  H1714    1.0000 0.13960  0.95024  0.95764  Biso   1.000  H
  H1715    1.0000 0.38013  0.24943  0.91353  Biso   1.000  H
  H1716    1.0000 0.38009  0.24935  0.91353  Biso   1.000  H
  H1717    1.0000 0.37995  0.24935  0.91353  Biso   1.000  H
  C1366    1.0000 0.23436  0.17451  0.95737  Biso   1.000  C
  C1367    1.0000 0.23443  0.17451  0.95737  Biso   1.000  C
  C1368    1.0000 0.28452  0.36110  0.92436  Biso   1.000  C
  N175     1.0000 0.25494  0.27303  0.96087  Biso   1.000  N
  C1369    1.0000 0.32172  0.14181  0.95229  Biso   1.000  C
  N176     1.0000 0.25489  0.27294  0.96087  Biso   1.000  N
  N177     1.0000 0.25482  0.27294  0.96087  Biso   1.000  N
  N178     1.0000 0.37057  0.39161  0.93266  Biso   1.000  N
  C1370    1.0000 0.18091  0.36262  0.92859  Biso   1.000  C
  C1371    1.0000 0.18076  0.36262  0.92859  Biso   1.000  C
  C1372    1.0000 0.37041  0.37071  0.96120  Biso   1.000  C
  H1718    1.0000 0.28516  0.07379  0.94574  Biso   1.000  H
  H1719    1.0000 0.38159  0.20358  0.94623  Biso   1.000  H
  H1720    1.0000 0.35432  0.12714  0.96163  Biso   1.000  H
  H1721    1.0000 0.35427  0.12706  0.96163  Biso   1.000  H
  C1373    1.0000 0.38221  0.44774  0.94781  Biso   1.000  C
  C1374    1.0000 0.38217  0.44765  0.94781  Biso   1.000  C
  H1722    1.0000 0.11867  0.30952  0.92183  Biso   1.000  H
  H1723    1.0000 0.11863  0.30944  0.92183  Biso   1.000  H
  H1724    1.0000 0.19283  0.43872  0.92704  Biso   1.000  H
  H1725    1.0000 0.16221  0.34070  0.93963  Biso   1.000  H
  H1726    1.0000 0.19276  0.43872  0.92704  Biso   1.000  H
  H1727    1.0000 0.42644  0.34466  0.96003  Biso   1.000  H
  C1375    1.0000 0.38688  0.43080  0.97742  Biso   1.000  C
  H1728    1.0000 0.32236  0.46889  0.94873  Biso   1.000  H
  C1376    1.0000 0.49919  0.55528  0.94852  Biso   1.000  C
  H1729    1.0000 0.32243  0.46889  0.94873  Biso   1.000  H
  C1377    1.0000 0.49905  0.55528  0.94852  Biso   1.000  C
  C1378    1.0000 0.50154  0.53690  0.97812  Biso   1.000  C
  H1730    1.0000 0.32708  0.45060  0.97893  Biso   1.000  H
  H1731    1.0000 0.38051  0.37922  0.98604  Biso   1.000  H
  H1732    1.0000 0.32716  0.45060  0.97893  Biso   1.000  H
  C1379    1.0000 0.50146  0.53690  0.97812  Biso   1.000  C
  H1733    1.0000 0.55870  0.53488  0.94733  Biso   1.000  H
  H1734    1.0000 0.50682  0.60601  0.93973  Biso   1.000  H
  C1380    1.0000 0.51410  0.61604  0.96410  Biso   1.000  C
  C1381    1.0000 0.51413  0.61596  0.96410  Biso   1.000  C
  H1735    1.0000 0.55855  0.53488  0.94733  Biso   1.000  H
  H1736    1.0000 0.50675  0.60601  0.93973  Biso   1.000  H
  C1382    1.0000 0.51406  0.61596  0.96410  Biso   1.000  C
  H1737    1.0000 0.56165  0.51685  0.97753  Biso   1.000  H
  H1738    1.0000 0.50981  0.57651  0.98823  Biso   1.000  H
  H1739    1.0000 0.56161  0.51676  0.97753  Biso   1.000  H
  H1740    1.0000 0.56153  0.51676  0.97753  Biso   1.000  H
  H1741    1.0000 0.50966  0.57651  0.98823  Biso   1.000  H
  H1742    1.0000 0.45658  0.63939  0.96504  Biso   1.000  H
  H1743    1.0000 0.58948  0.68448  0.96444  Biso   1.000  H
  H1744    1.0000 0.45665  0.63939  0.96504  Biso   1.000  H
  C1383    1.0000 0.44546  0.50424  0.84309  Biso   1.000  C
  H1745    1.0000 0.36688  0.47247  0.83943  Biso   1.000  H
  C1384    1.0000 0.47811  0.60748  0.85257  Biso   1.000  C
  C1385    1.0000 0.45536  0.41777  0.85260  Biso   1.000  C
  H1746    1.0000 0.49494  0.52421  0.83374  Biso   1.000  H
  C1386    1.0000 0.45544  0.41777  0.85260  Biso   1.000  C
  H1747    1.0000 0.49482  0.52413  0.83374  Biso   1.000  H
  C1387    1.0000 0.47803  0.60748  0.85257  Biso   1.000  C
  H1748    1.0000 0.49486  0.52421  0.83374  Biso   1.000  H
  H1749    1.0000 0.49489  0.52413  0.83374  Biso   1.000  H
  H1750    1.0000 0.47338  0.66386  0.84583  Biso   1.000  H
  C1388    1.0000 0.59537  0.65999  0.85952  Biso   1.000  C
  H1751    1.0000 0.42306  0.58818  0.86123  Biso   1.000  H
  C1389    1.0000 0.59545  0.65999  0.85952  Biso   1.000  C
  H1752    1.0000 0.42313  0.58818  0.86123  Biso   1.000  H
  C1390    1.0000 0.58045  0.46825  0.85827  Biso   1.000  C
  H1753    1.0000 0.43321  0.34967  0.84613  Biso   1.000  H
  H1754    1.0000 0.40451  0.39577  0.86183  Biso   1.000  H
  C1391    1.0000 0.58052  0.46825  0.85827  Biso   1.000  C
  H1755    1.0000 0.43314  0.34967  0.84613  Biso   1.000  H
  H1756    1.0000 0.40444  0.39577  0.86183  Biso   1.000  H
  H1757    1.0000 0.65210  0.68906  0.85084  Biso   1.000  H
  N179     1.0000 0.61633  0.75210  0.87000  Biso   1.000  N
  C1392    1.0000 0.60801  0.57343  0.86877  Biso   1.000  C
  N180     1.0000 0.61621  0.75202  0.87000  Biso   1.000  N
  C1393    1.0000 0.60793  0.57343  0.86877  Biso   1.000  C
  N181     1.0000 0.61625  0.75210  0.87000  Biso   1.000  N
  H1758    1.0000 0.65203  0.68906  0.85084  Biso   1.000  H
  N182     1.0000 0.61628  0.75202  0.87000  Biso   1.000  N
  H1759    1.0000 0.63213  0.49118  0.84914  Biso   1.000  H
  H1760    1.0000 0.58915  0.41179  0.86443  Biso   1.000  H
  H1761    1.0000 0.63206  0.49118  0.84914  Biso   1.000  H
  H1762    1.0000 0.58903  0.41170  0.86443  Biso   1.000  H
  H1763    1.0000 0.58908  0.41179  0.86443  Biso   1.000  H
  C1394    1.0000 0.70231  0.84759  0.86902  Biso   1.000  C
  C1395    1.0000 0.70224  0.84759  0.86902  Biso   1.000  C
  H1764    1.0000 0.55759  0.54966  0.87823  Biso   1.000  H
  N183     1.0000 0.72452  0.62181  0.87361  Biso   1.000  N
  N184     1.0000 0.72448  0.62172  0.87361  Biso   1.000  N
  C1396    1.0000 0.79269  0.88265  0.85633  Biso   1.000  C
  C1397    1.0000 0.71895  0.93355  0.88114  Biso   1.000  C
  C1398    1.0000 0.71902  0.93355  0.88114  Biso   1.000  C
  C1399    1.0000 0.75311  0.61768  0.88763  Biso   1.000  C
  C1400    1.0000 0.75304  0.61768  0.88763  Biso   1.000  C
  H1765    1.0000 0.76258  0.82989  0.84743  Biso   1.000  H
  H1766    1.0000 0.76266  0.82989  0.84743  Biso   1.000  H
  H1767    1.0000 0.85852  0.88206  0.86073  Biso   1.000  H
  H1768    1.0000 0.81490  0.95875  0.85264  Biso   1.000  H
  H1769    1.0000 0.85844  0.88206  0.86073  Biso   1.000  H
  H1770    1.0000 0.81483  0.95875  0.85264  Biso   1.000  H
  C1401    1.0000 0.67035  0.89504  0.89644  Biso   1.000  C
  C1402    1.0000 0.67042  0.89504  0.89644  Biso   1.000  C
  C1403    1.0000 0.78306  0.04834  0.87927  Biso   1.000  C
  C1404    1.0000 0.78301  0.04826  0.87927  Biso   1.000  C
  C1405    1.0000 0.66466  0.52733  0.89983  Biso   1.000  C
  C1406    1.0000 0.87537  0.66791  0.89047  Biso   1.000  C
  C1407    1.0000 0.66473  0.52733  0.89983  Biso   1.000  C
  C1408    1.0000 0.87526  0.66782  0.89047  Biso   1.000  C
  C1409    1.0000 0.87530  0.66791  0.89047  Biso   1.000  C
  C1410    1.0000 0.67968  0.59037  0.90223  Biso   1.000  C
  C1411    1.0000 0.68106  0.96887  0.90780  Biso   1.000  C
  H1771    1.0000 0.62998  0.81649  0.89863  Biso   1.000  H
  C1412    1.0000 0.68113  0.96887  0.90780  Biso   1.000  C
  H1772    1.0000 0.63005  0.81649  0.89863  Biso   1.000  H
  H1773    1.0000 0.82318  0.07632  0.86963  Biso   1.000  H
  C1413    1.0000 0.79255  0.12470  0.89047  Biso   1.000  C
  C1414    1.0000 0.79262  0.12470  0.89047  Biso   1.000  C
  H1774    1.0000 0.82313  0.07624  0.86963  Biso   1.000  H
  H1775    1.0000 0.65710  0.45367  0.89784  Biso   1.000  H
  H1776    1.0000 0.59132  0.52270  0.89843  Biso   1.000  H
  H1777    1.0000 0.69160  0.55143  0.91064  Biso   1.000  H
  H1778    1.0000 0.59121  0.52261  0.89843  Biso   1.000  H
  H1779    1.0000 0.69153  0.55143  0.91064  Biso   1.000  H
  H1780    1.0000 0.59125  0.52270  0.89843  Biso   1.000  H
  H1781    1.0000 0.59128  0.52261  0.89843  Biso   1.000  H
  C1415    1.0000 0.91968  0.66133  0.90523  Biso   1.000  C
  C1416    1.0000 0.95171  0.73474  0.87927  Biso   1.000  C
  C1417    1.0000 0.95163  0.73474  0.87927  Biso   1.000  C
  H1782    1.0000 0.65251  0.51166  0.90533  Biso   1.000  H
  H1783    1.0000 0.61480  0.59973  0.89994  Biso   1.000  H
  H1784    1.0000 0.72347  0.64043  0.91084  Biso   1.000  H
  C1418    1.0000 0.63886  0.92344  0.92436  Biso   1.000  C
  C1419    1.0000 0.63893  0.92344  0.92436  Biso   1.000  C
  C1420    1.0000 0.74159  0.08028  0.90523  Biso   1.000  C
  C1421    1.0000 0.74166  0.08028  0.90523  Biso   1.000  C
  C1422    1.0000 0.86460  0.24690  0.88763  Biso   1.000  C
  H1785    1.0000 0.86942  0.61995  0.91353  Biso   1.000  H
  H1786    1.0000 0.86935  0.61995  0.91353  Biso   1.000  H
  C1423    1.0000 0.03111  0.71224  0.90780  Biso   1.000  C
  C1424    1.0000 0.03118  0.71224  0.90780  Biso   1.000  C
  H1787    1.0000 0.92369  0.74688  0.86963  Biso   1.000  H
  C1425    1.0000 0.06648  0.78548  0.88114  Biso   1.000  C
  N185     1.0000 0.60839  0.97898  0.93266  Biso   1.000  N
  C1426    1.0000 0.63736  0.81826  0.92859  Biso   1.000  C
  C1427    1.0000 0.63743  0.81826  0.92859  Biso   1.000  C
  H1788    1.0000 0.75054  0.13060  0.91353  Biso   1.000  H
  N186     1.0000 0.89721  0.27547  0.87361  Biso   1.000  N
  C1428    1.0000 0.86260  0.33531  0.89983  Biso   1.000  C
  C1429    1.0000 0.86268  0.33531  0.89983  Biso   1.000  C
  C1430    1.0000 0.91072  0.32031  0.90223  Biso   1.000  C
  C1431    1.0000 0.10493  0.77536  0.89644  Biso   1.000  C
  C1432    1.0000 0.07657  0.71544  0.92436  Biso   1.000  C
  C1433    1.0000 0.10500  0.77536  0.89644  Biso   1.000  C
  C1434    1.0000 0.15243  0.85475  0.86902  Biso   1.000  C
  C1435    1.0000 0.15251  0.85475  0.86902  Biso   1.000  C
  C1436    1.0000 0.55227  0.93448  0.94781  Biso   1.000  C
  C1437    1.0000 0.55234  0.93448  0.94781  Biso   1.000  C
  H1789    1.0000 0.69047  0.80916  0.92183  Biso   1.000  H
  H1790    1.0000 0.56124  0.75404  0.92704  Biso   1.000  H
  H1791    1.0000 0.69054  0.80916  0.92183  Biso   1.000  H
  H1792    1.0000 0.56131  0.75404  0.92704  Biso   1.000  H
  H1793    1.0000 0.65930  0.82155  0.93963  Biso   1.000  H
  H1794    1.0000 0.65922  0.82155  0.93963  Biso   1.000  H
  C1438    1.0000 0.96548  0.39203  0.86877  Biso   1.000  C
  C1439    1.0000 0.96544  0.39194  0.86877  Biso   1.000  C
  H1795    1.0000 0.79655  0.34289  0.89784  Biso   1.000  H
  H1796    1.0000 0.93142  0.40872  0.89843  Biso   1.000  H
  H1797    1.0000 0.85982  0.30842  0.91064  Biso   1.000  H
  H1798    1.0000 0.85978  0.30834  0.91064  Biso   1.000  H
  H1799    1.0000 0.85985  0.30834  0.91064  Biso   1.000  H
  H1800    1.0000 0.85923  0.34753  0.90533  Biso   1.000  H
  H1801    1.0000 0.98492  0.38520  0.89994  Biso   1.000  H
  H1802    1.0000 0.91691  0.27648  0.91084  Biso   1.000  H
  H1803    1.0000 0.18358  0.81354  0.89863  Biso   1.000  H
  N187     1.0000 0.02104  0.62948  0.93266  Biso   1.000  N
  C1440    1.0000 0.18173  0.81919  0.92859  Biso   1.000  C
  N188     1.0000 0.02111  0.62948  0.93266  Biso   1.000  N
  C1441    1.0000 0.18180  0.81919  0.92859  Biso   1.000  C
  N189     1.0000 0.24799  0.86428  0.87000  Biso   1.000  N
  C1442    1.0000 0.11731  0.91004  0.85633  Biso   1.000  C
  C1443    1.0000 0.11738  0.91004  0.85633  Biso   1.000  C
  C1444    1.0000 0.62930  0.99980  0.96120  Biso   1.000  C
  H1804    1.0000 0.53112  0.85349  0.94873  Biso   1.000  H
  C1445    1.0000 0.44474  0.94392  0.94852  Biso   1.000  C
  H1805    1.0000 0.53104  0.85349  0.94873  Biso   1.000  H
  C1446    1.0000 0.44462  0.94384  0.94852  Biso   1.000  C
  C1447    1.0000 0.44466  0.94392  0.94852  Biso   1.000  C
  C1448    1.0000 0.44469  0.94384  0.94852  Biso   1.000  C
  C1449    1.0000 0.06453  0.40459  0.85952  Biso   1.000  C
  C1450    1.0000 0.88770  0.41950  0.85827  Biso   1.000  C
  H1806    1.0000 0.99207  0.44243  0.87823  Biso   1.000  H
  C1451    1.0000 0.88777  0.41950  0.85827  Biso   1.000  C
  H1807    1.0000 0.99210  0.44234  0.87823  Biso   1.000  H
  H1808    1.0000 0.99214  0.44243  0.87823  Biso   1.000  H
  C1452    1.0000 0.06551  0.61785  0.94781  Biso   1.000  C
  C1453    1.0000 0.06558  0.61785  0.94781  Biso   1.000  C
  H1809    1.0000 0.19086  0.88139  0.92183  Biso   1.000  H
  H1810    1.0000 0.24600  0.80730  0.92704  Biso   1.000  H
  H1811    1.0000 0.17849  0.83781  0.93963  Biso   1.000  H
  H1812    1.0000 0.24596  0.80722  0.92704  Biso   1.000  H
  H1813    1.0000 0.17844  0.83773  0.93963  Biso   1.000  H
  H1814    1.0000 0.19093  0.88139  0.92183  Biso   1.000  H
  H1815    1.0000 0.17852  0.83773  0.93963  Biso   1.000  H
  C1454    1.0000 0.34009  0.93549  0.85952  Biso   1.000  C
  H1816    1.0000 0.17014  0.93280  0.84743  Biso   1.000  H
  H1817    1.0000 0.11796  0.97645  0.86073  Biso   1.000  H
  H1818    1.0000 0.04126  0.85619  0.85264  Biso   1.000  H
  H1819    1.0000 0.17021  0.93280  0.84743  Biso   1.000  H
  H1820    1.0000 0.04133  0.85619  0.85264  Biso   1.000  H
  C1455    1.0000 0.56919  0.95606  0.97742  Biso   1.000  C
  N190     1.0000 0.72696  0.98185  0.96087  Biso   1.000  N
  N191     1.0000 0.72704  0.98185  0.96087  Biso   1.000  N
  H1821    1.0000 0.65523  0.08172  0.96003  Biso   1.000  H
  H1822    1.0000 0.65519  0.08163  0.96003  Biso   1.000  H
  H1823    1.0000 0.39397  0.90077  0.93973  Biso   1.000  H
  H1824    1.0000 0.39404  0.90077  0.93973  Biso   1.000  H
  C1456    1.0000 0.38400  0.89807  0.96410  Biso   1.000  C
  C1457    1.0000 0.38393  0.89807  0.96410  Biso   1.000  C
  H1825    1.0000 0.46508  0.02373  0.94733  Biso   1.000  H
  H1826    1.0000 0.46504  0.02365  0.94733  Biso   1.000  H
  H1827    1.0000 0.46511  0.02365  0.94733  Biso   1.000  H
  N192     1.0000 0.13575  0.38369  0.87000  Biso   1.000  N
  H1828    1.0000 0.03690  0.34787  0.85084  Biso   1.000  H
  C1458    1.0000 0.12939  0.52190  0.85257  Biso   1.000  C
  C1459    1.0000 0.96227  0.54457  0.85260  Biso   1.000  C
  H1829    1.0000 0.85899  0.36793  0.84914  Biso   1.000  H
  H1830    1.0000 0.82260  0.41091  0.86443  Biso   1.000  H
  C1460    1.0000 0.96235  0.54457  0.85260  Biso   1.000  C
  H1831    1.0000 0.85909  0.36784  0.84914  Biso   1.000  H
  H1832    1.0000 0.85913  0.36793  0.84914  Biso   1.000  H
  H1833    1.0000 0.82274  0.41091  0.86443  Biso   1.000  H
  H1834    1.0000 0.14659  0.67768  0.94873  Biso   1.000  H
  C1461    1.0000 0.05614  0.50087  0.94852  Biso   1.000  C
  C1462    1.0000 0.00028  0.62956  0.96120  Biso   1.000  C
  C1463    1.0000 0.05621  0.50087  0.94852  Biso   1.000  C
  H1835    1.0000 0.31095  0.96305  0.85084  Biso   1.000  H
  C1464    1.0000 0.39257  0.87068  0.85257  Biso   1.000  C
  H1836    1.0000 0.31103  0.96305  0.85084  Biso   1.000  H
  C1465    1.0000 0.39264  0.87068  0.85257  Biso   1.000  C
  C1466    1.0000 0.42661  0.03452  0.86877  Biso   1.000  C
  C1467    1.0000 0.42657  0.03444  0.86877  Biso   1.000  C
  C1468    1.0000 0.46306  0.96465  0.97812  Biso   1.000  C
  H1837    1.0000 0.54938  0.87658  0.97893  Biso   1.000  H
  C1469    1.0000 0.46313  0.96465  0.97812  Biso   1.000  C
  H1838    1.0000 0.54945  0.87658  0.97893  Biso   1.000  H
  H1839    1.0000 0.62082  0.00123  0.98604  Biso   1.000  H
  H1840    1.0000 0.62078  0.00115  0.98604  Biso   1.000  H
  C1470    1.0000 0.82550  0.05980  0.95737  Biso   1.000  C
  H1841    1.0000 0.31549  0.90498  0.96444  Biso   1.000  H
  H1842    1.0000 0.36060  0.81725  0.96504  Biso   1.000  H
  H1843    1.0000 0.36053  0.81725  0.96504  Biso   1.000  H
  C1471    1.0000 0.14521  0.29764  0.86902  Biso   1.000  C
  C1472    1.0000 0.14525  0.29772  0.86902  Biso   1.000  C
  C1473    1.0000 0.05877  0.55452  0.84309  Biso   1.000  C
  H1844    1.0000 0.16508  0.57694  0.86123  Biso   1.000  H
  H1845    1.0000 0.16504  0.57685  0.86123  Biso   1.000  H
  H1846    1.0000 0.19051  0.52662  0.84583  Biso   1.000  H
  H1847    1.0000 0.91647  0.56682  0.84613  Biso   1.000  H
  H1848    1.0000 0.99123  0.59548  0.86183  Biso   1.000  H
  H1849    1.0000 0.97632  0.44137  0.94733  Biso   1.000  H
  H1850    1.0000 0.97625  0.44137  0.94733  Biso   1.000  H
  H1851    1.0000 0.09928  0.49328  0.93973  Biso   1.000  H
  C1474    1.0000 0.10196  0.48595  0.96410  Biso   1.000  C
  H1852    1.0000 0.91836  0.57360  0.96003  Biso   1.000  H
  H1853    1.0000 0.91824  0.57352  0.96003  Biso   1.000  H
  H1854    1.0000 0.91829  0.57360  0.96003  Biso   1.000  H
  N193     1.0000 0.01817  0.74519  0.96087  Biso   1.000  N
  C1475    1.0000 0.04400  0.61321  0.97742  Biso   1.000  C
  C1476    1.0000 0.04395  0.61313  0.97742  Biso   1.000  C
  N194     1.0000 0.01824  0.74519  0.96087  Biso   1.000  N
  H1855    1.0000 0.41185  0.83495  0.86123  Biso   1.000  H
  H1856    1.0000 0.33618  0.80958  0.84583  Biso   1.000  H
  C1477    1.0000 0.49576  0.94131  0.84309  Biso   1.000  C
  C1478    1.0000 0.49579  0.94122  0.84309  Biso   1.000  C
  C1479    1.0000 0.49583  0.94131  0.84309  Biso   1.000  C
  H1857    1.0000 0.41193  0.83495  0.86123  Biso   1.000  H
  N195     1.0000 0.37822  0.10270  0.87361  Biso   1.000  N
  C1480    1.0000 0.53173  0.11222  0.85827  Biso   1.000  C
  H1858    1.0000 0.45030  0.00789  0.87823  Biso   1.000  H
  C1481    1.0000 0.53169  0.11214  0.85827  Biso   1.000  C
  H1859    1.0000 0.45037  0.00789  0.87823  Biso   1.000  H
  H1860    1.0000 0.42351  0.93330  0.98823  Biso   1.000  H
  H1861    1.0000 0.42340  0.93322  0.98823  Biso   1.000  H
  H1862    1.0000 0.42344  0.93330  0.98823  Biso   1.000  H
  H1863    1.0000 0.42347  0.93322  0.98823  Biso   1.000  H
  H1864    1.0000 0.48316  0.04472  0.97753  Biso   1.000  H
  H1865    1.0000 0.48320  0.04463  0.97753  Biso   1.000  H
  H1866    1.0000 0.48324  0.04472  0.97753  Biso   1.000  H
  C1482    1.0000 0.91795  0.02997  0.95757  Biso   1.000  C
  C1483    1.0000 0.85818  0.17990  0.95229  Biso   1.000  C
  C1484    1.0000 0.21456  0.28103  0.88114  Biso   1.000  C
  C1485    1.0000 0.08989  0.20729  0.85633  Biso   1.000  C
  C1486    1.0000 0.21452  0.28095  0.88114  Biso   1.000  C
  C1487    1.0000 0.08996  0.20729  0.85633  Biso   1.000  C
  C1488    1.0000 0.21445  0.28095  0.88114  Biso   1.000  C
  H1867    1.0000 0.02926  0.50513  0.83374  Biso   1.000  H
  H1868    1.0000 0.10553  0.63315  0.83943  Biso   1.000  H
  H1869    1.0000 0.02929  0.50505  0.83374  Biso   1.000  H
  H1870    1.0000 0.10549  0.63307  0.83943  Biso   1.000  H
  H1871    1.0000 0.02933  0.50513  0.83374  Biso   1.000  H
  H1872    1.0000 0.02922  0.50505  0.83374  Biso   1.000  H
  H1873    1.0000 0.18277  0.54334  0.96504  Biso   1.000  H
  H1874    1.0000 0.09509  0.41061  0.96444  Biso   1.000  H
  C1489    1.0000 0.03540  0.49851  0.97812  Biso   1.000  C
  H1875    1.0000 0.09505  0.41052  0.96444  Biso   1.000  H
  C1490    1.0000 0.03536  0.49842  0.97812  Biso   1.000  C
  C1491    1.0000 0.94017  0.76567  0.95737  Biso   1.000  C
  C1492    1.0000 0.94024  0.76567  0.95737  Biso   1.000  C
  H1876    1.0000 0.99888  0.61962  0.98604  Biso   1.000  H
  H1877    1.0000 0.99877  0.61953  0.98604  Biso   1.000  H
  H1878    1.0000 0.99881  0.61962  0.98604  Biso   1.000  H
  H1879    1.0000 0.12346  0.67288  0.97893  Biso   1.000  H
  H1880    1.0000 0.12354  0.67288  0.97893  Biso   1.000  H
  H1881    1.0000 0.47584  0.97080  0.83374  Biso   1.000  H
  H1882    1.0000 0.52758  0.89445  0.83943  Biso   1.000  H
  H1883    1.0000 0.47587  0.97072  0.83374  Biso   1.000  H
  H1884    1.0000 0.47591  0.97080  0.83374  Biso   1.000  H
  C1493    1.0000 0.58224  0.03764  0.85260  Biso   1.000  C
  C1494    1.0000 0.58220  0.03755  0.85260  Biso   1.000  C
  C1495    1.0000 0.38239  0.13540  0.88763  Biso   1.000  C
  H1885    1.0000 0.50884  0.14088  0.84914  Biso   1.000  H
  H1886    1.0000 0.58821  0.17729  0.86443  Biso   1.000  H
  H1887    1.0000 0.58835  0.17729  0.86443  Biso   1.000  H
  C1496    1.0000 0.02924  0.11197  0.95762  Biso   1.000  C
  C1497    1.0000 0.88803  0.91729  0.95762  Biso   1.000  C
  C1498    1.0000 0.88796  0.91729  0.95762  Biso   1.000  C
  H1888    1.0000 0.79630  0.17788  0.94623  Biso   1.000  H
  H1889    1.0000 0.92616  0.21134  0.94574  Biso   1.000  H
  H1890    1.0000 0.87287  0.22710  0.96163  Biso   1.000  H
  H1891    1.0000 0.92611  0.21125  0.94574  Biso   1.000  H
  H1892    1.0000 0.79637  0.17788  0.94623  Biso   1.000  H
  H1893    1.0000 0.87295  0.22710  0.96163  Biso   1.000  H
  C1499    1.0000 0.22460  0.32958  0.89644  Biso   1.000  C
  C1500    1.0000 0.26519  0.21690  0.87927  Biso   1.000  C
  C1501    1.0000 0.26526  0.21690  0.87927  Biso   1.000  C
  H1894    1.0000 0.06727  0.23738  0.84743  Biso   1.000  H
  H1895    1.0000 0.02355  0.14147  0.86073  Biso   1.000  H
  H1896    1.0000 0.14384  0.18513  0.85264  Biso   1.000  H
  H1897    1.0000 0.02362  0.14147  0.86073  Biso   1.000  H
  H1898    1.0000 0.14379  0.18504  0.85264  Biso   1.000  H
  H1899    1.0000 0.95533  0.43850  0.97753  Biso   1.000  H
  H1900    1.0000 0.95529  0.43842  0.97753  Biso   1.000  H
  H1901    1.0000 0.95526  0.43850  0.97753  Biso   1.000  H
  H1902    1.0000 0.06674  0.49025  0.98823  Biso   1.000  H
  H1903    1.0000 0.06682  0.49025  0.98823  Biso   1.000  H
  C1502    1.0000 0.97000  0.88796  0.95757  Biso   1.000  C
  C1503    1.0000 0.82012  0.67827  0.95229  Biso   1.000  C
  C1504    1.0000 0.82005  0.67827  0.95229  Biso   1.000  C
  H1904    1.0000 0.65042  0.08349  0.84613  Biso   1.000  H
  H1905    1.0000 0.60421  0.00873  0.86183  Biso   1.000  H
  H1906    1.0000 0.60424  0.00865  0.86183  Biso   1.000  H
  H1907    1.0000 0.60428  0.00873  0.86183  Biso   1.000  H
  H1908    1.0000 0.65027  0.08349  0.84613  Biso   1.000  H
  H1909    1.0000 0.60417  0.00865  0.86183  Biso   1.000  H
  C1505    1.0000 0.47269  0.13734  0.89983  Biso   1.000  C
  C1506    1.0000 0.47265  0.13725  0.89983  Biso   1.000  C
  C1507    1.0000 0.33210  0.20737  0.89047  Biso   1.000  C
  C1508    1.0000 0.40962  0.08930  0.90223  Biso   1.000  C
  C1509    1.0000 0.11204  0.08197  0.95757  Biso   1.000  C
  H1910    1.0000 0.04982  0.18934  0.95764  Biso   1.000  H
  H1911    1.0000 0.04978  0.18925  0.95764  Biso   1.000  H
  H1912    1.0000 0.04963  0.18925  0.95764  Biso   1.000  H
  H1913    1.0000 0.81073  0.86048  0.95764  Biso   1.000  H
  H1914    1.0000 0.81065  0.86048  0.95764  Biso   1.000  H
  C1510    1.0000 0.28771  0.31888  0.90780  Biso   1.000  C
  H1915    1.0000 0.18644  0.37003  0.89863  Biso   1.000  H
  H1916    1.0000 0.18640  0.36995  0.89863  Biso   1.000  H
  H1917    1.0000 0.25309  0.17678  0.86963  Biso   1.000  H
  H1918    1.0000 0.25316  0.17678  0.86963  Biso   1.000  H
  C1511    1.0000 0.08280  0.97080  0.95762  Biso   1.000  C
  C1512    1.0000 0.08276  0.97072  0.95762  Biso   1.000  C
  H1919    1.0000 0.82210  0.61844  0.94623  Biso   1.000  H
  H1920    1.0000 0.78871  0.71485  0.94574  Biso   1.000  H
  H1921    1.0000 0.77291  0.64574  0.96163  Biso   1.000  H
  H1922    1.0000 0.82203  0.61844  0.94623  Biso   1.000  H
  H1923    1.0000 0.78863  0.71485  0.94574  Biso   1.000  H
  H1924    1.0000 0.77284  0.64574  0.96163  Biso   1.000  H
  H1925    1.0000 0.47735  0.06857  0.89843  Biso   1.000  H
  H1926    1.0000 0.44861  0.14012  0.91064  Biso   1.000  H
  H1927    1.0000 0.54638  0.20341  0.89784  Biso   1.000  H
  H1928    1.0000 0.44857  0.14004  0.91064  Biso   1.000  H
  H1929    1.0000 0.54646  0.20341  0.89784  Biso   1.000  H
  C1513    1.0000 0.33858  0.25828  0.90523  Biso   1.000  C
  C1514    1.0000 0.33872  0.25828  0.90523  Biso   1.000  C
  H1930    1.0000 0.48829  0.14079  0.90533  Biso   1.000  H
  H1931    1.0000 0.40026  0.01497  0.89994  Biso   1.000  H
  H1932    1.0000 0.35961  0.08298  0.91084  Biso   1.000  H
  C1515    1.0000 0.23436  0.17451  0.95737  Biso   1.000  C
  C1516    1.0000 0.23443  0.17451  0.95737  Biso   1.000  C
  C1517    1.0000 0.28452  0.36110  0.92436  Biso   1.000  C
  H1933    1.0000 0.13952  0.95024  0.95764  Biso   1.000  H
  H1934    1.0000 0.13960  0.95024  0.95764  Biso   1.000  H
  H1935    1.0000 0.38013  0.24943  0.91353  Biso   1.000  H
  H1936    1.0000 0.38009  0.24935  0.91353  Biso   1.000  H
  H1937    1.0000 0.37995  0.24935  0.91353  Biso   1.000  H
  N196     1.0000 0.25494  0.27303  0.96087  Biso   1.000  N
  C1518    1.0000 0.32172  0.14181  0.95229  Biso   1.000  C
  N197     1.0000 0.25489  0.27294  0.96087  Biso   1.000  N
  N198     1.0000 0.25482  0.27294  0.96087  Biso   1.000  N
  N199     1.0000 0.37057  0.39161  0.93266  Biso   1.000  N
  C1519    1.0000 0.18091  0.36262  0.92859  Biso   1.000  C
  C1520    1.0000 0.18076  0.36262  0.92859  Biso   1.000  C
  C1521    1.0000 0.37041  0.37071  0.96120  Biso   1.000  C
  H1938    1.0000 0.28516  0.07379  0.94574  Biso   1.000  H
  H1939    1.0000 0.38159  0.20358  0.94623  Biso   1.000  H
  H1940    1.0000 0.35432  0.12714  0.96163  Biso   1.000  H
  H1941    1.0000 0.35427  0.12706  0.96163  Biso   1.000  H
  C1522    1.0000 0.38221  0.44774  0.94781  Biso   1.000  C
  C1523    1.0000 0.38217  0.44765  0.94781  Biso   1.000  C
  H1942    1.0000 0.11867  0.30952  0.92183  Biso   1.000  H
  H1943    1.0000 0.11863  0.30944  0.92183  Biso   1.000  H
  H1944    1.0000 0.19283  0.43872  0.92704  Biso   1.000  H
  H1945    1.0000 0.16221  0.34070  0.93963  Biso   1.000  H
  H1946    1.0000 0.19276  0.43872  0.92704  Biso   1.000  H
  H1947    1.0000 0.42644  0.34466  0.96003  Biso   1.000  H
  C1524    1.0000 0.38688  0.43080  0.97742  Biso   1.000  C
  H1948    1.0000 0.32236  0.46889  0.94873  Biso   1.000  H
  C1525    1.0000 0.49919  0.55528  0.94852  Biso   1.000  C
  H1949    1.0000 0.32243  0.46889  0.94873  Biso   1.000  H
  C1526    1.0000 0.49905  0.55528  0.94852  Biso   1.000  C
  C1527    1.0000 0.50154  0.53690  0.97812  Biso   1.000  C
  H1950    1.0000 0.32708  0.45060  0.97893  Biso   1.000  H
  H1951    1.0000 0.38051  0.37922  0.98604  Biso   1.000  H
  H1952    1.0000 0.32716  0.45060  0.97893  Biso   1.000  H
  C1528    1.0000 0.50146  0.53690  0.97812  Biso   1.000  C
  H1953    1.0000 0.55870  0.53488  0.94733  Biso   1.000  H
  H1954    1.0000 0.50682  0.60601  0.93973  Biso   1.000  H
  C1529    1.0000 0.51410  0.61604  0.96410  Biso   1.000  C
  C1530    1.0000 0.51413  0.61596  0.96410  Biso   1.000  C
  H1955    1.0000 0.55855  0.53488  0.94733  Biso   1.000  H
  H1956    1.0000 0.50675  0.60601  0.93973  Biso   1.000  H
  C1531    1.0000 0.51406  0.61596  0.96410  Biso   1.000  C
  H1957    1.0000 0.56165  0.51685  0.97753  Biso   1.000  H
  H1958    1.0000 0.50981  0.57651  0.98823  Biso   1.000  H
  H1959    1.0000 0.56161  0.51676  0.97753  Biso   1.000  H
  H1960    1.0000 0.56153  0.51676  0.97753  Biso   1.000  H
  H1961    1.0000 0.50966  0.57651  0.98823  Biso   1.000  H
  H1962    1.0000 0.45658  0.63939  0.96504  Biso   1.000  H
  H1963    1.0000 0.58948  0.68448  0.96444  Biso   1.000  H
  H1964    1.0000 0.45665  0.63939  0.96504  Biso   1.000  H
  C1532    1.0000 0.44546  0.50424  0.84309  Biso   1.000  C
  H1965    1.0000 0.36688  0.47247  0.83943  Biso   1.000  H
  C1533    1.0000 0.47811  0.60748  0.85257  Biso   1.000  C
  H1966    1.0000 0.49494  0.52421  0.83374  Biso   1.000  H
  C1534    1.0000 0.45544  0.41777  0.85260  Biso   1.000  C
  H1967    1.0000 0.49482  0.52413  0.83374  Biso   1.000  H
  C1535    1.0000 0.45536  0.41777  0.85260  Biso   1.000  C
  C1536    1.0000 0.47803  0.60748  0.85257  Biso   1.000  C
  H1968    1.0000 0.49486  0.52421  0.83374  Biso   1.000  H
  H1969    1.0000 0.49489  0.52413  0.83374  Biso   1.000  H
  H1970    1.0000 0.47338  0.66386  0.84583  Biso   1.000  H
  C1537    1.0000 0.59545  0.65999  0.85952  Biso   1.000  C
  H1971    1.0000 0.42313  0.58818  0.86123  Biso   1.000  H
  C1538    1.0000 0.59537  0.65999  0.85952  Biso   1.000  C
  H1972    1.0000 0.42306  0.58818  0.86123  Biso   1.000  H
  H1973    1.0000 0.43321  0.34967  0.84613  Biso   1.000  H
  H1974    1.0000 0.40451  0.39577  0.86183  Biso   1.000  H
  C1539    1.0000 0.58052  0.46825  0.85827  Biso   1.000  C
  H1975    1.0000 0.43314  0.34967  0.84613  Biso   1.000  H
  H1976    1.0000 0.40444  0.39577  0.86183  Biso   1.000  H
  C1540    1.0000 0.58045  0.46825  0.85827  Biso   1.000  C
  N200     1.0000 0.61633  0.75210  0.87000  Biso   1.000  N
  H1977    1.0000 0.65210  0.68906  0.85084  Biso   1.000  H
  C1541    1.0000 0.60801  0.57343  0.86877  Biso   1.000  C
  N201     1.0000 0.61621  0.75202  0.87000  Biso   1.000  N
  C1542    1.0000 0.60793  0.57343  0.86877  Biso   1.000  C
  N202     1.0000 0.61625  0.75210  0.87000  Biso   1.000  N
  H1978    1.0000 0.65203  0.68906  0.85084  Biso   1.000  H
  N203     1.0000 0.61628  0.75202  0.87000  Biso   1.000  N
  H1979    1.0000 0.63213  0.49118  0.84914  Biso   1.000  H
  H1980    1.0000 0.58915  0.41179  0.86443  Biso   1.000  H
  H1981    1.0000 0.63206  0.49118  0.84914  Biso   1.000  H
  H1982    1.0000 0.58903  0.41170  0.86443  Biso   1.000  H
  H1983    1.0000 0.58908  0.41179  0.86443  Biso   1.000  H
  C1543    1.0000 0.70231  0.84759  0.86902  Biso   1.000  C
  C1544    1.0000 0.70224  0.84759  0.86902  Biso   1.000  C
  H1984    1.0000 0.55759  0.54966  0.87823  Biso   1.000  H
  N204     1.0000 0.72452  0.62181  0.87361  Biso   1.000  N
  N205     1.0000 0.72448  0.62172  0.87361  Biso   1.000  N
  C1545    1.0000 0.79269  0.88265  0.85633  Biso   1.000  C
  C1546    1.0000 0.71902  0.93355  0.88114  Biso   1.000  C
  C1547    1.0000 0.71895  0.93355  0.88114  Biso   1.000  C
  C1548    1.0000 0.75311  0.61768  0.88763  Biso   1.000  C
  C1549    1.0000 0.75304  0.61768  0.88763  Biso   1.000  C
  H1985    1.0000 0.76266  0.82989  0.84743  Biso   1.000  H
  H1986    1.0000 0.85852  0.88206  0.86073  Biso   1.000  H
  H1987    1.0000 0.81490  0.95875  0.85264  Biso   1.000  H
  H1988    1.0000 0.76258  0.82989  0.84743  Biso   1.000  H
  H1989    1.0000 0.85844  0.88206  0.86073  Biso   1.000  H
  H1990    1.0000 0.81483  0.95875  0.85264  Biso   1.000  H
  C1550    1.0000 0.67042  0.89504  0.89644  Biso   1.000  C
  C1551    1.0000 0.67035  0.89504  0.89644  Biso   1.000  C
  C1552    1.0000 0.78306  0.04834  0.87927  Biso   1.000  C
  C1553    1.0000 0.78301  0.04826  0.87927  Biso   1.000  C
  C1554    1.0000 0.87537  0.66791  0.89047  Biso   1.000  C
  C1555    1.0000 0.66473  0.52733  0.89983  Biso   1.000  C
  C1556    1.0000 0.87526  0.66782  0.89047  Biso   1.000  C
  C1557    1.0000 0.66466  0.52733  0.89983  Biso   1.000  C
  C1558    1.0000 0.87530  0.66791  0.89047  Biso   1.000  C
  C1559    1.0000 0.67968  0.59037  0.90223  Biso   1.000  C
  C1560    1.0000 0.68113  0.96887  0.90780  Biso   1.000  C
  H1991    1.0000 0.63005  0.81649  0.89863  Biso   1.000  H
  C1561    1.0000 0.68106  0.96887  0.90780  Biso   1.000  C
  H1992    1.0000 0.62998  0.81649  0.89863  Biso   1.000  H
  H1993    1.0000 0.82318  0.07632  0.86963  Biso   1.000  H
  C1562    1.0000 0.79255  0.12470  0.89047  Biso   1.000  C
  C1563    1.0000 0.79262  0.12470  0.89047  Biso   1.000  C
  H1994    1.0000 0.82313  0.07624  0.86963  Biso   1.000  H
  C1564    1.0000 0.91968  0.66133  0.90523  Biso   1.000  C
  C1565    1.0000 0.95171  0.73474  0.87927  Biso   1.000  C
  C1566    1.0000 0.95163  0.73474  0.87927  Biso   1.000  C
  H1995    1.0000 0.65710  0.45367  0.89784  Biso   1.000  H
  H1996    1.0000 0.59132  0.52270  0.89843  Biso   1.000  H
  H1997    1.0000 0.69160  0.55143  0.91064  Biso   1.000  H
  H1998    1.0000 0.59121  0.52261  0.89843  Biso   1.000  H
  H1999    1.0000 0.69153  0.55143  0.91064  Biso   1.000  H
  H2000    1.0000 0.59125  0.52270  0.89843  Biso   1.000  H
  H2001    1.0000 0.59128  0.52261  0.89843  Biso   1.000  H
  H2002    1.0000 0.65251  0.51166  0.90533  Biso   1.000  H
  H2003    1.0000 0.61480  0.59973  0.89994  Biso   1.000  H
  H2004    1.0000 0.72347  0.64043  0.91084  Biso   1.000  H
  C1567    1.0000 0.63893  0.92344  0.92436  Biso   1.000  C
  C1568    1.0000 0.63886  0.92344  0.92436  Biso   1.000  C
  C1569    1.0000 0.74159  0.08028  0.90523  Biso   1.000  C
  C1570    1.0000 0.74166  0.08028  0.90523  Biso   1.000  C
  C1571    1.0000 0.86460  0.24690  0.88763  Biso   1.000  C
  H2005    1.0000 0.86942  0.61995  0.91353  Biso   1.000  H
  H2006    1.0000 0.86935  0.61995  0.91353  Biso   1.000  H
  C1572    1.0000 0.03111  0.71224  0.90780  Biso   1.000  C
  C1573    1.0000 0.03118  0.71224  0.90780  Biso   1.000  C
  H2007    1.0000 0.92369  0.74688  0.86963  Biso   1.000  H
  C1574    1.0000 0.06648  0.78548  0.88114  Biso   1.000  C
  N206     1.0000 0.60839  0.97898  0.93266  Biso   1.000  N
  C1575    1.0000 0.63743  0.81826  0.92859  Biso   1.000  C
  C1576    1.0000 0.63736  0.81826  0.92859  Biso   1.000  C
  H2008    1.0000 0.75054  0.13060  0.91353  Biso   1.000  H
  N207     1.0000 0.89721  0.27547  0.87361  Biso   1.000  N
  C1577    1.0000 0.86260  0.33531  0.89983  Biso   1.000  C
  C1578    1.0000 0.86268  0.33531  0.89983  Biso   1.000  C
  C1579    1.0000 0.91072  0.32031  0.90223  Biso   1.000  C
  C1580    1.0000 0.10493  0.77536  0.89644  Biso   1.000  C
  C1581    1.0000 0.07657  0.71544  0.92436  Biso   1.000  C
  C1582    1.0000 0.10500  0.77536  0.89644  Biso   1.000  C
  C1583    1.0000 0.15243  0.85475  0.86902  Biso   1.000  C
  C1584    1.0000 0.15251  0.85475  0.86902  Biso   1.000  C
  C1585    1.0000 0.55234  0.93448  0.94781  Biso   1.000  C
  C1586    1.0000 0.55227  0.93448  0.94781  Biso   1.000  C
  H2009    1.0000 0.69054  0.80916  0.92183  Biso   1.000  H
  H2010    1.0000 0.56131  0.75404  0.92704  Biso   1.000  H
  H2011    1.0000 0.65930  0.82155  0.93963  Biso   1.000  H
  H2012    1.0000 0.69047  0.80916  0.92183  Biso   1.000  H
  H2013    1.0000 0.56124  0.75404  0.92704  Biso   1.000  H
  H2014    1.0000 0.65922  0.82155  0.93963  Biso   1.000  H
  C1587    1.0000 0.96548  0.39203  0.86877  Biso   1.000  C
  C1588    1.0000 0.96544  0.39194  0.86877  Biso   1.000  C
  H2015    1.0000 0.79655  0.34289  0.89784  Biso   1.000  H
  H2016    1.0000 0.93142  0.40872  0.89843  Biso   1.000  H
  H2017    1.0000 0.85982  0.30842  0.91064  Biso   1.000  H
  H2018    1.0000 0.85978  0.30834  0.91064  Biso   1.000  H
  H2019    1.0000 0.85985  0.30834  0.91064  Biso   1.000  H
  H2020    1.0000 0.85923  0.34753  0.90533  Biso   1.000  H
  H2021    1.0000 0.98492  0.38520  0.89994  Biso   1.000  H
  H2022    1.0000 0.91691  0.27648  0.91084  Biso   1.000  H
  H2023    1.0000 0.18358  0.81354  0.89863  Biso   1.000  H
  N208     1.0000 0.02104  0.62948  0.93266  Biso   1.000  N
  C1589    1.0000 0.18173  0.81919  0.92859  Biso   1.000  C
  N209     1.0000 0.02111  0.62948  0.93266  Biso   1.000  N
  C1590    1.0000 0.18180  0.81919  0.92859  Biso   1.000  C
  N210     1.0000 0.24799  0.86428  0.87000  Biso   1.000  N
  C1591    1.0000 0.11731  0.91004  0.85633  Biso   1.000  C
  C1592    1.0000 0.11738  0.91004  0.85633  Biso   1.000  C
  C1593    1.0000 0.62930  0.99980  0.96120  Biso   1.000  C
  H2024    1.0000 0.53112  0.85349  0.94873  Biso   1.000  H
  C1594    1.0000 0.44474  0.94392  0.94852  Biso   1.000  C
  H2025    1.0000 0.53104  0.85349  0.94873  Biso   1.000  H
  C1595    1.0000 0.44462  0.94384  0.94852  Biso   1.000  C
  C1596    1.0000 0.44466  0.94392  0.94852  Biso   1.000  C
  C1597    1.0000 0.44469  0.94384  0.94852  Biso   1.000  C
  C1598    1.0000 0.06453  0.40459  0.85952  Biso   1.000  C
  C1599    1.0000 0.88770  0.41950  0.85827  Biso   1.000  C
  H2026    1.0000 0.99207  0.44243  0.87823  Biso   1.000  H
  C1600    1.0000 0.88777  0.41950  0.85827  Biso   1.000  C
  H2027    1.0000 0.99210  0.44234  0.87823  Biso   1.000  H
  H2028    1.0000 0.99214  0.44243  0.87823  Biso   1.000  H
  C1601    1.0000 0.06551  0.61785  0.94781  Biso   1.000  C
  C1602    1.0000 0.06558  0.61785  0.94781  Biso   1.000  C
  H2029    1.0000 0.19086  0.88139  0.92183  Biso   1.000  H
  H2030    1.0000 0.24600  0.80730  0.92704  Biso   1.000  H
  H2031    1.0000 0.17849  0.83781  0.93963  Biso   1.000  H
  H2032    1.0000 0.24596  0.80722  0.92704  Biso   1.000  H
  H2033    1.0000 0.17844  0.83773  0.93963  Biso   1.000  H
  H2034    1.0000 0.19093  0.88139  0.92183  Biso   1.000  H
  H2035    1.0000 0.17852  0.83773  0.93963  Biso   1.000  H
  C1603    1.0000 0.34009  0.93549  0.85952  Biso   1.000  C
  H2036    1.0000 0.17014  0.93280  0.84743  Biso   1.000  H
  H2037    1.0000 0.11796  0.97645  0.86073  Biso   1.000  H
  H2038    1.0000 0.04126  0.85619  0.85264  Biso   1.000  H
  H2039    1.0000 0.17021  0.93280  0.84743  Biso   1.000  H
  H2040    1.0000 0.04133  0.85619  0.85264  Biso   1.000  H
  C1604    1.0000 0.56919  0.95606  0.97742  Biso   1.000  C
  N211     1.0000 0.72704  0.98185  0.96087  Biso   1.000  N
  N212     1.0000 0.72696  0.98185  0.96087  Biso   1.000  N
  H2041    1.0000 0.65523  0.08172  0.96003  Biso   1.000  H
  H2042    1.0000 0.65519  0.08163  0.96003  Biso   1.000  H
  H2043    1.0000 0.39404  0.90077  0.93973  Biso   1.000  H
  C1605    1.0000 0.38400  0.89807  0.96410  Biso   1.000  C
  H2044    1.0000 0.39397  0.90077  0.93973  Biso   1.000  H
  C1606    1.0000 0.38393  0.89807  0.96410  Biso   1.000  C
  H2045    1.0000 0.46508  0.02373  0.94733  Biso   1.000  H
  H2046    1.0000 0.46504  0.02365  0.94733  Biso   1.000  H
  H2047    1.0000 0.46511  0.02365  0.94733  Biso   1.000  H
  N213     1.0000 0.13575  0.38369  0.87000  Biso   1.000  N
  H2048    1.0000 0.03690  0.34787  0.85084  Biso   1.000  H
  C1607    1.0000 0.12939  0.52190  0.85257  Biso   1.000  C
  C1608    1.0000 0.96227  0.54457  0.85260  Biso   1.000  C
  H2049    1.0000 0.85899  0.36793  0.84914  Biso   1.000  H
  H2050    1.0000 0.82260  0.41091  0.86443  Biso   1.000  H
  C1609    1.0000 0.96235  0.54457  0.85260  Biso   1.000  C
  H2051    1.0000 0.85909  0.36784  0.84914  Biso   1.000  H
  H2052    1.0000 0.85913  0.36793  0.84914  Biso   1.000  H
  H2053    1.0000 0.82274  0.41091  0.86443  Biso   1.000  H
  H2054    1.0000 0.14659  0.67768  0.94873  Biso   1.000  H
  C1610    1.0000 0.05614  0.50087  0.94852  Biso   1.000  C
  C1611    1.0000 0.00028  0.62956  0.96120  Biso   1.000  C
  C1612    1.0000 0.05621  0.50087  0.94852  Biso   1.000  C
  H2055    1.0000 0.31095  0.96305  0.85084  Biso   1.000  H
  C1613    1.0000 0.39257  0.87068  0.85257  Biso   1.000  C
  H2056    1.0000 0.31103  0.96305  0.85084  Biso   1.000  H
  C1614    1.0000 0.39264  0.87068  0.85257  Biso   1.000  C
  C1615    1.0000 0.42661  0.03452  0.86877  Biso   1.000  C
  C1616    1.0000 0.42657  0.03444  0.86877  Biso   1.000  C
  C1617    1.0000 0.46313  0.96465  0.97812  Biso   1.000  C
  H2057    1.0000 0.54945  0.87658  0.97893  Biso   1.000  H
  C1618    1.0000 0.46306  0.96465  0.97812  Biso   1.000  C
  H2058    1.0000 0.54938  0.87658  0.97893  Biso   1.000  H
  H2059    1.0000 0.62082  0.00123  0.98604  Biso   1.000  H
  H2060    1.0000 0.62078  0.00115  0.98604  Biso   1.000  H
  C1619    1.0000 0.82550  0.05980  0.95737  Biso   1.000  C
  H2061    1.0000 0.31549  0.90498  0.96444  Biso   1.000  H
  H2062    1.0000 0.36060  0.81725  0.96504  Biso   1.000  H
  H2063    1.0000 0.36053  0.81725  0.96504  Biso   1.000  H
  C1620    1.0000 0.14521  0.29764  0.86902  Biso   1.000  C
  C1621    1.0000 0.14525  0.29772  0.86902  Biso   1.000  C
  C1622    1.0000 0.05877  0.55452  0.84309  Biso   1.000  C
  H2064    1.0000 0.16508  0.57694  0.86123  Biso   1.000  H
  H2065    1.0000 0.16504  0.57685  0.86123  Biso   1.000  H
  H2066    1.0000 0.19051  0.52662  0.84583  Biso   1.000  H
  H2067    1.0000 0.91647  0.56682  0.84613  Biso   1.000  H
  H2068    1.0000 0.99123  0.59548  0.86183  Biso   1.000  H
  H2069    1.0000 0.97632  0.44137  0.94733  Biso   1.000  H
  H2070    1.0000 0.97625  0.44137  0.94733  Biso   1.000  H
  H2071    1.0000 0.09928  0.49328  0.93973  Biso   1.000  H
  C1623    1.0000 0.10196  0.48595  0.96410  Biso   1.000  C
  H2072    1.0000 0.91836  0.57360  0.96003  Biso   1.000  H
  H2073    1.0000 0.91824  0.57352  0.96003  Biso   1.000  H
  H2074    1.0000 0.91829  0.57360  0.96003  Biso   1.000  H
  N214     1.0000 0.01817  0.74519  0.96087  Biso   1.000  N
  C1624    1.0000 0.04400  0.61321  0.97742  Biso   1.000  C
  C1625    1.0000 0.04395  0.61313  0.97742  Biso   1.000  C
  N215     1.0000 0.01824  0.74519  0.96087  Biso   1.000  N
  H2075    1.0000 0.41185  0.83495  0.86123  Biso   1.000  H
  H2076    1.0000 0.33618  0.80958  0.84583  Biso   1.000  H
  C1626    1.0000 0.49576  0.94131  0.84309  Biso   1.000  C
  C1627    1.0000 0.49579  0.94122  0.84309  Biso   1.000  C
  C1628    1.0000 0.49583  0.94131  0.84309  Biso   1.000  C
  H2077    1.0000 0.41193  0.83495  0.86123  Biso   1.000  H
  N216     1.0000 0.37822  0.10270  0.87361  Biso   1.000  N
  C1629    1.0000 0.53173  0.11222  0.85827  Biso   1.000  C
  H2078    1.0000 0.45030  0.00789  0.87823  Biso   1.000  H
  C1630    1.0000 0.53169  0.11214  0.85827  Biso   1.000  C
  H2079    1.0000 0.45037  0.00789  0.87823  Biso   1.000  H
  H2080    1.0000 0.42351  0.93330  0.98823  Biso   1.000  H
  H2081    1.0000 0.42340  0.93322  0.98823  Biso   1.000  H
  H2082    1.0000 0.42344  0.93330  0.98823  Biso   1.000  H
  H2083    1.0000 0.42347  0.93322  0.98823  Biso   1.000  H
  H2084    1.0000 0.48316  0.04472  0.97753  Biso   1.000  H
  H2085    1.0000 0.48320  0.04463  0.97753  Biso   1.000  H
  H2086    1.0000 0.48324  0.04472  0.97753  Biso   1.000  H
  C1631    1.0000 0.91795  0.02997  0.95757  Biso   1.000  C
  C1632    1.0000 0.85818  0.17990  0.95229  Biso   1.000  C
  C1633    1.0000 0.21456  0.28103  0.88114  Biso   1.000  C
  C1634    1.0000 0.08989  0.20729  0.85633  Biso   1.000  C
  C1635    1.0000 0.21452  0.28095  0.88114  Biso   1.000  C
  C1636    1.0000 0.08996  0.20729  0.85633  Biso   1.000  C
  C1637    1.0000 0.21445  0.28095  0.88114  Biso   1.000  C
  H2087    1.0000 0.02926  0.50513  0.83374  Biso   1.000  H
  H2088    1.0000 0.10553  0.63315  0.83943  Biso   1.000  H
  H2089    1.0000 0.02929  0.50505  0.83374  Biso   1.000  H
  H2090    1.0000 0.10549  0.63307  0.83943  Biso   1.000  H
  H2091    1.0000 0.02933  0.50513  0.83374  Biso   1.000  H
  H2092    1.0000 0.02922  0.50505  0.83374  Biso   1.000  H
  H2093    1.0000 0.18277  0.54334  0.96504  Biso   1.000  H
  H2094    1.0000 0.09509  0.41061  0.96444  Biso   1.000  H
  C1638    1.0000 0.03540  0.49851  0.97812  Biso   1.000  C
  H2095    1.0000 0.09505  0.41052  0.96444  Biso   1.000  H
  C1639    1.0000 0.03536  0.49842  0.97812  Biso   1.000  C
  C1640    1.0000 0.94024  0.76567  0.95737  Biso   1.000  C
  C1641    1.0000 0.94017  0.76567  0.95737  Biso   1.000  C
  H2096    1.0000 0.99888  0.61962  0.98604  Biso   1.000  H
  H2097    1.0000 0.99877  0.61953  0.98604  Biso   1.000  H
  H2098    1.0000 0.99881  0.61962  0.98604  Biso   1.000  H
  H2099    1.0000 0.12346  0.67288  0.97893  Biso   1.000  H
  H2100    1.0000 0.12354  0.67288  0.97893  Biso   1.000  H
  H2101    1.0000 0.47584  0.97080  0.83374  Biso   1.000  H
  H2102    1.0000 0.52758  0.89445  0.83943  Biso   1.000  H
  H2103    1.0000 0.47587  0.97072  0.83374  Biso   1.000  H
  H2104    1.0000 0.47591  0.97080  0.83374  Biso   1.000  H
  C1642    1.0000 0.58224  0.03764  0.85260  Biso   1.000  C
  C1643    1.0000 0.58220  0.03755  0.85260  Biso   1.000  C
  C1644    1.0000 0.38239  0.13540  0.88763  Biso   1.000  C
  H2105    1.0000 0.50884  0.14088  0.84914  Biso   1.000  H
  H2106    1.0000 0.58821  0.17729  0.86443  Biso   1.000  H
  H2107    1.0000 0.58835  0.17729  0.86443  Biso   1.000  H
  C1645    1.0000 0.02924  0.11197  0.95762  Biso   1.000  C
  C1646    1.0000 0.88803  0.91729  0.95762  Biso   1.000  C
  C1647    1.0000 0.88796  0.91729  0.95762  Biso   1.000  C
  H2108    1.0000 0.79630  0.17788  0.94623  Biso   1.000  H
  H2109    1.0000 0.92616  0.21134  0.94574  Biso   1.000  H
  H2110    1.0000 0.87287  0.22710  0.96163  Biso   1.000  H
  H2111    1.0000 0.92611  0.21125  0.94574  Biso   1.000  H
  H2112    1.0000 0.79637  0.17788  0.94623  Biso   1.000  H
  H2113    1.0000 0.87295  0.22710  0.96163  Biso   1.000  H
  C1648    1.0000 0.22460  0.32958  0.89644  Biso   1.000  C
  C1649    1.0000 0.26519  0.21690  0.87927  Biso   1.000  C
  C1650    1.0000 0.26526  0.21690  0.87927  Biso   1.000  C
  H2114    1.0000 0.06727  0.23738  0.84743  Biso   1.000  H
  H2115    1.0000 0.02355  0.14147  0.86073  Biso   1.000  H
  H2116    1.0000 0.14384  0.18513  0.85264  Biso   1.000  H
  H2117    1.0000 0.02362  0.14147  0.86073  Biso   1.000  H
  H2118    1.0000 0.14379  0.18504  0.85264  Biso   1.000  H
  H2119    1.0000 0.95533  0.43850  0.97753  Biso   1.000  H
  H2120    1.0000 0.95529  0.43842  0.97753  Biso   1.000  H
  H2121    1.0000 0.95526  0.43850  0.97753  Biso   1.000  H
  H2122    1.0000 0.06674  0.49025  0.98823  Biso   1.000  H
  H2123    1.0000 0.06682  0.49025  0.98823  Biso   1.000  H
  C1651    1.0000 0.97000  0.88796  0.95757  Biso   1.000  C
  C1652    1.0000 0.82012  0.67827  0.95229  Biso   1.000  C
  C1653    1.0000 0.82005  0.67827  0.95229  Biso   1.000  C
  H2124    1.0000 0.65042  0.08349  0.84613  Biso   1.000  H
  H2125    1.0000 0.60421  0.00873  0.86183  Biso   1.000  H
  H2126    1.0000 0.60424  0.00865  0.86183  Biso   1.000  H
  H2127    1.0000 0.60428  0.00873  0.86183  Biso   1.000  H
  H2128    1.0000 0.65027  0.08349  0.84613  Biso   1.000  H
  H2129    1.0000 0.60417  0.00865  0.86183  Biso   1.000  H
  C1654    1.0000 0.47269  0.13734  0.89983  Biso   1.000  C
  C1655    1.0000 0.47265  0.13725  0.89983  Biso   1.000  C
  C1656    1.0000 0.33210  0.20737  0.89047  Biso   1.000  C
  C1657    1.0000 0.40962  0.08930  0.90223  Biso   1.000  C
  C1658    1.0000 0.11204  0.08197  0.95757  Biso   1.000  C
  H2130    1.0000 0.04982  0.18934  0.95764  Biso   1.000  H
  H2131    1.0000 0.04978  0.18925  0.95764  Biso   1.000  H
  H2132    1.0000 0.04963  0.18925  0.95764  Biso   1.000  H
  H2133    1.0000 0.81073  0.86048  0.95764  Biso   1.000  H
  H2134    1.0000 0.81065  0.86048  0.95764  Biso   1.000  H
  C1659    1.0000 0.28771  0.31888  0.90780  Biso   1.000  C
  H2135    1.0000 0.18644  0.37003  0.89863  Biso   1.000  H
  H2136    1.0000 0.18640  0.36995  0.89863  Biso   1.000  H
  H2137    1.0000 0.25309  0.17678  0.86963  Biso   1.000  H
  H2138    1.0000 0.25316  0.17678  0.86963  Biso   1.000  H
  C1660    1.0000 0.08280  0.97080  0.95762  Biso   1.000  C
  C1661    1.0000 0.08276  0.97072  0.95762  Biso   1.000  C
  H2139    1.0000 0.82210  0.61844  0.94623  Biso   1.000  H
  H2140    1.0000 0.78871  0.71485  0.94574  Biso   1.000  H
  H2141    1.0000 0.77291  0.64574  0.96163  Biso   1.000  H
  H2142    1.0000 0.82203  0.61844  0.94623  Biso   1.000  H
  H2143    1.0000 0.78863  0.71485  0.94574  Biso   1.000  H
  H2144    1.0000 0.77284  0.64574  0.96163  Biso   1.000  H
  H2145    1.0000 0.47735  0.06857  0.89843  Biso   1.000  H
  H2146    1.0000 0.44861  0.14012  0.91064  Biso   1.000  H
  H2147    1.0000 0.54638  0.20341  0.89784  Biso   1.000  H
  H2148    1.0000 0.44857  0.14004  0.91064  Biso   1.000  H
  H2149    1.0000 0.54646  0.20341  0.89784  Biso   1.000  H
  C1662    1.0000 0.33858  0.25828  0.90523  Biso   1.000  C
  C1663    1.0000 0.33872  0.25828  0.90523  Biso   1.000  C
  H2150    1.0000 0.48829  0.14079  0.90533  Biso   1.000  H
  H2151    1.0000 0.40026  0.01497  0.89994  Biso   1.000  H
  H2152    1.0000 0.35961  0.08298  0.91084  Biso   1.000  H
  C1664    1.0000 0.23436  0.17451  0.95737  Biso   1.000  C
  C1665    1.0000 0.23443  0.17451  0.95737  Biso   1.000  C
  C1666    1.0000 0.28452  0.36110  0.92436  Biso   1.000  C
  H2153    1.0000 0.13952  0.95024  0.95764  Biso   1.000  H
  H2154    1.0000 0.13960  0.95024  0.95764  Biso   1.000  H
  H2155    1.0000 0.38013  0.24943  0.91353  Biso   1.000  H
  H2156    1.0000 0.38009  0.24935  0.91353  Biso   1.000  H
  H2157    1.0000 0.37995  0.24935  0.91353  Biso   1.000  H
  N217     1.0000 0.25494  0.27303  0.96087  Biso   1.000  N
  C1667    1.0000 0.32172  0.14181  0.95229  Biso   1.000  C
  N218     1.0000 0.25489  0.27294  0.96087  Biso   1.000  N
  N219     1.0000 0.25482  0.27294  0.96087  Biso   1.000  N
  N220     1.0000 0.37057  0.39161  0.93266  Biso   1.000  N
  C1668    1.0000 0.18091  0.36262  0.92859  Biso   1.000  C
  C1669    1.0000 0.18076  0.36262  0.92859  Biso   1.000  C
  C1670    1.0000 0.37041  0.37071  0.96120  Biso   1.000  C
  H2158    1.0000 0.28516  0.07379  0.94574  Biso   1.000  H
  H2159    1.0000 0.38159  0.20358  0.94623  Biso   1.000  H
  H2160    1.0000 0.35432  0.12714  0.96163  Biso   1.000  H
  H2161    1.0000 0.35427  0.12706  0.96163  Biso   1.000  H
  C1671    1.0000 0.38221  0.44774  0.94781  Biso   1.000  C
  C1672    1.0000 0.38217  0.44765  0.94781  Biso   1.000  C
  H2162    1.0000 0.11867  0.30952  0.92183  Biso   1.000  H
  H2163    1.0000 0.11863  0.30944  0.92183  Biso   1.000  H
  H2164    1.0000 0.19283  0.43872  0.92704  Biso   1.000  H
  H2165    1.0000 0.16221  0.34070  0.93963  Biso   1.000  H
  H2166    1.0000 0.19276  0.43872  0.92704  Biso   1.000  H
  H2167    1.0000 0.42644  0.34466  0.96003  Biso   1.000  H
  C1673    1.0000 0.38688  0.43080  0.97742  Biso   1.000  C
  H2168    1.0000 0.32236  0.46889  0.94873  Biso   1.000  H
  C1674    1.0000 0.49919  0.55528  0.94852  Biso   1.000  C
  H2169    1.0000 0.32243  0.46889  0.94873  Biso   1.000  H
  C1675    1.0000 0.49905  0.55528  0.94852  Biso   1.000  C
  C1676    1.0000 0.50154  0.53690  0.97812  Biso   1.000  C
  H2170    1.0000 0.32708  0.45060  0.97893  Biso   1.000  H
  H2171    1.0000 0.38051  0.37922  0.98604  Biso   1.000  H
  H2172    1.0000 0.32716  0.45060  0.97893  Biso   1.000  H
  C1677    1.0000 0.50146  0.53690  0.97812  Biso   1.000  C
  H2173    1.0000 0.55870  0.53488  0.94733  Biso   1.000  H
  H2174    1.0000 0.50682  0.60601  0.93973  Biso   1.000  H
  C1678    1.0000 0.51410  0.61604  0.96410  Biso   1.000  C
  C1679    1.0000 0.51413  0.61596  0.96410  Biso   1.000  C
  H2175    1.0000 0.55855  0.53488  0.94733  Biso   1.000  H
  H2176    1.0000 0.50675  0.60601  0.93973  Biso   1.000  H
  C1680    1.0000 0.51406  0.61596  0.96410  Biso   1.000  C
  H2177    1.0000 0.56165  0.51685  0.97753  Biso   1.000  H
  H2178    1.0000 0.50981  0.57651  0.98823  Biso   1.000  H
  H2179    1.0000 0.56161  0.51676  0.97753  Biso   1.000  H
  H2180    1.0000 0.56153  0.51676  0.97753  Biso   1.000  H
  H2181    1.0000 0.50966  0.57651  0.98823  Biso   1.000  H
  H2182    1.0000 0.45658  0.63939  0.96504  Biso   1.000  H
  H2183    1.0000 0.58948  0.68448  0.96444  Biso   1.000  H
  H2184    1.0000 0.45665  0.63939  0.96504  Biso   1.000  H
