data_image0
_cell_length_a       26.57
_cell_length_b       26.57
_cell_length_c       22.553
_cell_angle_alpha    90
_cell_angle_beta     90
_cell_angle_gamma    120

_symmetry_space_group_name_H-M    "P 1"
_symmetry_int_tables_number       1

loop_
  _symmetry_equiv_pos_as_xyz
  'x, y, z'

loop_
  _atom_site_label
  _atom_site_occupancy
  _atom_site_fract_x
  _atom_site_fract_y
  _atom_site_fract_z
  _atom_site_thermal_displace_type
  _atom_site_B_iso_or_equiv
  _atom_site_type_symbol
  N1       1.0000 0.51591  0.13698  0.59921  Biso   1.000  N
  C1       1.0000 0.53732  0.19170  0.59633  Biso   1.000  C
  C2       1.0000 0.53372  0.10621  0.55722  Biso   1.000  C
  C3       1.0000 0.51461  0.21860  0.64009  Biso   1.000  C
  C4       1.0000 0.58292  0.23320  0.55390  Biso   1.000  C
  H1       1.0000 0.55451  0.13190  0.52281  Biso   1.000  H
  C5       1.0000 0.47890  0.05219  0.53580  Biso   1.000  C
  C6       1.0000 0.57311  0.08848  0.58852  Biso   1.000  C
  C7       1.0000 0.51972  0.27240  0.62932  Biso   1.000  C
  C8       1.0000 0.49060  0.19031  0.69401  Biso   1.000  C
  H2       1.0000 0.60119  0.21360  0.53399  Biso   1.000  H
  H3       1.0000 0.61254  0.26692  0.57580  Biso   1.000  H
  H4       1.0000 0.56491  0.24619  0.52432  Biso   1.000  H
  H5       1.0000 0.45290  0.06380  0.51629  Biso   1.000  H
  H6       1.0000 0.45801  0.02721  0.57012  Biso   1.000  H
  C9       1.0000 0.49470  0.01808  0.49182  Biso   1.000  C
  N2       1.0000 0.62801  0.13920  0.60520  Biso   1.000  N
  C10      1.0000 0.58743  0.05172  0.54600  Biso   1.000  C
  H7       1.0000 0.55310  0.06510  0.62462  Biso   1.000  H
  C11      1.0000 0.50271  0.29921  0.67162  Biso   1.000  C
  H8       1.0000 0.53511  0.29130  0.59252  Biso   1.000  H
  C12      1.0000 0.47333  0.21621  0.73711  Biso   1.000  C
  H9       1.0000 0.48611  0.15302  0.70133  Biso   1.000  H
  H10      1.0000 0.51610  0.04311  0.45759  Biso   1.000  H
  H11      1.0000 0.45894  0.98396  0.47679  Biso   1.000  H
  C13      1.0000 0.53141  0.99913  0.52281  Biso   1.000  C
  C14      1.0000 0.64229  0.15180  0.65903  Biso   1.000  C
  H12      1.0000 0.61053  0.07601  0.51222  Biso   1.000  H
  H13      1.0000 0.61100  0.03811  0.56720  Biso   1.000  H
  C15      1.0000 0.50953  0.35771  0.65903  Biso   1.000  C
  C16      1.0000 0.47961  0.27070  0.72523  Biso   1.000  C
  C17      1.0000 0.45243  0.18961  0.79741  Biso   1.000  C
  H14      1.0000 0.54141  0.97653  0.49519  Biso   1.000  H
  H15      1.0000 0.50942  0.97353  0.55642  Biso   1.000  H
  C18      1.0000 0.60460  0.12121  0.71179  Biso   1.000  C
  C19      1.0000 0.70082  0.20352  0.67162  Biso   1.000  C
  N3       1.0000 0.51122  0.37201  0.60520  Biso   1.000  N
  C20      1.0000 0.51659  0.39539  0.71179  Biso   1.000  C
  H16      1.0000 0.46791  0.28870  0.75422  Biso   1.000  H
  N4       1.0000 0.43051  0.21299  0.83040  Biso   1.000  N
  C21      1.0000 0.46842  0.14541  0.81843  Biso   1.000  C
  C22      1.0000 0.44038  0.13029  0.80220  Biso   1.000  C
  H17      1.0000 0.56413  0.10891  0.70239  Biso   1.000  H
  H18      1.0000 0.61730  0.14780  0.74580  Biso   1.000  H
  H19      1.0000 0.60802  0.08709  0.72159  Biso   1.000  H
  C23      1.0000 0.72933  0.20891  0.72523  Biso   1.000  C
  C24      1.0000 0.72761  0.24732  0.62932  Biso   1.000  C
  C25      1.0000 0.51541  0.42690  0.58852  Biso   1.000  C
  H20      1.0000 0.54482  0.43589  0.70239  Biso   1.000  H
  H21      1.0000 0.53049  0.38270  0.74580  Biso   1.000  H
  H22      1.0000 0.47910  0.39200  0.72159  Biso   1.000  H
  C26      1.0000 0.41303  0.19422  0.89092  Biso   1.000  C
  H23      1.0000 0.46590  0.14272  0.86170  Biso   1.000  H
  H24      1.0000 0.50822  0.15749  0.80592  Biso   1.000  H
  H25      1.0000 0.44161  0.10739  0.80109  Biso   1.000  H
  H26      1.0000 0.42279  0.11438  0.84091  Biso   1.000  H
  H27      1.0000 0.47668  0.12951  0.79821  Biso   1.000  H
  H28      1.0000 0.41349  0.10678  0.77063  Biso   1.000  H
  H29      1.0000 0.71133  0.17922  0.75422  Biso   1.000  H
  C27      1.0000 0.78380  0.25710  0.73711  Biso   1.000  C
  C28      1.0000 0.78142  0.29600  0.64009  Biso   1.000  C
  H30      1.0000 0.70873  0.24380  0.59252  Biso   1.000  H
  C29      1.0000 0.46430  0.41260  0.54600  Biso   1.000  C
  C30      1.0000 0.57252  0.46631  0.55722  Biso   1.000  C
  H31      1.0000 0.51200  0.44689  0.62462  Biso   1.000  H
  H32      1.0000 0.41969  0.16141  0.90090  Biso   1.000  H
  C31      1.0000 0.34860  0.17518  0.89731  Biso   1.000  C
  C32      1.0000 0.44971  0.24689  0.93189  Biso   1.000  C
  C33      1.0000 0.80973  0.30030  0.69401  Biso   1.000  C
  C34      1.0000 0.81040  0.26280  0.79741  Biso   1.000  C
  C35      1.0000 0.80828  0.34558  0.59633  Biso   1.000  C
  C36      1.0000 0.46773  0.46862  0.52281  Biso   1.000  C
  H33      1.0000 0.46552  0.38952  0.51222  Biso   1.000  H
  H34      1.0000 0.42709  0.38900  0.56720  Biso   1.000  H
  C37      1.0000 0.57332  0.52111  0.53580  Biso   1.000  C
  N5       1.0000 0.62112  0.48409  0.59921  Biso   1.000  N
  H35      1.0000 0.57740  0.44550  0.52281  Biso   1.000  H
  H36      1.0000 0.32528  0.14059  0.87230  Biso   1.000  H
  H37      1.0000 0.34221  0.20682  0.88281  Biso   1.000  H
  C38      1.0000 0.32800  0.16101  0.96173  Biso   1.000  C
  N6       1.0000 0.51062  0.26249  0.92733  Biso   1.000  N
  C39      1.0000 0.43009  0.23120  0.99663  Biso   1.000  C
  H38      1.0000 0.44531  0.28061  0.91930  Biso   1.000  H
  H39      1.0000 0.84702  0.33311  0.70133  Biso   1.000  H
  N7       1.0000 0.78700  0.21751  0.83040  Biso   1.000  N
  C40      1.0000 0.85461  0.32299  0.81843  Biso   1.000  C
  C41      1.0000 0.86970  0.31012  0.80220  Biso   1.000  C
  N8       1.0000 0.86300  0.37892  0.59921  Biso   1.000  N
  C42      1.0000 0.76680  0.34971  0.55390  Biso   1.000  C
  C43      1.0000 0.52340  0.50530  0.49182  Biso   1.000  C
  H40      1.0000 0.43511  0.45862  0.49519  Biso   1.000  H
  H41      1.0000 0.46412  0.49061  0.55642  Biso   1.000  H
  H42      1.0000 0.61092  0.54710  0.51629  Biso   1.000  H
  H43      1.0000 0.56920  0.54202  0.57012  Biso   1.000  H
  C44      1.0000 0.65442  0.46271  0.59633  Biso   1.000  C
  H44      1.0000 0.28700  0.15150  0.96453  Biso   1.000  H
  H45      1.0000 0.33022  0.12660  0.97490  Biso   1.000  H
  C45      1.0000 0.36550  0.21230  0.00231  Biso   1.000  C
  C46      1.0000 0.54781  0.31090  0.90600  Biso   1.000  C
  H46      1.0000 0.45351  0.26540  0.02230  Biso   1.000  H
  H47      1.0000 0.43650  0.19930  0.00971  Biso   1.000  H
  C47      1.0000 0.80583  0.21882  0.89092  Biso   1.000  C
  H48      1.0000 0.85731  0.32320  0.86170  Biso   1.000  H
  H49      1.0000 0.84250  0.35071  0.80592  Biso   1.000  H
  H50      1.0000 0.89262  0.33420  0.80109  Biso   1.000  H
  H51      1.0000 0.88558  0.30838  0.84091  Biso   1.000  H
  H52      1.0000 0.87051  0.34719  0.79821  Biso   1.000  H
  H53      1.0000 0.89320  0.30669  0.77063  Biso   1.000  H
  C48      1.0000 0.89380  0.42750  0.55722  Biso   1.000  C
  H54      1.0000 0.78643  0.38761  0.53399  Biso   1.000  H
  H55      1.0000 0.73309  0.34558  0.57580  Biso   1.000  H
  H56      1.0000 0.75381  0.31868  0.52432  Biso   1.000  H
  H57      1.0000 0.52501  0.54111  0.47679  Biso   1.000  H
  H58      1.0000 0.52702  0.48391  0.45759  Biso   1.000  H
  C49      1.0000 0.70401  0.48539  0.64009  Biso   1.000  C
  C50      1.0000 0.65030  0.41712  0.55390  Biso   1.000  C
  H59      1.0000 0.35989  0.24541  0.99202  Biso   1.000  H
  H60      1.0000 0.35312  0.20130  0.04390  Biso   1.000  H
  C51      1.0000 0.60962  0.32372  0.90392  Biso   1.000  C
  C52      1.0000 0.53711  0.35793  0.88112  Biso   1.000  C
  C53      1.0000 0.75312  0.20282  0.93189  Biso   1.000  C
  H61      1.0000 0.83861  0.25832  0.90090  Biso   1.000  H
  C54      1.0000 0.82483  0.17340  0.89731  Biso   1.000  C
  C55      1.0000 0.91152  0.48461  0.58852  Biso   1.000  C
  H62      1.0000 0.86809  0.42259  0.52281  Biso   1.000  H
  C56      1.0000 0.94784  0.42672  0.53580  Biso   1.000  C
  C57      1.0000 0.69973  0.50942  0.69401  Biso   1.000  C
  C58      1.0000 0.75272  0.48031  0.62932  Biso   1.000  C
  H63      1.0000 0.61243  0.39882  0.53399  Biso   1.000  H
  H64      1.0000 0.65443  0.38752  0.57580  Biso   1.000  H
  H65      1.0000 0.68131  0.43511  0.52432  Biso   1.000  H
  C59      1.0000 0.65639  0.37970  0.90400  Biso   1.000  C
  C60      1.0000 0.62032  0.27670  0.90400  Biso   1.000  C
  H66      1.0000 0.50061  0.33972  0.85860  Biso   1.000  H
  H67      1.0000 0.56930  0.38339  0.85492  Biso   1.000  H
  H68      1.0000 0.53430  0.38061  0.91380  Biso   1.000  H
  N9       1.0000 0.73751  0.24815  0.92733  Biso   1.000  N
  C61      1.0000 0.76882  0.19891  0.99663  Biso   1.000  C
  H69      1.0000 0.71943  0.16471  0.91930  Biso   1.000  H
  H70      1.0000 0.85942  0.18470  0.87230  Biso   1.000  H
  H71      1.0000 0.79323  0.13542  0.88281  Biso   1.000  H
  C62      1.0000 0.83902  0.16701  0.96173  Biso   1.000  C
  N10      1.0000 0.86082  0.48882  0.60520  Biso   1.000  N
  C63      1.0000 0.94833  0.53572  0.54600  Biso   1.000  C
  H72      1.0000 0.93489  0.48800  0.62462  Biso   1.000  H
  H73      1.0000 0.93621  0.38909  0.51629  Biso   1.000  H
  H74      1.0000 0.97280  0.43081  0.57012  Biso   1.000  H
  C64      1.0000 0.98193  0.47661  0.49182  Biso   1.000  C
  C65      1.0000 0.74292  0.52672  0.73711  Biso   1.000  C
  H75      1.0000 0.66692  0.51390  0.70133  Biso   1.000  H
  C66      1.0000 0.79652  0.49730  0.67162  Biso   1.000  C
  H76      1.0000 0.75621  0.46492  0.59252  Biso   1.000  H
  C67      1.0000 0.71409  0.39039  0.90392  Biso   1.000  C
  H77      1.0000 0.64972  0.41160  0.90409  Biso   1.000  H
  H78      1.0000 0.58842  0.23811  0.90409  Biso   1.000  H
  C68      1.0000 0.67630  0.28592  0.90392  Biso   1.000  C
  C69      1.0000 0.68909  0.23689  0.90600  Biso   1.000  C
  C70      1.0000 0.78770  0.15319  0.00231  Biso   1.000  C
  H79      1.0000 0.73462  0.18809  0.02230  Biso   1.000  H
  H80      1.0000 0.80072  0.23720  0.00971  Biso   1.000  H
  H81      1.0000 0.84852  0.13550  0.96453  Biso   1.000  H
  H82      1.0000 0.87342  0.20360  0.97490  Biso   1.000  H
  C71      1.0000 0.84823  0.49052  0.65903  Biso   1.000  C
  H83      1.0000 0.92401  0.53450  0.51222  Biso   1.000  H
  H84      1.0000 0.96192  0.57292  0.56720  Biso   1.000  H
  C72      1.0000 0.00094  0.53233  0.52281  Biso   1.000  C
  H85      1.0000 0.95690  0.47301  0.45759  Biso   1.000  H
  H86      1.0000 0.01612  0.47500  0.47679  Biso   1.000  H
  C73      1.0000 0.79111  0.52042  0.72523  Biso   1.000  C
  C74      1.0000 0.73723  0.54762  0.79741  Biso   1.000  C
  C75      1.0000 0.76309  0.45219  0.90600  Biso   1.000  C
  C76      1.0000 0.72332  0.34359  0.90400  Biso   1.000  C
  C77      1.0000 0.64211  0.17922  0.88112  Biso   1.000  C
  H87      1.0000 0.75462  0.11451  0.99202  Biso   1.000  H
  H88      1.0000 0.79871  0.15180  0.04390  Biso   1.000  H
  C78      1.0000 0.87881  0.48339  0.71179  Biso   1.000  C
  H89      1.0000 0.02352  0.56492  0.49519  Biso   1.000  H
  H90      1.0000 0.02651  0.53589  0.55642  Biso   1.000  H
  H91      1.0000 0.82082  0.53211  0.75422  Biso   1.000  H
  N11      1.0000 0.78251  0.56953  0.83040  Biso   1.000  N
  C79      1.0000 0.67701  0.53159  0.81843  Biso   1.000  C
  C80      1.0000 0.68993  0.55962  0.80220  Biso   1.000  C
  N12      1.0000 0.75188  0.48939  0.92733  Biso   1.000  N
  C81      1.0000 0.82081  0.46292  0.88112  Biso   1.000  C
  H92      1.0000 0.76191  0.35032  0.90409  Biso   1.000  H
  H93      1.0000 0.66031  0.16088  0.85860  Biso   1.000  H
  H94      1.0000 0.61663  0.18592  0.85492  Biso   1.000  H
  H95      1.0000 0.61942  0.15371  0.91380  Biso   1.000  H
  H96      1.0000 0.89109  0.45519  0.70239  Biso   1.000  H
  H97      1.0000 0.85221  0.46949  0.74580  Biso   1.000  H
  H98      1.0000 0.91291  0.52090  0.72159  Biso   1.000  H
  C82      1.0000 0.78119  0.58700  0.89092  Biso   1.000  C
  H99      1.0000 0.67680  0.53411  0.86170  Biso   1.000  H
  H100     1.0000 0.64930  0.49182  0.80592  Biso   1.000  H
  H101     1.0000 0.66580  0.55840  0.80109  Biso   1.000  H
  H102     1.0000 0.69162  0.57722  0.84091  Biso   1.000  H
  H103     1.0000 0.65280  0.52329  0.79821  Biso   1.000  H
  H104     1.0000 0.69330  0.58652  0.77063  Biso   1.000  H
  C83      1.0000 0.79721  0.55032  0.93189  Biso   1.000  C
  H105     1.0000 0.83914  0.49943  0.85860  Biso   1.000  H
  H106     1.0000 0.81412  0.43072  0.85492  Biso   1.000  H
  H107     1.0000 0.84633  0.46570  0.91380  Biso   1.000  H
  H108     1.0000 0.74171  0.58031  0.90090  Biso   1.000  H
  C84      1.0000 0.82661  0.65140  0.89731  Biso   1.000  C
  C85      1.0000 0.80111  0.56992  0.99663  Biso   1.000  C
  H109     1.0000 0.83531  0.55471  0.91930  Biso   1.000  H
  H110     1.0000 0.81529  0.67470  0.87230  Biso   1.000  H
  H111     1.0000 0.86461  0.65779  0.88281  Biso   1.000  H
  C86      1.0000 0.83299  0.67200  0.96173  Biso   1.000  C
  C87      1.0000 0.84679  0.63450  0.00231  Biso   1.000  C
  H112     1.0000 0.81190  0.54649  0.02230  Biso   1.000  H
  H113     1.0000 0.76281  0.56349  0.00971  Biso   1.000  H
  H114     1.0000 0.86453  0.71303  0.96453  Biso   1.000  H
  H115     1.0000 0.79641  0.66983  0.97490  Biso   1.000  H
  H116     1.0000 0.88550  0.64010  0.99202  Biso   1.000  H
  H117     1.0000 0.84823  0.64693  0.04390  Biso   1.000  H
  C88      1.0000 0.42664  0.20547  0.49115  Biso   1.000  C
  C89      1.0000 0.44673  0.22255  0.42779  Biso   1.000  C
  C90      1.0000 0.35964  0.17627  0.49479  Biso   1.000  C
  H118     1.0000 0.44473  0.24046  0.51678  Biso   1.000  H
  H119     1.0000 0.43903  0.17818  0.50565  Biso   1.000  H
  C91      1.0000 0.41815  0.17005  0.38629  Biso   1.000  C
  N13      1.0000 0.50993  0.24689  0.42469  Biso   1.000  N
  H120     1.0000 0.43694  0.25258  0.41427  Biso   1.000  H
  C92      1.0000 0.33103  0.12438  0.45355  Biso   1.000  C
  H121     1.0000 0.34672  0.16345  0.53598  Biso   1.000  H
  H122     1.0000 0.34743  0.20469  0.48366  Biso   1.000  H
  C93      1.0000 0.35164  0.14137  0.39028  Biso   1.000  C
  N14      1.0000 0.43643  0.19135  0.32599  Biso   1.000  N
  H123     1.0000 0.43065  0.14146  0.39689  Biso   1.000  H
  C94      1.0000 0.54423  0.29848  0.40948  Biso   1.000  C
  H124     1.0000 0.34021  0.09435  0.46699  Biso   1.000  H
  H125     1.0000 0.28822  0.10726  0.45506  Biso   1.000  H
  H126     1.0000 0.33944  0.16875  0.37556  Biso   1.000  H
  H127     1.0000 0.33355  0.10647  0.36479  Biso   1.000  H
  C95      1.0000 0.46544  0.17566  0.29486  Biso   1.000  C
  C96      1.0000 0.60754  0.31708  0.40828  Biso   1.000  C
  C97      1.0000 0.52915  0.34215  0.37999  Biso   1.000  C
  C98      1.0000 0.52624  0.34289  0.40908  Biso   1.000  C
  C99      1.0000 0.48393  0.20317  0.23509  Biso   1.000  C
  C100     1.0000 0.48744  0.13507  0.31459  Biso   1.000  C
  C101     1.0000 0.62433  0.27449  0.40837  Biso   1.000  C
  C102     1.0000 0.65012  0.37566  0.40837  Biso   1.000  C
  H128     1.0000 0.54402  0.35006  0.33916  Biso   1.000  H
  H129     1.0000 0.54713  0.37857  0.40256  Biso   1.000  H
  H130     1.0000 0.48694  0.32555  0.37937  Biso   1.000  H
  H131     1.0000 0.51512  0.34706  0.36878  Biso   1.000  H
  H132     1.0000 0.49305  0.33076  0.43577  Biso   1.000  H
  H133     1.0000 0.55866  0.38009  0.42247  Biso   1.000  H
  C103     1.0000 0.50524  0.18135  0.19155  Biso   1.000  C
  C104     1.0000 0.48204  0.25419  0.22268  Biso   1.000  C
  H134     1.0000 0.49285  0.13768  0.35769  Biso   1.000  H
  H135     1.0000 0.52467  0.14659  0.29508  Biso   1.000  H
  H136     1.0000 0.45906  0.09509  0.30355  Biso   1.000  H
  H137     1.0000 0.59544  0.23446  0.40859  Biso   1.000  H
  C105     1.0000 0.68295  0.29048  0.40828  Biso   1.000  C
  C106     1.0000 0.70956  0.39248  0.40828  Biso   1.000  C
  H138     1.0000 0.63905  0.40456  0.40859  Biso   1.000  H
  C107     1.0000 0.52435  0.20956  0.13639  Biso   1.000  C
  H139     1.0000 0.50695  0.14706  0.19926  Biso   1.000  H
  C108     1.0000 0.50105  0.28257  0.16858  Biso   1.000  C
  H140     1.0000 0.46735  0.26936  0.25176  Biso   1.000  H
  C109     1.0000 0.70154  0.24576  0.40948  Biso   1.000  C
  C110     1.0000 0.72556  0.34989  0.40837  Biso   1.000  C
  C111     1.0000 0.75422  0.45575  0.40948  Biso   1.000  C
  C112     1.0000 0.52235  0.26027  0.12526  Biso   1.000  C
  C113     1.0000 0.54826  0.18579  0.09138  Biso   1.000  C
  C114     1.0000 0.49883  0.33707  0.15648  Biso   1.000  C
  N15      1.0000 0.75313  0.26306  0.42469  Biso   1.000  N
  C115     1.0000 0.65784  0.18696  0.37999  Biso   1.000  C
  C116     1.0000 0.65713  0.18335  0.40908  Biso   1.000  C
  H141     1.0000 0.76554  0.36097  0.40859  Biso   1.000  H
  N16      1.0000 0.73695  0.49008  0.42469  Biso   1.000  N
  C117     1.0000 0.81304  0.47088  0.37999  Biso   1.000  C
  C118     1.0000 0.81665  0.47379  0.40908  Biso   1.000  C
  H142     1.0000 0.53543  0.27966  0.08828  Biso   1.000  H
  N17      1.0000 0.53314  0.13238  0.09666  Biso   1.000  N
  C119     1.0000 0.58866  0.22829  0.04545  Biso   1.000  C
  N18      1.0000 0.49892  0.35102  0.10225  Biso   1.000  N
  C120     1.0000 0.50176  0.37379  0.20889  Biso   1.000  C
  C121     1.0000 0.77745  0.22416  0.42779  Biso   1.000  C
  H143     1.0000 0.64993  0.19396  0.33916  Biso   1.000  H
  H144     1.0000 0.62144  0.16858  0.40256  Biso   1.000  H
  H145     1.0000 0.67443  0.16136  0.37937  Biso   1.000  H
  H146     1.0000 0.65294  0.16806  0.36878  Biso   1.000  H
  H147     1.0000 0.66924  0.16228  0.43577  Biso   1.000  H
  H148     1.0000 0.61996  0.17857  0.42247  Biso   1.000  H
  C122     1.0000 0.77585  0.55327  0.42779  Biso   1.000  C
  H149     1.0000 0.80604  0.45597  0.33916  Biso   1.000  H
  H150     1.0000 0.83145  0.45288  0.40256  Biso   1.000  H
  H151     1.0000 0.83866  0.51307  0.37937  Biso   1.000  H
  H152     1.0000 0.83193  0.48487  0.36878  Biso   1.000  H
  H153     1.0000 0.83776  0.50699  0.43577  Biso   1.000  H
  H154     1.0000 0.82144  0.44137  0.42247  Biso   1.000  H
  C123     1.0000 0.55313  0.10408  0.05565  Biso   1.000  C
  H155     1.0000 0.61952  0.26275  0.06536  Biso   1.000  H
  H156     1.0000 0.56663  0.23976  0.01938  Biso   1.000  H
  H157     1.0000 0.60594  0.20978  0.02195  Biso   1.000  H
  C124     1.0000 0.49465  0.40217  0.08677  Biso   1.000  C
  H158     1.0000 0.52195  0.41477  0.19727  Biso   1.000  H
  H159     1.0000 0.52294  0.36805  0.24125  Biso   1.000  H
  H160     1.0000 0.46236  0.36227  0.22197  Biso   1.000  H
  C125     1.0000 0.82994  0.24806  0.38629  Biso   1.000  C
  C126     1.0000 0.79455  0.22116  0.49115  Biso   1.000  C
  H161     1.0000 0.74743  0.18435  0.41427  Biso   1.000  H
  C127     1.0000 0.75194  0.58187  0.38629  Biso   1.000  C
  C128     1.0000 0.77887  0.57340  0.49115  Biso   1.000  C
  H162     1.0000 0.81565  0.56310  0.41427  Biso   1.000  H
  H163     1.0000 0.57136  0.12946  0.02035  Biso   1.000  H
  C129     1.0000 0.50155  0.04585  0.03605  Biso   1.000  C
  C130     1.0000 0.59784  0.09248  0.08677  Biso   1.000  C
  C131     1.0000 0.55096  0.44689  0.05565  Biso   1.000  C
  C132     1.0000 0.44293  0.38326  0.04505  Biso   1.000  C
  H164     1.0000 0.48873  0.41977  0.12349  Biso   1.000  H
  N19      1.0000 0.80864  0.24506  0.32599  Biso   1.000  N
  H165     1.0000 0.85855  0.28917  0.39689  Biso   1.000  H
  C133     1.0000 0.85865  0.21025  0.39028  Biso   1.000  C
  C134     1.0000 0.82374  0.18335  0.49479  Biso   1.000  C
  H166     1.0000 0.75952  0.20426  0.51678  Biso   1.000  H
  H167     1.0000 0.82186  0.26088  0.50565  Biso   1.000  H
  N20      1.0000 0.75495  0.56357  0.32599  Biso   1.000  N
  H168     1.0000 0.71083  0.56935  0.39689  Biso   1.000  H
  C135     1.0000 0.78974  0.64836  0.39028  Biso   1.000  C
  C136     1.0000 0.81664  0.64037  0.49479  Biso   1.000  C
  H169     1.0000 0.79574  0.55527  0.51678  Biso   1.000  H
  H170     1.0000 0.73916  0.56097  0.50565  Biso   1.000  H
  H171     1.0000 0.48192  0.02225  0.07165  Biso   1.000  H
  H172     1.0000 0.47313  0.05315  0.01485  Biso   1.000  H
  C137     1.0000 0.51974  0.01186  0.99597  Biso   1.000  C
  N21      1.0000 0.64899  0.14789  0.10225  Biso   1.000  N
  C138     1.0000 0.61674  0.05967  0.04505  Biso   1.000  C
  H173     1.0000 0.58025  0.06897  0.12349  Biso   1.000  H
  N22      1.0000 0.59923  0.46688  0.09666  Biso   1.000  N
  H174     1.0000 0.55815  0.42868  0.02035  Biso   1.000  H
  C139     1.0000 0.54434  0.49847  0.03605  Biso   1.000  C
  C140     1.0000 0.43734  0.43515  0.02527  Biso   1.000  C
  H175     1.0000 0.44804  0.36397  0.00989  Biso   1.000  H
  H176     1.0000 0.40685  0.35475  0.06558  Biso   1.000  H
  C141     1.0000 0.82434  0.28978  0.29486  Biso   1.000  C
  H177     1.0000 0.83125  0.17066  0.37556  Biso   1.000  H
  H178     1.0000 0.89355  0.22707  0.36479  Biso   1.000  H
  C142     1.0000 0.87564  0.20669  0.45355  Biso   1.000  C
  H179     1.0000 0.83653  0.18327  0.53598  Biso   1.000  H
  H180     1.0000 0.79536  0.14276  0.48366  Biso   1.000  H
  C143     1.0000 0.71024  0.53459  0.29486  Biso   1.000  C
  H181     1.0000 0.82935  0.66057  0.37556  Biso   1.000  H
  H182     1.0000 0.77295  0.66648  0.36479  Biso   1.000  H
  C144     1.0000 0.79334  0.66896  0.45355  Biso   1.000  C
  H183     1.0000 0.81674  0.65327  0.53598  Biso   1.000  H
  H184     1.0000 0.85726  0.65258  0.48366  Biso   1.000  H
  C145     1.0000 0.56484  0.00217  0.02527  Biso   1.000  C
  H185     1.0000 0.48527  0.97392  0.98625  Biso   1.000  H
  H186     1.0000 0.53552  0.03355  0.95845  Biso   1.000  H
  C146     1.0000 0.66292  0.16175  0.15648  Biso   1.000  C
  H187     1.0000 0.63604  0.08405  0.00989  Biso   1.000  H
  H188     1.0000 0.64523  0.05206  0.06558  Biso   1.000  H
  C147     1.0000 0.63754  0.45175  0.09138  Biso   1.000  C
  H189     1.0000 0.54033  0.51807  0.07165  Biso   1.000  H
  H190     1.0000 0.58004  0.52689  0.01485  Biso   1.000  H
  C148     1.0000 0.49215  0.48026  0.99597  Biso   1.000  C
  H191     1.0000 0.42896  0.45249  0.06008  Biso   1.000  H
  H192     1.0000 0.40453  0.42185  0.99707  Biso   1.000  H
  C149     1.0000 0.79685  0.28079  0.23509  Biso   1.000  C
  C150     1.0000 0.86493  0.35236  0.31459  Biso   1.000  C
  H193     1.0000 0.90567  0.24589  0.46699  Biso   1.000  H
  H194     1.0000 0.89274  0.18096  0.45506  Biso   1.000  H
  C151     1.0000 0.71923  0.51607  0.23509  Biso   1.000  C
  C152     1.0000 0.64762  0.51255  0.31459  Biso   1.000  C
  H195     1.0000 0.75413  0.65979  0.46699  Biso   1.000  H
  H196     1.0000 0.81904  0.71177  0.45506  Biso   1.000  H
  H197     1.0000 0.57818  0.98270  0.99707  Biso   1.000  H
  H198     1.0000 0.54756  0.97649  0.06008  Biso   1.000  H
  C153     1.0000 0.62624  0.12799  0.20889  Biso   1.000  C
  C154     1.0000 0.71744  0.21847  0.16858  Biso   1.000  C
  C155     1.0000 0.68525  0.47566  0.13639  Biso   1.000  C
  C156     1.0000 0.63964  0.41138  0.04545  Biso   1.000  C
  H199     1.0000 0.48862  0.51477  0.98625  Biso   1.000  H
  H200     1.0000 0.49803  0.46449  0.95845  Biso   1.000  H
  C157     1.0000 0.74584  0.22785  0.22268  Biso   1.000  C
  C158     1.0000 0.81865  0.32386  0.19155  Biso   1.000  C
  H201     1.0000 0.86235  0.35519  0.35769  Biso   1.000  H
  H202     1.0000 0.85344  0.37809  0.29508  Biso   1.000  H
  H203     1.0000 0.90494  0.36397  0.30355  Biso   1.000  H
  C159     1.0000 0.67614  0.49478  0.19155  Biso   1.000  C
  C160     1.0000 0.77217  0.51799  0.22268  Biso   1.000  C
  H204     1.0000 0.64485  0.50716  0.35769  Biso   1.000  H
  H205     1.0000 0.62194  0.47535  0.29508  Biso   1.000  H
  H206     1.0000 0.63605  0.54098  0.30355  Biso   1.000  H
  H207     1.0000 0.58524  0.10717  0.19727  Biso   1.000  H
  H208     1.0000 0.63194  0.15489  0.24125  Biso   1.000  H
  H209     1.0000 0.63774  0.10009  0.22197  Biso   1.000  H
  C161     1.0000 0.73972  0.26206  0.12526  Biso   1.000  C
  C162     1.0000 0.73792  0.47766  0.12526  Biso   1.000  C
  H210     1.0000 0.64323  0.38048  0.06536  Biso   1.000  H
  H211     1.0000 0.67314  0.43337  0.01938  Biso   1.000  H
  H212     1.0000 0.60385  0.39408  0.02195  Biso   1.000  H
  H213     1.0000 0.73063  0.19795  0.25176  Biso   1.000  H
  C163     1.0000 0.79043  0.31477  0.13639  Biso   1.000  C
  H214     1.0000 0.85296  0.35988  0.19926  Biso   1.000  H
  H215     1.0000 0.64014  0.49308  0.19926  Biso   1.000  H
  C164     1.0000 0.78156  0.49899  0.16858  Biso   1.000  C
  H216     1.0000 0.80205  0.53267  0.25176  Biso   1.000  H
  H217     1.0000 0.72035  0.25576  0.08828  Biso   1.000  H
  H218     1.0000 0.74426  0.46457  0.08828  Biso   1.000  H
  C165     1.0000 0.81425  0.36249  0.09138  Biso   1.000  C
  C166     1.0000 0.83824  0.50117  0.15648  Biso   1.000  C
  N23      1.0000 0.86764  0.40078  0.09666  Biso   1.000  N
  C167     1.0000 0.77175  0.36036  0.04545  Biso   1.000  C
  N24      1.0000 0.85212  0.50108  0.10225  Biso   1.000  N
  C168     1.0000 0.87205  0.49826  0.20889  Biso   1.000  C
  C169     1.0000 0.89593  0.44906  0.05565  Biso   1.000  C
  H219     1.0000 0.73724  0.35675  0.06536  Biso   1.000  H
  H220     1.0000 0.76023  0.32685  0.01938  Biso   1.000  H
  H221     1.0000 0.79026  0.39617  0.02195  Biso   1.000  H
  C170     1.0000 0.90757  0.50538  0.08677  Biso   1.000  C
  H222     1.0000 0.89287  0.47809  0.19727  Biso   1.000  H
  H223     1.0000 0.84517  0.47709  0.24125  Biso   1.000  H
  H224     1.0000 0.89996  0.53767  0.22197  Biso   1.000  H
  H225     1.0000 0.87055  0.44189  0.02035  Biso   1.000  H
  C171     1.0000 0.95414  0.45567  0.03605  Biso   1.000  C
  C172     1.0000 0.94033  0.55706  0.04505  Biso   1.000  C
  H226     1.0000 0.93107  0.51129  0.12349  Biso   1.000  H
  H227     1.0000 0.97774  0.45966  0.07165  Biso   1.000  H
  H228     1.0000 0.94684  0.41999  0.01485  Biso   1.000  H
  C173     1.0000 0.98814  0.50786  0.99597  Biso   1.000  C
  C174     1.0000 0.99785  0.56266  0.02527  Biso   1.000  C
  H229     1.0000 0.91596  0.55197  0.00989  Biso   1.000  H
  H230     1.0000 0.94796  0.59317  0.06558  Biso   1.000  H
  H231     1.0000 0.96646  0.50199  0.95845  Biso   1.000  H
  H232     1.0000 0.02615  0.51138  0.98625  Biso   1.000  H
  H233     1.0000 0.01734  0.59547  0.99707  Biso   1.000  H
  H234     1.0000 0.02356  0.57109  0.06008  Biso   1.000  H
  C175     1.0000 0.20304  0.97679  0.46885  Biso   1.000  C
  C176     1.0000 0.14375  0.92951  0.46406  Biso   1.000  C
  H235     1.0000 0.22595  0.00087  0.46779  Biso   1.000  H
  H236     1.0000 0.22591  0.00087  0.46779  Biso   1.000  H
  H237     1.0000 0.20385  0.01386  0.46486  Biso   1.000  H
  H238     1.0000 0.21894  0.97510  0.50756  Biso   1.000  H
  H239     1.0000 0.22656  0.97340  0.43728  Biso   1.000  H
  C177     1.0000 0.11716  0.92382  0.40376  Biso   1.000  C
  C178     1.0000 0.11714  0.92377  0.40376  Biso   1.000  C
  C179     1.0000 0.11712  0.92382  0.40376  Biso   1.000  C
  N25      1.0000 0.12036  0.88423  0.49705  Biso   1.000  N
  C180     1.0000 0.18796  0.98970  0.48508  Biso   1.000  C
  N26      1.0000 0.12034  0.88418  0.49705  Biso   1.000  N
  C181     1.0000 0.18793  0.98970  0.48508  Biso   1.000  C
  C182     1.0000 0.14305  0.96701  0.36066  Biso   1.000  C
  C183     1.0000 0.14309  0.96701  0.36066  Biso   1.000  C
  C184     1.0000 0.06265  0.87562  0.39188  Biso   1.000  C
  C185     1.0000 0.06263  0.87558  0.39188  Biso   1.000  C
  C186     1.0000 0.06267  0.87558  0.39188  Biso   1.000  C
  C187     1.0000 0.13915  0.88553  0.55758  Biso   1.000  C
  C188     1.0000 0.13913  0.88549  0.55758  Biso   1.000  C
  C189     1.0000 0.13917  0.88549  0.55758  Biso   1.000  C
  H240     1.0000 0.17584  0.01738  0.47258  Biso   1.000  H
  H241     1.0000 0.17581  0.01734  0.47258  Biso   1.000  H
  H242     1.0000 0.17587  0.01738  0.47258  Biso   1.000  H
  H243     1.0000 0.19067  0.98992  0.52836  Biso   1.000  H
  H244     1.0000 0.19065  0.98987  0.52836  Biso   1.000  H
  H245     1.0000 0.19063  0.98992  0.52836  Biso   1.000  H
  C190     1.0000 0.11474  0.96271  0.30679  Biso   1.000  C
  C191     1.0000 0.11478  0.96271  0.30679  Biso   1.000  C
  H246     1.0000 0.18038  0.99983  0.36798  Biso   1.000  H
  H247     1.0000 0.18032  0.99978  0.36798  Biso   1.000  H
  H248     1.0000 0.18034  0.99983  0.36798  Biso   1.000  H
  H249     1.0000 0.18036  0.99978  0.36798  Biso   1.000  H
  C192     1.0000 0.03415  0.87019  0.33827  Biso   1.000  C
  C193     1.0000 0.03412  0.87019  0.33827  Biso   1.000  C
  H250     1.0000 0.04466  0.84590  0.42088  Biso   1.000  H
  H251     1.0000 0.04463  0.84590  0.42088  Biso   1.000  H
  H252     1.0000 0.17194  0.92499  0.56760  Biso   1.000  H
  C194     1.0000 0.15815  0.84012  0.56396  Biso   1.000  C
  C195     1.0000 0.08646  0.86949  0.59859  Biso   1.000  C
  C196     1.0000 0.15812  0.84007  0.56396  Biso   1.000  C
  C197     1.0000 0.08642  0.86949  0.59859  Biso   1.000  C
  C198     1.0000 0.15816  0.84007  0.56396  Biso   1.000  C
  C199     1.0000 0.14162  0.01226  0.26298  Biso   1.000  C
  C200     1.0000 0.14166  0.01226  0.26298  Biso   1.000  C
  C201     1.0000 0.06095  0.91400  0.29597  Biso   1.000  C
  C202     1.0000 0.06091  0.91400  0.29597  Biso   1.000  C
  C203     1.0000 0.97565  0.81852  0.32568  Biso   1.000  C
  C204     1.0000 0.97563  0.81847  0.32568  Biso   1.000  C
  C205     1.0000 0.97569  0.81852  0.32568  Biso   1.000  C
  H253     1.0000 0.19278  0.85141  0.53895  Biso   1.000  H
  H254     1.0000 0.12656  0.80209  0.54946  Biso   1.000  H
  C206     1.0000 0.17238  0.83373  0.62839  Biso   1.000  C
  H255     1.0000 0.19272  0.85137  0.53895  Biso   1.000  H
  H256     1.0000 0.12652  0.80209  0.54946  Biso   1.000  H
  C207     1.0000 0.17236  0.83368  0.62839  Biso   1.000  C
  H257     1.0000 0.19274  0.85141  0.53895  Biso   1.000  H
  C208     1.0000 0.17234  0.83373  0.62839  Biso   1.000  C
  H258     1.0000 0.19275  0.85137  0.53895  Biso   1.000  H
  N27      1.0000 0.07087  0.91486  0.59402  Biso   1.000  N
  C209     1.0000 0.10218  0.86563  0.66328  Biso   1.000  C
  H259     1.0000 0.05275  0.83142  0.58595  Biso   1.000  H
  N28      1.0000 0.07085  0.91482  0.59402  Biso   1.000  N
  C210     1.0000 0.10212  0.86558  0.66328  Biso   1.000  C
  H260     1.0000 0.05272  0.83138  0.58595  Biso   1.000  H
  C211     1.0000 0.10214  0.86563  0.66328  Biso   1.000  C
  C212     1.0000 0.10215  0.86558  0.66328  Biso   1.000  C
  H261     1.0000 0.05276  0.83138  0.58595  Biso   1.000  H
  N29      1.0000 0.19634  0.04559  0.26586  Biso   1.000  N
  N30      1.0000 0.19631  0.04554  0.26586  Biso   1.000  N
  N31      1.0000 0.19637  0.04559  0.26586  Biso   1.000  N
  C213     1.0000 0.10014  0.01638  0.22059  Biso   1.000  C
  C214     1.0000 0.10012  0.01634  0.22059  Biso   1.000  C
  C215     1.0000 0.10018  0.01638  0.22059  Biso   1.000  C
  H262     1.0000 0.04205  0.91052  0.25917  Biso   1.000  H
  H263     1.0000 0.04203  0.91047  0.25917  Biso   1.000  H
  H264     1.0000 0.04206  0.91047  0.25917  Biso   1.000  H
  N32      1.0000 0.96137  0.80591  0.27185  Biso   1.000  N
  C216     1.0000 0.93796  0.78792  0.37849  Biso   1.000  C
  C217     1.0000 0.93794  0.78788  0.37849  Biso   1.000  C
  H265     1.0000 0.18188  0.80222  0.63118  Biso   1.000  H
  H266     1.0000 0.20678  0.87032  0.64156  Biso   1.000  H
  C218     1.0000 0.12106  0.81991  0.66896  Biso   1.000  C
  H267     1.0000 0.18182  0.80218  0.63118  Biso   1.000  H
  H268     1.0000 0.20672  0.87028  0.64156  Biso   1.000  H
  H269     1.0000 0.18184  0.80222  0.63118  Biso   1.000  H
  H270     1.0000 0.20674  0.87032  0.64156  Biso   1.000  H
  C219     1.0000 0.12102  0.81991  0.66896  Biso   1.000  C
  H271     1.0000 0.18186  0.80218  0.63118  Biso   1.000  H
  H272     1.0000 0.20676  0.87028  0.64156  Biso   1.000  H
  C220     1.0000 0.02245  0.90361  0.57270  Biso   1.000  C
  H273     1.0000 0.06794  0.85480  0.68895  Biso   1.000  H
  H274     1.0000 0.13404  0.90391  0.67636  Biso   1.000  H
  H275     1.0000 0.06797  0.85480  0.68895  Biso   1.000  H
  H276     1.0000 0.13408  0.90391  0.67636  Biso   1.000  H
  C221     1.0000 0.22714  0.09418  0.22387  Biso   1.000  C
  C222     1.0000 0.22712  0.09413  0.22387  Biso   1.000  C
  H277     1.0000 0.11973  0.05428  0.20068  Biso   1.000  H
  H278     1.0000 0.06642  0.01226  0.24245  Biso   1.000  H
  H279     1.0000 0.11970  0.05424  0.20068  Biso   1.000  H
  H280     1.0000 0.11976  0.05428  0.20068  Biso   1.000  H
  H281     1.0000 0.06646  0.01226  0.24245  Biso   1.000  H
  H282     1.0000 0.11974  0.05424  0.20068  Biso   1.000  H
  H283     1.0000 0.08717  0.98540  0.19097  Biso   1.000  H
  H284     1.0000 0.08713  0.98540  0.19097  Biso   1.000  H
  C223     1.0000 0.90647  0.75520  0.25518  Biso   1.000  C
  C224     1.0000 0.90643  0.75520  0.25518  Biso   1.000  C
  H285     1.0000 0.89745  0.77562  0.36909  Biso   1.000  H
  H286     1.0000 0.95065  0.81452  0.41245  Biso   1.000  H
  H287     1.0000 0.94134  0.75381  0.38829  Biso   1.000  H
  H288     1.0000 0.89742  0.77558  0.36909  Biso   1.000  H
  H289     1.0000 0.95063  0.81447  0.41245  Biso   1.000  H
  H290     1.0000 0.89748  0.77562  0.36909  Biso   1.000  H
  H291     1.0000 0.95069  0.81452  0.41245  Biso   1.000  H
  H292     1.0000 0.94137  0.75381  0.38829  Biso   1.000  H
  H293     1.0000 0.89746  0.77558  0.36909  Biso   1.000  H
  H294     1.0000 0.13207  0.81852  0.71059  Biso   1.000  H
  H295     1.0000 0.08798  0.78123  0.65867  Biso   1.000  H
  H296     1.0000 0.13204  0.81847  0.71059  Biso   1.000  H
  H297     1.0000 0.08792  0.78118  0.65867  Biso   1.000  H
  H298     1.0000 0.13203  0.81852  0.71059  Biso   1.000  H
  H299     1.0000 0.08794  0.78123  0.65867  Biso   1.000  H
  H300     1.0000 0.08796  0.78118  0.65867  Biso   1.000  H
  C225     1.0000 0.97545  0.84590  0.54778  Biso   1.000  C
  C226     1.0000 0.00966  0.95263  0.57057  Biso   1.000  C
  C227     1.0000 0.00964  0.95259  0.57057  Biso   1.000  C
  C228     1.0000 0.24485  0.15128  0.25518  Biso   1.000  C
  C229     1.0000 0.24483  0.15124  0.25518  Biso   1.000  C
  C230     1.0000 0.28111  0.09335  0.20246  Biso   1.000  C
  C231     1.0000 0.28115  0.09335  0.20246  Biso   1.000  C
  H301     1.0000 0.20143  0.08926  0.18946  Biso   1.000  H
  H302     1.0000 0.20146  0.08926  0.18946  Biso   1.000  H
  C232     1.0000 0.86708  0.77293  0.22387  Biso   1.000  C
  C233     1.0000 0.92073  0.71839  0.21265  Biso   1.000  C
  H303     1.0000 0.88646  0.73182  0.29127  Biso   1.000  H
  C234     1.0000 0.86702  0.77288  0.22387  Biso   1.000  C
  H304     1.0000 0.88644  0.73177  0.29127  Biso   1.000  H
  C235     1.0000 0.92077  0.71839  0.21265  Biso   1.000  C
  C236     1.0000 0.86706  0.77288  0.22387  Biso   1.000  C
  H305     1.0000 0.99366  0.82760  0.52525  Biso   1.000  H
  H306     1.0000 0.94993  0.85259  0.52157  Biso   1.000  H
  H307     1.0000 0.95278  0.82043  0.58045  Biso   1.000  H
  H308     1.0000 0.99363  0.82760  0.52525  Biso   1.000  H
  H309     1.0000 0.95272  0.82038  0.58045  Biso   1.000  H
  H310     1.0000 0.94997  0.85259  0.52157  Biso   1.000  H
  H311     1.0000 0.95276  0.82038  0.58045  Biso   1.000  H
  C237     1.0000 0.05661  0.01026  0.57066  Biso   1.000  C
  C238     1.0000 0.05665  0.01026  0.57066  Biso   1.000  C
  C239     1.0000 0.95364  0.94342  0.57066  Biso   1.000  C
  C240     1.0000 0.95362  0.94337  0.57066  Biso   1.000  C
  C241     1.0000 0.95368  0.94342  0.57066  Biso   1.000  C
  C242     1.0000 0.95366  0.94337  0.57066  Biso   1.000  C
  C243     1.0000 0.28160  0.20234  0.21265  Biso   1.000  C
  C244     1.0000 0.28166  0.20239  0.21265  Biso   1.000  C
  C245     1.0000 0.28164  0.20234  0.21265  Biso   1.000  C
  N33      1.0000 0.19414  0.15545  0.27185  Biso   1.000  N
  H312     1.0000 0.26823  0.15467  0.29127  Biso   1.000  H
  H313     1.0000 0.26826  0.15467  0.29127  Biso   1.000  H
  C246     1.0000 0.31526  0.14328  0.15847  Biso   1.000  C
  C247     1.0000 0.31520  0.14324  0.15847  Biso   1.000  C
  C248     1.0000 0.31524  0.14324  0.15847  Biso   1.000  C
  H314     1.0000 0.26954  0.05576  0.18299  Biso   1.000  H
  H315     1.0000 0.30613  0.09748  0.23678  Biso   1.000  H
  H316     1.0000 0.30611  0.09743  0.23678  Biso   1.000  H
  H317     1.0000 0.30617  0.09748  0.23678  Biso   1.000  H
  N34      1.0000 0.84923  0.80370  0.26586  Biso   1.000  N
  H318     1.0000 0.88786  0.79861  0.18946  Biso   1.000  H
  C249     1.0000 0.81226  0.71891  0.20246  Biso   1.000  C
  N35      1.0000 0.84927  0.80370  0.26586  Biso   1.000  N
  C250     1.0000 0.86474  0.66580  0.18946  Biso   1.000  C
  H319     1.0000 0.94385  0.74272  0.17887  Biso   1.000  H
  H320     1.0000 0.94434  0.70478  0.23385  Biso   1.000  H
  H321     1.0000 0.94383  0.74268  0.17887  Biso   1.000  H
  C251     1.0000 0.86478  0.66580  0.18946  Biso   1.000  C
  H322     1.0000 0.94389  0.74272  0.17887  Biso   1.000  H
  H323     1.0000 0.94438  0.70478  0.23385  Biso   1.000  H
  H324     1.0000 0.94387  0.74268  0.17887  Biso   1.000  H
  C252     1.0000 0.04742  0.05706  0.57057  Biso   1.000  C
  C253     1.0000 0.04746  0.05706  0.57057  Biso   1.000  C
  H325     1.0000 0.09523  0.01695  0.57079  Biso   1.000  H
  C254     1.0000 0.94296  0.99040  0.57057  Biso   1.000  C
  C255     1.0000 0.94292  0.99040  0.57057  Biso   1.000  C
  H326     1.0000 0.92178  0.90483  0.57079  Biso   1.000  H
  H327     1.0000 0.92172  0.90478  0.57079  Biso   1.000  H
  H328     1.0000 0.92175  0.90478  0.57079  Biso   1.000  H
  C256     1.0000 0.33422  0.19895  0.18946  Biso   1.000  C
  H329     1.0000 0.25734  0.20117  0.17887  Biso   1.000  H
  H330     1.0000 0.29526  0.23959  0.23385  Biso   1.000  H
  H331     1.0000 0.29523  0.23954  0.23385  Biso   1.000  H
  C257     1.0000 0.33425  0.19895  0.18946  Biso   1.000  C
  C258     1.0000 0.18153  0.15719  0.32568  Biso   1.000  C
  C259     1.0000 0.18151  0.15715  0.32568  Biso   1.000  C
  C260     1.0000 0.18157  0.15719  0.32568  Biso   1.000  C
  C261     1.0000 0.18155  0.15715  0.32568  Biso   1.000  C
  H332     1.0000 0.34946  0.14168  0.14348  Biso   1.000  H
  H333     1.0000 0.29024  0.13968  0.12429  Biso   1.000  H
  H334     1.0000 0.34940  0.14163  0.14348  Biso   1.000  H
  H335     1.0000 0.29022  0.13963  0.12429  Biso   1.000  H
  H336     1.0000 0.29027  0.13968  0.12429  Biso   1.000  H
  H337     1.0000 0.34944  0.14163  0.14348  Biso   1.000  H
  C262     1.0000 0.87064  0.85841  0.26298  Biso   1.000  C
  C263     1.0000 0.87068  0.85841  0.26298  Biso   1.000  C
  H338     1.0000 0.78626  0.73051  0.18299  Biso   1.000  H
  H339     1.0000 0.79137  0.69392  0.23678  Biso   1.000  H
  C264     1.0000 0.82806  0.68479  0.15847  Biso   1.000  C
  H340     1.0000 0.79131  0.69388  0.23678  Biso   1.000  H
  H341     1.0000 0.79135  0.69388  0.23678  Biso   1.000  H
  H342     1.0000 0.87474  0.64320  0.16189  Biso   1.000  H
  H343     1.0000 0.84276  0.64020  0.22307  Biso   1.000  H
  H344     1.0000 0.87478  0.64320  0.16189  Biso   1.000  H
  C265     1.0000 0.09643  0.11886  0.57270  Biso   1.000  C
  C266     1.0000 0.09646  0.11886  0.57270  Biso   1.000  C
  C267     1.0000 0.98973  0.04637  0.57066  Biso   1.000  C
  C268     1.0000 0.98976  0.04637  0.57066  Biso   1.000  C
  C269     1.0000 0.88117  0.97762  0.57270  Biso   1.000  C
  C270     1.0000 0.88111  0.97758  0.57270  Biso   1.000  C
  C271     1.0000 0.88115  0.97758  0.57270  Biso   1.000  C
  H345     1.0000 0.35684  0.23155  0.16189  Biso   1.000  H
  H346     1.0000 0.35984  0.20256  0.22307  Biso   1.000  H
  C272     1.0000 0.21214  0.15006  0.37849  Biso   1.000  C
  C273     1.0000 0.12982  0.16397  0.33827  Biso   1.000  C
  C274     1.0000 0.12986  0.16397  0.33827  Biso   1.000  C
  C275     1.0000 0.84796  0.88531  0.30679  Biso   1.000  C
  C276     1.0000 0.91627  0.89991  0.22059  Biso   1.000  C
  C277     1.0000 0.91623  0.89991  0.22059  Biso   1.000  C
  H347     1.0000 0.79225  0.65059  0.14348  Biso   1.000  H
  H348     1.0000 0.84946  0.70983  0.12429  Biso   1.000  H
  H349     1.0000 0.84943  0.70978  0.12429  Biso   1.000  H
  H350     1.0000 0.84949  0.70983  0.12429  Biso   1.000  H
  N36      1.0000 0.08522  0.15606  0.59402  Biso   1.000  N
  N37      1.0000 0.08516  0.15602  0.59402  Biso   1.000  N
  N38      1.0000 0.08520  0.15602  0.59402  Biso   1.000  N
  C278     1.0000 0.15412  0.12955  0.54778  Biso   1.000  C
  H351     1.0000 0.98302  0.07827  0.57079  Biso   1.000  H
  H352     1.0000 0.98306  0.07827  0.57079  Biso   1.000  H
  N39      1.0000 0.84398  0.92921  0.59402  Biso   1.000  N
  N40      1.0000 0.84396  0.92916  0.59402  Biso   1.000  N
  N41      1.0000 0.84402  0.92921  0.59402  Biso   1.000  N
  C279     1.0000 0.87043  0.02455  0.54778  Biso   1.000  C
  C280     1.0000 0.87046  0.02455  0.54778  Biso   1.000  C
  H353     1.0000 0.22442  0.12186  0.36909  Biso   1.000  H
  H354     1.0000 0.18554  0.13616  0.41245  Biso   1.000  H
  H355     1.0000 0.24625  0.18757  0.38829  Biso   1.000  H
  H356     1.0000 0.18550  0.13616  0.41245  Biso   1.000  H
  H357     1.0000 0.24621  0.18757  0.38829  Biso   1.000  H
  H358     1.0000 0.22446  0.12186  0.36909  Biso   1.000  H
  C281     1.0000 0.12444  0.18709  0.39188  Biso   1.000  C
  C282     1.0000 0.08602  0.14698  0.29597  Biso   1.000  C
  C283     1.0000 0.12442  0.18705  0.39188  Biso   1.000  C
  C284     1.0000 0.08600  0.14693  0.29597  Biso   1.000  C
  C285     1.0000 0.08606  0.14698  0.29597  Biso   1.000  C
  C286     1.0000 0.08604  0.14693  0.29597  Biso   1.000  C
  C287     1.0000 0.85307  0.93911  0.29597  Biso   1.000  C
  C288     1.0000 0.85303  0.93911  0.29597  Biso   1.000  C
  C289     1.0000 0.82396  0.85702  0.36066  Biso   1.000  C
  C290     1.0000 0.82393  0.85698  0.36066  Biso   1.000  C
  H359     1.0000 0.93455  0.88031  0.20068  Biso   1.000  H
  H360     1.0000 0.94583  0.93359  0.24245  Biso   1.000  H
  H361     1.0000 0.89827  0.91291  0.19097  Biso   1.000  H
  H362     1.0000 0.89823  0.91291  0.19097  Biso   1.000  H
  H363     1.0000 0.93459  0.88031  0.20068  Biso   1.000  H
  H364     1.0000 0.94587  0.93359  0.24245  Biso   1.000  H
  C291     1.0000 0.13055  0.21699  0.59859  Biso   1.000  C
  C292     1.0000 0.13053  0.21695  0.59859  Biso   1.000  C
  H365     1.0000 0.17241  0.16606  0.52525  Biso   1.000  H
  H366     1.0000 0.14743  0.09735  0.52157  Biso   1.000  H
  H367     1.0000 0.17962  0.13238  0.58045  Biso   1.000  H
  H368     1.0000 0.17960  0.13233  0.58045  Biso   1.000  H
  H369     1.0000 0.17245  0.16606  0.52525  Biso   1.000  H
  H370     1.0000 0.17966  0.13238  0.58045  Biso   1.000  H
  H371     1.0000 0.17964  0.13233  0.58045  Biso   1.000  H
  C293     1.0000 0.78303  0.91360  0.59859  Biso   1.000  C
  C294     1.0000 0.78307  0.91360  0.59859  Biso   1.000  C
  H372     1.0000 0.83394  0.00639  0.52525  Biso   1.000  H
  H373     1.0000 0.90264  0.05006  0.52157  Biso   1.000  H
  H374     1.0000 0.86764  0.04728  0.58045  Biso   1.000  H
  H375     1.0000 0.83396  0.00634  0.52525  Biso   1.000  H
  H376     1.0000 0.90268  0.05006  0.52157  Biso   1.000  H
  H377     1.0000 0.86765  0.04724  0.58045  Biso   1.000  H
  H378     1.0000 0.83392  0.00634  0.52525  Biso   1.000  H
  H379     1.0000 0.86762  0.04724  0.58045  Biso   1.000  H
  H380     1.0000 0.15415  0.19878  0.42088  Biso   1.000  H
  C295     1.0000 0.07624  0.19335  0.40376  Biso   1.000  C
  H381     1.0000 0.15413  0.19874  0.42088  Biso   1.000  H
  C296     1.0000 0.07620  0.19335  0.40376  Biso   1.000  C
  C297     1.0000 0.03734  0.15206  0.30679  Biso   1.000  C
  H382     1.0000 0.08952  0.13155  0.25917  Biso   1.000  H
  C298     1.0000 0.83607  0.96593  0.33827  Biso   1.000  C
  C299     1.0000 0.83605  0.96588  0.33827  Biso   1.000  C
  H383     1.0000 0.86847  0.95802  0.25917  Biso   1.000  H
  H384     1.0000 0.86841  0.95798  0.25917  Biso   1.000  H
  H385     1.0000 0.86845  0.95798  0.25917  Biso   1.000  H
  C300     1.0000 0.80665  0.88292  0.40376  Biso   1.000  C
  C301     1.0000 0.80663  0.88288  0.40376  Biso   1.000  C
  C302     1.0000 0.80668  0.88292  0.40376  Biso   1.000  C
  C303     1.0000 0.80666  0.88288  0.40376  Biso   1.000  C
  H386     1.0000 0.81944  0.81969  0.36798  Biso   1.000  H
  C304     1.0000 0.11453  0.25367  0.55758  Biso   1.000  C
  C305     1.0000 0.11457  0.25367  0.55758  Biso   1.000  C
  C306     1.0000 0.13444  0.23659  0.66328  Biso   1.000  C
  H387     1.0000 0.16865  0.22138  0.58595  Biso   1.000  H
  C307     1.0000 0.13442  0.23655  0.66328  Biso   1.000  C
  H388     1.0000 0.16863  0.22134  0.58595  Biso   1.000  H
  C308     1.0000 0.13448  0.23659  0.66328  Biso   1.000  C
  C309     1.0000 0.74633  0.86089  0.55758  Biso   1.000  C
  C310     1.0000 0.74636  0.86089  0.55758  Biso   1.000  C
  C311     1.0000 0.76345  0.89792  0.66328  Biso   1.000  C
  H389     1.0000 0.77867  0.94733  0.58595  Biso   1.000  H
  C312     1.0000 0.76343  0.89787  0.66328  Biso   1.000  C
  H390     1.0000 0.77865  0.94728  0.58595  Biso   1.000  H
  C313     1.0000 0.76349  0.89792  0.66328  Biso   1.000  C
  C314     1.0000 0.03304  0.17605  0.36066  Biso   1.000  C
  C315     1.0000 0.07054  0.21425  0.46406  Biso   1.000  C
  C316     1.0000 0.03300  0.17605  0.36066  Biso   1.000  C
  C317     1.0000 0.07051  0.21425  0.46406  Biso   1.000  C
  C318     1.0000 0.98772  0.12938  0.26298  Biso   1.000  C
  C319     1.0000 0.98774  0.12933  0.26298  Biso   1.000  C
  C320     1.0000 0.98776  0.12938  0.26298  Biso   1.000  C
  C321     1.0000 0.84283  0.02438  0.32568  Biso   1.000  C
  C322     1.0000 0.84284  0.02434  0.32568  Biso   1.000  C
  C323     1.0000 0.84286  0.02438  0.32568  Biso   1.000  C
  C324     1.0000 0.81297  0.93742  0.39188  Biso   1.000  C
  C325     1.0000 0.81291  0.93738  0.39188  Biso   1.000  C
  C326     1.0000 0.81295  0.93738  0.39188  Biso   1.000  C
  C327     1.0000 0.78575  0.85633  0.46406  Biso   1.000  C
  C328     1.0000 0.78572  0.85628  0.46406  Biso   1.000  C
  C329     1.0000 0.78578  0.85633  0.46406  Biso   1.000  C
  C330     1.0000 0.78576  0.85628  0.46406  Biso   1.000  C
  N42      1.0000 0.11582  0.23616  0.49705  Biso   1.000  N
  N43      1.0000 0.11586  0.23616  0.49705  Biso   1.000  N
  H391     1.0000 0.07505  0.24698  0.56760  Biso   1.000  H
  C331     1.0000 0.15994  0.31808  0.56396  Biso   1.000  C
  H392     1.0000 0.07501  0.24698  0.56760  Biso   1.000  H
  C332     1.0000 0.18013  0.30117  0.66896  Biso   1.000  C
  C333     1.0000 0.18017  0.30117  0.66896  Biso   1.000  C
  H393     1.0000 0.14524  0.21317  0.68895  Biso   1.000  H
  H394     1.0000 0.09611  0.23016  0.67636  Biso   1.000  H
  H395     1.0000 0.09615  0.23016  0.67636  Biso   1.000  H
  N44      1.0000 0.76387  0.87971  0.49705  Biso   1.000  N
  N45      1.0000 0.76383  0.87971  0.49705  Biso   1.000  N
  H396     1.0000 0.75305  0.82812  0.56760  Biso   1.000  H
  C334     1.0000 0.68196  0.84190  0.56396  Biso   1.000  C
  H397     1.0000 0.75303  0.82808  0.56760  Biso   1.000  H
  C335     1.0000 0.68192  0.84190  0.56396  Biso   1.000  C
  H398     1.0000 0.75309  0.82812  0.56760  Biso   1.000  H
  C336     1.0000 0.69886  0.87901  0.66896  Biso   1.000  C
  H399     1.0000 0.78687  0.93212  0.68895  Biso   1.000  H
  H400     1.0000 0.76985  0.86602  0.67636  Biso   1.000  H
  H401     1.0000 0.78681  0.93207  0.68895  Biso   1.000  H
  H402     1.0000 0.76983  0.86597  0.67636  Biso   1.000  H
  H403     1.0000 0.78685  0.93207  0.68895  Biso   1.000  H
  H404     1.0000 0.00022  0.18057  0.36798  Biso   1.000  H
  H405     1.0000 0.00026  0.18057  0.36798  Biso   1.000  H
  C337     1.0000 0.01035  0.19826  0.48508  Biso   1.000  C
  C338     1.0000 0.01031  0.19826  0.48508  Biso   1.000  C
  C339     1.0000 0.02327  0.22629  0.46885  Biso   1.000  C
  N46      1.0000 0.95442  0.15076  0.26586  Biso   1.000  N
  C340     1.0000 0.98363  0.08379  0.22059  Biso   1.000  C
  N47      1.0000 0.95445  0.15076  0.26586  Biso   1.000  N
  C341     1.0000 0.98365  0.08375  0.22059  Biso   1.000  C
  C342     1.0000 0.98367  0.08379  0.22059  Biso   1.000  C
  C343     1.0000 0.98361  0.08375  0.22059  Biso   1.000  C
  N48      1.0000 0.84452  0.03868  0.27185  Biso   1.000  N
  N49      1.0000 0.84453  0.03863  0.27185  Biso   1.000  N
  N50      1.0000 0.84456  0.03868  0.27185  Biso   1.000  N
  C344     1.0000 0.84992  0.06206  0.37849  Biso   1.000  C
  C345     1.0000 0.84996  0.06206  0.37849  Biso   1.000  C
  H406     1.0000 0.80127  0.95541  0.42088  Biso   1.000  H
  H407     1.0000 0.80123  0.95541  0.42088  Biso   1.000  H
  C346     1.0000 0.80177  0.81213  0.48508  Biso   1.000  C
  C347     1.0000 0.80175  0.81208  0.48508  Biso   1.000  C
  C348     1.0000 0.77377  0.79700  0.46885  Biso   1.000  C
  H408     1.0000 0.14863  0.34137  0.53895  Biso   1.000  H
  H409     1.0000 0.19795  0.32446  0.54946  Biso   1.000  H
  C349     1.0000 0.16633  0.33867  0.62839  Biso   1.000  C
  H410     1.0000 0.19791  0.32446  0.54946  Biso   1.000  H
  H411     1.0000 0.14867  0.34137  0.53895  Biso   1.000  H
  C350     1.0000 0.16636  0.33867  0.62839  Biso   1.000  C
  H412     1.0000 0.18154  0.31356  0.71059  Biso   1.000  H
  H413     1.0000 0.21884  0.30678  0.65867  Biso   1.000  H
  H414     1.0000 0.18150  0.31356  0.71059  Biso   1.000  H
  H415     1.0000 0.65864  0.80730  0.53895  Biso   1.000  H
  H416     1.0000 0.67555  0.87349  0.54946  Biso   1.000  H
  C351     1.0000 0.66134  0.82769  0.62839  Biso   1.000  C
  H417     1.0000 0.65868  0.80730  0.53895  Biso   1.000  H
  H418     1.0000 0.68644  0.86802  0.71059  Biso   1.000  H
  H419     1.0000 0.69325  0.91213  0.65867  Biso   1.000  H
  H420     1.0000 0.68641  0.86797  0.71059  Biso   1.000  H
  H421     1.0000 0.69323  0.91208  0.65867  Biso   1.000  H
  H422     1.0000 0.68647  0.86802  0.71059  Biso   1.000  H
  H423     1.0000 0.69329  0.91213  0.65867  Biso   1.000  H
  H424     1.0000 0.68645  0.86797  0.71059  Biso   1.000  H
  H425     1.0000 0.01014  0.20078  0.52836  Biso   1.000  H
  H426     1.0000 0.01012  0.20074  0.52836  Biso   1.000  H
  H427     1.0000 0.02496  0.24389  0.50756  Biso   1.000  H
  H428     1.0000 0.98261  0.15845  0.47258  Biso   1.000  H
  H429     1.0000 0.99914  0.22507  0.46779  Biso   1.000  H
  H430     1.0000 0.98265  0.15845  0.47258  Biso   1.000  H
  H431     1.0000 0.99918  0.22507  0.46779  Biso   1.000  H
  H432     1.0000 0.98613  0.18996  0.46486  Biso   1.000  H
  H433     1.0000 0.02667  0.25319  0.43728  Biso   1.000  H
  C352     1.0000 0.90582  0.13298  0.22387  Biso   1.000  C
  C353     1.0000 0.90584  0.13294  0.22387  Biso   1.000  C
  C354     1.0000 0.90586  0.13298  0.22387  Biso   1.000  C
  H434     1.0000 0.01465  0.10178  0.19097  Biso   1.000  H
  H435     1.0000 0.01462  0.10174  0.19097  Biso   1.000  H
  H436     1.0000 0.94571  0.06545  0.20068  Biso   1.000  H
  H437     1.0000 0.98771  0.05415  0.24245  Biso   1.000  H
  H438     1.0000 0.94575  0.06545  0.20068  Biso   1.000  H
  H439     1.0000 0.98774  0.05415  0.24245  Biso   1.000  H
  C355     1.0000 0.84874  0.09357  0.25518  Biso   1.000  C
  C356     1.0000 0.84878  0.09357  0.25518  Biso   1.000  C
  H440     1.0000 0.87812  0.10256  0.36909  Biso   1.000  H
  H441     1.0000 0.86383  0.04937  0.41245  Biso   1.000  H
  H442     1.0000 0.81244  0.05867  0.38829  Biso   1.000  H
  H443     1.0000 0.87815  0.10256  0.36909  Biso   1.000  H
  H444     1.0000 0.86386  0.04937  0.41245  Biso   1.000  H
  H445     1.0000 0.81247  0.05867  0.38829  Biso   1.000  H
  H446     1.0000 0.79924  0.80939  0.52836  Biso   1.000  H
  H447     1.0000 0.84154  0.82421  0.47258  Biso   1.000  H
  H448     1.0000 0.77493  0.77410  0.46779  Biso   1.000  H
  H449     1.0000 0.79928  0.80939  0.52836  Biso   1.000  H
  H450     1.0000 0.84157  0.82421  0.47258  Biso   1.000  H
  H451     1.0000 0.77497  0.77410  0.46779  Biso   1.000  H
  H452     1.0000 0.75615  0.78110  0.50756  Biso   1.000  H
  H453     1.0000 0.81006  0.79618  0.46486  Biso   1.000  H
  H454     1.0000 0.74685  0.77349  0.43728  Biso   1.000  H
  H455     1.0000 0.19784  0.37966  0.63118  Biso   1.000  H
  H456     1.0000 0.12973  0.33646  0.64156  Biso   1.000  H
  H457     1.0000 0.19781  0.37966  0.63118  Biso   1.000  H
  H458     1.0000 0.62036  0.81821  0.63118  Biso   1.000  H
  H459     1.0000 0.66353  0.79331  0.64156  Biso   1.000  H
  H460     1.0000 0.66357  0.79331  0.64156  Biso   1.000  H
  H461     1.0000 0.91073  0.11217  0.18946  Biso   1.000  H
  C357     1.0000 0.90665  0.18779  0.20246  Biso   1.000  C
  H462     1.0000 0.91077  0.11217  0.18946  Biso   1.000  H
  C358     1.0000 0.90663  0.18774  0.20246  Biso   1.000  C
  C359     1.0000 0.79763  0.07927  0.21265  Biso   1.000  C
  H463     1.0000 0.84534  0.11356  0.29127  Biso   1.000  H
  C360     1.0000 0.79767  0.07927  0.21265  Biso   1.000  C
  H464     1.0000 0.94422  0.21377  0.18299  Biso   1.000  H
  H465     1.0000 0.90254  0.20869  0.23678  Biso   1.000  H
  C361     1.0000 0.85674  0.17197  0.15847  Biso   1.000  C
  H466     1.0000 0.94426  0.21377  0.18299  Biso   1.000  H
  H467     1.0000 0.90255  0.20865  0.23678  Biso   1.000  H
  C362     1.0000 0.85678  0.17197  0.15847  Biso   1.000  C
  H468     1.0000 0.90252  0.20865  0.23678  Biso   1.000  H
  C363     1.0000 0.80103  0.13529  0.18946  Biso   1.000  C
  C364     1.0000 0.80104  0.13524  0.18946  Biso   1.000  C
  C365     1.0000 0.80106  0.13529  0.18946  Biso   1.000  C
  H469     1.0000 0.79883  0.05615  0.17887  Biso   1.000  H
  H470     1.0000 0.76043  0.05567  0.23385  Biso   1.000  H
  H471     1.0000 0.79887  0.05615  0.17887  Biso   1.000  H
  H472     1.0000 0.76047  0.05567  0.23385  Biso   1.000  H
  H473     1.0000 0.85835  0.20778  0.14348  Biso   1.000  H
  H474     1.0000 0.86035  0.15058  0.12429  Biso   1.000  H
  H475     1.0000 0.85833  0.20773  0.14348  Biso   1.000  H
  H476     1.0000 0.86033  0.15054  0.12429  Biso   1.000  H
  H477     1.0000 0.76842  0.12525  0.16189  Biso   1.000  H
  H478     1.0000 0.79742  0.15728  0.22307  Biso   1.000  H
  H479     1.0000 0.76846  0.12525  0.16189  Biso   1.000  H
  H480     1.0000 0.79744  0.15723  0.22307  Biso   1.000  H
  H481     1.0000 0.79746  0.15728  0.22307  Biso   1.000  H
  C366     1.0000 0.20304  0.97679  0.46885  Biso   1.000  C
  C367     1.0000 0.14375  0.92951  0.46406  Biso   1.000  C
  H482     1.0000 0.22595  0.00087  0.46779  Biso   1.000  H
  H483     1.0000 0.21894  0.97510  0.50756  Biso   1.000  H
  H484     1.0000 0.22591  0.00087  0.46779  Biso   1.000  H
  H485     1.0000 0.20385  0.01386  0.46486  Biso   1.000  H
  H486     1.0000 0.22656  0.97340  0.43728  Biso   1.000  H
  C368     1.0000 0.11716  0.92382  0.40376  Biso   1.000  C
  C369     1.0000 0.11714  0.92377  0.40376  Biso   1.000  C
  C370     1.0000 0.11712  0.92382  0.40376  Biso   1.000  C
  N51      1.0000 0.12036  0.88423  0.49705  Biso   1.000  N
  C371     1.0000 0.18796  0.98970  0.48508  Biso   1.000  C
  N52      1.0000 0.12034  0.88418  0.49705  Biso   1.000  N
  C372     1.0000 0.18793  0.98970  0.48508  Biso   1.000  C
  C373     1.0000 0.14305  0.96701  0.36066  Biso   1.000  C
  C374     1.0000 0.14309  0.96701  0.36066  Biso   1.000  C
  C375     1.0000 0.06265  0.87562  0.39188  Biso   1.000  C
  C376     1.0000 0.06263  0.87558  0.39188  Biso   1.000  C
  C377     1.0000 0.06267  0.87558  0.39188  Biso   1.000  C
  C378     1.0000 0.13915  0.88553  0.55758  Biso   1.000  C
  C379     1.0000 0.13913  0.88549  0.55758  Biso   1.000  C
  C380     1.0000 0.13917  0.88549  0.55758  Biso   1.000  C
  H487     1.0000 0.17581  0.01734  0.47258  Biso   1.000  H
  H488     1.0000 0.19067  0.98992  0.52836  Biso   1.000  H
  H489     1.0000 0.19065  0.98987  0.52836  Biso   1.000  H
  H490     1.0000 0.19063  0.98992  0.52836  Biso   1.000  H
  H491     1.0000 0.17584  0.01738  0.47258  Biso   1.000  H
  H492     1.0000 0.17587  0.01738  0.47258  Biso   1.000  H
  C381     1.0000 0.11474  0.96271  0.30679  Biso   1.000  C
  C382     1.0000 0.11478  0.96271  0.30679  Biso   1.000  C
  H493     1.0000 0.18038  0.99983  0.36798  Biso   1.000  H
  H494     1.0000 0.18032  0.99978  0.36798  Biso   1.000  H
  H495     1.0000 0.18034  0.99983  0.36798  Biso   1.000  H
  H496     1.0000 0.18036  0.99978  0.36798  Biso   1.000  H
  C383     1.0000 0.03415  0.87019  0.33827  Biso   1.000  C
  C384     1.0000 0.03412  0.87019  0.33827  Biso   1.000  C
  H497     1.0000 0.04466  0.84590  0.42088  Biso   1.000  H
  H498     1.0000 0.04463  0.84590  0.42088  Biso   1.000  H
  H499     1.0000 0.17194  0.92499  0.56760  Biso   1.000  H
  C385     1.0000 0.15815  0.84012  0.56396  Biso   1.000  C
  C386     1.0000 0.08646  0.86949  0.59859  Biso   1.000  C
  C387     1.0000 0.15812  0.84007  0.56396  Biso   1.000  C
  C388     1.0000 0.08642  0.86949  0.59859  Biso   1.000  C
  C389     1.0000 0.15816  0.84007  0.56396  Biso   1.000  C
  C390     1.0000 0.14162  0.01226  0.26298  Biso   1.000  C
  C391     1.0000 0.14166  0.01226  0.26298  Biso   1.000  C
  C392     1.0000 0.06095  0.91400  0.29597  Biso   1.000  C
  C393     1.0000 0.06091  0.91400  0.29597  Biso   1.000  C
  C394     1.0000 0.97565  0.81852  0.32568  Biso   1.000  C
  C395     1.0000 0.97563  0.81847  0.32568  Biso   1.000  C
  C396     1.0000 0.97569  0.81852  0.32568  Biso   1.000  C
  H500     1.0000 0.19278  0.85141  0.53895  Biso   1.000  H
  H501     1.0000 0.12656  0.80209  0.54946  Biso   1.000  H
  C397     1.0000 0.17238  0.83373  0.62839  Biso   1.000  C
  H502     1.0000 0.19272  0.85137  0.53895  Biso   1.000  H
  H503     1.0000 0.12652  0.80209  0.54946  Biso   1.000  H
  C398     1.0000 0.17236  0.83368  0.62839  Biso   1.000  C
  H504     1.0000 0.19274  0.85141  0.53895  Biso   1.000  H
  C399     1.0000 0.17234  0.83373  0.62839  Biso   1.000  C
  H505     1.0000 0.19275  0.85137  0.53895  Biso   1.000  H
  N53      1.0000 0.07087  0.91486  0.59402  Biso   1.000  N
  C400     1.0000 0.10218  0.86563  0.66328  Biso   1.000  C
  H506     1.0000 0.05275  0.83142  0.58595  Biso   1.000  H
  N54      1.0000 0.07085  0.91482  0.59402  Biso   1.000  N
  C401     1.0000 0.10212  0.86558  0.66328  Biso   1.000  C
  H507     1.0000 0.05272  0.83138  0.58595  Biso   1.000  H
  C402     1.0000 0.10214  0.86563  0.66328  Biso   1.000  C
  C403     1.0000 0.10215  0.86558  0.66328  Biso   1.000  C
  H508     1.0000 0.05276  0.83138  0.58595  Biso   1.000  H
  N55      1.0000 0.19631  0.04554  0.26586  Biso   1.000  N
  N56      1.0000 0.19634  0.04559  0.26586  Biso   1.000  N
  N57      1.0000 0.19637  0.04559  0.26586  Biso   1.000  N
  C404     1.0000 0.10012  0.01634  0.22059  Biso   1.000  C
  C405     1.0000 0.10014  0.01638  0.22059  Biso   1.000  C
  C406     1.0000 0.10018  0.01638  0.22059  Biso   1.000  C
  H509     1.0000 0.04205  0.91052  0.25917  Biso   1.000  H
  H510     1.0000 0.04203  0.91047  0.25917  Biso   1.000  H
  H511     1.0000 0.04206  0.91047  0.25917  Biso   1.000  H
  N58      1.0000 0.96137  0.80591  0.27185  Biso   1.000  N
  C407     1.0000 0.93796  0.78792  0.37849  Biso   1.000  C
  C408     1.0000 0.93794  0.78788  0.37849  Biso   1.000  C
  H512     1.0000 0.18188  0.80222  0.63118  Biso   1.000  H
  H513     1.0000 0.20678  0.87032  0.64156  Biso   1.000  H
  C409     1.0000 0.12106  0.81991  0.66896  Biso   1.000  C
  H514     1.0000 0.18182  0.80218  0.63118  Biso   1.000  H
  H515     1.0000 0.20672  0.87028  0.64156  Biso   1.000  H
  H516     1.0000 0.18184  0.80222  0.63118  Biso   1.000  H
  H517     1.0000 0.20674  0.87032  0.64156  Biso   1.000  H
  C410     1.0000 0.12102  0.81991  0.66896  Biso   1.000  C
  H518     1.0000 0.18186  0.80218  0.63118  Biso   1.000  H
  H519     1.0000 0.20676  0.87028  0.64156  Biso   1.000  H
  C411     1.0000 0.02245  0.90361  0.57270  Biso   1.000  C
  H520     1.0000 0.06794  0.85480  0.68895  Biso   1.000  H
  H521     1.0000 0.13404  0.90391  0.67636  Biso   1.000  H
  H522     1.0000 0.06797  0.85480  0.68895  Biso   1.000  H
  H523     1.0000 0.13408  0.90391  0.67636  Biso   1.000  H
  C412     1.0000 0.22714  0.09418  0.22387  Biso   1.000  C
  C413     1.0000 0.22712  0.09413  0.22387  Biso   1.000  C
  H524     1.0000 0.06642  0.01226  0.24245  Biso   1.000  H
  H525     1.0000 0.08717  0.98540  0.19097  Biso   1.000  H
  H526     1.0000 0.08713  0.98540  0.19097  Biso   1.000  H
  H527     1.0000 0.11973  0.05428  0.20068  Biso   1.000  H
  H528     1.0000 0.11970  0.05424  0.20068  Biso   1.000  H
  H529     1.0000 0.11976  0.05428  0.20068  Biso   1.000  H
  H530     1.0000 0.06646  0.01226  0.24245  Biso   1.000  H
  H531     1.0000 0.11974  0.05424  0.20068  Biso   1.000  H
  C414     1.0000 0.90647  0.75520  0.25518  Biso   1.000  C
  C415     1.0000 0.90643  0.75520  0.25518  Biso   1.000  C
  H532     1.0000 0.89745  0.77562  0.36909  Biso   1.000  H
  H533     1.0000 0.95065  0.81452  0.41245  Biso   1.000  H
  H534     1.0000 0.94134  0.75381  0.38829  Biso   1.000  H
  H535     1.0000 0.89742  0.77558  0.36909  Biso   1.000  H
  H536     1.0000 0.95063  0.81447  0.41245  Biso   1.000  H
  H537     1.0000 0.89748  0.77562  0.36909  Biso   1.000  H
  H538     1.0000 0.95069  0.81452  0.41245  Biso   1.000  H
  H539     1.0000 0.94137  0.75381  0.38829  Biso   1.000  H
  H540     1.0000 0.89746  0.77558  0.36909  Biso   1.000  H
  H541     1.0000 0.13207  0.81852  0.71059  Biso   1.000  H
  H542     1.0000 0.08798  0.78123  0.65867  Biso   1.000  H
  H543     1.0000 0.13204  0.81847  0.71059  Biso   1.000  H
  H544     1.0000 0.08792  0.78118  0.65867  Biso   1.000  H
  H545     1.0000 0.13203  0.81852  0.71059  Biso   1.000  H
  H546     1.0000 0.08794  0.78123  0.65867  Biso   1.000  H
  H547     1.0000 0.08796  0.78118  0.65867  Biso   1.000  H
  C416     1.0000 0.97545  0.84590  0.54778  Biso   1.000  C
  C417     1.0000 0.00966  0.95263  0.57057  Biso   1.000  C
  C418     1.0000 0.00964  0.95259  0.57057  Biso   1.000  C
  C419     1.0000 0.24485  0.15128  0.25518  Biso   1.000  C
  C420     1.0000 0.24483  0.15124  0.25518  Biso   1.000  C
  C421     1.0000 0.28111  0.09335  0.20246  Biso   1.000  C
  C422     1.0000 0.28115  0.09335  0.20246  Biso   1.000  C
  H548     1.0000 0.20143  0.08926  0.18946  Biso   1.000  H
  H549     1.0000 0.20146  0.08926  0.18946  Biso   1.000  H
  C423     1.0000 0.86708  0.77293  0.22387  Biso   1.000  C
  C424     1.0000 0.92073  0.71839  0.21265  Biso   1.000  C
  H550     1.0000 0.88646  0.73182  0.29127  Biso   1.000  H
  C425     1.0000 0.86702  0.77288  0.22387  Biso   1.000  C
  H551     1.0000 0.88644  0.73177  0.29127  Biso   1.000  H
  C426     1.0000 0.92077  0.71839  0.21265  Biso   1.000  C
  C427     1.0000 0.86706  0.77288  0.22387  Biso   1.000  C
  H552     1.0000 0.99366  0.82760  0.52525  Biso   1.000  H
  H553     1.0000 0.94993  0.85259  0.52157  Biso   1.000  H
  H554     1.0000 0.95278  0.82043  0.58045  Biso   1.000  H
  H555     1.0000 0.99363  0.82760  0.52525  Biso   1.000  H
  H556     1.0000 0.95272  0.82038  0.58045  Biso   1.000  H
  H557     1.0000 0.94997  0.85259  0.52157  Biso   1.000  H
  H558     1.0000 0.95276  0.82038  0.58045  Biso   1.000  H
  C428     1.0000 0.05661  0.01026  0.57066  Biso   1.000  C
  C429     1.0000 0.05665  0.01026  0.57066  Biso   1.000  C
  C430     1.0000 0.95364  0.94342  0.57066  Biso   1.000  C
  C431     1.0000 0.95362  0.94337  0.57066  Biso   1.000  C
  C432     1.0000 0.95368  0.94342  0.57066  Biso   1.000  C
  C433     1.0000 0.95366  0.94337  0.57066  Biso   1.000  C
  C434     1.0000 0.28166  0.20239  0.21265  Biso   1.000  C
  C435     1.0000 0.28160  0.20234  0.21265  Biso   1.000  C
  C436     1.0000 0.28164  0.20234  0.21265  Biso   1.000  C
  N59      1.0000 0.19414  0.15545  0.27185  Biso   1.000  N
  H559     1.0000 0.26823  0.15467  0.29127  Biso   1.000  H
  H560     1.0000 0.26826  0.15467  0.29127  Biso   1.000  H
  C437     1.0000 0.31526  0.14328  0.15847  Biso   1.000  C
  C438     1.0000 0.31520  0.14324  0.15847  Biso   1.000  C
  C439     1.0000 0.31524  0.14324  0.15847  Biso   1.000  C
  H561     1.0000 0.26954  0.05576  0.18299  Biso   1.000  H
  H562     1.0000 0.30611  0.09743  0.23678  Biso   1.000  H
  H563     1.0000 0.30613  0.09748  0.23678  Biso   1.000  H
  H564     1.0000 0.30617  0.09748  0.23678  Biso   1.000  H
  N60      1.0000 0.84923  0.80370  0.26586  Biso   1.000  N
  H565     1.0000 0.88786  0.79861  0.18946  Biso   1.000  H
  C440     1.0000 0.81226  0.71891  0.20246  Biso   1.000  C
  N61      1.0000 0.84927  0.80370  0.26586  Biso   1.000  N
  C441     1.0000 0.86474  0.66580  0.18946  Biso   1.000  C
  H566     1.0000 0.94385  0.74272  0.17887  Biso   1.000  H
  H567     1.0000 0.94434  0.70478  0.23385  Biso   1.000  H
  H568     1.0000 0.94383  0.74268  0.17887  Biso   1.000  H
  C442     1.0000 0.86478  0.66580  0.18946  Biso   1.000  C
  H569     1.0000 0.94389  0.74272  0.17887  Biso   1.000  H
  H570     1.0000 0.94438  0.70478  0.23385  Biso   1.000  H
  H571     1.0000 0.94387  0.74268  0.17887  Biso   1.000  H
  C443     1.0000 0.04742  0.05706  0.57057  Biso   1.000  C
  C444     1.0000 0.04746  0.05706  0.57057  Biso   1.000  C
  H572     1.0000 0.09523  0.01695  0.57079  Biso   1.000  H
  C445     1.0000 0.94296  0.99040  0.57057  Biso   1.000  C
  C446     1.0000 0.94292  0.99040  0.57057  Biso   1.000  C
  H573     1.0000 0.92178  0.90483  0.57079  Biso   1.000  H
  H574     1.0000 0.92172  0.90478  0.57079  Biso   1.000  H
  H575     1.0000 0.92175  0.90478  0.57079  Biso   1.000  H
  C447     1.0000 0.33422  0.19895  0.18946  Biso   1.000  C
  H576     1.0000 0.25734  0.20117  0.17887  Biso   1.000  H
  H577     1.0000 0.29526  0.23959  0.23385  Biso   1.000  H
  C448     1.0000 0.33425  0.19895  0.18946  Biso   1.000  C
  H578     1.0000 0.29523  0.23954  0.23385  Biso   1.000  H
  C449     1.0000 0.18153  0.15719  0.32568  Biso   1.000  C
  C450     1.0000 0.18151  0.15715  0.32568  Biso   1.000  C
  C451     1.0000 0.18157  0.15719  0.32568  Biso   1.000  C
  C452     1.0000 0.18155  0.15715  0.32568  Biso   1.000  C
  H579     1.0000 0.34946  0.14168  0.14348  Biso   1.000  H
  H580     1.0000 0.29022  0.13963  0.12429  Biso   1.000  H
  H581     1.0000 0.29024  0.13968  0.12429  Biso   1.000  H
  H582     1.0000 0.34940  0.14163  0.14348  Biso   1.000  H
  H583     1.0000 0.29027  0.13968  0.12429  Biso   1.000  H
  H584     1.0000 0.34944  0.14163  0.14348  Biso   1.000  H
  C453     1.0000 0.87064  0.85841  0.26298  Biso   1.000  C
  C454     1.0000 0.87068  0.85841  0.26298  Biso   1.000  C
  H585     1.0000 0.78626  0.73051  0.18299  Biso   1.000  H
  H586     1.0000 0.79137  0.69392  0.23678  Biso   1.000  H
  C455     1.0000 0.82806  0.68479  0.15847  Biso   1.000  C
  H587     1.0000 0.79131  0.69388  0.23678  Biso   1.000  H
  H588     1.0000 0.79135  0.69388  0.23678  Biso   1.000  H
  H589     1.0000 0.87474  0.64320  0.16189  Biso   1.000  H
  H590     1.0000 0.84276  0.64020  0.22307  Biso   1.000  H
  H591     1.0000 0.87478  0.64320  0.16189  Biso   1.000  H
  C456     1.0000 0.09643  0.11886  0.57270  Biso   1.000  C
  C457     1.0000 0.09646  0.11886  0.57270  Biso   1.000  C
  C458     1.0000 0.98973  0.04637  0.57066  Biso   1.000  C
  C459     1.0000 0.98976  0.04637  0.57066  Biso   1.000  C
  C460     1.0000 0.88117  0.97762  0.57270  Biso   1.000  C
  C461     1.0000 0.88111  0.97758  0.57270  Biso   1.000  C
  C462     1.0000 0.88115  0.97758  0.57270  Biso   1.000  C
  H592     1.0000 0.35684  0.23155  0.16189  Biso   1.000  H
  H593     1.0000 0.35984  0.20256  0.22307  Biso   1.000  H
  C463     1.0000 0.21214  0.15006  0.37849  Biso   1.000  C
  C464     1.0000 0.12982  0.16397  0.33827  Biso   1.000  C
  C465     1.0000 0.12986  0.16397  0.33827  Biso   1.000  C
  C466     1.0000 0.84796  0.88531  0.30679  Biso   1.000  C
  C467     1.0000 0.91627  0.89991  0.22059  Biso   1.000  C
  C468     1.0000 0.91623  0.89991  0.22059  Biso   1.000  C
  H594     1.0000 0.79225  0.65059  0.14348  Biso   1.000  H
  H595     1.0000 0.84946  0.70983  0.12429  Biso   1.000  H
  H596     1.0000 0.84943  0.70978  0.12429  Biso   1.000  H
  H597     1.0000 0.84949  0.70983  0.12429  Biso   1.000  H
  N62      1.0000 0.08522  0.15606  0.59402  Biso   1.000  N
  N63      1.0000 0.08516  0.15602  0.59402  Biso   1.000  N
  N64      1.0000 0.08520  0.15602  0.59402  Biso   1.000  N
  C469     1.0000 0.15412  0.12955  0.54778  Biso   1.000  C
  H598     1.0000 0.98302  0.07827  0.57079  Biso   1.000  H
  H599     1.0000 0.98306  0.07827  0.57079  Biso   1.000  H
  N65      1.0000 0.84398  0.92921  0.59402  Biso   1.000  N
  N66      1.0000 0.84396  0.92916  0.59402  Biso   1.000  N
  N67      1.0000 0.84402  0.92921  0.59402  Biso   1.000  N
  C470     1.0000 0.87043  0.02455  0.54778  Biso   1.000  C
  C471     1.0000 0.87046  0.02455  0.54778  Biso   1.000  C
  H600     1.0000 0.22442  0.12186  0.36909  Biso   1.000  H
  H601     1.0000 0.18554  0.13616  0.41245  Biso   1.000  H
  H602     1.0000 0.24625  0.18757  0.38829  Biso   1.000  H
  H603     1.0000 0.18550  0.13616  0.41245  Biso   1.000  H
  H604     1.0000 0.24621  0.18757  0.38829  Biso   1.000  H
  H605     1.0000 0.22446  0.12186  0.36909  Biso   1.000  H
  C472     1.0000 0.12444  0.18709  0.39188  Biso   1.000  C
  C473     1.0000 0.12442  0.18705  0.39188  Biso   1.000  C
  C474     1.0000 0.08602  0.14698  0.29597  Biso   1.000  C
  C475     1.0000 0.08600  0.14693  0.29597  Biso   1.000  C
  C476     1.0000 0.08606  0.14698  0.29597  Biso   1.000  C
  C477     1.0000 0.08604  0.14693  0.29597  Biso   1.000  C
  C478     1.0000 0.85307  0.93911  0.29597  Biso   1.000  C
  C479     1.0000 0.85303  0.93911  0.29597  Biso   1.000  C
  C480     1.0000 0.82396  0.85702  0.36066  Biso   1.000  C
  C481     1.0000 0.82393  0.85698  0.36066  Biso   1.000  C
  H606     1.0000 0.93455  0.88031  0.20068  Biso   1.000  H
  H607     1.0000 0.94583  0.93359  0.24245  Biso   1.000  H
  H608     1.0000 0.89827  0.91291  0.19097  Biso   1.000  H
  H609     1.0000 0.89823  0.91291  0.19097  Biso   1.000  H
  H610     1.0000 0.93459  0.88031  0.20068  Biso   1.000  H
  H611     1.0000 0.94587  0.93359  0.24245  Biso   1.000  H
  C482     1.0000 0.13055  0.21699  0.59859  Biso   1.000  C
  C483     1.0000 0.13053  0.21695  0.59859  Biso   1.000  C
  H612     1.0000 0.17241  0.16606  0.52525  Biso   1.000  H
  H613     1.0000 0.14743  0.09735  0.52157  Biso   1.000  H
  H614     1.0000 0.17245  0.16606  0.52525  Biso   1.000  H
  H615     1.0000 0.17962  0.13238  0.58045  Biso   1.000  H
  H616     1.0000 0.17960  0.13233  0.58045  Biso   1.000  H
  H617     1.0000 0.17966  0.13238  0.58045  Biso   1.000  H
  H618     1.0000 0.17964  0.13233  0.58045  Biso   1.000  H
  C484     1.0000 0.78303  0.91360  0.59859  Biso   1.000  C
  C485     1.0000 0.78307  0.91360  0.59859  Biso   1.000  C
  H619     1.0000 0.83394  0.00639  0.52525  Biso   1.000  H
  H620     1.0000 0.90264  0.05006  0.52157  Biso   1.000  H
  H621     1.0000 0.86764  0.04728  0.58045  Biso   1.000  H
  H622     1.0000 0.83396  0.00634  0.52525  Biso   1.000  H
  H623     1.0000 0.90268  0.05006  0.52157  Biso   1.000  H
  H624     1.0000 0.86765  0.04724  0.58045  Biso   1.000  H
  H625     1.0000 0.83392  0.00634  0.52525  Biso   1.000  H
  H626     1.0000 0.86762  0.04724  0.58045  Biso   1.000  H
  H627     1.0000 0.15415  0.19878  0.42088  Biso   1.000  H
  C486     1.0000 0.07624  0.19335  0.40376  Biso   1.000  C
  H628     1.0000 0.15413  0.19874  0.42088  Biso   1.000  H
  C487     1.0000 0.07620  0.19335  0.40376  Biso   1.000  C
  C488     1.0000 0.03734  0.15206  0.30679  Biso   1.000  C
  H629     1.0000 0.08952  0.13155  0.25917  Biso   1.000  H
  C489     1.0000 0.83607  0.96593  0.33827  Biso   1.000  C
  C490     1.0000 0.83605  0.96588  0.33827  Biso   1.000  C
  H630     1.0000 0.86847  0.95802  0.25917  Biso   1.000  H
  H631     1.0000 0.86841  0.95798  0.25917  Biso   1.000  H
  H632     1.0000 0.86845  0.95798  0.25917  Biso   1.000  H
  C491     1.0000 0.80665  0.88292  0.40376  Biso   1.000  C
  C492     1.0000 0.80663  0.88288  0.40376  Biso   1.000  C
  C493     1.0000 0.80668  0.88292  0.40376  Biso   1.000  C
  C494     1.0000 0.80666  0.88288  0.40376  Biso   1.000  C
  H633     1.0000 0.81944  0.81969  0.36798  Biso   1.000  H
  C495     1.0000 0.11453  0.25367  0.55758  Biso   1.000  C
  C496     1.0000 0.11457  0.25367  0.55758  Biso   1.000  C
  H634     1.0000 0.16865  0.22138  0.58595  Biso   1.000  H
  C497     1.0000 0.13442  0.23655  0.66328  Biso   1.000  C
  H635     1.0000 0.16863  0.22134  0.58595  Biso   1.000  H
  C498     1.0000 0.13444  0.23659  0.66328  Biso   1.000  C
  C499     1.0000 0.13448  0.23659  0.66328  Biso   1.000  C
  C500     1.0000 0.74633  0.86089  0.55758  Biso   1.000  C
  C501     1.0000 0.74636  0.86089  0.55758  Biso   1.000  C
  C502     1.0000 0.76345  0.89792  0.66328  Biso   1.000  C
  H636     1.0000 0.77867  0.94733  0.58595  Biso   1.000  H
  C503     1.0000 0.76343  0.89787  0.66328  Biso   1.000  C
  H637     1.0000 0.77865  0.94728  0.58595  Biso   1.000  H
  C504     1.0000 0.76349  0.89792  0.66328  Biso   1.000  C
  C505     1.0000 0.03304  0.17605  0.36066  Biso   1.000  C
  C506     1.0000 0.07054  0.21425  0.46406  Biso   1.000  C
  C507     1.0000 0.03300  0.17605  0.36066  Biso   1.000  C
  C508     1.0000 0.07051  0.21425  0.46406  Biso   1.000  C
  C509     1.0000 0.98772  0.12938  0.26298  Biso   1.000  C
  C510     1.0000 0.98774  0.12933  0.26298  Biso   1.000  C
  C511     1.0000 0.98776  0.12938  0.26298  Biso   1.000  C
  C512     1.0000 0.84283  0.02438  0.32568  Biso   1.000  C
  C513     1.0000 0.84284  0.02434  0.32568  Biso   1.000  C
  C514     1.0000 0.84286  0.02438  0.32568  Biso   1.000  C
  C515     1.0000 0.81297  0.93742  0.39188  Biso   1.000  C
  C516     1.0000 0.81291  0.93738  0.39188  Biso   1.000  C
  C517     1.0000 0.81295  0.93738  0.39188  Biso   1.000  C
  C518     1.0000 0.78575  0.85633  0.46406  Biso   1.000  C
  C519     1.0000 0.78572  0.85628  0.46406  Biso   1.000  C
  C520     1.0000 0.78578  0.85633  0.46406  Biso   1.000  C
  C521     1.0000 0.78576  0.85628  0.46406  Biso   1.000  C
  N68      1.0000 0.11582  0.23616  0.49705  Biso   1.000  N
  N69      1.0000 0.11586  0.23616  0.49705  Biso   1.000  N
  C522     1.0000 0.15994  0.31808  0.56396  Biso   1.000  C
  H638     1.0000 0.07505  0.24698  0.56760  Biso   1.000  H
  H639     1.0000 0.07501  0.24698  0.56760  Biso   1.000  H
  C523     1.0000 0.18013  0.30117  0.66896  Biso   1.000  C
  C524     1.0000 0.18017  0.30117  0.66896  Biso   1.000  C
  H640     1.0000 0.14524  0.21317  0.68895  Biso   1.000  H
  H641     1.0000 0.09611  0.23016  0.67636  Biso   1.000  H
  H642     1.0000 0.09615  0.23016  0.67636  Biso   1.000  H
  N70      1.0000 0.76387  0.87971  0.49705  Biso   1.000  N
  N71      1.0000 0.76383  0.87971  0.49705  Biso   1.000  N
  H643     1.0000 0.75305  0.82812  0.56760  Biso   1.000  H
  C525     1.0000 0.68196  0.84190  0.56396  Biso   1.000  C
  H644     1.0000 0.75303  0.82808  0.56760  Biso   1.000  H
  C526     1.0000 0.68192  0.84190  0.56396  Biso   1.000  C
  H645     1.0000 0.75309  0.82812  0.56760  Biso   1.000  H
  C527     1.0000 0.69886  0.87901  0.66896  Biso   1.000  C
  H646     1.0000 0.78687  0.93212  0.68895  Biso   1.000  H
  H647     1.0000 0.76985  0.86602  0.67636  Biso   1.000  H
  H648     1.0000 0.78681  0.93207  0.68895  Biso   1.000  H
  H649     1.0000 0.76983  0.86597  0.67636  Biso   1.000  H
  H650     1.0000 0.78685  0.93207  0.68895  Biso   1.000  H
  H651     1.0000 0.00022  0.18057  0.36798  Biso   1.000  H
  H652     1.0000 0.00026  0.18057  0.36798  Biso   1.000  H
  C528     1.0000 0.01035  0.19826  0.48508  Biso   1.000  C
  C529     1.0000 0.01031  0.19826  0.48508  Biso   1.000  C
  C530     1.0000 0.02327  0.22629  0.46885  Biso   1.000  C
  N72      1.0000 0.95442  0.15076  0.26586  Biso   1.000  N
  C531     1.0000 0.98363  0.08379  0.22059  Biso   1.000  C
  N73      1.0000 0.95445  0.15076  0.26586  Biso   1.000  N
  C532     1.0000 0.98365  0.08375  0.22059  Biso   1.000  C
  C533     1.0000 0.98367  0.08379  0.22059  Biso   1.000  C
  C534     1.0000 0.98361  0.08375  0.22059  Biso   1.000  C
  N74      1.0000 0.84452  0.03868  0.27185  Biso   1.000  N
  N75      1.0000 0.84453  0.03863  0.27185  Biso   1.000  N
  N76      1.0000 0.84456  0.03868  0.27185  Biso   1.000  N
  C535     1.0000 0.84992  0.06206  0.37849  Biso   1.000  C
  C536     1.0000 0.84996  0.06206  0.37849  Biso   1.000  C
  H653     1.0000 0.80127  0.95541  0.42088  Biso   1.000  H
  H654     1.0000 0.80123  0.95541  0.42088  Biso   1.000  H
  C537     1.0000 0.80177  0.81213  0.48508  Biso   1.000  C
  C538     1.0000 0.80175  0.81208  0.48508  Biso   1.000  C
  C539     1.0000 0.77377  0.79700  0.46885  Biso   1.000  C
  H655     1.0000 0.14863  0.34137  0.53895  Biso   1.000  H
  C540     1.0000 0.16633  0.33867  0.62839  Biso   1.000  C
  H656     1.0000 0.19795  0.32446  0.54946  Biso   1.000  H
  H657     1.0000 0.19791  0.32446  0.54946  Biso   1.000  H
  H658     1.0000 0.14867  0.34137  0.53895  Biso   1.000  H
  C541     1.0000 0.16636  0.33867  0.62839  Biso   1.000  C
  H659     1.0000 0.21884  0.30678  0.65867  Biso   1.000  H
  H660     1.0000 0.18154  0.31356  0.71059  Biso   1.000  H
  H661     1.0000 0.18150  0.31356  0.71059  Biso   1.000  H
  H662     1.0000 0.65864  0.80730  0.53895  Biso   1.000  H
  H663     1.0000 0.67555  0.87349  0.54946  Biso   1.000  H
  C542     1.0000 0.66134  0.82769  0.62839  Biso   1.000  C
  H664     1.0000 0.65868  0.80730  0.53895  Biso   1.000  H
  H665     1.0000 0.68644  0.86802  0.71059  Biso   1.000  H
  H666     1.0000 0.69325  0.91213  0.65867  Biso   1.000  H
  H667     1.0000 0.68641  0.86797  0.71059  Biso   1.000  H
  H668     1.0000 0.69323  0.91208  0.65867  Biso   1.000  H
  H669     1.0000 0.68647  0.86802  0.71059  Biso   1.000  H
  H670     1.0000 0.69329  0.91213  0.65867  Biso   1.000  H
  H671     1.0000 0.68645  0.86797  0.71059  Biso   1.000  H
  H672     1.0000 0.01014  0.20078  0.52836  Biso   1.000  H
  H673     1.0000 0.01012  0.20074  0.52836  Biso   1.000  H
  H674     1.0000 0.98261  0.15845  0.47258  Biso   1.000  H
  H675     1.0000 0.99914  0.22507  0.46779  Biso   1.000  H
  H676     1.0000 0.98265  0.15845  0.47258  Biso   1.000  H
  H677     1.0000 0.99918  0.22507  0.46779  Biso   1.000  H
  H678     1.0000 0.98613  0.18996  0.46486  Biso   1.000  H
  H679     1.0000 0.02496  0.24389  0.50756  Biso   1.000  H
  H680     1.0000 0.02667  0.25319  0.43728  Biso   1.000  H
  C543     1.0000 0.90582  0.13298  0.22387  Biso   1.000  C
  C544     1.0000 0.90584  0.13294  0.22387  Biso   1.000  C
  C545     1.0000 0.90586  0.13298  0.22387  Biso   1.000  C
  H681     1.0000 0.01465  0.10178  0.19097  Biso   1.000  H
  H682     1.0000 0.01462  0.10174  0.19097  Biso   1.000  H
  H683     1.0000 0.94571  0.06545  0.20068  Biso   1.000  H
  H684     1.0000 0.98771  0.05415  0.24245  Biso   1.000  H
  H685     1.0000 0.94575  0.06545  0.20068  Biso   1.000  H
  H686     1.0000 0.98774  0.05415  0.24245  Biso   1.000  H
  C546     1.0000 0.84874  0.09357  0.25518  Biso   1.000  C
  C547     1.0000 0.84878  0.09357  0.25518  Biso   1.000  C
  H687     1.0000 0.87812  0.10256  0.36909  Biso   1.000  H
  H688     1.0000 0.86383  0.04937  0.41245  Biso   1.000  H
  H689     1.0000 0.81244  0.05867  0.38829  Biso   1.000  H
  H690     1.0000 0.87815  0.10256  0.36909  Biso   1.000  H
  H691     1.0000 0.86386  0.04937  0.41245  Biso   1.000  H
  H692     1.0000 0.81247  0.05867  0.38829  Biso   1.000  H
  H693     1.0000 0.79924  0.80939  0.52836  Biso   1.000  H
  H694     1.0000 0.84154  0.82421  0.47258  Biso   1.000  H
  H695     1.0000 0.77493  0.77410  0.46779  Biso   1.000  H
  H696     1.0000 0.79928  0.80939  0.52836  Biso   1.000  H
  H697     1.0000 0.84157  0.82421  0.47258  Biso   1.000  H
  H698     1.0000 0.77497  0.77410  0.46779  Biso   1.000  H
  H699     1.0000 0.75615  0.78110  0.50756  Biso   1.000  H
  H700     1.0000 0.81006  0.79618  0.46486  Biso   1.000  H
  H701     1.0000 0.74685  0.77349  0.43728  Biso   1.000  H
  H702     1.0000 0.12973  0.33646  0.64156  Biso   1.000  H
  H703     1.0000 0.19784  0.37966  0.63118  Biso   1.000  H
  H704     1.0000 0.19781  0.37966  0.63118  Biso   1.000  H
  H705     1.0000 0.62036  0.81821  0.63118  Biso   1.000  H
  H706     1.0000 0.66353  0.79331  0.64156  Biso   1.000  H
  H707     1.0000 0.66357  0.79331  0.64156  Biso   1.000  H
  H708     1.0000 0.91073  0.11217  0.18946  Biso   1.000  H
  C548     1.0000 0.90665  0.18779  0.20246  Biso   1.000  C
  H709     1.0000 0.91077  0.11217  0.18946  Biso   1.000  H
  C549     1.0000 0.90663  0.18774  0.20246  Biso   1.000  C
  C550     1.0000 0.79763  0.07927  0.21265  Biso   1.000  C
  H710     1.0000 0.84534  0.11356  0.29127  Biso   1.000  H
  C551     1.0000 0.79767  0.07927  0.21265  Biso   1.000  C
  H711     1.0000 0.94422  0.21377  0.18299  Biso   1.000  H
  H712     1.0000 0.90254  0.20869  0.23678  Biso   1.000  H
  C552     1.0000 0.85674  0.17197  0.15847  Biso   1.000  C
  H713     1.0000 0.94426  0.21377  0.18299  Biso   1.000  H
  H714     1.0000 0.90255  0.20865  0.23678  Biso   1.000  H
  C553     1.0000 0.85678  0.17197  0.15847  Biso   1.000  C
  H715     1.0000 0.90252  0.20865  0.23678  Biso   1.000  H
  C554     1.0000 0.80103  0.13529  0.18946  Biso   1.000  C
  C555     1.0000 0.80104  0.13524  0.18946  Biso   1.000  C
  C556     1.0000 0.80106  0.13529  0.18946  Biso   1.000  C
  H716     1.0000 0.79883  0.05615  0.17887  Biso   1.000  H
  H717     1.0000 0.76043  0.05567  0.23385  Biso   1.000  H
  H718     1.0000 0.79887  0.05615  0.17887  Biso   1.000  H
  H719     1.0000 0.76047  0.05567  0.23385  Biso   1.000  H
  H720     1.0000 0.85835  0.20778  0.14348  Biso   1.000  H
  H721     1.0000 0.86035  0.15058  0.12429  Biso   1.000  H
  H722     1.0000 0.85833  0.20773  0.14348  Biso   1.000  H
  H723     1.0000 0.86033  0.15054  0.12429  Biso   1.000  H
  H724     1.0000 0.76842  0.12525  0.16189  Biso   1.000  H
  H725     1.0000 0.79742  0.15728  0.22307  Biso   1.000  H
  H726     1.0000 0.76846  0.12525  0.16189  Biso   1.000  H
  H727     1.0000 0.79744  0.15723  0.22307  Biso   1.000  H
  H728     1.0000 0.79746  0.15728  0.22307  Biso   1.000  H
  C557     1.0000 0.20304  0.97679  0.46885  Biso   1.000  C
  C558     1.0000 0.14375  0.92951  0.46406  Biso   1.000  C
  H729     1.0000 0.22595  0.00087  0.46779  Biso   1.000  H
  H730     1.0000 0.21894  0.97510  0.50756  Biso   1.000  H
  H731     1.0000 0.22591  0.00087  0.46779  Biso   1.000  H
  H732     1.0000 0.20385  0.01386  0.46486  Biso   1.000  H
  H733     1.0000 0.22656  0.97340  0.43728  Biso   1.000  H
  C559     1.0000 0.11716  0.92382  0.40376  Biso   1.000  C
  C560     1.0000 0.11714  0.92377  0.40376  Biso   1.000  C
  C561     1.0000 0.11712  0.92382  0.40376  Biso   1.000  C
  N77      1.0000 0.12036  0.88423  0.49705  Biso   1.000  N
  C562     1.0000 0.18796  0.98970  0.48508  Biso   1.000  C
  N78      1.0000 0.12034  0.88418  0.49705  Biso   1.000  N
  C563     1.0000 0.18793  0.98970  0.48508  Biso   1.000  C
  C564     1.0000 0.14305  0.96701  0.36066  Biso   1.000  C
  C565     1.0000 0.14309  0.96701  0.36066  Biso   1.000  C
  C566     1.0000 0.06265  0.87562  0.39188  Biso   1.000  C
  C567     1.0000 0.06263  0.87558  0.39188  Biso   1.000  C
  C568     1.0000 0.06267  0.87558  0.39188  Biso   1.000  C
  C569     1.0000 0.13915  0.88553  0.55758  Biso   1.000  C
  C570     1.0000 0.13913  0.88549  0.55758  Biso   1.000  C
  C571     1.0000 0.13917  0.88549  0.55758  Biso   1.000  C
  H734     1.0000 0.19067  0.98992  0.52836  Biso   1.000  H
  H735     1.0000 0.19065  0.98987  0.52836  Biso   1.000  H
  H736     1.0000 0.19063  0.98992  0.52836  Biso   1.000  H
  H737     1.0000 0.17584  0.01738  0.47258  Biso   1.000  H
  H738     1.0000 0.17581  0.01734  0.47258  Biso   1.000  H
  H739     1.0000 0.17587  0.01738  0.47258  Biso   1.000  H
  C572     1.0000 0.11474  0.96271  0.30679  Biso   1.000  C
  C573     1.0000 0.11478  0.96271  0.30679  Biso   1.000  C
  H740     1.0000 0.18038  0.99983  0.36798  Biso   1.000  H
  H741     1.0000 0.18032  0.99978  0.36798  Biso   1.000  H
  H742     1.0000 0.18034  0.99983  0.36798  Biso   1.000  H
  H743     1.0000 0.18036  0.99978  0.36798  Biso   1.000  H
  C574     1.0000 0.03415  0.87019  0.33827  Biso   1.000  C
  C575     1.0000 0.03412  0.87019  0.33827  Biso   1.000  C
  H744     1.0000 0.04466  0.84590  0.42088  Biso   1.000  H
  H745     1.0000 0.04463  0.84590  0.42088  Biso   1.000  H
  H746     1.0000 0.17194  0.92499  0.56760  Biso   1.000  H
  C576     1.0000 0.15815  0.84012  0.56396  Biso   1.000  C
  C577     1.0000 0.08646  0.86949  0.59859  Biso   1.000  C
  C578     1.0000 0.15812  0.84007  0.56396  Biso   1.000  C
  C579     1.0000 0.08642  0.86949  0.59859  Biso   1.000  C
  C580     1.0000 0.15816  0.84007  0.56396  Biso   1.000  C
  C581     1.0000 0.14162  0.01226  0.26298  Biso   1.000  C
  C582     1.0000 0.14166  0.01226  0.26298  Biso   1.000  C
  C583     1.0000 0.06095  0.91400  0.29597  Biso   1.000  C
  C584     1.0000 0.06091  0.91400  0.29597  Biso   1.000  C
  C585     1.0000 0.97565  0.81852  0.32568  Biso   1.000  C
  C586     1.0000 0.97563  0.81847  0.32568  Biso   1.000  C
  C587     1.0000 0.97569  0.81852  0.32568  Biso   1.000  C
  H747     1.0000 0.19278  0.85141  0.53895  Biso   1.000  H
  H748     1.0000 0.12656  0.80209  0.54946  Biso   1.000  H
  C588     1.0000 0.17238  0.83373  0.62839  Biso   1.000  C
  H749     1.0000 0.19272  0.85137  0.53895  Biso   1.000  H
  H750     1.0000 0.12652  0.80209  0.54946  Biso   1.000  H
  C589     1.0000 0.17236  0.83368  0.62839  Biso   1.000  C
  H751     1.0000 0.19274  0.85141  0.53895  Biso   1.000  H
  C590     1.0000 0.17234  0.83373  0.62839  Biso   1.000  C
  H752     1.0000 0.19275  0.85137  0.53895  Biso   1.000  H
  N79      1.0000 0.07087  0.91486  0.59402  Biso   1.000  N
  C591     1.0000 0.10218  0.86563  0.66328  Biso   1.000  C
  H753     1.0000 0.05275  0.83142  0.58595  Biso   1.000  H
  N80      1.0000 0.07085  0.91482  0.59402  Biso   1.000  N
  C592     1.0000 0.10212  0.86558  0.66328  Biso   1.000  C
  H754     1.0000 0.05272  0.83138  0.58595  Biso   1.000  H
  C593     1.0000 0.10214  0.86563  0.66328  Biso   1.000  C
  C594     1.0000 0.10215  0.86558  0.66328  Biso   1.000  C
  H755     1.0000 0.05276  0.83138  0.58595  Biso   1.000  H
  N81      1.0000 0.19634  0.04559  0.26586  Biso   1.000  N
  N82      1.0000 0.19631  0.04554  0.26586  Biso   1.000  N
  N83      1.0000 0.19637  0.04559  0.26586  Biso   1.000  N
  C595     1.0000 0.10014  0.01638  0.22059  Biso   1.000  C
  C596     1.0000 0.10012  0.01634  0.22059  Biso   1.000  C
  C597     1.0000 0.10018  0.01638  0.22059  Biso   1.000  C
  H756     1.0000 0.04205  0.91052  0.25917  Biso   1.000  H
  H757     1.0000 0.04203  0.91047  0.25917  Biso   1.000  H
  H758     1.0000 0.04206  0.91047  0.25917  Biso   1.000  H
  N84      1.0000 0.96137  0.80591  0.27185  Biso   1.000  N
  C598     1.0000 0.93796  0.78792  0.37849  Biso   1.000  C
  C599     1.0000 0.93794  0.78788  0.37849  Biso   1.000  C
  H759     1.0000 0.18188  0.80222  0.63118  Biso   1.000  H
  H760     1.0000 0.20678  0.87032  0.64156  Biso   1.000  H
  C600     1.0000 0.12106  0.81991  0.66896  Biso   1.000  C
  H761     1.0000 0.18182  0.80218  0.63118  Biso   1.000  H
  H762     1.0000 0.20672  0.87028  0.64156  Biso   1.000  H
  H763     1.0000 0.18184  0.80222  0.63118  Biso   1.000  H
  H764     1.0000 0.20674  0.87032  0.64156  Biso   1.000  H
  C601     1.0000 0.12102  0.81991  0.66896  Biso   1.000  C
  H765     1.0000 0.18186  0.80218  0.63118  Biso   1.000  H
  H766     1.0000 0.20676  0.87028  0.64156  Biso   1.000  H
  C602     1.0000 0.02245  0.90361  0.57270  Biso   1.000  C
  H767     1.0000 0.06794  0.85480  0.68895  Biso   1.000  H
  H768     1.0000 0.13404  0.90391  0.67636  Biso   1.000  H
  H769     1.0000 0.06797  0.85480  0.68895  Biso   1.000  H
  H770     1.0000 0.13408  0.90391  0.67636  Biso   1.000  H
  C603     1.0000 0.22714  0.09418  0.22387  Biso   1.000  C
  C604     1.0000 0.22712  0.09413  0.22387  Biso   1.000  C
  H771     1.0000 0.06642  0.01226  0.24245  Biso   1.000  H
  H772     1.0000 0.08717  0.98540  0.19097  Biso   1.000  H
  H773     1.0000 0.08713  0.98540  0.19097  Biso   1.000  H
  H774     1.0000 0.11973  0.05428  0.20068  Biso   1.000  H
  H775     1.0000 0.11970  0.05424  0.20068  Biso   1.000  H
  H776     1.0000 0.11976  0.05428  0.20068  Biso   1.000  H
  H777     1.0000 0.06646  0.01226  0.24245  Biso   1.000  H
  H778     1.0000 0.11974  0.05424  0.20068  Biso   1.000  H
  C605     1.0000 0.90647  0.75520  0.25518  Biso   1.000  C
  C606     1.0000 0.90643  0.75520  0.25518  Biso   1.000  C
  H779     1.0000 0.89745  0.77562  0.36909  Biso   1.000  H
  H780     1.0000 0.95065  0.81452  0.41245  Biso   1.000  H
  H781     1.0000 0.94134  0.75381  0.38829  Biso   1.000  H
  H782     1.0000 0.89742  0.77558  0.36909  Biso   1.000  H
  H783     1.0000 0.95063  0.81447  0.41245  Biso   1.000  H
  H784     1.0000 0.89748  0.77562  0.36909  Biso   1.000  H
  H785     1.0000 0.95069  0.81452  0.41245  Biso   1.000  H
  H786     1.0000 0.94137  0.75381  0.38829  Biso   1.000  H
  H787     1.0000 0.89746  0.77558  0.36909  Biso   1.000  H
  H788     1.0000 0.13207  0.81852  0.71059  Biso   1.000  H
  H789     1.0000 0.08798  0.78123  0.65867  Biso   1.000  H
  H790     1.0000 0.13204  0.81847  0.71059  Biso   1.000  H
  H791     1.0000 0.08792  0.78118  0.65867  Biso   1.000  H
  H792     1.0000 0.13203  0.81852  0.71059  Biso   1.000  H
  H793     1.0000 0.08794  0.78123  0.65867  Biso   1.000  H
  H794     1.0000 0.08796  0.78118  0.65867  Biso   1.000  H
  C607     1.0000 0.00966  0.95263  0.57057  Biso   1.000  C
  C608     1.0000 0.00964  0.95259  0.57057  Biso   1.000  C
  C609     1.0000 0.97545  0.84590  0.54778  Biso   1.000  C
  C610     1.0000 0.24485  0.15128  0.25518  Biso   1.000  C
  C611     1.0000 0.24483  0.15124  0.25518  Biso   1.000  C
  H795     1.0000 0.20143  0.08926  0.18946  Biso   1.000  H
  C612     1.0000 0.28111  0.09335  0.20246  Biso   1.000  C
  H796     1.0000 0.20146  0.08926  0.18946  Biso   1.000  H
  C613     1.0000 0.28115  0.09335  0.20246  Biso   1.000  C
  C614     1.0000 0.86708  0.77293  0.22387  Biso   1.000  C
  C615     1.0000 0.92073  0.71839  0.21265  Biso   1.000  C
  H797     1.0000 0.88646  0.73182  0.29127  Biso   1.000  H
  C616     1.0000 0.86702  0.77288  0.22387  Biso   1.000  C
  H798     1.0000 0.88644  0.73177  0.29127  Biso   1.000  H
  C617     1.0000 0.92077  0.71839  0.21265  Biso   1.000  C
  C618     1.0000 0.86706  0.77288  0.22387  Biso   1.000  C
  C619     1.0000 0.05661  0.01026  0.57066  Biso   1.000  C
  C620     1.0000 0.05665  0.01026  0.57066  Biso   1.000  C
  C621     1.0000 0.95364  0.94342  0.57066  Biso   1.000  C
  C622     1.0000 0.95362  0.94337  0.57066  Biso   1.000  C
  C623     1.0000 0.95368  0.94342  0.57066  Biso   1.000  C
  C624     1.0000 0.95366  0.94337  0.57066  Biso   1.000  C
  H799     1.0000 0.99366  0.82760  0.52525  Biso   1.000  H
  H800     1.0000 0.94993  0.85259  0.52157  Biso   1.000  H
  H801     1.0000 0.95278  0.82043  0.58045  Biso   1.000  H
  H802     1.0000 0.99363  0.82760  0.52525  Biso   1.000  H
  H803     1.0000 0.95272  0.82038  0.58045  Biso   1.000  H
  H804     1.0000 0.94997  0.85259  0.52157  Biso   1.000  H
  H805     1.0000 0.95276  0.82038  0.58045  Biso   1.000  H
  N85      1.0000 0.19414  0.15545  0.27185  Biso   1.000  N
  H806     1.0000 0.26823  0.15467  0.29127  Biso   1.000  H
  C625     1.0000 0.28166  0.20239  0.21265  Biso   1.000  C
  C626     1.0000 0.28160  0.20234  0.21265  Biso   1.000  C
  H807     1.0000 0.26826  0.15467  0.29127  Biso   1.000  H
  C627     1.0000 0.28164  0.20234  0.21265  Biso   1.000  C
  H808     1.0000 0.26954  0.05576  0.18299  Biso   1.000  H
  H809     1.0000 0.30613  0.09748  0.23678  Biso   1.000  H
  C628     1.0000 0.31526  0.14328  0.15847  Biso   1.000  C
  H810     1.0000 0.30611  0.09743  0.23678  Biso   1.000  H
  C629     1.0000 0.31520  0.14324  0.15847  Biso   1.000  C
  H811     1.0000 0.30617  0.09748  0.23678  Biso   1.000  H
  C630     1.0000 0.31524  0.14324  0.15847  Biso   1.000  C
  N86      1.0000 0.84923  0.80370  0.26586  Biso   1.000  N
  H812     1.0000 0.88786  0.79861  0.18946  Biso   1.000  H
  C631     1.0000 0.81226  0.71891  0.20246  Biso   1.000  C
  N87      1.0000 0.84927  0.80370  0.26586  Biso   1.000  N
  C632     1.0000 0.86474  0.66580  0.18946  Biso   1.000  C
  H813     1.0000 0.94385  0.74272  0.17887  Biso   1.000  H
  H814     1.0000 0.94434  0.70478  0.23385  Biso   1.000  H
  H815     1.0000 0.94383  0.74268  0.17887  Biso   1.000  H
  C633     1.0000 0.86478  0.66580  0.18946  Biso   1.000  C
  H816     1.0000 0.94389  0.74272  0.17887  Biso   1.000  H
  H817     1.0000 0.94438  0.70478  0.23385  Biso   1.000  H
  H818     1.0000 0.94387  0.74268  0.17887  Biso   1.000  H
  C634     1.0000 0.04742  0.05706  0.57057  Biso   1.000  C
  C635     1.0000 0.04746  0.05706  0.57057  Biso   1.000  C
  H819     1.0000 0.09523  0.01695  0.57079  Biso   1.000  H
  C636     1.0000 0.94296  0.99040  0.57057  Biso   1.000  C
  C637     1.0000 0.94292  0.99040  0.57057  Biso   1.000  C
  H820     1.0000 0.92178  0.90483  0.57079  Biso   1.000  H
  H821     1.0000 0.92172  0.90478  0.57079  Biso   1.000  H
  H822     1.0000 0.92175  0.90478  0.57079  Biso   1.000  H
  C638     1.0000 0.18153  0.15719  0.32568  Biso   1.000  C
  C639     1.0000 0.18151  0.15715  0.32568  Biso   1.000  C
  C640     1.0000 0.18157  0.15719  0.32568  Biso   1.000  C
  C641     1.0000 0.18155  0.15715  0.32568  Biso   1.000  C
  H823     1.0000 0.25734  0.20117  0.17887  Biso   1.000  H
  C642     1.0000 0.33422  0.19895  0.18946  Biso   1.000  C
  H824     1.0000 0.29526  0.23959  0.23385  Biso   1.000  H
  H825     1.0000 0.29523  0.23954  0.23385  Biso   1.000  H
  C643     1.0000 0.33425  0.19895  0.18946  Biso   1.000  C
  H826     1.0000 0.34946  0.14168  0.14348  Biso   1.000  H
  H827     1.0000 0.29024  0.13968  0.12429  Biso   1.000  H
  H828     1.0000 0.34940  0.14163  0.14348  Biso   1.000  H
  H829     1.0000 0.29022  0.13963  0.12429  Biso   1.000  H
  H830     1.0000 0.29027  0.13968  0.12429  Biso   1.000  H
  H831     1.0000 0.34944  0.14163  0.14348  Biso   1.000  H
  C644     1.0000 0.87064  0.85841  0.26298  Biso   1.000  C
  C645     1.0000 0.87068  0.85841  0.26298  Biso   1.000  C
  H832     1.0000 0.78626  0.73051  0.18299  Biso   1.000  H
  H833     1.0000 0.79137  0.69392  0.23678  Biso   1.000  H
  C646     1.0000 0.82806  0.68479  0.15847  Biso   1.000  C
  H834     1.0000 0.79131  0.69388  0.23678  Biso   1.000  H
  H835     1.0000 0.79135  0.69388  0.23678  Biso   1.000  H
  H836     1.0000 0.87474  0.64320  0.16189  Biso   1.000  H
  H837     1.0000 0.84276  0.64020  0.22307  Biso   1.000  H
  H838     1.0000 0.87478  0.64320  0.16189  Biso   1.000  H
  C647     1.0000 0.09643  0.11886  0.57270  Biso   1.000  C
  C648     1.0000 0.09646  0.11886  0.57270  Biso   1.000  C
  C649     1.0000 0.98973  0.04637  0.57066  Biso   1.000  C
  C650     1.0000 0.98976  0.04637  0.57066  Biso   1.000  C
  C651     1.0000 0.88117  0.97762  0.57270  Biso   1.000  C
  C652     1.0000 0.88111  0.97758  0.57270  Biso   1.000  C
  C653     1.0000 0.88115  0.97758  0.57270  Biso   1.000  C
  C654     1.0000 0.21214  0.15006  0.37849  Biso   1.000  C
  C655     1.0000 0.12982  0.16397  0.33827  Biso   1.000  C
  C656     1.0000 0.12986  0.16397  0.33827  Biso   1.000  C
  H839     1.0000 0.35684  0.23155  0.16189  Biso   1.000  H
  H840     1.0000 0.35984  0.20256  0.22307  Biso   1.000  H
  C657     1.0000 0.84796  0.88531  0.30679  Biso   1.000  C
  C658     1.0000 0.91627  0.89991  0.22059  Biso   1.000  C
  C659     1.0000 0.91623  0.89991  0.22059  Biso   1.000  C
  H841     1.0000 0.79225  0.65059  0.14348  Biso   1.000  H
  H842     1.0000 0.84946  0.70983  0.12429  Biso   1.000  H
  H843     1.0000 0.84943  0.70978  0.12429  Biso   1.000  H
  H844     1.0000 0.84949  0.70983  0.12429  Biso   1.000  H
  N88      1.0000 0.08522  0.15606  0.59402  Biso   1.000  N
  N89      1.0000 0.08516  0.15602  0.59402  Biso   1.000  N
  N90      1.0000 0.08520  0.15602  0.59402  Biso   1.000  N
  C660     1.0000 0.15412  0.12955  0.54778  Biso   1.000  C
  H845     1.0000 0.98302  0.07827  0.57079  Biso   1.000  H
  H846     1.0000 0.98306  0.07827  0.57079  Biso   1.000  H
  N91      1.0000 0.84398  0.92921  0.59402  Biso   1.000  N
  N92      1.0000 0.84396  0.92916  0.59402  Biso   1.000  N
  N93      1.0000 0.84402  0.92921  0.59402  Biso   1.000  N
  C661     1.0000 0.87043  0.02455  0.54778  Biso   1.000  C
  C662     1.0000 0.87046  0.02455  0.54778  Biso   1.000  C
  H847     1.0000 0.22442  0.12186  0.36909  Biso   1.000  H
  H848     1.0000 0.18554  0.13616  0.41245  Biso   1.000  H
  H849     1.0000 0.24625  0.18757  0.38829  Biso   1.000  H
  H850     1.0000 0.18550  0.13616  0.41245  Biso   1.000  H
  H851     1.0000 0.24621  0.18757  0.38829  Biso   1.000  H
  H852     1.0000 0.22446  0.12186  0.36909  Biso   1.000  H
  C663     1.0000 0.12444  0.18709  0.39188  Biso   1.000  C
  C664     1.0000 0.08602  0.14698  0.29597  Biso   1.000  C
  C665     1.0000 0.12442  0.18705  0.39188  Biso   1.000  C
  C666     1.0000 0.08600  0.14693  0.29597  Biso   1.000  C
  C667     1.0000 0.08606  0.14698  0.29597  Biso   1.000  C
  C668     1.0000 0.08604  0.14693  0.29597  Biso   1.000  C
  C669     1.0000 0.85307  0.93911  0.29597  Biso   1.000  C
  C670     1.0000 0.85303  0.93911  0.29597  Biso   1.000  C
  C671     1.0000 0.82396  0.85702  0.36066  Biso   1.000  C
  C672     1.0000 0.82393  0.85698  0.36066  Biso   1.000  C
  H853     1.0000 0.93455  0.88031  0.20068  Biso   1.000  H
  H854     1.0000 0.94583  0.93359  0.24245  Biso   1.000  H
  H855     1.0000 0.89827  0.91291  0.19097  Biso   1.000  H
  H856     1.0000 0.89823  0.91291  0.19097  Biso   1.000  H
  H857     1.0000 0.93459  0.88031  0.20068  Biso   1.000  H
  H858     1.0000 0.94587  0.93359  0.24245  Biso   1.000  H
  C673     1.0000 0.13055  0.21699  0.59859  Biso   1.000  C
  C674     1.0000 0.13053  0.21695  0.59859  Biso   1.000  C
  H859     1.0000 0.14743  0.09735  0.52157  Biso   1.000  H
  H860     1.0000 0.17241  0.16606  0.52525  Biso   1.000  H
  H861     1.0000 0.17962  0.13238  0.58045  Biso   1.000  H
  H862     1.0000 0.17960  0.13233  0.58045  Biso   1.000  H
  H863     1.0000 0.17245  0.16606  0.52525  Biso   1.000  H
  H864     1.0000 0.17966  0.13238  0.58045  Biso   1.000  H
  H865     1.0000 0.17964  0.13233  0.58045  Biso   1.000  H
  C675     1.0000 0.78303  0.91360  0.59859  Biso   1.000  C
  C676     1.0000 0.78307  0.91360  0.59859  Biso   1.000  C
  H866     1.0000 0.83394  0.00639  0.52525  Biso   1.000  H
  H867     1.0000 0.90264  0.05006  0.52157  Biso   1.000  H
  H868     1.0000 0.86764  0.04728  0.58045  Biso   1.000  H
  H869     1.0000 0.83396  0.00634  0.52525  Biso   1.000  H
  H870     1.0000 0.90268  0.05006  0.52157  Biso   1.000  H
  H871     1.0000 0.86765  0.04724  0.58045  Biso   1.000  H
  H872     1.0000 0.83392  0.00634  0.52525  Biso   1.000  H
  H873     1.0000 0.86762  0.04724  0.58045  Biso   1.000  H
  C677     1.0000 0.07624  0.19335  0.40376  Biso   1.000  C
  H874     1.0000 0.15415  0.19878  0.42088  Biso   1.000  H
  H875     1.0000 0.15413  0.19874  0.42088  Biso   1.000  H
  C678     1.0000 0.07620  0.19335  0.40376  Biso   1.000  C
  C679     1.0000 0.03734  0.15206  0.30679  Biso   1.000  C
  H876     1.0000 0.08952  0.13155  0.25917  Biso   1.000  H
  C680     1.0000 0.83607  0.96593  0.33827  Biso   1.000  C
  C681     1.0000 0.83605  0.96588  0.33827  Biso   1.000  C
  H877     1.0000 0.86847  0.95802  0.25917  Biso   1.000  H
  H878     1.0000 0.86841  0.95798  0.25917  Biso   1.000  H
  H879     1.0000 0.86845  0.95798  0.25917  Biso   1.000  H
  C682     1.0000 0.80665  0.88292  0.40376  Biso   1.000  C
  C683     1.0000 0.80663  0.88288  0.40376  Biso   1.000  C
  C684     1.0000 0.80668  0.88292  0.40376  Biso   1.000  C
  C685     1.0000 0.80666  0.88288  0.40376  Biso   1.000  C
  H880     1.0000 0.81944  0.81969  0.36798  Biso   1.000  H
  C686     1.0000 0.11453  0.25367  0.55758  Biso   1.000  C
  C687     1.0000 0.11457  0.25367  0.55758  Biso   1.000  C
  C688     1.0000 0.13444  0.23659  0.66328  Biso   1.000  C
  H881     1.0000 0.16865  0.22138  0.58595  Biso   1.000  H
  C689     1.0000 0.13442  0.23655  0.66328  Biso   1.000  C
  H882     1.0000 0.16863  0.22134  0.58595  Biso   1.000  H
  C690     1.0000 0.13448  0.23659  0.66328  Biso   1.000  C
  C691     1.0000 0.74633  0.86089  0.55758  Biso   1.000  C
  C692     1.0000 0.74636  0.86089  0.55758  Biso   1.000  C
  C693     1.0000 0.76345  0.89792  0.66328  Biso   1.000  C
  H883     1.0000 0.77867  0.94733  0.58595  Biso   1.000  H
  C694     1.0000 0.76343  0.89787  0.66328  Biso   1.000  C
  H884     1.0000 0.77865  0.94728  0.58595  Biso   1.000  H
  C695     1.0000 0.76349  0.89792  0.66328  Biso   1.000  C
  C696     1.0000 0.03304  0.17605  0.36066  Biso   1.000  C
  C697     1.0000 0.07054  0.21425  0.46406  Biso   1.000  C
  C698     1.0000 0.03300  0.17605  0.36066  Biso   1.000  C
  C699     1.0000 0.07051  0.21425  0.46406  Biso   1.000  C
  C700     1.0000 0.98772  0.12938  0.26298  Biso   1.000  C
  C701     1.0000 0.98774  0.12933  0.26298  Biso   1.000  C
  C702     1.0000 0.98776  0.12938  0.26298  Biso   1.000  C
  C703     1.0000 0.84283  0.02438  0.32568  Biso   1.000  C
  C704     1.0000 0.84284  0.02434  0.32568  Biso   1.000  C
  C705     1.0000 0.84286  0.02438  0.32568  Biso   1.000  C
  C706     1.0000 0.81297  0.93742  0.39188  Biso   1.000  C
  C707     1.0000 0.81291  0.93738  0.39188  Biso   1.000  C
  C708     1.0000 0.81295  0.93738  0.39188  Biso   1.000  C
  C709     1.0000 0.78575  0.85633  0.46406  Biso   1.000  C
  C710     1.0000 0.78572  0.85628  0.46406  Biso   1.000  C
  C711     1.0000 0.78578  0.85633  0.46406  Biso   1.000  C
  C712     1.0000 0.78576  0.85628  0.46406  Biso   1.000  C
  N94      1.0000 0.11582  0.23616  0.49705  Biso   1.000  N
  N95      1.0000 0.11586  0.23616  0.49705  Biso   1.000  N
  C713     1.0000 0.15994  0.31808  0.56396  Biso   1.000  C
  H885     1.0000 0.07505  0.24698  0.56760  Biso   1.000  H
  H886     1.0000 0.07501  0.24698  0.56760  Biso   1.000  H
  C714     1.0000 0.18013  0.30117  0.66896  Biso   1.000  C
  C715     1.0000 0.18017  0.30117  0.66896  Biso   1.000  C
  H887     1.0000 0.14524  0.21317  0.68895  Biso   1.000  H
  H888     1.0000 0.09611  0.23016  0.67636  Biso   1.000  H
  H889     1.0000 0.09615  0.23016  0.67636  Biso   1.000  H
  N96      1.0000 0.76387  0.87971  0.49705  Biso   1.000  N
  N97      1.0000 0.76383  0.87971  0.49705  Biso   1.000  N
  H890     1.0000 0.75305  0.82812  0.56760  Biso   1.000  H
  C716     1.0000 0.68196  0.84190  0.56396  Biso   1.000  C
  H891     1.0000 0.75303  0.82808  0.56760  Biso   1.000  H
  C717     1.0000 0.68192  0.84190  0.56396  Biso   1.000  C
  H892     1.0000 0.75309  0.82812  0.56760  Biso   1.000  H
  C718     1.0000 0.69886  0.87901  0.66896  Biso   1.000  C
  H893     1.0000 0.78687  0.93212  0.68895  Biso   1.000  H
  H894     1.0000 0.76985  0.86602  0.67636  Biso   1.000  H
  H895     1.0000 0.78681  0.93207  0.68895  Biso   1.000  H
  H896     1.0000 0.76983  0.86597  0.67636  Biso   1.000  H
  H897     1.0000 0.78685  0.93207  0.68895  Biso   1.000  H
  H898     1.0000 0.00022  0.18057  0.36798  Biso   1.000  H
  H899     1.0000 0.00026  0.18057  0.36798  Biso   1.000  H
  C719     1.0000 0.01035  0.19826  0.48508  Biso   1.000  C
  C720     1.0000 0.01031  0.19826  0.48508  Biso   1.000  C
  C721     1.0000 0.02327  0.22629  0.46885  Biso   1.000  C
  N98      1.0000 0.95442  0.15076  0.26586  Biso   1.000  N
  C722     1.0000 0.98363  0.08379  0.22059  Biso   1.000  C
  N99      1.0000 0.95445  0.15076  0.26586  Biso   1.000  N
  C723     1.0000 0.98365  0.08375  0.22059  Biso   1.000  C
  C724     1.0000 0.98367  0.08379  0.22059  Biso   1.000  C
  C725     1.0000 0.98361  0.08375  0.22059  Biso   1.000  C
  N100     1.0000 0.84452  0.03868  0.27185  Biso   1.000  N
  N101     1.0000 0.84453  0.03863  0.27185  Biso   1.000  N
  N102     1.0000 0.84456  0.03868  0.27185  Biso   1.000  N
  C726     1.0000 0.84992  0.06206  0.37849  Biso   1.000  C
  C727     1.0000 0.84996  0.06206  0.37849  Biso   1.000  C
  H900     1.0000 0.80127  0.95541  0.42088  Biso   1.000  H
  H901     1.0000 0.80123  0.95541  0.42088  Biso   1.000  H
  C728     1.0000 0.80177  0.81213  0.48508  Biso   1.000  C
  C729     1.0000 0.80175  0.81208  0.48508  Biso   1.000  C
  C730     1.0000 0.77377  0.79700  0.46885  Biso   1.000  C
  H902     1.0000 0.14863  0.34137  0.53895  Biso   1.000  H
  H903     1.0000 0.19795  0.32446  0.54946  Biso   1.000  H
  C731     1.0000 0.16633  0.33867  0.62839  Biso   1.000  C
  H904     1.0000 0.19791  0.32446  0.54946  Biso   1.000  H
  H905     1.0000 0.14867  0.34137  0.53895  Biso   1.000  H
  C732     1.0000 0.16636  0.33867  0.62839  Biso   1.000  C
  H906     1.0000 0.21884  0.30678  0.65867  Biso   1.000  H
  H907     1.0000 0.18154  0.31356  0.71059  Biso   1.000  H
  H908     1.0000 0.18150  0.31356  0.71059  Biso   1.000  H
  H909     1.0000 0.65864  0.80730  0.53895  Biso   1.000  H
  H910     1.0000 0.67555  0.87349  0.54946  Biso   1.000  H
  C733     1.0000 0.66134  0.82769  0.62839  Biso   1.000  C
  H911     1.0000 0.65868  0.80730  0.53895  Biso   1.000  H
  H912     1.0000 0.68644  0.86802  0.71059  Biso   1.000  H
  H913     1.0000 0.69325  0.91213  0.65867  Biso   1.000  H
  H914     1.0000 0.68641  0.86797  0.71059  Biso   1.000  H
  H915     1.0000 0.69323  0.91208  0.65867  Biso   1.000  H
  H916     1.0000 0.68647  0.86802  0.71059  Biso   1.000  H
  H917     1.0000 0.69329  0.91213  0.65867  Biso   1.000  H
  H918     1.0000 0.68645  0.86797  0.71059  Biso   1.000  H
  H919     1.0000 0.98261  0.15845  0.47258  Biso   1.000  H
  H920     1.0000 0.99914  0.22507  0.46779  Biso   1.000  H
  H921     1.0000 0.98265  0.15845  0.47258  Biso   1.000  H
  H922     1.0000 0.99918  0.22507  0.46779  Biso   1.000  H
  H923     1.0000 0.98613  0.18996  0.46486  Biso   1.000  H
  H924     1.0000 0.01014  0.20078  0.52836  Biso   1.000  H
  H925     1.0000 0.01012  0.20074  0.52836  Biso   1.000  H
  H926     1.0000 0.02496  0.24389  0.50756  Biso   1.000  H
  H927     1.0000 0.02667  0.25319  0.43728  Biso   1.000  H
  C734     1.0000 0.90582  0.13298  0.22387  Biso   1.000  C
  C735     1.0000 0.90584  0.13294  0.22387  Biso   1.000  C
  C736     1.0000 0.90586  0.13298  0.22387  Biso   1.000  C
  H928     1.0000 0.94571  0.06545  0.20068  Biso   1.000  H
  H929     1.0000 0.98771  0.05415  0.24245  Biso   1.000  H
  H930     1.0000 0.94575  0.06545  0.20068  Biso   1.000  H
  H931     1.0000 0.98774  0.05415  0.24245  Biso   1.000  H
  H932     1.0000 0.01465  0.10178  0.19097  Biso   1.000  H
  H933     1.0000 0.01462  0.10174  0.19097  Biso   1.000  H
  C737     1.0000 0.84874  0.09357  0.25518  Biso   1.000  C
  C738     1.0000 0.84878  0.09357  0.25518  Biso   1.000  C
  H934     1.0000 0.87812  0.10256  0.36909  Biso   1.000  H
  H935     1.0000 0.86383  0.04937  0.41245  Biso   1.000  H
  H936     1.0000 0.81244  0.05867  0.38829  Biso   1.000  H
  H937     1.0000 0.87815  0.10256  0.36909  Biso   1.000  H
  H938     1.0000 0.86386  0.04937  0.41245  Biso   1.000  H
  H939     1.0000 0.81247  0.05867  0.38829  Biso   1.000  H
  H940     1.0000 0.79924  0.80939  0.52836  Biso   1.000  H
  H941     1.0000 0.84154  0.82421  0.47258  Biso   1.000  H
  H942     1.0000 0.77493  0.77410  0.46779  Biso   1.000  H
  H943     1.0000 0.79928  0.80939  0.52836  Biso   1.000  H
  H944     1.0000 0.84157  0.82421  0.47258  Biso   1.000  H
  H945     1.0000 0.77497  0.77410  0.46779  Biso   1.000  H
  H946     1.0000 0.75615  0.78110  0.50756  Biso   1.000  H
  H947     1.0000 0.81006  0.79618  0.46486  Biso   1.000  H
  H948     1.0000 0.74685  0.77349  0.43728  Biso   1.000  H
  H949     1.0000 0.12973  0.33646  0.64156  Biso   1.000  H
  H950     1.0000 0.19784  0.37966  0.63118  Biso   1.000  H
  H951     1.0000 0.19781  0.37966  0.63118  Biso   1.000  H
  H952     1.0000 0.62036  0.81821  0.63118  Biso   1.000  H
  H953     1.0000 0.66353  0.79331  0.64156  Biso   1.000  H
  H954     1.0000 0.66357  0.79331  0.64156  Biso   1.000  H
  H955     1.0000 0.91073  0.11217  0.18946  Biso   1.000  H
  C739     1.0000 0.90665  0.18779  0.20246  Biso   1.000  C
  H956     1.0000 0.91077  0.11217  0.18946  Biso   1.000  H
  C740     1.0000 0.90663  0.18774  0.20246  Biso   1.000  C
  C741     1.0000 0.79763  0.07927  0.21265  Biso   1.000  C
  H957     1.0000 0.84534  0.11356  0.29127  Biso   1.000  H
  C742     1.0000 0.79767  0.07927  0.21265  Biso   1.000  C
  H958     1.0000 0.94422  0.21377  0.18299  Biso   1.000  H
  H959     1.0000 0.90254  0.20869  0.23678  Biso   1.000  H
  C743     1.0000 0.85674  0.17197  0.15847  Biso   1.000  C
  H960     1.0000 0.94426  0.21377  0.18299  Biso   1.000  H
  H961     1.0000 0.90255  0.20865  0.23678  Biso   1.000  H
  C744     1.0000 0.85678  0.17197  0.15847  Biso   1.000  C
  H962     1.0000 0.90252  0.20865  0.23678  Biso   1.000  H
  C745     1.0000 0.80103  0.13529  0.18946  Biso   1.000  C
  C746     1.0000 0.80104  0.13524  0.18946  Biso   1.000  C
  C747     1.0000 0.80106  0.13529  0.18946  Biso   1.000  C
  H963     1.0000 0.79883  0.05615  0.17887  Biso   1.000  H
  H964     1.0000 0.76043  0.05567  0.23385  Biso   1.000  H
  H965     1.0000 0.79887  0.05615  0.17887  Biso   1.000  H
  H966     1.0000 0.76047  0.05567  0.23385  Biso   1.000  H
  H967     1.0000 0.85835  0.20778  0.14348  Biso   1.000  H
  H968     1.0000 0.86035  0.15058  0.12429  Biso   1.000  H
  H969     1.0000 0.85833  0.20773  0.14348  Biso   1.000  H
  H970     1.0000 0.86033  0.15054  0.12429  Biso   1.000  H
  H971     1.0000 0.76842  0.12525  0.16189  Biso   1.000  H
  H972     1.0000 0.79742  0.15728  0.22307  Biso   1.000  H
  H973     1.0000 0.76846  0.12525  0.16189  Biso   1.000  H
  H974     1.0000 0.79744  0.15723  0.22307  Biso   1.000  H
  H975     1.0000 0.79746  0.15728  0.22307  Biso   1.000  H
  C748     1.0000 0.20304  0.97679  0.46885  Biso   1.000  C
  C749     1.0000 0.14375  0.92951  0.46406  Biso   1.000  C
  H976     1.0000 0.21894  0.97510  0.50756  Biso   1.000  H
  H977     1.0000 0.22595  0.00087  0.46779  Biso   1.000  H
  H978     1.0000 0.22591  0.00087  0.46779  Biso   1.000  H
  H979     1.0000 0.20385  0.01386  0.46486  Biso   1.000  H
  H980     1.0000 0.22656  0.97340  0.43728  Biso   1.000  H
  C750     1.0000 0.11716  0.92382  0.40376  Biso   1.000  C
  C751     1.0000 0.11714  0.92377  0.40376  Biso   1.000  C
  C752     1.0000 0.11712  0.92382  0.40376  Biso   1.000  C
  N103     1.0000 0.12036  0.88423  0.49705  Biso   1.000  N
  C753     1.0000 0.18796  0.98970  0.48508  Biso   1.000  C
  N104     1.0000 0.12034  0.88418  0.49705  Biso   1.000  N
  C754     1.0000 0.18793  0.98970  0.48508  Biso   1.000  C
  C755     1.0000 0.14305  0.96701  0.36066  Biso   1.000  C
  C756     1.0000 0.14309  0.96701  0.36066  Biso   1.000  C
  C757     1.0000 0.06265  0.87562  0.39188  Biso   1.000  C
  C758     1.0000 0.06263  0.87558  0.39188  Biso   1.000  C
  C759     1.0000 0.06267  0.87558  0.39188  Biso   1.000  C
  C760     1.0000 0.13915  0.88553  0.55758  Biso   1.000  C
  C761     1.0000 0.13913  0.88549  0.55758  Biso   1.000  C
  C762     1.0000 0.13917  0.88549  0.55758  Biso   1.000  C
  H981     1.0000 0.19067  0.98992  0.52836  Biso   1.000  H
  H982     1.0000 0.19065  0.98987  0.52836  Biso   1.000  H
  H983     1.0000 0.19063  0.98992  0.52836  Biso   1.000  H
  H984     1.0000 0.17584  0.01738  0.47258  Biso   1.000  H
  H985     1.0000 0.17581  0.01734  0.47258  Biso   1.000  H
  H986     1.0000 0.17587  0.01738  0.47258  Biso   1.000  H
  C763     1.0000 0.11474  0.96271  0.30679  Biso   1.000  C
  C764     1.0000 0.11478  0.96271  0.30679  Biso   1.000  C
  H987     1.0000 0.18038  0.99983  0.36798  Biso   1.000  H
  H988     1.0000 0.18032  0.99978  0.36798  Biso   1.000  H
  H989     1.0000 0.18034  0.99983  0.36798  Biso   1.000  H
  H990     1.0000 0.18036  0.99978  0.36798  Biso   1.000  H
  C765     1.0000 0.03415  0.87019  0.33827  Biso   1.000  C
  C766     1.0000 0.03412  0.87019  0.33827  Biso   1.000  C
  H991     1.0000 0.04466  0.84590  0.42088  Biso   1.000  H
  H992     1.0000 0.04463  0.84590  0.42088  Biso   1.000  H
  H993     1.0000 0.17194  0.92499  0.56760  Biso   1.000  H
  C767     1.0000 0.15815  0.84012  0.56396  Biso   1.000  C
  C768     1.0000 0.08646  0.86949  0.59859  Biso   1.000  C
  C769     1.0000 0.15812  0.84007  0.56396  Biso   1.000  C
  C770     1.0000 0.08642  0.86949  0.59859  Biso   1.000  C
  C771     1.0000 0.15816  0.84007  0.56396  Biso   1.000  C
  C772     1.0000 0.14162  0.01226  0.26298  Biso   1.000  C
  C773     1.0000 0.14166  0.01226  0.26298  Biso   1.000  C
  C774     1.0000 0.06095  0.91400  0.29597  Biso   1.000  C
  C775     1.0000 0.06091  0.91400  0.29597  Biso   1.000  C
  C776     1.0000 0.97565  0.81852  0.32568  Biso   1.000  C
  C777     1.0000 0.97563  0.81847  0.32568  Biso   1.000  C
  C778     1.0000 0.97569  0.81852  0.32568  Biso   1.000  C
  H994     1.0000 0.19278  0.85141  0.53895  Biso   1.000  H
  H995     1.0000 0.12656  0.80209  0.54946  Biso   1.000  H
  C779     1.0000 0.17238  0.83373  0.62839  Biso   1.000  C
  H996     1.0000 0.19272  0.85137  0.53895  Biso   1.000  H
  H997     1.0000 0.12652  0.80209  0.54946  Biso   1.000  H
  C780     1.0000 0.17236  0.83368  0.62839  Biso   1.000  C
  H998     1.0000 0.19274  0.85141  0.53895  Biso   1.000  H
  C781     1.0000 0.17234  0.83373  0.62839  Biso   1.000  C
  H999     1.0000 0.19275  0.85137  0.53895  Biso   1.000  H
  N105     1.0000 0.07087  0.91486  0.59402  Biso   1.000  N
  C782     1.0000 0.10218  0.86563  0.66328  Biso   1.000  C
  H1000    1.0000 0.05275  0.83142  0.58595  Biso   1.000  H
  N106     1.0000 0.07085  0.91482  0.59402  Biso   1.000  N
  C783     1.0000 0.10212  0.86558  0.66328  Biso   1.000  C
  H1001    1.0000 0.05272  0.83138  0.58595  Biso   1.000  H
  C784     1.0000 0.10214  0.86563  0.66328  Biso   1.000  C
  C785     1.0000 0.10215  0.86558  0.66328  Biso   1.000  C
  H1002    1.0000 0.05276  0.83138  0.58595  Biso   1.000  H
  N107     1.0000 0.19634  0.04559  0.26586  Biso   1.000  N
  N108     1.0000 0.19631  0.04554  0.26586  Biso   1.000  N
  N109     1.0000 0.19637  0.04559  0.26586  Biso   1.000  N
  C786     1.0000 0.10014  0.01638  0.22059  Biso   1.000  C
  C787     1.0000 0.10012  0.01634  0.22059  Biso   1.000  C
  C788     1.0000 0.10018  0.01638  0.22059  Biso   1.000  C
  H1003    1.0000 0.04205  0.91052  0.25917  Biso   1.000  H
  H1004    1.0000 0.04203  0.91047  0.25917  Biso   1.000  H
  H1005    1.0000 0.04206  0.91047  0.25917  Biso   1.000  H
  N110     1.0000 0.96137  0.80591  0.27185  Biso   1.000  N
  C789     1.0000 0.93796  0.78792  0.37849  Biso   1.000  C
  C790     1.0000 0.93794  0.78788  0.37849  Biso   1.000  C
  H1006    1.0000 0.18188  0.80222  0.63118  Biso   1.000  H
  H1007    1.0000 0.20678  0.87032  0.64156  Biso   1.000  H
  C791     1.0000 0.12106  0.81991  0.66896  Biso   1.000  C
  H1008    1.0000 0.18182  0.80218  0.63118  Biso   1.000  H
  H1009    1.0000 0.20672  0.87028  0.64156  Biso   1.000  H
  H1010    1.0000 0.18184  0.80222  0.63118  Biso   1.000  H
  H1011    1.0000 0.20674  0.87032  0.64156  Biso   1.000  H
  C792     1.0000 0.12102  0.81991  0.66896  Biso   1.000  C
  H1012    1.0000 0.18186  0.80218  0.63118  Biso   1.000  H
  H1013    1.0000 0.20676  0.87028  0.64156  Biso   1.000  H
  C793     1.0000 0.02245  0.90361  0.57270  Biso   1.000  C
  H1014    1.0000 0.06794  0.85480  0.68895  Biso   1.000  H
  H1015    1.0000 0.13404  0.90391  0.67636  Biso   1.000  H
  H1016    1.0000 0.06797  0.85480  0.68895  Biso   1.000  H
  H1017    1.0000 0.13408  0.90391  0.67636  Biso   1.000  H
  C794     1.0000 0.22714  0.09418  0.22387  Biso   1.000  C
  C795     1.0000 0.22712  0.09413  0.22387  Biso   1.000  C
  H1018    1.0000 0.08717  0.98540  0.19097  Biso   1.000  H
  H1019    1.0000 0.08713  0.98540  0.19097  Biso   1.000  H
  H1020    1.0000 0.11973  0.05428  0.20068  Biso   1.000  H
  H1021    1.0000 0.06642  0.01226  0.24245  Biso   1.000  H
  H1022    1.0000 0.11970  0.05424  0.20068  Biso   1.000  H
  H1023    1.0000 0.11976  0.05428  0.20068  Biso   1.000  H
  H1024    1.0000 0.06646  0.01226  0.24245  Biso   1.000  H
  H1025    1.0000 0.11974  0.05424  0.20068  Biso   1.000  H
  C796     1.0000 0.90647  0.75520  0.25518  Biso   1.000  C
  C797     1.0000 0.90643  0.75520  0.25518  Biso   1.000  C
  H1026    1.0000 0.89745  0.77562  0.36909  Biso   1.000  H
  H1027    1.0000 0.95065  0.81452  0.41245  Biso   1.000  H
  H1028    1.0000 0.94134  0.75381  0.38829  Biso   1.000  H
  H1029    1.0000 0.89742  0.77558  0.36909  Biso   1.000  H
  H1030    1.0000 0.95063  0.81447  0.41245  Biso   1.000  H
  H1031    1.0000 0.89748  0.77562  0.36909  Biso   1.000  H
  H1032    1.0000 0.95069  0.81452  0.41245  Biso   1.000  H
  H1033    1.0000 0.94137  0.75381  0.38829  Biso   1.000  H
  H1034    1.0000 0.89746  0.77558  0.36909  Biso   1.000  H
  H1035    1.0000 0.13207  0.81852  0.71059  Biso   1.000  H
  H1036    1.0000 0.08798  0.78123  0.65867  Biso   1.000  H
  H1037    1.0000 0.13204  0.81847  0.71059  Biso   1.000  H
  H1038    1.0000 0.08792  0.78118  0.65867  Biso   1.000  H
  H1039    1.0000 0.13203  0.81852  0.71059  Biso   1.000  H
  H1040    1.0000 0.08794  0.78123  0.65867  Biso   1.000  H
  H1041    1.0000 0.08796  0.78118  0.65867  Biso   1.000  H
  C798     1.0000 0.00966  0.95263  0.57057  Biso   1.000  C
  C799     1.0000 0.00964  0.95259  0.57057  Biso   1.000  C
  C800     1.0000 0.97545  0.84590  0.54778  Biso   1.000  C
  C801     1.0000 0.24485  0.15128  0.25518  Biso   1.000  C
  C802     1.0000 0.24483  0.15124  0.25518  Biso   1.000  C
  H1042    1.0000 0.20143  0.08926  0.18946  Biso   1.000  H
  C803     1.0000 0.28111  0.09335  0.20246  Biso   1.000  C
  H1043    1.0000 0.20146  0.08926  0.18946  Biso   1.000  H
  C804     1.0000 0.28115  0.09335  0.20246  Biso   1.000  C
  C805     1.0000 0.86708  0.77293  0.22387  Biso   1.000  C
  C806     1.0000 0.92073  0.71839  0.21265  Biso   1.000  C
  H1044    1.0000 0.88646  0.73182  0.29127  Biso   1.000  H
  C807     1.0000 0.86702  0.77288  0.22387  Biso   1.000  C
  H1045    1.0000 0.88644  0.73177  0.29127  Biso   1.000  H
  C808     1.0000 0.92077  0.71839  0.21265  Biso   1.000  C
  C809     1.0000 0.86706  0.77288  0.22387  Biso   1.000  C
  C810     1.0000 0.05661  0.01026  0.57066  Biso   1.000  C
  C811     1.0000 0.05665  0.01026  0.57066  Biso   1.000  C
  C812     1.0000 0.95364  0.94342  0.57066  Biso   1.000  C
  C813     1.0000 0.95362  0.94337  0.57066  Biso   1.000  C
  C814     1.0000 0.95368  0.94342  0.57066  Biso   1.000  C
  C815     1.0000 0.95366  0.94337  0.57066  Biso   1.000  C
  H1046    1.0000 0.99366  0.82760  0.52525  Biso   1.000  H
  H1047    1.0000 0.94993  0.85259  0.52157  Biso   1.000  H
  H1048    1.0000 0.95278  0.82043  0.58045  Biso   1.000  H
  H1049    1.0000 0.99363  0.82760  0.52525  Biso   1.000  H
  H1050    1.0000 0.95272  0.82038  0.58045  Biso   1.000  H
  H1051    1.0000 0.94997  0.85259  0.52157  Biso   1.000  H
  H1052    1.0000 0.95276  0.82038  0.58045  Biso   1.000  H
  N111     1.0000 0.19414  0.15545  0.27185  Biso   1.000  N
  C816     1.0000 0.28166  0.20239  0.21265  Biso   1.000  C
  H1053    1.0000 0.26823  0.15467  0.29127  Biso   1.000  H
  C817     1.0000 0.28160  0.20234  0.21265  Biso   1.000  C
  H1054    1.0000 0.26826  0.15467  0.29127  Biso   1.000  H
  C818     1.0000 0.28164  0.20234  0.21265  Biso   1.000  C
  H1055    1.0000 0.26954  0.05576  0.18299  Biso   1.000  H
  H1056    1.0000 0.30613  0.09748  0.23678  Biso   1.000  H
  C819     1.0000 0.31526  0.14328  0.15847  Biso   1.000  C
  H1057    1.0000 0.30611  0.09743  0.23678  Biso   1.000  H
  C820     1.0000 0.31520  0.14324  0.15847  Biso   1.000  C
  H1058    1.0000 0.30617  0.09748  0.23678  Biso   1.000  H
  C821     1.0000 0.31524  0.14324  0.15847  Biso   1.000  C
  N112     1.0000 0.84923  0.80370  0.26586  Biso   1.000  N
  H1059    1.0000 0.88786  0.79861  0.18946  Biso   1.000  H
  C822     1.0000 0.81226  0.71891  0.20246  Biso   1.000  C
  N113     1.0000 0.84927  0.80370  0.26586  Biso   1.000  N
  C823     1.0000 0.86474  0.66580  0.18946  Biso   1.000  C
  H1060    1.0000 0.94385  0.74272  0.17887  Biso   1.000  H
  H1061    1.0000 0.94434  0.70478  0.23385  Biso   1.000  H
  H1062    1.0000 0.94383  0.74268  0.17887  Biso   1.000  H
  C824     1.0000 0.86478  0.66580  0.18946  Biso   1.000  C
  H1063    1.0000 0.94389  0.74272  0.17887  Biso   1.000  H
  H1064    1.0000 0.94438  0.70478  0.23385  Biso   1.000  H
  H1065    1.0000 0.94387  0.74268  0.17887  Biso   1.000  H
  C825     1.0000 0.04742  0.05706  0.57057  Biso   1.000  C
  C826     1.0000 0.04746  0.05706  0.57057  Biso   1.000  C
  H1066    1.0000 0.09523  0.01695  0.57079  Biso   1.000  H
  C827     1.0000 0.94296  0.99040  0.57057  Biso   1.000  C
  C828     1.0000 0.94292  0.99040  0.57057  Biso   1.000  C
  H1067    1.0000 0.92178  0.90483  0.57079  Biso   1.000  H
  H1068    1.0000 0.92172  0.90478  0.57079  Biso   1.000  H
  H1069    1.0000 0.92175  0.90478  0.57079  Biso   1.000  H
  C829     1.0000 0.18153  0.15719  0.32568  Biso   1.000  C
  C830     1.0000 0.18151  0.15715  0.32568  Biso   1.000  C
  C831     1.0000 0.18157  0.15719  0.32568  Biso   1.000  C
  C832     1.0000 0.18155  0.15715  0.32568  Biso   1.000  C
  H1070    1.0000 0.25734  0.20117  0.17887  Biso   1.000  H
  C833     1.0000 0.33422  0.19895  0.18946  Biso   1.000  C
  H1071    1.0000 0.29526  0.23959  0.23385  Biso   1.000  H
  H1072    1.0000 0.29523  0.23954  0.23385  Biso   1.000  H
  C834     1.0000 0.33425  0.19895  0.18946  Biso   1.000  C
  H1073    1.0000 0.34946  0.14168  0.14348  Biso   1.000  H
  H1074    1.0000 0.29024  0.13968  0.12429  Biso   1.000  H
  H1075    1.0000 0.34940  0.14163  0.14348  Biso   1.000  H
  H1076    1.0000 0.29022  0.13963  0.12429  Biso   1.000  H
  H1077    1.0000 0.29027  0.13968  0.12429  Biso   1.000  H
  H1078    1.0000 0.34944  0.14163  0.14348  Biso   1.000  H
  C835     1.0000 0.87064  0.85841  0.26298  Biso   1.000  C
  C836     1.0000 0.87068  0.85841  0.26298  Biso   1.000  C
  H1079    1.0000 0.78626  0.73051  0.18299  Biso   1.000  H
  H1080    1.0000 0.79137  0.69392  0.23678  Biso   1.000  H
  C837     1.0000 0.82806  0.68479  0.15847  Biso   1.000  C
  H1081    1.0000 0.79131  0.69388  0.23678  Biso   1.000  H
  H1082    1.0000 0.79135  0.69388  0.23678  Biso   1.000  H
  H1083    1.0000 0.87474  0.64320  0.16189  Biso   1.000  H
  H1084    1.0000 0.84276  0.64020  0.22307  Biso   1.000  H
  H1085    1.0000 0.87478  0.64320  0.16189  Biso   1.000  H
  C838     1.0000 0.09643  0.11886  0.57270  Biso   1.000  C
  C839     1.0000 0.09646  0.11886  0.57270  Biso   1.000  C
  C840     1.0000 0.98973  0.04637  0.57066  Biso   1.000  C
  C841     1.0000 0.98976  0.04637  0.57066  Biso   1.000  C
  C842     1.0000 0.88117  0.97762  0.57270  Biso   1.000  C
  C843     1.0000 0.88111  0.97758  0.57270  Biso   1.000  C
  C844     1.0000 0.88115  0.97758  0.57270  Biso   1.000  C
  C845     1.0000 0.21214  0.15006  0.37849  Biso   1.000  C
  C846     1.0000 0.12982  0.16397  0.33827  Biso   1.000  C
  C847     1.0000 0.12986  0.16397  0.33827  Biso   1.000  C
  H1086    1.0000 0.35684  0.23155  0.16189  Biso   1.000  H
  H1087    1.0000 0.35984  0.20256  0.22307  Biso   1.000  H
  C848     1.0000 0.84796  0.88531  0.30679  Biso   1.000  C
  C849     1.0000 0.91627  0.89991  0.22059  Biso   1.000  C
  C850     1.0000 0.91623  0.89991  0.22059  Biso   1.000  C
  H1088    1.0000 0.79225  0.65059  0.14348  Biso   1.000  H
  H1089    1.0000 0.84946  0.70983  0.12429  Biso   1.000  H
  H1090    1.0000 0.84943  0.70978  0.12429  Biso   1.000  H
  H1091    1.0000 0.84949  0.70983  0.12429  Biso   1.000  H
  N114     1.0000 0.08522  0.15606  0.59402  Biso   1.000  N
  N115     1.0000 0.08516  0.15602  0.59402  Biso   1.000  N
  N116     1.0000 0.08520  0.15602  0.59402  Biso   1.000  N
  C851     1.0000 0.15412  0.12955  0.54778  Biso   1.000  C
  H1092    1.0000 0.98302  0.07827  0.57079  Biso   1.000  H
  H1093    1.0000 0.98306  0.07827  0.57079  Biso   1.000  H
  N117     1.0000 0.84398  0.92921  0.59402  Biso   1.000  N
  N118     1.0000 0.84396  0.92916  0.59402  Biso   1.000  N
  N119     1.0000 0.84402  0.92921  0.59402  Biso   1.000  N
  C852     1.0000 0.87043  0.02455  0.54778  Biso   1.000  C
  C853     1.0000 0.87046  0.02455  0.54778  Biso   1.000  C
  H1094    1.0000 0.22442  0.12186  0.36909  Biso   1.000  H
  H1095    1.0000 0.18554  0.13616  0.41245  Biso   1.000  H
  H1096    1.0000 0.24625  0.18757  0.38829  Biso   1.000  H
  H1097    1.0000 0.18550  0.13616  0.41245  Biso   1.000  H
  H1098    1.0000 0.24621  0.18757  0.38829  Biso   1.000  H
  H1099    1.0000 0.22446  0.12186  0.36909  Biso   1.000  H
  C854     1.0000 0.12444  0.18709  0.39188  Biso   1.000  C
  C855     1.0000 0.08602  0.14698  0.29597  Biso   1.000  C
  C856     1.0000 0.12442  0.18705  0.39188  Biso   1.000  C
  C857     1.0000 0.08600  0.14693  0.29597  Biso   1.000  C
  C858     1.0000 0.08606  0.14698  0.29597  Biso   1.000  C
  C859     1.0000 0.08604  0.14693  0.29597  Biso   1.000  C
  C860     1.0000 0.85307  0.93911  0.29597  Biso   1.000  C
  C861     1.0000 0.85303  0.93911  0.29597  Biso   1.000  C
  C862     1.0000 0.82396  0.85702  0.36066  Biso   1.000  C
  C863     1.0000 0.82393  0.85698  0.36066  Biso   1.000  C
  H1100    1.0000 0.93455  0.88031  0.20068  Biso   1.000  H
  H1101    1.0000 0.94583  0.93359  0.24245  Biso   1.000  H
  H1102    1.0000 0.89827  0.91291  0.19097  Biso   1.000  H
  H1103    1.0000 0.89823  0.91291  0.19097  Biso   1.000  H
  H1104    1.0000 0.93459  0.88031  0.20068  Biso   1.000  H
  H1105    1.0000 0.94587  0.93359  0.24245  Biso   1.000  H
  C864     1.0000 0.13055  0.21699  0.59859  Biso   1.000  C
  C865     1.0000 0.13053  0.21695  0.59859  Biso   1.000  C
  H1106    1.0000 0.14743  0.09735  0.52157  Biso   1.000  H
  H1107    1.0000 0.17241  0.16606  0.52525  Biso   1.000  H
  H1108    1.0000 0.17962  0.13238  0.58045  Biso   1.000  H
  H1109    1.0000 0.17960  0.13233  0.58045  Biso   1.000  H
  H1110    1.0000 0.17245  0.16606  0.52525  Biso   1.000  H
  H1111    1.0000 0.17966  0.13238  0.58045  Biso   1.000  H
  H1112    1.0000 0.17964  0.13233  0.58045  Biso   1.000  H
  C866     1.0000 0.78303  0.91360  0.59859  Biso   1.000  C
  C867     1.0000 0.78307  0.91360  0.59859  Biso   1.000  C
  H1113    1.0000 0.83394  0.00639  0.52525  Biso   1.000  H
  H1114    1.0000 0.90264  0.05006  0.52157  Biso   1.000  H
  H1115    1.0000 0.86764  0.04728  0.58045  Biso   1.000  H
  H1116    1.0000 0.83396  0.00634  0.52525  Biso   1.000  H
  H1117    1.0000 0.90268  0.05006  0.52157  Biso   1.000  H
  H1118    1.0000 0.86765  0.04724  0.58045  Biso   1.000  H
  H1119    1.0000 0.83392  0.00634  0.52525  Biso   1.000  H
  H1120    1.0000 0.86762  0.04724  0.58045  Biso   1.000  H
  H1121    1.0000 0.15415  0.19878  0.42088  Biso   1.000  H
  C868     1.0000 0.07624  0.19335  0.40376  Biso   1.000  C
  H1122    1.0000 0.15413  0.19874  0.42088  Biso   1.000  H
  C869     1.0000 0.07620  0.19335  0.40376  Biso   1.000  C
  C870     1.0000 0.03734  0.15206  0.30679  Biso   1.000  C
  H1123    1.0000 0.08952  0.13155  0.25917  Biso   1.000  H
  C871     1.0000 0.83607  0.96593  0.33827  Biso   1.000  C
  C872     1.0000 0.83605  0.96588  0.33827  Biso   1.000  C
  H1124    1.0000 0.86847  0.95802  0.25917  Biso   1.000  H
  H1125    1.0000 0.86841  0.95798  0.25917  Biso   1.000  H
  H1126    1.0000 0.86845  0.95798  0.25917  Biso   1.000  H
  C873     1.0000 0.80665  0.88292  0.40376  Biso   1.000  C
  C874     1.0000 0.80663  0.88288  0.40376  Biso   1.000  C
  C875     1.0000 0.80668  0.88292  0.40376  Biso   1.000  C
  C876     1.0000 0.80666  0.88288  0.40376  Biso   1.000  C
  H1127    1.0000 0.81944  0.81969  0.36798  Biso   1.000  H
  C877     1.0000 0.11453  0.25367  0.55758  Biso   1.000  C
  C878     1.0000 0.11457  0.25367  0.55758  Biso   1.000  C
  C879     1.0000 0.13444  0.23659  0.66328  Biso   1.000  C
  H1128    1.0000 0.16865  0.22138  0.58595  Biso   1.000  H
  C880     1.0000 0.13442  0.23655  0.66328  Biso   1.000  C
  H1129    1.0000 0.16863  0.22134  0.58595  Biso   1.000  H
  C881     1.0000 0.13448  0.23659  0.66328  Biso   1.000  C
  C882     1.0000 0.74633  0.86089  0.55758  Biso   1.000  C
  C883     1.0000 0.74636  0.86089  0.55758  Biso   1.000  C
  C884     1.0000 0.76345  0.89792  0.66328  Biso   1.000  C
  H1130    1.0000 0.77867  0.94733  0.58595  Biso   1.000  H
  C885     1.0000 0.76343  0.89787  0.66328  Biso   1.000  C
  H1131    1.0000 0.77865  0.94728  0.58595  Biso   1.000  H
  C886     1.0000 0.76349  0.89792  0.66328  Biso   1.000  C
  C887     1.0000 0.03304  0.17605  0.36066  Biso   1.000  C
  C888     1.0000 0.07054  0.21425  0.46406  Biso   1.000  C
  C889     1.0000 0.03300  0.17605  0.36066  Biso   1.000  C
  C890     1.0000 0.07051  0.21425  0.46406  Biso   1.000  C
  C891     1.0000 0.98772  0.12938  0.26298  Biso   1.000  C
  C892     1.0000 0.98774  0.12933  0.26298  Biso   1.000  C
  C893     1.0000 0.98776  0.12938  0.26298  Biso   1.000  C
  C894     1.0000 0.84283  0.02438  0.32568  Biso   1.000  C
  C895     1.0000 0.84284  0.02434  0.32568  Biso   1.000  C
  C896     1.0000 0.84286  0.02438  0.32568  Biso   1.000  C
  C897     1.0000 0.81297  0.93742  0.39188  Biso   1.000  C
  C898     1.0000 0.81291  0.93738  0.39188  Biso   1.000  C
  C899     1.0000 0.81295  0.93738  0.39188  Biso   1.000  C
  C900     1.0000 0.78575  0.85633  0.46406  Biso   1.000  C
  C901     1.0000 0.78572  0.85628  0.46406  Biso   1.000  C
  C902     1.0000 0.78578  0.85633  0.46406  Biso   1.000  C
  C903     1.0000 0.78576  0.85628  0.46406  Biso   1.000  C
  N120     1.0000 0.11582  0.23616  0.49705  Biso   1.000  N
  N121     1.0000 0.11586  0.23616  0.49705  Biso   1.000  N
  C904     1.0000 0.15994  0.31808  0.56396  Biso   1.000  C
  H1132    1.0000 0.07505  0.24698  0.56760  Biso   1.000  H
  H1133    1.0000 0.07501  0.24698  0.56760  Biso   1.000  H
  C905     1.0000 0.18013  0.30117  0.66896  Biso   1.000  C
  C906     1.0000 0.18017  0.30117  0.66896  Biso   1.000  C
  H1134    1.0000 0.14524  0.21317  0.68895  Biso   1.000  H
  H1135    1.0000 0.09611  0.23016  0.67636  Biso   1.000  H
  H1136    1.0000 0.09615  0.23016  0.67636  Biso   1.000  H
  N122     1.0000 0.76387  0.87971  0.49705  Biso   1.000  N
  N123     1.0000 0.76383  0.87971  0.49705  Biso   1.000  N
  H1137    1.0000 0.75305  0.82812  0.56760  Biso   1.000  H
  C907     1.0000 0.68196  0.84190  0.56396  Biso   1.000  C
  H1138    1.0000 0.75303  0.82808  0.56760  Biso   1.000  H
  C908     1.0000 0.68192  0.84190  0.56396  Biso   1.000  C
  H1139    1.0000 0.75309  0.82812  0.56760  Biso   1.000  H
  C909     1.0000 0.69886  0.87901  0.66896  Biso   1.000  C
  H1140    1.0000 0.78687  0.93212  0.68895  Biso   1.000  H
  H1141    1.0000 0.76985  0.86602  0.67636  Biso   1.000  H
  H1142    1.0000 0.78681  0.93207  0.68895  Biso   1.000  H
  H1143    1.0000 0.76983  0.86597  0.67636  Biso   1.000  H
  H1144    1.0000 0.78685  0.93207  0.68895  Biso   1.000  H
  H1145    1.0000 0.00022  0.18057  0.36798  Biso   1.000  H
  H1146    1.0000 0.00026  0.18057  0.36798  Biso   1.000  H
  C910     1.0000 0.01035  0.19826  0.48508  Biso   1.000  C
  C911     1.0000 0.01031  0.19826  0.48508  Biso   1.000  C
  C912     1.0000 0.02327  0.22629  0.46885  Biso   1.000  C
  N124     1.0000 0.95442  0.15076  0.26586  Biso   1.000  N
  C913     1.0000 0.98363  0.08379  0.22059  Biso   1.000  C
  N125     1.0000 0.95445  0.15076  0.26586  Biso   1.000  N
  C914     1.0000 0.98365  0.08375  0.22059  Biso   1.000  C
  C915     1.0000 0.98367  0.08379  0.22059  Biso   1.000  C
  C916     1.0000 0.98361  0.08375  0.22059  Biso   1.000  C
  N126     1.0000 0.84452  0.03868  0.27185  Biso   1.000  N
  N127     1.0000 0.84453  0.03863  0.27185  Biso   1.000  N
  N128     1.0000 0.84456  0.03868  0.27185  Biso   1.000  N
  C917     1.0000 0.84992  0.06206  0.37849  Biso   1.000  C
  C918     1.0000 0.84996  0.06206  0.37849  Biso   1.000  C
  H1147    1.0000 0.80127  0.95541  0.42088  Biso   1.000  H
  H1148    1.0000 0.80123  0.95541  0.42088  Biso   1.000  H
  C919     1.0000 0.80177  0.81213  0.48508  Biso   1.000  C
  C920     1.0000 0.80175  0.81208  0.48508  Biso   1.000  C
  C921     1.0000 0.77377  0.79700  0.46885  Biso   1.000  C
  H1149    1.0000 0.14863  0.34137  0.53895  Biso   1.000  H
  H1150    1.0000 0.19795  0.32446  0.54946  Biso   1.000  H
  C922     1.0000 0.16633  0.33867  0.62839  Biso   1.000  C
  H1151    1.0000 0.19791  0.32446  0.54946  Biso   1.000  H
  H1152    1.0000 0.14867  0.34137  0.53895  Biso   1.000  H
  C923     1.0000 0.16636  0.33867  0.62839  Biso   1.000  C
  H1153    1.0000 0.21884  0.30678  0.65867  Biso   1.000  H
  H1154    1.0000 0.18154  0.31356  0.71059  Biso   1.000  H
  H1155    1.0000 0.18150  0.31356  0.71059  Biso   1.000  H
  H1156    1.0000 0.65864  0.80730  0.53895  Biso   1.000  H
  H1157    1.0000 0.67555  0.87349  0.54946  Biso   1.000  H
  C924     1.0000 0.66134  0.82769  0.62839  Biso   1.000  C
  H1158    1.0000 0.65868  0.80730  0.53895  Biso   1.000  H
  H1159    1.0000 0.68644  0.86802  0.71059  Biso   1.000  H
  H1160    1.0000 0.69325  0.91213  0.65867  Biso   1.000  H
  H1161    1.0000 0.68641  0.86797  0.71059  Biso   1.000  H
  H1162    1.0000 0.69323  0.91208  0.65867  Biso   1.000  H
  H1163    1.0000 0.68647  0.86802  0.71059  Biso   1.000  H
  H1164    1.0000 0.69329  0.91213  0.65867  Biso   1.000  H
  H1165    1.0000 0.68645  0.86797  0.71059  Biso   1.000  H
  H1166    1.0000 0.98261  0.15845  0.47258  Biso   1.000  H
  H1167    1.0000 0.99914  0.22507  0.46779  Biso   1.000  H
  H1168    1.0000 0.98265  0.15845  0.47258  Biso   1.000  H
  H1169    1.0000 0.99918  0.22507  0.46779  Biso   1.000  H
  H1170    1.0000 0.98613  0.18996  0.46486  Biso   1.000  H
  H1171    1.0000 0.01014  0.20078  0.52836  Biso   1.000  H
  H1172    1.0000 0.01012  0.20074  0.52836  Biso   1.000  H
  H1173    1.0000 0.02496  0.24389  0.50756  Biso   1.000  H
  H1174    1.0000 0.02667  0.25319  0.43728  Biso   1.000  H
  C925     1.0000 0.90582  0.13298  0.22387  Biso   1.000  C
  C926     1.0000 0.90584  0.13294  0.22387  Biso   1.000  C
  C927     1.0000 0.90586  0.13298  0.22387  Biso   1.000  C
  H1175    1.0000 0.94571  0.06545  0.20068  Biso   1.000  H
  H1176    1.0000 0.98771  0.05415  0.24245  Biso   1.000  H
  H1177    1.0000 0.94575  0.06545  0.20068  Biso   1.000  H
  H1178    1.0000 0.98774  0.05415  0.24245  Biso   1.000  H
  H1179    1.0000 0.01465  0.10178  0.19097  Biso   1.000  H
  H1180    1.0000 0.01462  0.10174  0.19097  Biso   1.000  H
  C928     1.0000 0.84874  0.09357  0.25518  Biso   1.000  C
  C929     1.0000 0.84878  0.09357  0.25518  Biso   1.000  C
  H1181    1.0000 0.87812  0.10256  0.36909  Biso   1.000  H
  H1182    1.0000 0.86383  0.04937  0.41245  Biso   1.000  H
  H1183    1.0000 0.81244  0.05867  0.38829  Biso   1.000  H
  H1184    1.0000 0.87815  0.10256  0.36909  Biso   1.000  H
  H1185    1.0000 0.86386  0.04937  0.41245  Biso   1.000  H
  H1186    1.0000 0.81247  0.05867  0.38829  Biso   1.000  H
  H1187    1.0000 0.79924  0.80939  0.52836  Biso   1.000  H
  H1188    1.0000 0.84154  0.82421  0.47258  Biso   1.000  H
  H1189    1.0000 0.77493  0.77410  0.46779  Biso   1.000  H
  H1190    1.0000 0.79928  0.80939  0.52836  Biso   1.000  H
  H1191    1.0000 0.84157  0.82421  0.47258  Biso   1.000  H
  H1192    1.0000 0.77497  0.77410  0.46779  Biso   1.000  H
  H1193    1.0000 0.75615  0.78110  0.50756  Biso   1.000  H
  H1194    1.0000 0.81006  0.79618  0.46486  Biso   1.000  H
  H1195    1.0000 0.74685  0.77349  0.43728  Biso   1.000  H
  H1196    1.0000 0.12973  0.33646  0.64156  Biso   1.000  H
  H1197    1.0000 0.19784  0.37966  0.63118  Biso   1.000  H
  H1198    1.0000 0.19781  0.37966  0.63118  Biso   1.000  H
  H1199    1.0000 0.62036  0.81821  0.63118  Biso   1.000  H
  H1200    1.0000 0.66353  0.79331  0.64156  Biso   1.000  H
  H1201    1.0000 0.66357  0.79331  0.64156  Biso   1.000  H
  H1202    1.0000 0.91073  0.11217  0.18946  Biso   1.000  H
  C930     1.0000 0.90665  0.18779  0.20246  Biso   1.000  C
  H1203    1.0000 0.91077  0.11217  0.18946  Biso   1.000  H
  C931     1.0000 0.90663  0.18774  0.20246  Biso   1.000  C
  C932     1.0000 0.79763  0.07927  0.21265  Biso   1.000  C
  H1204    1.0000 0.84534  0.11356  0.29127  Biso   1.000  H
  C933     1.0000 0.79767  0.07927  0.21265  Biso   1.000  C
  H1205    1.0000 0.94422  0.21377  0.18299  Biso   1.000  H
  H1206    1.0000 0.90254  0.20869  0.23678  Biso   1.000  H
  C934     1.0000 0.85674  0.17197  0.15847  Biso   1.000  C
  H1207    1.0000 0.94426  0.21377  0.18299  Biso   1.000  H
  H1208    1.0000 0.90255  0.20865  0.23678  Biso   1.000  H
  C935     1.0000 0.85678  0.17197  0.15847  Biso   1.000  C
  H1209    1.0000 0.90252  0.20865  0.23678  Biso   1.000  H
  C936     1.0000 0.80103  0.13529  0.18946  Biso   1.000  C
  C937     1.0000 0.80104  0.13524  0.18946  Biso   1.000  C
  C938     1.0000 0.80106  0.13529  0.18946  Biso   1.000  C
  H1210    1.0000 0.79883  0.05615  0.17887  Biso   1.000  H
  H1211    1.0000 0.76043  0.05567  0.23385  Biso   1.000  H
  H1212    1.0000 0.79887  0.05615  0.17887  Biso   1.000  H
  H1213    1.0000 0.76047  0.05567  0.23385  Biso   1.000  H
  H1214    1.0000 0.85835  0.20778  0.14348  Biso   1.000  H
  H1215    1.0000 0.86035  0.15058  0.12429  Biso   1.000  H
  H1216    1.0000 0.85833  0.20773  0.14348  Biso   1.000  H
  H1217    1.0000 0.86033  0.15054  0.12429  Biso   1.000  H
  H1218    1.0000 0.76842  0.12525  0.16189  Biso   1.000  H
  H1219    1.0000 0.79742  0.15728  0.22307  Biso   1.000  H
  H1220    1.0000 0.76846  0.12525  0.16189  Biso   1.000  H
  H1221    1.0000 0.79744  0.15723  0.22307  Biso   1.000  H
  H1222    1.0000 0.79746  0.15728  0.22307  Biso   1.000  H
  C939     1.0000 0.77067  0.10182  0.69193  Biso   1.000  C
  C940     1.0000 0.82548  0.14693  0.66266  Biso   1.000  C
  H1223    1.0000 0.73786  0.08853  0.66373  Biso   1.000  H
  H1224    1.0000 0.76227  0.11912  0.72673  Biso   1.000  H
  C941     1.0000 0.77627  0.04993  0.71175  Biso   1.000  C
  H1225    1.0000 0.73790  0.08853  0.66373  Biso   1.000  H
  C942     1.0000 0.77630  0.04993  0.71175  Biso   1.000  C
  C943     1.0000 0.87768  0.16514  0.70274  Biso   1.000  C
  H1226    1.0000 0.82196  0.18144  0.65295  Biso   1.000  H
  H1227    1.0000 0.83135  0.13112  0.62515  Biso   1.000  H
  C944     1.0000 0.87769  0.16510  0.70274  Biso   1.000  C
  H1228    1.0000 0.82200  0.18144  0.65295  Biso   1.000  H
  H1229    1.0000 0.83138  0.13112  0.62515  Biso   1.000  H
  C945     1.0000 0.87766  0.16510  0.70274  Biso   1.000  C
  H1230    1.0000 0.78137  0.03064  0.67654  Biso   1.000  H
  H1231    1.0000 0.74014  0.02143  0.73223  Biso   1.000  H
  C946     1.0000 0.82798  0.06884  0.75343  Biso   1.000  C
  H1232    1.0000 0.78141  0.03064  0.67654  Biso   1.000  H
  H1233    1.0000 0.74018  0.02143  0.73223  Biso   1.000  H
  C947     1.0000 0.88427  0.11351  0.72234  Biso   1.000  C
  H1234    1.0000 0.87367  0.18474  0.73835  Biso   1.000  H
  H1235    1.0000 0.91336  0.19352  0.68155  Biso   1.000  H
  H1236    1.0000 0.87368  0.18470  0.73835  Biso   1.000  H
  H1237    1.0000 0.91340  0.19352  0.68155  Biso   1.000  H
  H1238    1.0000 0.87364  0.18470  0.73835  Biso   1.000  H
  N129     1.0000 0.83225  0.01769  0.76894  Biso   1.000  N
  H1239    1.0000 0.82207  0.08644  0.79014  Biso   1.000  H
  N130     1.0000 0.83229  0.01769  0.76894  Biso   1.000  N
  H1240    1.0000 0.82211  0.08644  0.79014  Biso   1.000  H
  N131     1.0000 0.93256  0.13355  0.76336  Biso   1.000  N
  H1241    1.0000 0.89148  0.09535  0.68705  Biso   1.000  H
  N132     1.0000 0.93258  0.13351  0.76336  Biso   1.000  N
  H1242    1.0000 0.89150  0.09531  0.68705  Biso   1.000  H
  N133     1.0000 0.93260  0.13355  0.76336  Biso   1.000  N
  N134     1.0000 0.93254  0.13351  0.76336  Biso   1.000  N
  H1243    1.0000 0.89146  0.09531  0.68705  Biso   1.000  H
  C948     1.0000 0.83217  0.00374  0.82313  Biso   1.000  C
  C949     1.0000 0.83220  0.00374  0.82313  Biso   1.000  C
  C950     1.0000 0.97088  0.11843  0.75804  Biso   1.000  C
  C951     1.0000 0.83504  0.04042  0.87554  Biso   1.000  C
  C952     1.0000 0.83507  0.04042  0.87554  Biso   1.000  C
  C953     1.0000 0.83441  0.94928  0.83523  Biso   1.000  C
  C954     1.0000 0.83435  0.94924  0.83523  Biso   1.000  C
  C955     1.0000 0.83439  0.94924  0.83523  Biso   1.000  C
  C956     1.0000 0.97297  0.07805  0.71214  Biso   1.000  C
  C957     1.0000 0.97299  0.07801  0.71214  Biso   1.000  C
  C958     1.0000 0.97295  0.07801  0.71214  Biso   1.000  C
  C959     1.0000 0.01855  0.14233  0.80304  Biso   1.000  C
  C960     1.0000 0.01859  0.14233  0.80304  Biso   1.000  C
  H1244    1.0000 0.85529  0.08144  0.86396  Biso   1.000  H
  H1245    1.0000 0.85628  0.03472  0.90795  Biso   1.000  H
  H1246    1.0000 0.79565  0.02894  0.88866  Biso   1.000  H
  H1247    1.0000 0.85526  0.08140  0.86396  Biso   1.000  H
  H1248    1.0000 0.79567  0.02890  0.88866  Biso   1.000  H
  H1249    1.0000 0.79569  0.02894  0.88866  Biso   1.000  H
  C961     1.0000 0.85570  0.92699  0.79196  Biso   1.000  C
  C962     1.0000 0.81538  0.92086  0.88933  Biso   1.000  C
  C963     1.0000 0.85568  0.92695  0.79196  Biso   1.000  C
  H1250    1.0000 0.97657  0.04715  0.73205  Biso   1.000  H
  H1251    1.0000 0.93719  0.06076  0.68864  Biso   1.000  H
  H1252    1.0000 0.97658  0.04711  0.73205  Biso   1.000  H
  H1253    1.0000 0.93717  0.06071  0.68864  Biso   1.000  H
  H1254    1.0000 0.97661  0.04715  0.73205  Biso   1.000  H
  H1255    1.0000 0.97655  0.04711  0.73205  Biso   1.000  H
  H1256    1.0000 0.00648  0.10004  0.68603  Biso   1.000  H
  H1257    1.0000 0.00645  0.10000  0.68603  Biso   1.000  H
  C964     1.0000 0.07126  0.14433  0.79196  Biso   1.000  C
  C965     1.0000 0.00948  0.16145  0.85825  Biso   1.000  C
  C966     1.0000 0.00946  0.16141  0.85825  Biso   1.000  C
  H1258    1.0000 0.86878  0.94637  0.75493  Biso   1.000  H
  C967     1.0000 0.85767  0.87627  0.80304  Biso   1.000  C
  C968     1.0000 0.85771  0.87627  0.80304  Biso   1.000  C
  C969     1.0000 0.81729  0.86988  0.90174  Biso   1.000  C
  H1259    1.0000 0.80067  0.93607  0.91846  Biso   1.000  H
  C970     1.0000 0.81727  0.86984  0.90174  Biso   1.000  C
  H1260    1.0000 0.80070  0.93607  0.91846  Biso   1.000  H
  C971     1.0000 0.11488  0.16562  0.83523  Biso   1.000  C
  H1261    1.0000 0.07759  0.13125  0.75493  Biso   1.000  H
  C972     1.0000 0.11484  0.16562  0.83523  Biso   1.000  C
  H1262    1.0000 0.07753  0.13120  0.75493  Biso   1.000  H
  H1263    1.0000 0.07757  0.13120  0.75493  Biso   1.000  H
  H1264    1.0000 0.97348  0.15975  0.86596  Biso   1.000  H
  H1265    1.0000 0.97350  0.15971  0.86596  Biso   1.000  H
  H1266    1.0000 0.97346  0.15971  0.86596  Biso   1.000  H
  C973     1.0000 0.05257  0.18274  0.90174  Biso   1.000  C
  C974     1.0000 0.05255  0.18270  0.90174  Biso   1.000  C
  C975     1.0000 0.83860  0.84807  0.85825  Biso   1.000  C
  C976     1.0000 0.88159  0.85246  0.75804  Biso   1.000  C
  C977     1.0000 0.83856  0.84807  0.85825  Biso   1.000  C
  C978     1.0000 0.88155  0.85246  0.75804  Biso   1.000  C
  C979     1.0000 0.79879  0.84237  0.96156  Biso   1.000  C
  C980     1.0000 0.17157  0.16784  0.82313  Biso   1.000  C
  C981     1.0000 0.10546  0.18466  0.88933  Biso   1.000  C
  C982     1.0000 0.10544  0.18461  0.88933  Biso   1.000  C
  C983     1.0000 0.10550  0.18466  0.88933  Biso   1.000  C
  C984     1.0000 0.10548  0.18461  0.88933  Biso   1.000  C
  C985     1.0000 0.04357  0.20126  0.96156  Biso   1.000  C
  C986     1.0000 0.04355  0.20121  0.96156  Biso   1.000  C
  C987     1.0000 0.04361  0.20126  0.96156  Biso   1.000  C
  H1267    1.0000 0.84027  0.81378  0.86596  Biso   1.000  H
  H1268    1.0000 0.84031  0.81378  0.86596  Biso   1.000  H
  N135     1.0000 0.86650  0.79909  0.76336  Biso   1.000  N
  C988     1.0000 0.92196  0.89496  0.71214  Biso   1.000  C
  N136     1.0000 0.86648  0.79905  0.76336  Biso   1.000  N
  C989     1.0000 0.92200  0.89496  0.71214  Biso   1.000  C
  N137     1.0000 0.76979  0.85806  0.99264  Biso   1.000  N
  C990     1.0000 0.82080  0.80178  0.98124  Biso   1.000  C
  N138     1.0000 0.76975  0.85806  0.99264  Biso   1.000  N
  C991     1.0000 0.82078  0.80174  0.98124  Biso   1.000  C
  N139     1.0000 0.18542  0.16775  0.76894  Biso   1.000  N
  C992     1.0000 0.20538  0.16493  0.87554  Biso   1.000  C
  C993     1.0000 0.20535  0.16493  0.87554  Biso   1.000  C
  N140     1.0000 0.18546  0.16775  0.76894  Biso   1.000  N
  H1269    1.0000 0.13539  0.19935  0.91846  Biso   1.000  H
  H1270    1.0000 0.13533  0.19930  0.91846  Biso   1.000  H
  H1271    1.0000 0.13537  0.19930  0.91846  Biso   1.000  H
  C994     1.0000 0.98096  0.17922  0.98124  Biso   1.000  C
  C995     1.0000 0.98099  0.17922  0.98124  Biso   1.000  C
  N141     1.0000 0.08829  0.23024  0.99264  Biso   1.000  N
  N142     1.0000 0.08823  0.23020  0.99264  Biso   1.000  N
  N143     1.0000 0.08827  0.23020  0.99264  Biso   1.000  N
  C996     1.0000 0.88647  0.77075  0.72234  Biso   1.000  C
  C997     1.0000 0.88651  0.77075  0.72234  Biso   1.000  C
  H1272    1.0000 0.95288  0.92947  0.73205  Biso   1.000  H
  H1273    1.0000 0.89998  0.90648  0.68603  Biso   1.000  H
  H1274    1.0000 0.93930  0.87649  0.68864  Biso   1.000  H
  H1275    1.0000 0.93928  0.87645  0.68864  Biso   1.000  H
  H1276    1.0000 0.95292  0.92947  0.73205  Biso   1.000  H
  H1277    1.0000 0.90002  0.90648  0.68603  Biso   1.000  H
  C998     1.0000 0.75147  0.83677  0.05294  Biso   1.000  C
  C999     1.0000 0.75150  0.83677  0.05294  Biso   1.000  C
  H1278    1.0000 0.85796  0.81326  0.96173  Biso   1.000  H
  H1279    1.0000 0.79240  0.76176  0.97025  Biso   1.000  H
  H1280    1.0000 0.79236  0.76176  0.97025  Biso   1.000  H
  H1281    1.0000 0.85800  0.81326  0.96173  Biso   1.000  H
  H1282    1.0000 0.82621  0.80439  0.02434  Biso   1.000  H
  H1283    1.0000 0.82615  0.80435  0.02434  Biso   1.000  H
  H1284    1.0000 0.82619  0.80435  0.02434  Biso   1.000  H
  C1000    1.0000 0.24086  0.17205  0.75343  Biso   1.000  C
  C1001    1.0000 0.24084  0.17201  0.75343  Biso   1.000  C
  C1002    1.0000 0.24090  0.17205  0.75343  Biso   1.000  C
  C1003    1.0000 0.24088  0.17201  0.75343  Biso   1.000  C
  H1285    1.0000 0.22618  0.14472  0.86396  Biso   1.000  H
  H1286    1.0000 0.17845  0.14372  0.90795  Biso   1.000  H
  H1287    1.0000 0.23326  0.20434  0.88866  Biso   1.000  H
  H1288    1.0000 0.22614  0.14472  0.86396  Biso   1.000  H
  H1289    1.0000 0.23324  0.20430  0.88866  Biso   1.000  H
  H1290    1.0000 0.17848  0.14372  0.90795  Biso   1.000  H
  H1291    1.0000 0.23330  0.20434  0.88866  Biso   1.000  H
  H1292    1.0000 0.23328  0.20430  0.88866  Biso   1.000  H
  H1293    1.0000 0.95524  0.14202  0.96173  Biso   1.000  H
  H1294    1.0000 0.96939  0.20765  0.97025  Biso   1.000  H
  H1295    1.0000 0.95528  0.14202  0.96173  Biso   1.000  H
  H1296    1.0000 0.96936  0.20760  0.97025  Biso   1.000  H
  H1297    1.0000 0.97815  0.17384  0.02434  Biso   1.000  H
  H1298    1.0000 0.97819  0.17384  0.02434  Biso   1.000  H
  C1004    1.0000 0.08528  0.24854  0.05294  Biso   1.000  C
  H1299    1.0000 0.90468  0.79618  0.68705  Biso   1.000  H
  C1005    1.0000 0.83487  0.71256  0.70274  Biso   1.000  C
  C1006    1.0000 0.93120  0.75919  0.75343  Biso   1.000  C
  C1007    1.0000 0.93118  0.75915  0.75343  Biso   1.000  C
  H1300    1.0000 0.90471  0.79618  0.68705  Biso   1.000  H
  C1008    1.0000 0.83490  0.71256  0.70274  Biso   1.000  C
  H1301    1.0000 0.76397  0.80817  0.06354  Biso   1.000  H
  C1009    1.0000 0.68500  0.80809  0.05693  Biso   1.000  C
  C1010    1.0000 0.78009  0.88927  0.09444  Biso   1.000  C
  C1011    1.0000 0.68498  0.80804  0.05693  Biso   1.000  C
  H1302    1.0000 0.76400  0.80817  0.06354  Biso   1.000  H
  C1012    1.0000 0.22926  0.11573  0.72234  Biso   1.000  C
  C1013    1.0000 0.27366  0.22373  0.71175  Biso   1.000  C
  H1303    1.0000 0.26435  0.17792  0.79014  Biso   1.000  H
  C1014    1.0000 0.22930  0.11573  0.72234  Biso   1.000  C
  H1304    1.0000 0.26438  0.17792  0.79014  Biso   1.000  H
  H1305    1.0000 0.04417  0.23602  0.06354  Biso   1.000  H
  C1015    1.0000 0.12308  0.31503  0.05693  Biso   1.000  C
  C1016    1.0000 0.10918  0.21995  0.09444  Biso   1.000  C
  C1017    1.0000 0.12304  0.31503  0.05693  Biso   1.000  C
  C1018    1.0000 0.10916  0.21990  0.09444  Biso   1.000  C
  H1306    1.0000 0.81528  0.68897  0.73835  Biso   1.000  H
  H1307    1.0000 0.80649  0.71986  0.68155  Biso   1.000  H
  C1019    1.0000 0.85310  0.67858  0.66266  Biso   1.000  C
  C1020    1.0000 0.85304  0.67854  0.66266  Biso   1.000  C
  H1308    1.0000 0.81531  0.68897  0.73835  Biso   1.000  H
  C1021    1.0000 0.85308  0.67854  0.66266  Biso   1.000  C
  N144     1.0000 0.98235  0.81460  0.76894  Biso   1.000  N
  C1022    1.0000 0.95009  0.72638  0.71175  Biso   1.000  C
  H1309    1.0000 0.91361  0.73568  0.79014  Biso   1.000  H
  C1023    1.0000 0.95007  0.72634  0.71175  Biso   1.000  C
  H1310    1.0000 0.91355  0.73564  0.79014  Biso   1.000  H
  H1311    1.0000 0.91359  0.73564  0.79014  Biso   1.000  H
  H1312    1.0000 0.67279  0.83546  0.04226  Biso   1.000  H
  H1313    1.0000 0.66687  0.77319  0.03144  Biso   1.000  H
  C1024    1.0000 0.66438  0.79109  0.12025  Biso   1.000  C
  H1314    1.0000 0.67276  0.83546  0.04226  Biso   1.000  H
  H1315    1.0000 0.66685  0.77315  0.03144  Biso   1.000  H
  C1025    1.0000 0.66436  0.79105  0.12025  Biso   1.000  C
  H1316    1.0000 0.66691  0.77319  0.03144  Biso   1.000  H
  C1026    1.0000 0.66442  0.79109  0.12025  Biso   1.000  C
  H1317    1.0000 0.66689  0.77315  0.03144  Biso   1.000  H
  N145     1.0000 0.84327  0.91356  0.09134  Biso   1.000  N
  C1027    1.0000 0.75999  0.87219  0.15785  Biso   1.000  C
  H1318    1.0000 0.77030  0.91930  0.08096  Biso   1.000  H
  C1028    1.0000 0.75997  0.87214  0.15785  Biso   1.000  C
  H1319    1.0000 0.77028  0.91925  0.08096  Biso   1.000  H
  N146     1.0000 0.84331  0.91356  0.09134  Biso   1.000  N
  N147     1.0000 0.20098  0.06745  0.76336  Biso   1.000  N
  H1320    1.0000 0.20386  0.10852  0.68705  Biso   1.000  H
  C1029    1.0000 0.28748  0.12234  0.70274  Biso   1.000  C
  N148     1.0000 0.20096  0.06740  0.76336  Biso   1.000  N
  C1030    1.0000 0.33115  0.22933  0.69193  Biso   1.000  C
  H1321    1.0000 0.24929  0.21864  0.67654  Biso   1.000  H
  H1322    1.0000 0.28126  0.25984  0.73223  Biso   1.000  H
  H1323    1.0000 0.24925  0.21864  0.67654  Biso   1.000  H
  C1031    1.0000 0.33119  0.22933  0.69193  Biso   1.000  C
  H1324    1.0000 0.28129  0.25984  0.73223  Biso   1.000  H
  H1325    1.0000 0.16268  0.32724  0.04226  Biso   1.000  H
  H1326    1.0000 0.10628  0.33316  0.03144  Biso   1.000  H
  C1032    1.0000 0.12668  0.33563  0.12025  Biso   1.000  C
  H1327    1.0000 0.16266  0.32720  0.04226  Biso   1.000  H
  H1328    1.0000 0.10626  0.33311  0.03144  Biso   1.000  H
  C1033    1.0000 0.12664  0.33563  0.12025  Biso   1.000  C
  N149     1.0000 0.07029  0.15676  0.09134  Biso   1.000  N
  C1034    1.0000 0.11215  0.24002  0.15785  Biso   1.000  C
  H1329    1.0000 0.14896  0.22972  0.08096  Biso   1.000  H
  N150     1.0000 0.07026  0.15671  0.09134  Biso   1.000  N
  C1035    1.0000 0.11218  0.24002  0.15785  Biso   1.000  C
  H1330    1.0000 0.81858  0.64055  0.65295  Biso   1.000  H
  H1331    1.0000 0.86888  0.70026  0.62515  Biso   1.000  H
  C1036    1.0000 0.89820  0.66889  0.69193  Biso   1.000  C
  C1037    1.0000 0.89818  0.66884  0.69193  Biso   1.000  C
  H1332    1.0000 0.86891  0.70026  0.62515  Biso   1.000  H
  C1038    1.0000 0.99628  0.82847  0.82313  Biso   1.000  C
  C1039    1.0000 0.99632  0.82847  0.82313  Biso   1.000  C
  H1333    1.0000 0.96940  0.75076  0.67654  Biso   1.000  H
  H1334    1.0000 0.97858  0.71878  0.73223  Biso   1.000  H
  H1335    1.0000 0.96936  0.75076  0.67654  Biso   1.000  H
  H1336    1.0000 0.97862  0.71878  0.73223  Biso   1.000  H
  H1337    1.0000 0.67357  0.76106  0.13364  Biso   1.000  H
  H1338    1.0000 0.62157  0.77397  0.12176  Biso   1.000  H
  C1040    1.0000 0.69300  0.84298  0.16144  Biso   1.000  C
  C1041    1.0000 0.69294  0.84294  0.16144  Biso   1.000  C
  H1339    1.0000 0.67361  0.76106  0.13364  Biso   1.000  H
  H1340    1.0000 0.62161  0.77397  0.12176  Biso   1.000  H
  C1042    1.0000 0.69298  0.84294  0.16144  Biso   1.000  C
  C1043    1.0000 0.87759  0.96519  0.07613  Biso   1.000  C
  C1044    1.0000 0.87757  0.96515  0.07613  Biso   1.000  C
  C1045    1.0000 0.87763  0.96519  0.07613  Biso   1.000  C
  H1341    1.0000 0.77809  0.90717  0.18343  Biso   1.000  H
  H1342    1.0000 0.77239  0.84490  0.17235  Biso   1.000  H
  H1343    1.0000 0.77237  0.84485  0.17235  Biso   1.000  H
  H1344    1.0000 0.77243  0.84490  0.17235  Biso   1.000  H
  C1046    1.0000 0.14757  0.02912  0.75804  Biso   1.000  C
  H1345    1.0000 0.31108  0.12633  0.73835  Biso   1.000  H
  H1346    1.0000 0.28015  0.08661  0.68155  Biso   1.000  H
  C1047    1.0000 0.32148  0.17453  0.66266  Biso   1.000  C
  H1347    1.0000 0.28019  0.08661  0.68155  Biso   1.000  H
  H1348    1.0000 0.35068  0.26214  0.66373  Biso   1.000  H
  H1349    1.0000 0.35687  0.23772  0.72673  Biso   1.000  H
  H1350    1.0000 0.35066  0.26210  0.66373  Biso   1.000  H
  H1351    1.0000 0.08745  0.32642  0.13364  Biso   1.000  H
  H1352    1.0000 0.15237  0.37844  0.12176  Biso   1.000  H
  C1048    1.0000 0.14998  0.30704  0.16144  Biso   1.000  C
  C1049    1.0000 0.14994  0.30704  0.16144  Biso   1.000  C
  H1353    1.0000 0.08749  0.32642  0.13364  Biso   1.000  H
  C1050    1.0000 0.08756  0.12242  0.07613  Biso   1.000  C
  C1051    1.0000 0.08759  0.12242  0.07613  Biso   1.000  C
  H1354    1.0000 0.12908  0.22194  0.18343  Biso   1.000  H
  H1355    1.0000 0.07246  0.22764  0.17235  Biso   1.000  H
  H1356    1.0000 0.12905  0.22190  0.18343  Biso   1.000  H
  H1357    1.0000 0.07249  0.22764  0.17235  Biso   1.000  H
  H1358    1.0000 0.91148  0.64937  0.66373  Biso   1.000  H
  H1359    1.0000 0.88089  0.64316  0.72673  Biso   1.000  H
  H1360    1.0000 0.88086  0.64316  0.72673  Biso   1.000  H
  H1361    1.0000 0.91151  0.64937  0.66373  Biso   1.000  H
  C1052    1.0000 0.95958  0.79466  0.87554  Biso   1.000  C
  C1053    1.0000 0.05080  0.88518  0.83523  Biso   1.000  C
  C1054    1.0000 0.05077  0.88514  0.83523  Biso   1.000  C
  C1055    1.0000 0.05076  0.88518  0.83523  Biso   1.000  C
  H1362    1.0000 0.68008  0.83016  0.20263  Biso   1.000  H
  H1363    1.0000 0.68077  0.87136  0.15036  Biso   1.000  H
  H1364    1.0000 0.68081  0.87136  0.15036  Biso   1.000  H
  C1056    1.0000 0.94090  0.98379  0.07493  Biso   1.000  C
  C1057    1.0000 0.94088  0.98375  0.07493  Biso   1.000  C
  C1058    1.0000 0.86245  0.00882  0.04665  Biso   1.000  C
  C1059    1.0000 0.86248  0.00882  0.04665  Biso   1.000  C
  C1060    1.0000 0.85956  0.00952  0.07573  Biso   1.000  C
  C1061    1.0000 0.12379  0.98149  0.80304  Biso   1.000  C
  C1062    1.0000 0.12377  0.98144  0.80304  Biso   1.000  C
  C1063    1.0000 0.10509  0.02703  0.71214  Biso   1.000  C
  C1064    1.0000 0.10505  0.02703  0.71214  Biso   1.000  C
  H1365    1.0000 0.35948  0.17805  0.65295  Biso   1.000  H
  H1366    1.0000 0.29978  0.16862  0.62515  Biso   1.000  H
  H1367    1.0000 0.35946  0.17801  0.65295  Biso   1.000  H
  H1368    1.0000 0.29974  0.16862  0.62515  Biso   1.000  H
  H1369    1.0000 0.15007  0.31994  0.20263  Biso   1.000  H
  H1370    1.0000 0.19056  0.31925  0.15036  Biso   1.000  H
  H1371    1.0000 0.19054  0.31920  0.15036  Biso   1.000  H
  H1372    1.0000 0.19060  0.31925  0.15036  Biso   1.000  H
  H1373    1.0000 0.19058  0.31920  0.15036  Biso   1.000  H
  C1065    1.0000 0.04286  0.05915  0.07493  Biso   1.000  C
  C1066    1.0000 0.14638  0.13755  0.04665  Biso   1.000  C
  C1067    1.0000 0.04284  0.05910  0.07493  Biso   1.000  C
  C1068    1.0000 0.14636  0.13750  0.04665  Biso   1.000  C
  C1069    1.0000 0.04290  0.05915  0.07493  Biso   1.000  C
  C1070    1.0000 0.04288  0.05910  0.07493  Biso   1.000  C
  C1071    1.0000 0.14996  0.14042  0.07573  Biso   1.000  C
  H1374    1.0000 0.91859  0.77388  0.86396  Biso   1.000  H
  H1375    1.0000 0.96528  0.82156  0.90795  Biso   1.000  H
  H1376    1.0000 0.97107  0.76676  0.88866  Biso   1.000  H
  H1377    1.0000 0.91857  0.77384  0.86396  Biso   1.000  H
  H1378    1.0000 0.97111  0.76676  0.88866  Biso   1.000  H
  C1072    1.0000 0.07308  0.92877  0.79196  Biso   1.000  C
  C1073    1.0000 0.07920  0.89457  0.88933  Biso   1.000  C
  C1074    1.0000 0.07916  0.89457  0.88933  Biso   1.000  C
  C1075    1.0000 0.95767  0.94116  0.07507  Biso   1.000  C
  C1076    1.0000 0.95771  0.94116  0.07507  Biso   1.000  C
  C1077    1.0000 0.98345  0.04233  0.07507  Biso   1.000  C
  C1078    1.0000 0.98349  0.04233  0.07507  Biso   1.000  C
  H1379    1.0000 0.82029  0.99226  0.04607  Biso   1.000  H
  H1380    1.0000 0.82026  0.99226  0.04607  Biso   1.000  H
  H1381    1.0000 0.87735  0.01673  0.00585  Biso   1.000  H
  H1382    1.0000 0.88047  0.04524  0.06926  Biso   1.000  H
  H1383    1.0000 0.87739  0.01673  0.00585  Biso   1.000  H
  H1384    1.0000 0.88048  0.04520  0.06926  Biso   1.000  H
  H1385    1.0000 0.88045  0.04520  0.06926  Biso   1.000  H
  H1386    1.0000 0.84845  0.01373  0.03543  Biso   1.000  H
  H1387    1.0000 0.82640  0.99748  0.10247  Biso   1.000  H
  H1388    1.0000 0.89197  0.04672  0.08917  Biso   1.000  H
  C1079    1.0000 0.15200  0.99057  0.85825  Biso   1.000  C
  C1080    1.0000 0.15197  0.99057  0.85825  Biso   1.000  C
  H1389    1.0000 0.09358  0.99357  0.68603  Biso   1.000  H
  H1390    1.0000 0.09355  0.99357  0.68603  Biso   1.000  H
  H1391    1.0000 0.07058  0.02342  0.73205  Biso   1.000  H
  H1392    1.0000 0.12355  0.06284  0.68864  Biso   1.000  H
  H1393    1.0000 0.07054  0.02342  0.73205  Biso   1.000  H
  H1394    1.0000 0.12353  0.06280  0.68864  Biso   1.000  H
  H1395    1.0000 0.12359  0.06284  0.68864  Biso   1.000  H
  H1396    1.0000 0.12357  0.06280  0.68864  Biso   1.000  H
  C1081    1.0000 0.05884  0.01651  0.07507  Biso   1.000  C
  C1082    1.0000 0.05888  0.01651  0.07507  Biso   1.000  C
  H1397    1.0000 0.13938  0.12264  0.00585  Biso   1.000  H
  H1398    1.0000 0.16478  0.11956  0.06926  Biso   1.000  H
  H1399    1.0000 0.17196  0.17975  0.04607  Biso   1.000  H
  H1400    1.0000 0.16476  0.11951  0.06926  Biso   1.000  H
  H1401    1.0000 0.17194  0.17970  0.04607  Biso   1.000  H
  H1402    1.0000 0.17200  0.17975  0.04607  Biso   1.000  H
  H1403    1.0000 0.17197  0.17970  0.04607  Biso   1.000  H
  H1404    1.0000 0.16527  0.15154  0.03543  Biso   1.000  H
  H1405    1.0000 0.17108  0.17362  0.10247  Biso   1.000  H
  H1406    1.0000 0.15477  0.10804  0.08917  Biso   1.000  H
  H1407    1.0000 0.05367  0.92247  0.75493  Biso   1.000  H
  H1408    1.0000 0.05371  0.92247  0.75493  Biso   1.000  H
  C1083    1.0000 0.13018  0.94746  0.90174  Biso   1.000  C
  H1409    1.0000 0.06399  0.86467  0.91846  Biso   1.000  H
  C1084    1.0000 0.13015  0.94746  0.90174  Biso   1.000  C
  H1410    1.0000 0.06395  0.86467  0.91846  Biso   1.000  H
  H1411    1.0000 0.92880  0.90117  0.07524  Biso   1.000  H
  C1085    1.0000 0.01631  0.95719  0.07493  Biso   1.000  C
  C1086    1.0000 0.01629  0.95715  0.07493  Biso   1.000  C
  C1087    1.0000 0.01627  0.95719  0.07493  Biso   1.000  C
  H1412    1.0000 0.97235  0.07123  0.07524  Biso   1.000  H
  H1413    1.0000 0.97239  0.07123  0.07524  Biso   1.000  H
  H1414    1.0000 0.18629  0.02655  0.86596  Biso   1.000  H
  H1415    1.0000 0.18623  0.02651  0.86596  Biso   1.000  H
  H1416    1.0000 0.18627  0.02651  0.86596  Biso   1.000  H
  H1417    1.0000 0.09888  0.02764  0.07524  Biso   1.000  H
  C1088    1.0000 0.15770  0.95650  0.96156  Biso   1.000  C
  C1089    1.0000 0.15768  0.95645  0.96156  Biso   1.000  C
  C1090    1.0000 0.15766  0.95650  0.96156  Biso   1.000  C
  C1091    1.0000 0.03490  0.91247  0.07613  Biso   1.000  C
  C1092    1.0000 0.03486  0.91247  0.07613  Biso   1.000  C
  N151     1.0000 0.14200  0.91178  0.99264  Biso   1.000  N
  N152     1.0000 0.14196  0.91178  0.99264  Biso   1.000  N
  C1093    1.0000 0.19826  0.01903  0.98124  Biso   1.000  C
  C1094    1.0000 0.19830  0.01903  0.98124  Biso   1.000  C
  C1095    1.0000 0.99120  0.85367  0.04665  Biso   1.000  C
  C1096    1.0000 0.99048  0.85007  0.07573  Biso   1.000  C
  N153     1.0000 0.08649  0.92977  0.09134  Biso   1.000  N
  N154     1.0000 0.08645  0.92977  0.09134  Biso   1.000  N
  C1097    1.0000 0.16330  0.91478  0.05294  Biso   1.000  C
  C1098    1.0000 0.16326  0.91478  0.05294  Biso   1.000  C
  H1418    1.0000 0.18676  0.04472  0.96173  Biso   1.000  H
  H1419    1.0000 0.23828  0.03064  0.97025  Biso   1.000  H
  H1420    1.0000 0.18679  0.04472  0.96173  Biso   1.000  H
  H1421    1.0000 0.19567  0.02182  0.02434  Biso   1.000  H
  H1422    1.0000 0.98329  0.86067  0.00585  Biso   1.000  H
  H1423    1.0000 0.95479  0.83529  0.06926  Biso   1.000  H
  H1424    1.0000 0.95477  0.83525  0.06926  Biso   1.000  H
  H1425    1.0000 0.98630  0.83477  0.03543  Biso   1.000  H
  H1426    1.0000 0.00779  0.82808  0.04607  Biso   1.000  H
  H1427    1.0000 0.00775  0.82808  0.04607  Biso   1.000  H
  H1428    1.0000 0.95326  0.84524  0.08917  Biso   1.000  H
  H1429    1.0000 0.00258  0.82895  0.10247  Biso   1.000  H
  C1099    1.0000 0.11077  0.89087  0.09444  Biso   1.000  C
  C1100    1.0000 0.11081  0.89087  0.09444  Biso   1.000  C
  H1430    1.0000 0.19191  0.95589  0.06354  Biso   1.000  H
  C1101    1.0000 0.19200  0.87697  0.05693  Biso   1.000  C
  H1431    1.0000 0.19189  0.95585  0.06354  Biso   1.000  H
  C1102    1.0000 0.19197  0.87697  0.05693  Biso   1.000  C
  H1432    1.0000 0.19187  0.95589  0.06354  Biso   1.000  H
  C1103    1.0000 0.12791  0.88788  0.15785  Biso   1.000  C
  H1433    1.0000 0.08078  0.85107  0.08096  Biso   1.000  H
  C1104    1.0000 0.12787  0.88788  0.15785  Biso   1.000  C
  H1434    1.0000 0.08075  0.85107  0.08096  Biso   1.000  H
  H1435    1.0000 0.16461  0.83738  0.04226  Biso   1.000  H
  H1436    1.0000 0.22691  0.89379  0.03144  Biso   1.000  H
  C1105    1.0000 0.20898  0.87336  0.12025  Biso   1.000  C
  H1437    1.0000 0.16457  0.83738  0.04226  Biso   1.000  H
  H1438    1.0000 0.22689  0.89374  0.03144  Biso   1.000  H
  H1439    1.0000 0.22687  0.89379  0.03144  Biso   1.000  H
  C1106    1.0000 0.15710  0.85007  0.16144  Biso   1.000  C
  H1440    1.0000 0.09288  0.87097  0.18343  Biso   1.000  H
  H1441    1.0000 0.15520  0.92755  0.17235  Biso   1.000  H
  C1107    1.0000 0.15706  0.85007  0.16144  Biso   1.000  C
  H1442    1.0000 0.15516  0.92755  0.17235  Biso   1.000  H
  H1443    1.0000 0.23897  0.91256  0.13364  Biso   1.000  H
  H1444    1.0000 0.22610  0.84768  0.12176  Biso   1.000  H
  H1445    1.0000 0.22606  0.84768  0.12176  Biso   1.000  H
  H1446    1.0000 0.23901  0.91256  0.13364  Biso   1.000  H
  H1447    1.0000 0.16989  0.84998  0.20263  Biso   1.000  H
  H1448    1.0000 0.12868  0.80948  0.15036  Biso   1.000  H
  H1449    1.0000 0.16985  0.84998  0.20263  Biso   1.000  H
  H1450    1.0000 0.12871  0.80948  0.15036  Biso   1.000  H
  C1108    1.0000 0.77067  0.10182  0.69193  Biso   1.000  C
  C1109    1.0000 0.82548  0.14693  0.66266  Biso   1.000  C
  H1451    1.0000 0.76227  0.11912  0.72673  Biso   1.000  H
  H1452    1.0000 0.73786  0.08853  0.66373  Biso   1.000  H
  C1110    1.0000 0.77627  0.04993  0.71175  Biso   1.000  C
  H1453    1.0000 0.73790  0.08853  0.66373  Biso   1.000  H
  C1111    1.0000 0.77630  0.04993  0.71175  Biso   1.000  C
  C1112    1.0000 0.87768  0.16514  0.70274  Biso   1.000  C
  H1454    1.0000 0.82200  0.18144  0.65295  Biso   1.000  H
  H1455    1.0000 0.83138  0.13112  0.62515  Biso   1.000  H
  H1456    1.0000 0.82196  0.18144  0.65295  Biso   1.000  H
  H1457    1.0000 0.83135  0.13112  0.62515  Biso   1.000  H
  C1113    1.0000 0.87769  0.16510  0.70274  Biso   1.000  C
  C1114    1.0000 0.87766  0.16510  0.70274  Biso   1.000  C
  C1115    1.0000 0.82798  0.06884  0.75343  Biso   1.000  C
  H1458    1.0000 0.78137  0.03064  0.67654  Biso   1.000  H
  H1459    1.0000 0.74018  0.02143  0.73223  Biso   1.000  H
  H1460    1.0000 0.74014  0.02143  0.73223  Biso   1.000  H
  H1461    1.0000 0.78141  0.03064  0.67654  Biso   1.000  H
  C1116    1.0000 0.88427  0.11351  0.72234  Biso   1.000  C
  H1462    1.0000 0.87367  0.18474  0.73835  Biso   1.000  H
  H1463    1.0000 0.91336  0.19352  0.68155  Biso   1.000  H
  H1464    1.0000 0.87368  0.18470  0.73835  Biso   1.000  H
  H1465    1.0000 0.91340  0.19352  0.68155  Biso   1.000  H
  H1466    1.0000 0.87364  0.18470  0.73835  Biso   1.000  H
  N155     1.0000 0.83225  0.01769  0.76894  Biso   1.000  N
  H1467    1.0000 0.82207  0.08644  0.79014  Biso   1.000  H
  N156     1.0000 0.83229  0.01769  0.76894  Biso   1.000  N
  H1468    1.0000 0.82211  0.08644  0.79014  Biso   1.000  H
  H1469    1.0000 0.89148  0.09535  0.68705  Biso   1.000  H
  N157     1.0000 0.93256  0.13355  0.76336  Biso   1.000  N
  N158     1.0000 0.93258  0.13351  0.76336  Biso   1.000  N
  H1470    1.0000 0.89150  0.09531  0.68705  Biso   1.000  H
  N159     1.0000 0.93260  0.13355  0.76336  Biso   1.000  N
  N160     1.0000 0.93254  0.13351  0.76336  Biso   1.000  N
  H1471    1.0000 0.89146  0.09531  0.68705  Biso   1.000  H
  C1117    1.0000 0.83217  0.00374  0.82313  Biso   1.000  C
  C1118    1.0000 0.83220  0.00374  0.82313  Biso   1.000  C
  C1119    1.0000 0.97088  0.11843  0.75804  Biso   1.000  C
  C1120    1.0000 0.83507  0.04042  0.87554  Biso   1.000  C
  C1121    1.0000 0.83441  0.94928  0.83523  Biso   1.000  C
  C1122    1.0000 0.83435  0.94924  0.83523  Biso   1.000  C
  C1123    1.0000 0.83439  0.94924  0.83523  Biso   1.000  C
  C1124    1.0000 0.83504  0.04042  0.87554  Biso   1.000  C
  C1125    1.0000 0.97297  0.07805  0.71214  Biso   1.000  C
  C1126    1.0000 0.97299  0.07801  0.71214  Biso   1.000  C
  C1127    1.0000 0.97295  0.07801  0.71214  Biso   1.000  C
  C1128    1.0000 0.01855  0.14233  0.80304  Biso   1.000  C
  C1129    1.0000 0.01859  0.14233  0.80304  Biso   1.000  C
  H1472    1.0000 0.85628  0.03472  0.90795  Biso   1.000  H
  H1473    1.0000 0.85529  0.08144  0.86396  Biso   1.000  H
  H1474    1.0000 0.85526  0.08140  0.86396  Biso   1.000  H
  H1475    1.0000 0.79567  0.02890  0.88866  Biso   1.000  H
  H1476    1.0000 0.79565  0.02894  0.88866  Biso   1.000  H
  H1477    1.0000 0.79569  0.02894  0.88866  Biso   1.000  H
  C1130    1.0000 0.85570  0.92699  0.79196  Biso   1.000  C
  C1131    1.0000 0.81538  0.92086  0.88933  Biso   1.000  C
  C1132    1.0000 0.85568  0.92695  0.79196  Biso   1.000  C
  H1478    1.0000 0.93719  0.06076  0.68864  Biso   1.000  H
  H1479    1.0000 0.93717  0.06071  0.68864  Biso   1.000  H
  H1480    1.0000 0.97657  0.04715  0.73205  Biso   1.000  H
  H1481    1.0000 0.97658  0.04711  0.73205  Biso   1.000  H
  H1482    1.0000 0.97661  0.04715  0.73205  Biso   1.000  H
  H1483    1.0000 0.97655  0.04711  0.73205  Biso   1.000  H
  H1484    1.0000 0.00648  0.10004  0.68603  Biso   1.000  H
  H1485    1.0000 0.00645  0.10000  0.68603  Biso   1.000  H
  C1133    1.0000 0.07126  0.14433  0.79196  Biso   1.000  C
  C1134    1.0000 0.00948  0.16145  0.85825  Biso   1.000  C
  C1135    1.0000 0.00946  0.16141  0.85825  Biso   1.000  C
  H1486    1.0000 0.86878  0.94637  0.75493  Biso   1.000  H
  C1136    1.0000 0.85767  0.87627  0.80304  Biso   1.000  C
  C1137    1.0000 0.85771  0.87627  0.80304  Biso   1.000  C
  C1138    1.0000 0.81729  0.86988  0.90174  Biso   1.000  C
  H1487    1.0000 0.80067  0.93607  0.91846  Biso   1.000  H
  C1139    1.0000 0.81727  0.86984  0.90174  Biso   1.000  C
  H1488    1.0000 0.80070  0.93607  0.91846  Biso   1.000  H
  C1140    1.0000 0.11488  0.16562  0.83523  Biso   1.000  C
  H1489    1.0000 0.07759  0.13125  0.75493  Biso   1.000  H
  C1141    1.0000 0.11484  0.16562  0.83523  Biso   1.000  C
  H1490    1.0000 0.07753  0.13120  0.75493  Biso   1.000  H
  H1491    1.0000 0.07757  0.13120  0.75493  Biso   1.000  H
  H1492    1.0000 0.97348  0.15975  0.86596  Biso   1.000  H
  H1493    1.0000 0.97350  0.15971  0.86596  Biso   1.000  H
  H1494    1.0000 0.97346  0.15971  0.86596  Biso   1.000  H
  C1142    1.0000 0.05257  0.18274  0.90174  Biso   1.000  C
  C1143    1.0000 0.05255  0.18270  0.90174  Biso   1.000  C
  C1144    1.0000 0.83860  0.84807  0.85825  Biso   1.000  C
  C1145    1.0000 0.88159  0.85246  0.75804  Biso   1.000  C
  C1146    1.0000 0.83856  0.84807  0.85825  Biso   1.000  C
  C1147    1.0000 0.88155  0.85246  0.75804  Biso   1.000  C
  C1148    1.0000 0.79879  0.84237  0.96156  Biso   1.000  C
  C1149    1.0000 0.17157  0.16784  0.82313  Biso   1.000  C
  C1150    1.0000 0.10546  0.18466  0.88933  Biso   1.000  C
  C1151    1.0000 0.10544  0.18461  0.88933  Biso   1.000  C
  C1152    1.0000 0.10550  0.18466  0.88933  Biso   1.000  C
  C1153    1.0000 0.10548  0.18461  0.88933  Biso   1.000  C
  C1154    1.0000 0.04357  0.20126  0.96156  Biso   1.000  C
  C1155    1.0000 0.04355  0.20121  0.96156  Biso   1.000  C
  C1156    1.0000 0.04361  0.20126  0.96156  Biso   1.000  C
  H1495    1.0000 0.84027  0.81378  0.86596  Biso   1.000  H
  H1496    1.0000 0.84031  0.81378  0.86596  Biso   1.000  H
  N161     1.0000 0.86650  0.79909  0.76336  Biso   1.000  N
  C1157    1.0000 0.92196  0.89496  0.71214  Biso   1.000  C
  N162     1.0000 0.86648  0.79905  0.76336  Biso   1.000  N
  C1158    1.0000 0.92200  0.89496  0.71214  Biso   1.000  C
  N163     1.0000 0.76979  0.85806  0.99264  Biso   1.000  N
  C1159    1.0000 0.82080  0.80178  0.98124  Biso   1.000  C
  N164     1.0000 0.76975  0.85806  0.99264  Biso   1.000  N
  C1160    1.0000 0.82078  0.80174  0.98124  Biso   1.000  C
  N165     1.0000 0.18542  0.16775  0.76894  Biso   1.000  N
  C1161    1.0000 0.20538  0.16493  0.87554  Biso   1.000  C
  C1162    1.0000 0.20535  0.16493  0.87554  Biso   1.000  C
  N166     1.0000 0.18546  0.16775  0.76894  Biso   1.000  N
  H1497    1.0000 0.13539  0.19935  0.91846  Biso   1.000  H
  H1498    1.0000 0.13533  0.19930  0.91846  Biso   1.000  H
  H1499    1.0000 0.13537  0.19930  0.91846  Biso   1.000  H
  C1163    1.0000 0.98099  0.17922  0.98124  Biso   1.000  C
  C1164    1.0000 0.98096  0.17922  0.98124  Biso   1.000  C
  N167     1.0000 0.08829  0.23024  0.99264  Biso   1.000  N
  N168     1.0000 0.08823  0.23020  0.99264  Biso   1.000  N
  N169     1.0000 0.08827  0.23020  0.99264  Biso   1.000  N
  C1165    1.0000 0.88647  0.77075  0.72234  Biso   1.000  C
  C1166    1.0000 0.88651  0.77075  0.72234  Biso   1.000  C
  H1500    1.0000 0.95288  0.92947  0.73205  Biso   1.000  H
  H1501    1.0000 0.89998  0.90648  0.68603  Biso   1.000  H
  H1502    1.0000 0.93930  0.87649  0.68864  Biso   1.000  H
  H1503    1.0000 0.93928  0.87645  0.68864  Biso   1.000  H
  H1504    1.0000 0.95292  0.92947  0.73205  Biso   1.000  H
  H1505    1.0000 0.90002  0.90648  0.68603  Biso   1.000  H
  C1167    1.0000 0.75147  0.83677  0.05294  Biso   1.000  C
  C1168    1.0000 0.75150  0.83677  0.05294  Biso   1.000  C
  H1506    1.0000 0.85796  0.81326  0.96173  Biso   1.000  H
  H1507    1.0000 0.79240  0.76176  0.97025  Biso   1.000  H
  H1508    1.0000 0.79236  0.76176  0.97025  Biso   1.000  H
  H1509    1.0000 0.85800  0.81326  0.96173  Biso   1.000  H
  H1510    1.0000 0.82621  0.80439  0.02434  Biso   1.000  H
  H1511    1.0000 0.82615  0.80435  0.02434  Biso   1.000  H
  H1512    1.0000 0.82619  0.80435  0.02434  Biso   1.000  H
  C1169    1.0000 0.24086  0.17205  0.75343  Biso   1.000  C
  C1170    1.0000 0.24084  0.17201  0.75343  Biso   1.000  C
  C1171    1.0000 0.24090  0.17205  0.75343  Biso   1.000  C
  C1172    1.0000 0.24088  0.17201  0.75343  Biso   1.000  C
  H1513    1.0000 0.22618  0.14472  0.86396  Biso   1.000  H
  H1514    1.0000 0.17845  0.14372  0.90795  Biso   1.000  H
  H1515    1.0000 0.23326  0.20434  0.88866  Biso   1.000  H
  H1516    1.0000 0.22614  0.14472  0.86396  Biso   1.000  H
  H1517    1.0000 0.23324  0.20430  0.88866  Biso   1.000  H
  H1518    1.0000 0.17848  0.14372  0.90795  Biso   1.000  H
  H1519    1.0000 0.23330  0.20434  0.88866  Biso   1.000  H
  H1520    1.0000 0.23328  0.20430  0.88866  Biso   1.000  H
  H1521    1.0000 0.95528  0.14202  0.96173  Biso   1.000  H
  H1522    1.0000 0.96939  0.20765  0.97025  Biso   1.000  H
  H1523    1.0000 0.96936  0.20760  0.97025  Biso   1.000  H
  H1524    1.0000 0.95524  0.14202  0.96173  Biso   1.000  H
  H1525    1.0000 0.97815  0.17384  0.02434  Biso   1.000  H
  H1526    1.0000 0.97819  0.17384  0.02434  Biso   1.000  H
  C1173    1.0000 0.08528  0.24854  0.05294  Biso   1.000  C
  H1527    1.0000 0.90468  0.79618  0.68705  Biso   1.000  H
  C1174    1.0000 0.83487  0.71256  0.70274  Biso   1.000  C
  C1175    1.0000 0.93120  0.75919  0.75343  Biso   1.000  C
  C1176    1.0000 0.93118  0.75915  0.75343  Biso   1.000  C
  H1528    1.0000 0.90471  0.79618  0.68705  Biso   1.000  H
  C1177    1.0000 0.83490  0.71256  0.70274  Biso   1.000  C
  H1529    1.0000 0.76397  0.80817  0.06354  Biso   1.000  H
  C1178    1.0000 0.68500  0.80809  0.05693  Biso   1.000  C
  C1179    1.0000 0.78009  0.88927  0.09444  Biso   1.000  C
  C1180    1.0000 0.68498  0.80804  0.05693  Biso   1.000  C
  H1530    1.0000 0.76400  0.80817  0.06354  Biso   1.000  H
  C1181    1.0000 0.22926  0.11573  0.72234  Biso   1.000  C
  C1182    1.0000 0.27366  0.22373  0.71175  Biso   1.000  C
  H1531    1.0000 0.26435  0.17792  0.79014  Biso   1.000  H
  C1183    1.0000 0.22930  0.11573  0.72234  Biso   1.000  C
  H1532    1.0000 0.26438  0.17792  0.79014  Biso   1.000  H
  H1533    1.0000 0.04417  0.23602  0.06354  Biso   1.000  H
  C1184    1.0000 0.12308  0.31503  0.05693  Biso   1.000  C
  C1185    1.0000 0.10918  0.21995  0.09444  Biso   1.000  C
  C1186    1.0000 0.12304  0.31503  0.05693  Biso   1.000  C
  C1187    1.0000 0.10916  0.21990  0.09444  Biso   1.000  C
  H1534    1.0000 0.81528  0.68897  0.73835  Biso   1.000  H
  H1535    1.0000 0.80649  0.71986  0.68155  Biso   1.000  H
  C1188    1.0000 0.85310  0.67858  0.66266  Biso   1.000  C
  C1189    1.0000 0.85304  0.67854  0.66266  Biso   1.000  C
  H1536    1.0000 0.81531  0.68897  0.73835  Biso   1.000  H
  C1190    1.0000 0.85308  0.67854  0.66266  Biso   1.000  C
  N170     1.0000 0.98235  0.81460  0.76894  Biso   1.000  N
  C1191    1.0000 0.95009  0.72638  0.71175  Biso   1.000  C
  H1537    1.0000 0.91361  0.73568  0.79014  Biso   1.000  H
  C1192    1.0000 0.95007  0.72634  0.71175  Biso   1.000  C
  H1538    1.0000 0.91355  0.73564  0.79014  Biso   1.000  H
  H1539    1.0000 0.91359  0.73564  0.79014  Biso   1.000  H
  H1540    1.0000 0.67279  0.83546  0.04226  Biso   1.000  H
  H1541    1.0000 0.66687  0.77319  0.03144  Biso   1.000  H
  C1193    1.0000 0.66438  0.79109  0.12025  Biso   1.000  C
  H1542    1.0000 0.67276  0.83546  0.04226  Biso   1.000  H
  H1543    1.0000 0.66685  0.77315  0.03144  Biso   1.000  H
  C1194    1.0000 0.66436  0.79105  0.12025  Biso   1.000  C
  H1544    1.0000 0.66691  0.77319  0.03144  Biso   1.000  H
  C1195    1.0000 0.66442  0.79109  0.12025  Biso   1.000  C
  H1545    1.0000 0.66689  0.77315  0.03144  Biso   1.000  H
  N171     1.0000 0.84327  0.91356  0.09134  Biso   1.000  N
  C1196    1.0000 0.75999  0.87219  0.15785  Biso   1.000  C
  H1546    1.0000 0.77030  0.91930  0.08096  Biso   1.000  H
  C1197    1.0000 0.75997  0.87214  0.15785  Biso   1.000  C
  H1547    1.0000 0.77028  0.91925  0.08096  Biso   1.000  H
  N172     1.0000 0.84331  0.91356  0.09134  Biso   1.000  N
  N173     1.0000 0.20098  0.06745  0.76336  Biso   1.000  N
  H1548    1.0000 0.20386  0.10852  0.68705  Biso   1.000  H
  C1198    1.0000 0.28748  0.12234  0.70274  Biso   1.000  C
  N174     1.0000 0.20096  0.06740  0.76336  Biso   1.000  N
  C1199    1.0000 0.33115  0.22933  0.69193  Biso   1.000  C
  H1549    1.0000 0.24929  0.21864  0.67654  Biso   1.000  H
  H1550    1.0000 0.28126  0.25984  0.73223  Biso   1.000  H
  H1551    1.0000 0.24925  0.21864  0.67654  Biso   1.000  H
  C1200    1.0000 0.33119  0.22933  0.69193  Biso   1.000  C
  H1552    1.0000 0.28129  0.25984  0.73223  Biso   1.000  H
  H1553    1.0000 0.16268  0.32724  0.04226  Biso   1.000  H
  H1554    1.0000 0.10628  0.33316  0.03144  Biso   1.000  H
  C1201    1.0000 0.12668  0.33563  0.12025  Biso   1.000  C
  H1555    1.0000 0.16266  0.32720  0.04226  Biso   1.000  H
  H1556    1.0000 0.10626  0.33311  0.03144  Biso   1.000  H
  C1202    1.0000 0.12664  0.33563  0.12025  Biso   1.000  C
  N175     1.0000 0.07029  0.15676  0.09134  Biso   1.000  N
  C1203    1.0000 0.11215  0.24002  0.15785  Biso   1.000  C
  H1557    1.0000 0.14896  0.22972  0.08096  Biso   1.000  H
  N176     1.0000 0.07026  0.15671  0.09134  Biso   1.000  N
  C1204    1.0000 0.11218  0.24002  0.15785  Biso   1.000  C
  H1558    1.0000 0.81858  0.64055  0.65295  Biso   1.000  H
  H1559    1.0000 0.86888  0.70026  0.62515  Biso   1.000  H
  C1205    1.0000 0.89820  0.66889  0.69193  Biso   1.000  C
  C1206    1.0000 0.89818  0.66884  0.69193  Biso   1.000  C
  H1560    1.0000 0.86891  0.70026  0.62515  Biso   1.000  H
  C1207    1.0000 0.99628  0.82847  0.82313  Biso   1.000  C
  C1208    1.0000 0.99632  0.82847  0.82313  Biso   1.000  C
  H1561    1.0000 0.96940  0.75076  0.67654  Biso   1.000  H
  H1562    1.0000 0.97858  0.71878  0.73223  Biso   1.000  H
  H1563    1.0000 0.96936  0.75076  0.67654  Biso   1.000  H
  H1564    1.0000 0.97862  0.71878  0.73223  Biso   1.000  H
  H1565    1.0000 0.67357  0.76106  0.13364  Biso   1.000  H
  H1566    1.0000 0.62157  0.77397  0.12176  Biso   1.000  H
  C1209    1.0000 0.69300  0.84298  0.16144  Biso   1.000  C
  C1210    1.0000 0.69294  0.84294  0.16144  Biso   1.000  C
  H1567    1.0000 0.67361  0.76106  0.13364  Biso   1.000  H
  H1568    1.0000 0.62161  0.77397  0.12176  Biso   1.000  H
  C1211    1.0000 0.69298  0.84294  0.16144  Biso   1.000  C
  C1212    1.0000 0.87759  0.96519  0.07613  Biso   1.000  C
  C1213    1.0000 0.87757  0.96515  0.07613  Biso   1.000  C
  C1214    1.0000 0.87763  0.96519  0.07613  Biso   1.000  C
  H1569    1.0000 0.77809  0.90717  0.18343  Biso   1.000  H
  H1570    1.0000 0.77239  0.84490  0.17235  Biso   1.000  H
  H1571    1.0000 0.77237  0.84485  0.17235  Biso   1.000  H
  H1572    1.0000 0.77243  0.84490  0.17235  Biso   1.000  H
  C1215    1.0000 0.14757  0.02912  0.75804  Biso   1.000  C
  H1573    1.0000 0.31108  0.12633  0.73835  Biso   1.000  H
  H1574    1.0000 0.28015  0.08661  0.68155  Biso   1.000  H
  C1216    1.0000 0.32148  0.17453  0.66266  Biso   1.000  C
  H1575    1.0000 0.28019  0.08661  0.68155  Biso   1.000  H
  H1576    1.0000 0.35068  0.26214  0.66373  Biso   1.000  H
  H1577    1.0000 0.35687  0.23772  0.72673  Biso   1.000  H
  H1578    1.0000 0.35066  0.26210  0.66373  Biso   1.000  H
  H1579    1.0000 0.08745  0.32642  0.13364  Biso   1.000  H
  H1580    1.0000 0.15237  0.37844  0.12176  Biso   1.000  H
  C1217    1.0000 0.14998  0.30704  0.16144  Biso   1.000  C
  C1218    1.0000 0.14994  0.30704  0.16144  Biso   1.000  C
  H1581    1.0000 0.08749  0.32642  0.13364  Biso   1.000  H
  C1219    1.0000 0.08756  0.12242  0.07613  Biso   1.000  C
  C1220    1.0000 0.08759  0.12242  0.07613  Biso   1.000  C
  H1582    1.0000 0.12908  0.22194  0.18343  Biso   1.000  H
  H1583    1.0000 0.07246  0.22764  0.17235  Biso   1.000  H
  H1584    1.0000 0.12905  0.22190  0.18343  Biso   1.000  H
  H1585    1.0000 0.07249  0.22764  0.17235  Biso   1.000  H
  H1586    1.0000 0.91148  0.64937  0.66373  Biso   1.000  H
  H1587    1.0000 0.88089  0.64316  0.72673  Biso   1.000  H
  H1588    1.0000 0.88086  0.64316  0.72673  Biso   1.000  H
  H1589    1.0000 0.91151  0.64937  0.66373  Biso   1.000  H
  C1221    1.0000 0.95958  0.79466  0.87554  Biso   1.000  C
  C1222    1.0000 0.05080  0.88518  0.83523  Biso   1.000  C
  C1223    1.0000 0.05077  0.88514  0.83523  Biso   1.000  C
  C1224    1.0000 0.05076  0.88518  0.83523  Biso   1.000  C
  H1590    1.0000 0.68008  0.83016  0.20263  Biso   1.000  H
  H1591    1.0000 0.68077  0.87136  0.15036  Biso   1.000  H
  H1592    1.0000 0.68081  0.87136  0.15036  Biso   1.000  H
  C1225    1.0000 0.94090  0.98379  0.07493  Biso   1.000  C
  C1226    1.0000 0.94088  0.98375  0.07493  Biso   1.000  C
  C1227    1.0000 0.86245  0.00882  0.04665  Biso   1.000  C
  C1228    1.0000 0.86248  0.00882  0.04665  Biso   1.000  C
  C1229    1.0000 0.85956  0.00952  0.07573  Biso   1.000  C
  C1230    1.0000 0.12379  0.98149  0.80304  Biso   1.000  C
  C1231    1.0000 0.12377  0.98144  0.80304  Biso   1.000  C
  C1232    1.0000 0.10509  0.02703  0.71214  Biso   1.000  C
  C1233    1.0000 0.10505  0.02703  0.71214  Biso   1.000  C
  H1593    1.0000 0.35948  0.17805  0.65295  Biso   1.000  H
  H1594    1.0000 0.29978  0.16862  0.62515  Biso   1.000  H
  H1595    1.0000 0.35946  0.17801  0.65295  Biso   1.000  H
  H1596    1.0000 0.29974  0.16862  0.62515  Biso   1.000  H
  H1597    1.0000 0.15007  0.31994  0.20263  Biso   1.000  H
  H1598    1.0000 0.19056  0.31925  0.15036  Biso   1.000  H
  H1599    1.0000 0.19054  0.31920  0.15036  Biso   1.000  H
  H1600    1.0000 0.19060  0.31925  0.15036  Biso   1.000  H
  H1601    1.0000 0.19058  0.31920  0.15036  Biso   1.000  H
  C1234    1.0000 0.04286  0.05915  0.07493  Biso   1.000  C
  C1235    1.0000 0.14638  0.13755  0.04665  Biso   1.000  C
  C1236    1.0000 0.04284  0.05910  0.07493  Biso   1.000  C
  C1237    1.0000 0.14636  0.13750  0.04665  Biso   1.000  C
  C1238    1.0000 0.04290  0.05915  0.07493  Biso   1.000  C
  C1239    1.0000 0.04288  0.05910  0.07493  Biso   1.000  C
  C1240    1.0000 0.14996  0.14042  0.07573  Biso   1.000  C
  H1602    1.0000 0.91859  0.77388  0.86396  Biso   1.000  H
  H1603    1.0000 0.96528  0.82156  0.90795  Biso   1.000  H
  H1604    1.0000 0.97107  0.76676  0.88866  Biso   1.000  H
  H1605    1.0000 0.91857  0.77384  0.86396  Biso   1.000  H
  H1606    1.0000 0.97111  0.76676  0.88866  Biso   1.000  H
  C1241    1.0000 0.07308  0.92877  0.79196  Biso   1.000  C
  C1242    1.0000 0.07920  0.89457  0.88933  Biso   1.000  C
  C1243    1.0000 0.07916  0.89457  0.88933  Biso   1.000  C
  C1244    1.0000 0.95767  0.94116  0.07507  Biso   1.000  C
  C1245    1.0000 0.95771  0.94116  0.07507  Biso   1.000  C
  C1246    1.0000 0.98345  0.04233  0.07507  Biso   1.000  C
  C1247    1.0000 0.98349  0.04233  0.07507  Biso   1.000  C
  H1607    1.0000 0.82029  0.99226  0.04607  Biso   1.000  H
  H1608    1.0000 0.82026  0.99226  0.04607  Biso   1.000  H
  H1609    1.0000 0.87735  0.01673  0.00585  Biso   1.000  H
  H1610    1.0000 0.88047  0.04524  0.06926  Biso   1.000  H
  H1611    1.0000 0.87739  0.01673  0.00585  Biso   1.000  H
  H1612    1.0000 0.88048  0.04520  0.06926  Biso   1.000  H
  H1613    1.0000 0.88045  0.04520  0.06926  Biso   1.000  H
  H1614    1.0000 0.84845  0.01373  0.03543  Biso   1.000  H
  H1615    1.0000 0.82640  0.99748  0.10247  Biso   1.000  H
  H1616    1.0000 0.89197  0.04672  0.08917  Biso   1.000  H
  C1248    1.0000 0.15200  0.99057  0.85825  Biso   1.000  C
  C1249    1.0000 0.15197  0.99057  0.85825  Biso   1.000  C
  H1617    1.0000 0.09358  0.99357  0.68603  Biso   1.000  H
  H1618    1.0000 0.09355  0.99357  0.68603  Biso   1.000  H
  H1619    1.0000 0.07058  0.02342  0.73205  Biso   1.000  H
  H1620    1.0000 0.12355  0.06284  0.68864  Biso   1.000  H
  H1621    1.0000 0.07054  0.02342  0.73205  Biso   1.000  H
  H1622    1.0000 0.12353  0.06280  0.68864  Biso   1.000  H
  H1623    1.0000 0.12359  0.06284  0.68864  Biso   1.000  H
  H1624    1.0000 0.12357  0.06280  0.68864  Biso   1.000  H
  C1250    1.0000 0.05884  0.01651  0.07507  Biso   1.000  C
  C1251    1.0000 0.05888  0.01651  0.07507  Biso   1.000  C
  H1625    1.0000 0.13938  0.12264  0.00585  Biso   1.000  H
  H1626    1.0000 0.16478  0.11956  0.06926  Biso   1.000  H
  H1627    1.0000 0.17196  0.17975  0.04607  Biso   1.000  H
  H1628    1.0000 0.16476  0.11951  0.06926  Biso   1.000  H
  H1629    1.0000 0.17194  0.17970  0.04607  Biso   1.000  H
  H1630    1.0000 0.17200  0.17975  0.04607  Biso   1.000  H
  H1631    1.0000 0.17197  0.17970  0.04607  Biso   1.000  H
  H1632    1.0000 0.16527  0.15154  0.03543  Biso   1.000  H
  H1633    1.0000 0.17108  0.17362  0.10247  Biso   1.000  H
  H1634    1.0000 0.15477  0.10804  0.08917  Biso   1.000  H
  H1635    1.0000 0.05367  0.92247  0.75493  Biso   1.000  H
  H1636    1.0000 0.05371  0.92247  0.75493  Biso   1.000  H
  C1252    1.0000 0.13018  0.94746  0.90174  Biso   1.000  C
  H1637    1.0000 0.06399  0.86467  0.91846  Biso   1.000  H
  C1253    1.0000 0.13015  0.94746  0.90174  Biso   1.000  C
  H1638    1.0000 0.06395  0.86467  0.91846  Biso   1.000  H
  H1639    1.0000 0.92880  0.90117  0.07524  Biso   1.000  H
  C1254    1.0000 0.01631  0.95719  0.07493  Biso   1.000  C
  C1255    1.0000 0.01629  0.95715  0.07493  Biso   1.000  C
  C1256    1.0000 0.01627  0.95719  0.07493  Biso   1.000  C
  H1640    1.0000 0.97235  0.07123  0.07524  Biso   1.000  H
  H1641    1.0000 0.97239  0.07123  0.07524  Biso   1.000  H
  H1642    1.0000 0.18629  0.02655  0.86596  Biso   1.000  H
  H1643    1.0000 0.18623  0.02651  0.86596  Biso   1.000  H
  H1644    1.0000 0.18627  0.02651  0.86596  Biso   1.000  H
  H1645    1.0000 0.09888  0.02764  0.07524  Biso   1.000  H
  C1257    1.0000 0.15770  0.95650  0.96156  Biso   1.000  C
  C1258    1.0000 0.15768  0.95645  0.96156  Biso   1.000  C
  C1259    1.0000 0.15766  0.95650  0.96156  Biso   1.000  C
  C1260    1.0000 0.03490  0.91247  0.07613  Biso   1.000  C
  C1261    1.0000 0.03486  0.91247  0.07613  Biso   1.000  C
  N177     1.0000 0.14200  0.91178  0.99264  Biso   1.000  N
  N178     1.0000 0.14196  0.91178  0.99264  Biso   1.000  N
  C1262    1.0000 0.19826  0.01903  0.98124  Biso   1.000  C
  C1263    1.0000 0.19830  0.01903  0.98124  Biso   1.000  C
  C1264    1.0000 0.99120  0.85367  0.04665  Biso   1.000  C
  C1265    1.0000 0.99048  0.85007  0.07573  Biso   1.000  C
  N179     1.0000 0.08649  0.92977  0.09134  Biso   1.000  N
  N180     1.0000 0.08645  0.92977  0.09134  Biso   1.000  N
  C1266    1.0000 0.16330  0.91478  0.05294  Biso   1.000  C
  C1267    1.0000 0.16326  0.91478  0.05294  Biso   1.000  C
  H1646    1.0000 0.18676  0.04472  0.96173  Biso   1.000  H
  H1647    1.0000 0.23828  0.03064  0.97025  Biso   1.000  H
  H1648    1.0000 0.18679  0.04472  0.96173  Biso   1.000  H
  H1649    1.0000 0.19567  0.02182  0.02434  Biso   1.000  H
  H1650    1.0000 0.98329  0.86067  0.00585  Biso   1.000  H
  H1651    1.0000 0.95479  0.83529  0.06926  Biso   1.000  H
  H1652    1.0000 0.95477  0.83525  0.06926  Biso   1.000  H
  H1653    1.0000 0.98630  0.83477  0.03543  Biso   1.000  H
  H1654    1.0000 0.00779  0.82808  0.04607  Biso   1.000  H
  H1655    1.0000 0.00775  0.82808  0.04607  Biso   1.000  H
  H1656    1.0000 0.95326  0.84524  0.08917  Biso   1.000  H
  H1657    1.0000 0.00258  0.82895  0.10247  Biso   1.000  H
  C1268    1.0000 0.11077  0.89087  0.09444  Biso   1.000  C
  C1269    1.0000 0.11081  0.89087  0.09444  Biso   1.000  C
  H1658    1.0000 0.19191  0.95589  0.06354  Biso   1.000  H
  C1270    1.0000 0.19200  0.87697  0.05693  Biso   1.000  C
  H1659    1.0000 0.19189  0.95585  0.06354  Biso   1.000  H
  C1271    1.0000 0.19197  0.87697  0.05693  Biso   1.000  C
  H1660    1.0000 0.19187  0.95589  0.06354  Biso   1.000  H
  C1272    1.0000 0.12791  0.88788  0.15785  Biso   1.000  C
  H1661    1.0000 0.08078  0.85107  0.08096  Biso   1.000  H
  C1273    1.0000 0.12787  0.88788  0.15785  Biso   1.000  C
  H1662    1.0000 0.08075  0.85107  0.08096  Biso   1.000  H
  H1663    1.0000 0.16461  0.83738  0.04226  Biso   1.000  H
  H1664    1.0000 0.22691  0.89379  0.03144  Biso   1.000  H
  C1274    1.0000 0.20898  0.87336  0.12025  Biso   1.000  C
  H1665    1.0000 0.16457  0.83738  0.04226  Biso   1.000  H
  H1666    1.0000 0.22689  0.89374  0.03144  Biso   1.000  H
  H1667    1.0000 0.22687  0.89379  0.03144  Biso   1.000  H
  C1275    1.0000 0.15710  0.85007  0.16144  Biso   1.000  C
  H1668    1.0000 0.09288  0.87097  0.18343  Biso   1.000  H
  H1669    1.0000 0.15520  0.92755  0.17235  Biso   1.000  H
  C1276    1.0000 0.15706  0.85007  0.16144  Biso   1.000  C
  H1670    1.0000 0.15516  0.92755  0.17235  Biso   1.000  H
  H1671    1.0000 0.23897  0.91256  0.13364  Biso   1.000  H
  H1672    1.0000 0.22610  0.84768  0.12176  Biso   1.000  H
  H1673    1.0000 0.22606  0.84768  0.12176  Biso   1.000  H
  H1674    1.0000 0.23901  0.91256  0.13364  Biso   1.000  H
  H1675    1.0000 0.16989  0.84998  0.20263  Biso   1.000  H
  H1676    1.0000 0.12868  0.80948  0.15036  Biso   1.000  H
  H1677    1.0000 0.16985  0.84998  0.20263  Biso   1.000  H
  H1678    1.0000 0.12871  0.80948  0.15036  Biso   1.000  H
  C1277    1.0000 0.77067  0.10182  0.69193  Biso   1.000  C
  C1278    1.0000 0.82548  0.14693  0.66266  Biso   1.000  C
  H1679    1.0000 0.76227  0.11912  0.72673  Biso   1.000  H
  H1680    1.0000 0.73786  0.08853  0.66373  Biso   1.000  H
  C1279    1.0000 0.77627  0.04993  0.71175  Biso   1.000  C
  H1681    1.0000 0.73790  0.08853  0.66373  Biso   1.000  H
  C1280    1.0000 0.77630  0.04993  0.71175  Biso   1.000  C
  C1281    1.0000 0.87768  0.16514  0.70274  Biso   1.000  C
  H1682    1.0000 0.82196  0.18144  0.65295  Biso   1.000  H
  H1683    1.0000 0.83135  0.13112  0.62515  Biso   1.000  H
  C1282    1.0000 0.87769  0.16510  0.70274  Biso   1.000  C
  H1684    1.0000 0.82200  0.18144  0.65295  Biso   1.000  H
  H1685    1.0000 0.83138  0.13112  0.62515  Biso   1.000  H
  C1283    1.0000 0.87766  0.16510  0.70274  Biso   1.000  C
  C1284    1.0000 0.82798  0.06884  0.75343  Biso   1.000  C
  H1686    1.0000 0.78137  0.03064  0.67654  Biso   1.000  H
  H1687    1.0000 0.74018  0.02143  0.73223  Biso   1.000  H
  H1688    1.0000 0.74014  0.02143  0.73223  Biso   1.000  H
  H1689    1.0000 0.78141  0.03064  0.67654  Biso   1.000  H
  C1285    1.0000 0.88427  0.11351  0.72234  Biso   1.000  C
  H1690    1.0000 0.91336  0.19352  0.68155  Biso   1.000  H
  H1691    1.0000 0.87367  0.18474  0.73835  Biso   1.000  H
  H1692    1.0000 0.87368  0.18470  0.73835  Biso   1.000  H
  H1693    1.0000 0.91340  0.19352  0.68155  Biso   1.000  H
  H1694    1.0000 0.87364  0.18470  0.73835  Biso   1.000  H
  N181     1.0000 0.83225  0.01769  0.76894  Biso   1.000  N
  H1695    1.0000 0.82207  0.08644  0.79014  Biso   1.000  H
  N182     1.0000 0.83229  0.01769  0.76894  Biso   1.000  N
  H1696    1.0000 0.82211  0.08644  0.79014  Biso   1.000  H
  N183     1.0000 0.93256  0.13355  0.76336  Biso   1.000  N
  H1697    1.0000 0.89148  0.09535  0.68705  Biso   1.000  H
  N184     1.0000 0.93258  0.13351  0.76336  Biso   1.000  N
  H1698    1.0000 0.89150  0.09531  0.68705  Biso   1.000  H
  N185     1.0000 0.93260  0.13355  0.76336  Biso   1.000  N
  N186     1.0000 0.93254  0.13351  0.76336  Biso   1.000  N
  H1699    1.0000 0.89146  0.09531  0.68705  Biso   1.000  H
  C1286    1.0000 0.83217  0.00374  0.82313  Biso   1.000  C
  C1287    1.0000 0.83220  0.00374  0.82313  Biso   1.000  C
  C1288    1.0000 0.97088  0.11843  0.75804  Biso   1.000  C
  C1289    1.0000 0.83507  0.04042  0.87554  Biso   1.000  C
  C1290    1.0000 0.83441  0.94928  0.83523  Biso   1.000  C
  C1291    1.0000 0.83435  0.94924  0.83523  Biso   1.000  C
  C1292    1.0000 0.83439  0.94924  0.83523  Biso   1.000  C
  C1293    1.0000 0.83504  0.04042  0.87554  Biso   1.000  C
  C1294    1.0000 0.97297  0.07805  0.71214  Biso   1.000  C
  C1295    1.0000 0.97299  0.07801  0.71214  Biso   1.000  C
  C1296    1.0000 0.97295  0.07801  0.71214  Biso   1.000  C
  C1297    1.0000 0.01855  0.14233  0.80304  Biso   1.000  C
  C1298    1.0000 0.01859  0.14233  0.80304  Biso   1.000  C
  H1700    1.0000 0.85628  0.03472  0.90795  Biso   1.000  H
  H1701    1.0000 0.85529  0.08144  0.86396  Biso   1.000  H
  H1702    1.0000 0.79565  0.02894  0.88866  Biso   1.000  H
  H1703    1.0000 0.85526  0.08140  0.86396  Biso   1.000  H
  H1704    1.0000 0.79567  0.02890  0.88866  Biso   1.000  H
  H1705    1.0000 0.79569  0.02894  0.88866  Biso   1.000  H
  C1299    1.0000 0.85570  0.92699  0.79196  Biso   1.000  C
  C1300    1.0000 0.81538  0.92086  0.88933  Biso   1.000  C
  C1301    1.0000 0.85568  0.92695  0.79196  Biso   1.000  C
  H1706    1.0000 0.97657  0.04715  0.73205  Biso   1.000  H
  H1707    1.0000 0.93719  0.06076  0.68864  Biso   1.000  H
  H1708    1.0000 0.97658  0.04711  0.73205  Biso   1.000  H
  H1709    1.0000 0.93717  0.06071  0.68864  Biso   1.000  H
  H1710    1.0000 0.97661  0.04715  0.73205  Biso   1.000  H
  H1711    1.0000 0.97655  0.04711  0.73205  Biso   1.000  H
  H1712    1.0000 0.00648  0.10004  0.68603  Biso   1.000  H
  H1713    1.0000 0.00645  0.10000  0.68603  Biso   1.000  H
  C1302    1.0000 0.07126  0.14433  0.79196  Biso   1.000  C
  C1303    1.0000 0.00948  0.16145  0.85825  Biso   1.000  C
  C1304    1.0000 0.00946  0.16141  0.85825  Biso   1.000  C
  H1714    1.0000 0.86878  0.94637  0.75493  Biso   1.000  H
  C1305    1.0000 0.85767  0.87627  0.80304  Biso   1.000  C
  C1306    1.0000 0.85771  0.87627  0.80304  Biso   1.000  C
  C1307    1.0000 0.81729  0.86988  0.90174  Biso   1.000  C
  H1715    1.0000 0.80067  0.93607  0.91846  Biso   1.000  H
  C1308    1.0000 0.81727  0.86984  0.90174  Biso   1.000  C
  H1716    1.0000 0.80070  0.93607  0.91846  Biso   1.000  H
  C1309    1.0000 0.11488  0.16562  0.83523  Biso   1.000  C
  H1717    1.0000 0.07759  0.13125  0.75493  Biso   1.000  H
  C1310    1.0000 0.11484  0.16562  0.83523  Biso   1.000  C
  H1718    1.0000 0.07753  0.13120  0.75493  Biso   1.000  H
  H1719    1.0000 0.07757  0.13120  0.75493  Biso   1.000  H
  H1720    1.0000 0.97348  0.15975  0.86596  Biso   1.000  H
  H1721    1.0000 0.97350  0.15971  0.86596  Biso   1.000  H
  H1722    1.0000 0.97346  0.15971  0.86596  Biso   1.000  H
  C1311    1.0000 0.05257  0.18274  0.90174  Biso   1.000  C
  C1312    1.0000 0.05255  0.18270  0.90174  Biso   1.000  C
  C1313    1.0000 0.83860  0.84807  0.85825  Biso   1.000  C
  C1314    1.0000 0.88159  0.85246  0.75804  Biso   1.000  C
  C1315    1.0000 0.83856  0.84807  0.85825  Biso   1.000  C
  C1316    1.0000 0.88155  0.85246  0.75804  Biso   1.000  C
  C1317    1.0000 0.79879  0.84237  0.96156  Biso   1.000  C
  C1318    1.0000 0.17157  0.16784  0.82313  Biso   1.000  C
  C1319    1.0000 0.10546  0.18466  0.88933  Biso   1.000  C
  C1320    1.0000 0.10544  0.18461  0.88933  Biso   1.000  C
  C1321    1.0000 0.10550  0.18466  0.88933  Biso   1.000  C
  C1322    1.0000 0.10548  0.18461  0.88933  Biso   1.000  C
  C1323    1.0000 0.04357  0.20126  0.96156  Biso   1.000  C
  C1324    1.0000 0.04355  0.20121  0.96156  Biso   1.000  C
  C1325    1.0000 0.04361  0.20126  0.96156  Biso   1.000  C
  H1723    1.0000 0.84027  0.81378  0.86596  Biso   1.000  H
  H1724    1.0000 0.84031  0.81378  0.86596  Biso   1.000  H
  N187     1.0000 0.86650  0.79909  0.76336  Biso   1.000  N
  C1326    1.0000 0.92196  0.89496  0.71214  Biso   1.000  C
  N188     1.0000 0.86648  0.79905  0.76336  Biso   1.000  N
  C1327    1.0000 0.92200  0.89496  0.71214  Biso   1.000  C
  N189     1.0000 0.76979  0.85806  0.99264  Biso   1.000  N
  C1328    1.0000 0.82080  0.80178  0.98124  Biso   1.000  C
  N190     1.0000 0.76975  0.85806  0.99264  Biso   1.000  N
  C1329    1.0000 0.82078  0.80174  0.98124  Biso   1.000  C
  N191     1.0000 0.18542  0.16775  0.76894  Biso   1.000  N
  C1330    1.0000 0.20538  0.16493  0.87554  Biso   1.000  C
  C1331    1.0000 0.20535  0.16493  0.87554  Biso   1.000  C
  N192     1.0000 0.18546  0.16775  0.76894  Biso   1.000  N
  H1725    1.0000 0.13539  0.19935  0.91846  Biso   1.000  H
  H1726    1.0000 0.13533  0.19930  0.91846  Biso   1.000  H
  H1727    1.0000 0.13537  0.19930  0.91846  Biso   1.000  H
  C1332    1.0000 0.98096  0.17922  0.98124  Biso   1.000  C
  C1333    1.0000 0.98099  0.17922  0.98124  Biso   1.000  C
  N193     1.0000 0.08829  0.23024  0.99264  Biso   1.000  N
  N194     1.0000 0.08823  0.23020  0.99264  Biso   1.000  N
  N195     1.0000 0.08827  0.23020  0.99264  Biso   1.000  N
  C1334    1.0000 0.88647  0.77075  0.72234  Biso   1.000  C
  C1335    1.0000 0.88651  0.77075  0.72234  Biso   1.000  C
  H1728    1.0000 0.95288  0.92947  0.73205  Biso   1.000  H
  H1729    1.0000 0.89998  0.90648  0.68603  Biso   1.000  H
  H1730    1.0000 0.93930  0.87649  0.68864  Biso   1.000  H
  H1731    1.0000 0.93928  0.87645  0.68864  Biso   1.000  H
  H1732    1.0000 0.95292  0.92947  0.73205  Biso   1.000  H
  H1733    1.0000 0.90002  0.90648  0.68603  Biso   1.000  H
  C1336    1.0000 0.75147  0.83677  0.05294  Biso   1.000  C
  C1337    1.0000 0.75150  0.83677  0.05294  Biso   1.000  C
  H1734    1.0000 0.85796  0.81326  0.96173  Biso   1.000  H
  H1735    1.0000 0.79240  0.76176  0.97025  Biso   1.000  H
  H1736    1.0000 0.79236  0.76176  0.97025  Biso   1.000  H
  H1737    1.0000 0.85800  0.81326  0.96173  Biso   1.000  H
  H1738    1.0000 0.82621  0.80439  0.02434  Biso   1.000  H
  H1739    1.0000 0.82615  0.80435  0.02434  Biso   1.000  H
  H1740    1.0000 0.82619  0.80435  0.02434  Biso   1.000  H
  C1338    1.0000 0.24086  0.17205  0.75343  Biso   1.000  C
  C1339    1.0000 0.24084  0.17201  0.75343  Biso   1.000  C
  C1340    1.0000 0.24090  0.17205  0.75343  Biso   1.000  C
  C1341    1.0000 0.24088  0.17201  0.75343  Biso   1.000  C
  H1741    1.0000 0.22618  0.14472  0.86396  Biso   1.000  H
  H1742    1.0000 0.17845  0.14372  0.90795  Biso   1.000  H
  H1743    1.0000 0.23326  0.20434  0.88866  Biso   1.000  H
  H1744    1.0000 0.22614  0.14472  0.86396  Biso   1.000  H
  H1745    1.0000 0.23324  0.20430  0.88866  Biso   1.000  H
  H1746    1.0000 0.17848  0.14372  0.90795  Biso   1.000  H
  H1747    1.0000 0.23330  0.20434  0.88866  Biso   1.000  H
  H1748    1.0000 0.23328  0.20430  0.88866  Biso   1.000  H
  H1749    1.0000 0.95528  0.14202  0.96173  Biso   1.000  H
  H1750    1.0000 0.95524  0.14202  0.96173  Biso   1.000  H
  H1751    1.0000 0.96939  0.20765  0.97025  Biso   1.000  H
  H1752    1.0000 0.96936  0.20760  0.97025  Biso   1.000  H
  H1753    1.0000 0.97815  0.17384  0.02434  Biso   1.000  H
  H1754    1.0000 0.97819  0.17384  0.02434  Biso   1.000  H
  C1342    1.0000 0.08528  0.24854  0.05294  Biso   1.000  C
  H1755    1.0000 0.90468  0.79618  0.68705  Biso   1.000  H
  C1343    1.0000 0.83487  0.71256  0.70274  Biso   1.000  C
  C1344    1.0000 0.93120  0.75919  0.75343  Biso   1.000  C
  C1345    1.0000 0.93118  0.75915  0.75343  Biso   1.000  C
  H1756    1.0000 0.90471  0.79618  0.68705  Biso   1.000  H
  C1346    1.0000 0.83490  0.71256  0.70274  Biso   1.000  C
  H1757    1.0000 0.76397  0.80817  0.06354  Biso   1.000  H
  C1347    1.0000 0.68500  0.80809  0.05693  Biso   1.000  C
  C1348    1.0000 0.78009  0.88927  0.09444  Biso   1.000  C
  C1349    1.0000 0.68498  0.80804  0.05693  Biso   1.000  C
  H1758    1.0000 0.76400  0.80817  0.06354  Biso   1.000  H
  C1350    1.0000 0.22926  0.11573  0.72234  Biso   1.000  C
  C1351    1.0000 0.27366  0.22373  0.71175  Biso   1.000  C
  H1759    1.0000 0.26435  0.17792  0.79014  Biso   1.000  H
  C1352    1.0000 0.22930  0.11573  0.72234  Biso   1.000  C
  H1760    1.0000 0.26438  0.17792  0.79014  Biso   1.000  H
  H1761    1.0000 0.04417  0.23602  0.06354  Biso   1.000  H
  C1353    1.0000 0.12308  0.31503  0.05693  Biso   1.000  C
  C1354    1.0000 0.10918  0.21995  0.09444  Biso   1.000  C
  C1355    1.0000 0.12304  0.31503  0.05693  Biso   1.000  C
  C1356    1.0000 0.10916  0.21990  0.09444  Biso   1.000  C
  H1762    1.0000 0.81528  0.68897  0.73835  Biso   1.000  H
  H1763    1.0000 0.80649  0.71986  0.68155  Biso   1.000  H
  C1357    1.0000 0.85310  0.67858  0.66266  Biso   1.000  C
  C1358    1.0000 0.85304  0.67854  0.66266  Biso   1.000  C
  H1764    1.0000 0.81531  0.68897  0.73835  Biso   1.000  H
  C1359    1.0000 0.85308  0.67854  0.66266  Biso   1.000  C
  N196     1.0000 0.98235  0.81460  0.76894  Biso   1.000  N
  C1360    1.0000 0.95009  0.72638  0.71175  Biso   1.000  C
  H1765    1.0000 0.91361  0.73568  0.79014  Biso   1.000  H
  C1361    1.0000 0.95007  0.72634  0.71175  Biso   1.000  C
  H1766    1.0000 0.91355  0.73564  0.79014  Biso   1.000  H
  H1767    1.0000 0.91359  0.73564  0.79014  Biso   1.000  H
  H1768    1.0000 0.67279  0.83546  0.04226  Biso   1.000  H
  H1769    1.0000 0.66687  0.77319  0.03144  Biso   1.000  H
  C1362    1.0000 0.66438  0.79109  0.12025  Biso   1.000  C
  H1770    1.0000 0.67276  0.83546  0.04226  Biso   1.000  H
  H1771    1.0000 0.66685  0.77315  0.03144  Biso   1.000  H
  C1363    1.0000 0.66436  0.79105  0.12025  Biso   1.000  C
  H1772    1.0000 0.66691  0.77319  0.03144  Biso   1.000  H
  C1364    1.0000 0.66442  0.79109  0.12025  Biso   1.000  C
  H1773    1.0000 0.66689  0.77315  0.03144  Biso   1.000  H
  N197     1.0000 0.84327  0.91356  0.09134  Biso   1.000  N
  C1365    1.0000 0.75999  0.87219  0.15785  Biso   1.000  C
  H1774    1.0000 0.77030  0.91930  0.08096  Biso   1.000  H
  C1366    1.0000 0.75997  0.87214  0.15785  Biso   1.000  C
  H1775    1.0000 0.77028  0.91925  0.08096  Biso   1.000  H
  N198     1.0000 0.84331  0.91356  0.09134  Biso   1.000  N
  N199     1.0000 0.20098  0.06745  0.76336  Biso   1.000  N
  H1776    1.0000 0.20386  0.10852  0.68705  Biso   1.000  H
  C1367    1.0000 0.28748  0.12234  0.70274  Biso   1.000  C
  N200     1.0000 0.20096  0.06740  0.76336  Biso   1.000  N
  C1368    1.0000 0.33115  0.22933  0.69193  Biso   1.000  C
  H1777    1.0000 0.24929  0.21864  0.67654  Biso   1.000  H
  H1778    1.0000 0.28126  0.25984  0.73223  Biso   1.000  H
  H1779    1.0000 0.24925  0.21864  0.67654  Biso   1.000  H
  C1369    1.0000 0.33119  0.22933  0.69193  Biso   1.000  C
  H1780    1.0000 0.28129  0.25984  0.73223  Biso   1.000  H
  H1781    1.0000 0.16268  0.32724  0.04226  Biso   1.000  H
  H1782    1.0000 0.10628  0.33316  0.03144  Biso   1.000  H
  C1370    1.0000 0.12668  0.33563  0.12025  Biso   1.000  C
  H1783    1.0000 0.16266  0.32720  0.04226  Biso   1.000  H
  H1784    1.0000 0.10626  0.33311  0.03144  Biso   1.000  H
  C1371    1.0000 0.12664  0.33563  0.12025  Biso   1.000  C
  N201     1.0000 0.07029  0.15676  0.09134  Biso   1.000  N
  C1372    1.0000 0.11215  0.24002  0.15785  Biso   1.000  C
  H1785    1.0000 0.14896  0.22972  0.08096  Biso   1.000  H
  N202     1.0000 0.07026  0.15671  0.09134  Biso   1.000  N
  C1373    1.0000 0.11218  0.24002  0.15785  Biso   1.000  C
  H1786    1.0000 0.81858  0.64055  0.65295  Biso   1.000  H
  H1787    1.0000 0.86888  0.70026  0.62515  Biso   1.000  H
  C1374    1.0000 0.89820  0.66889  0.69193  Biso   1.000  C
  C1375    1.0000 0.89818  0.66884  0.69193  Biso   1.000  C
  H1788    1.0000 0.86891  0.70026  0.62515  Biso   1.000  H
  C1376    1.0000 0.99628  0.82847  0.82313  Biso   1.000  C
  C1377    1.0000 0.99632  0.82847  0.82313  Biso   1.000  C
  H1789    1.0000 0.96940  0.75076  0.67654  Biso   1.000  H
  H1790    1.0000 0.97858  0.71878  0.73223  Biso   1.000  H
  H1791    1.0000 0.96936  0.75076  0.67654  Biso   1.000  H
  H1792    1.0000 0.97862  0.71878  0.73223  Biso   1.000  H
  H1793    1.0000 0.67357  0.76106  0.13364  Biso   1.000  H
  H1794    1.0000 0.62157  0.77397  0.12176  Biso   1.000  H
  C1378    1.0000 0.69300  0.84298  0.16144  Biso   1.000  C
  C1379    1.0000 0.69294  0.84294  0.16144  Biso   1.000  C
  H1795    1.0000 0.67361  0.76106  0.13364  Biso   1.000  H
  H1796    1.0000 0.62161  0.77397  0.12176  Biso   1.000  H
  C1380    1.0000 0.69298  0.84294  0.16144  Biso   1.000  C
  C1381    1.0000 0.87759  0.96519  0.07613  Biso   1.000  C
  C1382    1.0000 0.87757  0.96515  0.07613  Biso   1.000  C
  C1383    1.0000 0.87763  0.96519  0.07613  Biso   1.000  C
  H1797    1.0000 0.77809  0.90717  0.18343  Biso   1.000  H
  H1798    1.0000 0.77239  0.84490  0.17235  Biso   1.000  H
  H1799    1.0000 0.77237  0.84485  0.17235  Biso   1.000  H
  H1800    1.0000 0.77243  0.84490  0.17235  Biso   1.000  H
  C1384    1.0000 0.14757  0.02912  0.75804  Biso   1.000  C
  H1801    1.0000 0.31108  0.12633  0.73835  Biso   1.000  H
  H1802    1.0000 0.28015  0.08661  0.68155  Biso   1.000  H
  C1385    1.0000 0.32148  0.17453  0.66266  Biso   1.000  C
  H1803    1.0000 0.28019  0.08661  0.68155  Biso   1.000  H
  H1804    1.0000 0.35068  0.26214  0.66373  Biso   1.000  H
  H1805    1.0000 0.35687  0.23772  0.72673  Biso   1.000  H
  H1806    1.0000 0.35066  0.26210  0.66373  Biso   1.000  H
  H1807    1.0000 0.08745  0.32642  0.13364  Biso   1.000  H
  H1808    1.0000 0.15237  0.37844  0.12176  Biso   1.000  H
  C1386    1.0000 0.14998  0.30704  0.16144  Biso   1.000  C
  C1387    1.0000 0.14994  0.30704  0.16144  Biso   1.000  C
  H1809    1.0000 0.08749  0.32642  0.13364  Biso   1.000  H
  C1388    1.0000 0.08756  0.12242  0.07613  Biso   1.000  C
  C1389    1.0000 0.08759  0.12242  0.07613  Biso   1.000  C
  H1810    1.0000 0.12908  0.22194  0.18343  Biso   1.000  H
  H1811    1.0000 0.07246  0.22764  0.17235  Biso   1.000  H
  H1812    1.0000 0.12905  0.22190  0.18343  Biso   1.000  H
  H1813    1.0000 0.07249  0.22764  0.17235  Biso   1.000  H
  H1814    1.0000 0.91148  0.64937  0.66373  Biso   1.000  H
  H1815    1.0000 0.88089  0.64316  0.72673  Biso   1.000  H
  H1816    1.0000 0.88086  0.64316  0.72673  Biso   1.000  H
  H1817    1.0000 0.91151  0.64937  0.66373  Biso   1.000  H
  C1390    1.0000 0.95958  0.79466  0.87554  Biso   1.000  C
  C1391    1.0000 0.05080  0.88518  0.83523  Biso   1.000  C
  C1392    1.0000 0.05077  0.88514  0.83523  Biso   1.000  C
  C1393    1.0000 0.05076  0.88518  0.83523  Biso   1.000  C
  H1818    1.0000 0.68008  0.83016  0.20263  Biso   1.000  H
  H1819    1.0000 0.68077  0.87136  0.15036  Biso   1.000  H
  H1820    1.0000 0.68081  0.87136  0.15036  Biso   1.000  H
  C1394    1.0000 0.94090  0.98379  0.07493  Biso   1.000  C
  C1395    1.0000 0.94088  0.98375  0.07493  Biso   1.000  C
  C1396    1.0000 0.86245  0.00882  0.04665  Biso   1.000  C
  C1397    1.0000 0.86248  0.00882  0.04665  Biso   1.000  C
  C1398    1.0000 0.85956  0.00952  0.07573  Biso   1.000  C
  C1399    1.0000 0.12379  0.98149  0.80304  Biso   1.000  C
  C1400    1.0000 0.12377  0.98144  0.80304  Biso   1.000  C
  C1401    1.0000 0.10509  0.02703  0.71214  Biso   1.000  C
  C1402    1.0000 0.10505  0.02703  0.71214  Biso   1.000  C
  H1821    1.0000 0.35948  0.17805  0.65295  Biso   1.000  H
  H1822    1.0000 0.29978  0.16862  0.62515  Biso   1.000  H
  H1823    1.0000 0.35946  0.17801  0.65295  Biso   1.000  H
  H1824    1.0000 0.29974  0.16862  0.62515  Biso   1.000  H
  H1825    1.0000 0.15007  0.31994  0.20263  Biso   1.000  H
  H1826    1.0000 0.19056  0.31925  0.15036  Biso   1.000  H
  H1827    1.0000 0.19054  0.31920  0.15036  Biso   1.000  H
  H1828    1.0000 0.19060  0.31925  0.15036  Biso   1.000  H
  H1829    1.0000 0.19058  0.31920  0.15036  Biso   1.000  H
  C1403    1.0000 0.04286  0.05915  0.07493  Biso   1.000  C
  C1404    1.0000 0.14638  0.13755  0.04665  Biso   1.000  C
  C1405    1.0000 0.04284  0.05910  0.07493  Biso   1.000  C
  C1406    1.0000 0.14636  0.13750  0.04665  Biso   1.000  C
  C1407    1.0000 0.04290  0.05915  0.07493  Biso   1.000  C
  C1408    1.0000 0.04288  0.05910  0.07493  Biso   1.000  C
  C1409    1.0000 0.14996  0.14042  0.07573  Biso   1.000  C
  H1830    1.0000 0.91859  0.77388  0.86396  Biso   1.000  H
  H1831    1.0000 0.96528  0.82156  0.90795  Biso   1.000  H
  H1832    1.0000 0.97107  0.76676  0.88866  Biso   1.000  H
  H1833    1.0000 0.91857  0.77384  0.86396  Biso   1.000  H
  H1834    1.0000 0.97111  0.76676  0.88866  Biso   1.000  H
  C1410    1.0000 0.07308  0.92877  0.79196  Biso   1.000  C
  C1411    1.0000 0.07920  0.89457  0.88933  Biso   1.000  C
  C1412    1.0000 0.07916  0.89457  0.88933  Biso   1.000  C
  C1413    1.0000 0.95767  0.94116  0.07507  Biso   1.000  C
  C1414    1.0000 0.95771  0.94116  0.07507  Biso   1.000  C
  C1415    1.0000 0.98345  0.04233  0.07507  Biso   1.000  C
  C1416    1.0000 0.98349  0.04233  0.07507  Biso   1.000  C
  H1835    1.0000 0.82029  0.99226  0.04607  Biso   1.000  H
  H1836    1.0000 0.82026  0.99226  0.04607  Biso   1.000  H
  H1837    1.0000 0.87735  0.01673  0.00585  Biso   1.000  H
  H1838    1.0000 0.88047  0.04524  0.06926  Biso   1.000  H
  H1839    1.0000 0.87739  0.01673  0.00585  Biso   1.000  H
  H1840    1.0000 0.88048  0.04520  0.06926  Biso   1.000  H
  H1841    1.0000 0.88045  0.04520  0.06926  Biso   1.000  H
  H1842    1.0000 0.84845  0.01373  0.03543  Biso   1.000  H
  H1843    1.0000 0.82640  0.99748  0.10247  Biso   1.000  H
  H1844    1.0000 0.89197  0.04672  0.08917  Biso   1.000  H
  C1417    1.0000 0.15200  0.99057  0.85825  Biso   1.000  C
  C1418    1.0000 0.15197  0.99057  0.85825  Biso   1.000  C
  H1845    1.0000 0.09358  0.99357  0.68603  Biso   1.000  H
  H1846    1.0000 0.09355  0.99357  0.68603  Biso   1.000  H
  H1847    1.0000 0.07058  0.02342  0.73205  Biso   1.000  H
  H1848    1.0000 0.12355  0.06284  0.68864  Biso   1.000  H
  H1849    1.0000 0.07054  0.02342  0.73205  Biso   1.000  H
  H1850    1.0000 0.12353  0.06280  0.68864  Biso   1.000  H
  H1851    1.0000 0.12359  0.06284  0.68864  Biso   1.000  H
  H1852    1.0000 0.12357  0.06280  0.68864  Biso   1.000  H
  C1419    1.0000 0.05884  0.01651  0.07507  Biso   1.000  C
  C1420    1.0000 0.05888  0.01651  0.07507  Biso   1.000  C
  H1853    1.0000 0.13938  0.12264  0.00585  Biso   1.000  H
  H1854    1.0000 0.16478  0.11956  0.06926  Biso   1.000  H
  H1855    1.0000 0.17196  0.17975  0.04607  Biso   1.000  H
  H1856    1.0000 0.16476  0.11951  0.06926  Biso   1.000  H
  H1857    1.0000 0.17194  0.17970  0.04607  Biso   1.000  H
  H1858    1.0000 0.17200  0.17975  0.04607  Biso   1.000  H
  H1859    1.0000 0.17197  0.17970  0.04607  Biso   1.000  H
  H1860    1.0000 0.16527  0.15154  0.03543  Biso   1.000  H
  H1861    1.0000 0.17108  0.17362  0.10247  Biso   1.000  H
  H1862    1.0000 0.15477  0.10804  0.08917  Biso   1.000  H
  H1863    1.0000 0.05367  0.92247  0.75493  Biso   1.000  H
  H1864    1.0000 0.05371  0.92247  0.75493  Biso   1.000  H
  C1421    1.0000 0.13018  0.94746  0.90174  Biso   1.000  C
  H1865    1.0000 0.06399  0.86467  0.91846  Biso   1.000  H
  C1422    1.0000 0.13015  0.94746  0.90174  Biso   1.000  C
  H1866    1.0000 0.06395  0.86467  0.91846  Biso   1.000  H
  H1867    1.0000 0.92880  0.90117  0.07524  Biso   1.000  H
  C1423    1.0000 0.01631  0.95719  0.07493  Biso   1.000  C
  C1424    1.0000 0.01629  0.95715  0.07493  Biso   1.000  C
  C1425    1.0000 0.01627  0.95719  0.07493  Biso   1.000  C
  H1868    1.0000 0.97235  0.07123  0.07524  Biso   1.000  H
  H1869    1.0000 0.97239  0.07123  0.07524  Biso   1.000  H
  H1870    1.0000 0.18629  0.02655  0.86596  Biso   1.000  H
  H1871    1.0000 0.18623  0.02651  0.86596  Biso   1.000  H
  H1872    1.0000 0.18627  0.02651  0.86596  Biso   1.000  H
  H1873    1.0000 0.09888  0.02764  0.07524  Biso   1.000  H
  C1426    1.0000 0.15770  0.95650  0.96156  Biso   1.000  C
  C1427    1.0000 0.15768  0.95645  0.96156  Biso   1.000  C
  C1428    1.0000 0.15766  0.95650  0.96156  Biso   1.000  C
  C1429    1.0000 0.03490  0.91247  0.07613  Biso   1.000  C
  C1430    1.0000 0.03486  0.91247  0.07613  Biso   1.000  C
  N203     1.0000 0.14200  0.91178  0.99264  Biso   1.000  N
  N204     1.0000 0.14196  0.91178  0.99264  Biso   1.000  N
  C1431    1.0000 0.19826  0.01903  0.98124  Biso   1.000  C
  C1432    1.0000 0.19830  0.01903  0.98124  Biso   1.000  C
  C1433    1.0000 0.99120  0.85367  0.04665  Biso   1.000  C
  C1434    1.0000 0.99048  0.85007  0.07573  Biso   1.000  C
  N205     1.0000 0.08649  0.92977  0.09134  Biso   1.000  N
  N206     1.0000 0.08645  0.92977  0.09134  Biso   1.000  N
  C1435    1.0000 0.16330  0.91478  0.05294  Biso   1.000  C
  C1436    1.0000 0.16326  0.91478  0.05294  Biso   1.000  C
  H1874    1.0000 0.18676  0.04472  0.96173  Biso   1.000  H
  H1875    1.0000 0.23828  0.03064  0.97025  Biso   1.000  H
  H1876    1.0000 0.18679  0.04472  0.96173  Biso   1.000  H
  H1877    1.0000 0.19567  0.02182  0.02434  Biso   1.000  H
  H1878    1.0000 0.98329  0.86067  0.00585  Biso   1.000  H
  H1879    1.0000 0.95479  0.83529  0.06926  Biso   1.000  H
  H1880    1.0000 0.95477  0.83525  0.06926  Biso   1.000  H
  H1881    1.0000 0.98630  0.83477  0.03543  Biso   1.000  H
  H1882    1.0000 0.00779  0.82808  0.04607  Biso   1.000  H
  H1883    1.0000 0.00775  0.82808  0.04607  Biso   1.000  H
  H1884    1.0000 0.95326  0.84524  0.08917  Biso   1.000  H
  H1885    1.0000 0.00258  0.82895  0.10247  Biso   1.000  H
  C1437    1.0000 0.11077  0.89087  0.09444  Biso   1.000  C
  C1438    1.0000 0.11081  0.89087  0.09444  Biso   1.000  C
  H1886    1.0000 0.19191  0.95589  0.06354  Biso   1.000  H
  C1439    1.0000 0.19200  0.87697  0.05693  Biso   1.000  C
  H1887    1.0000 0.19189  0.95585  0.06354  Biso   1.000  H
  C1440    1.0000 0.19197  0.87697  0.05693  Biso   1.000  C
  H1888    1.0000 0.19187  0.95589  0.06354  Biso   1.000  H
  C1441    1.0000 0.12791  0.88788  0.15785  Biso   1.000  C
  H1889    1.0000 0.08078  0.85107  0.08096  Biso   1.000  H
  C1442    1.0000 0.12787  0.88788  0.15785  Biso   1.000  C
  H1890    1.0000 0.08075  0.85107  0.08096  Biso   1.000  H
  H1891    1.0000 0.16461  0.83738  0.04226  Biso   1.000  H
  H1892    1.0000 0.22691  0.89379  0.03144  Biso   1.000  H
  C1443    1.0000 0.20898  0.87336  0.12025  Biso   1.000  C
  H1893    1.0000 0.16457  0.83738  0.04226  Biso   1.000  H
  H1894    1.0000 0.22689  0.89374  0.03144  Biso   1.000  H
  H1895    1.0000 0.22687  0.89379  0.03144  Biso   1.000  H
  C1444    1.0000 0.15710  0.85007  0.16144  Biso   1.000  C
  H1896    1.0000 0.09288  0.87097  0.18343  Biso   1.000  H
  H1897    1.0000 0.15520  0.92755  0.17235  Biso   1.000  H
  C1445    1.0000 0.15706  0.85007  0.16144  Biso   1.000  C
  H1898    1.0000 0.15516  0.92755  0.17235  Biso   1.000  H
  H1899    1.0000 0.23897  0.91256  0.13364  Biso   1.000  H
  H1900    1.0000 0.22610  0.84768  0.12176  Biso   1.000  H
  H1901    1.0000 0.22606  0.84768  0.12176  Biso   1.000  H
  H1902    1.0000 0.23901  0.91256  0.13364  Biso   1.000  H
  H1903    1.0000 0.16989  0.84998  0.20263  Biso   1.000  H
  H1904    1.0000 0.12868  0.80948  0.15036  Biso   1.000  H
  H1905    1.0000 0.16985  0.84998  0.20263  Biso   1.000  H
  H1906    1.0000 0.12871  0.80948  0.15036  Biso   1.000  H
  C1446    1.0000 0.77067  0.10182  0.69193  Biso   1.000  C
  C1447    1.0000 0.82548  0.14693  0.66266  Biso   1.000  C
  H1907    1.0000 0.76227  0.11912  0.72673  Biso   1.000  H
  H1908    1.0000 0.73786  0.08853  0.66373  Biso   1.000  H
  C1448    1.0000 0.77627  0.04993  0.71175  Biso   1.000  C
  H1909    1.0000 0.73790  0.08853  0.66373  Biso   1.000  H
  C1449    1.0000 0.77630  0.04993  0.71175  Biso   1.000  C
  C1450    1.0000 0.87768  0.16514  0.70274  Biso   1.000  C
  H1910    1.0000 0.82196  0.18144  0.65295  Biso   1.000  H
  H1911    1.0000 0.83135  0.13112  0.62515  Biso   1.000  H
  C1451    1.0000 0.87769  0.16510  0.70274  Biso   1.000  C
  H1912    1.0000 0.82200  0.18144  0.65295  Biso   1.000  H
  H1913    1.0000 0.83138  0.13112  0.62515  Biso   1.000  H
  C1452    1.0000 0.87766  0.16510  0.70274  Biso   1.000  C
  C1453    1.0000 0.82798  0.06884  0.75343  Biso   1.000  C
  H1914    1.0000 0.78137  0.03064  0.67654  Biso   1.000  H
  H1915    1.0000 0.74014  0.02143  0.73223  Biso   1.000  H
  H1916    1.0000 0.78141  0.03064  0.67654  Biso   1.000  H
  H1917    1.0000 0.74018  0.02143  0.73223  Biso   1.000  H
  C1454    1.0000 0.88427  0.11351  0.72234  Biso   1.000  C
  H1918    1.0000 0.87367  0.18474  0.73835  Biso   1.000  H
  H1919    1.0000 0.91336  0.19352  0.68155  Biso   1.000  H
  H1920    1.0000 0.87368  0.18470  0.73835  Biso   1.000  H
  H1921    1.0000 0.91340  0.19352  0.68155  Biso   1.000  H
  H1922    1.0000 0.87364  0.18470  0.73835  Biso   1.000  H
  N207     1.0000 0.83225  0.01769  0.76894  Biso   1.000  N
  H1923    1.0000 0.82207  0.08644  0.79014  Biso   1.000  H
  N208     1.0000 0.83229  0.01769  0.76894  Biso   1.000  N
  H1924    1.0000 0.82211  0.08644  0.79014  Biso   1.000  H
  N209     1.0000 0.93256  0.13355  0.76336  Biso   1.000  N
  H1925    1.0000 0.89148  0.09535  0.68705  Biso   1.000  H
  N210     1.0000 0.93258  0.13351  0.76336  Biso   1.000  N
  H1926    1.0000 0.89150  0.09531  0.68705  Biso   1.000  H
  N211     1.0000 0.93260  0.13355  0.76336  Biso   1.000  N
  N212     1.0000 0.93254  0.13351  0.76336  Biso   1.000  N
  H1927    1.0000 0.89146  0.09531  0.68705  Biso   1.000  H
  C1455    1.0000 0.83217  0.00374  0.82313  Biso   1.000  C
  C1456    1.0000 0.83220  0.00374  0.82313  Biso   1.000  C
  C1457    1.0000 0.97088  0.11843  0.75804  Biso   1.000  C
  C1458    1.0000 0.83441  0.94928  0.83523  Biso   1.000  C
  C1459    1.0000 0.83435  0.94924  0.83523  Biso   1.000  C
  C1460    1.0000 0.83439  0.94924  0.83523  Biso   1.000  C
  C1461    1.0000 0.83504  0.04042  0.87554  Biso   1.000  C
  C1462    1.0000 0.83507  0.04042  0.87554  Biso   1.000  C
  C1463    1.0000 0.97297  0.07805  0.71214  Biso   1.000  C
  C1464    1.0000 0.97299  0.07801  0.71214  Biso   1.000  C
  C1465    1.0000 0.97295  0.07801  0.71214  Biso   1.000  C
  C1466    1.0000 0.01855  0.14233  0.80304  Biso   1.000  C
  C1467    1.0000 0.01859  0.14233  0.80304  Biso   1.000  C
  C1468    1.0000 0.85570  0.92699  0.79196  Biso   1.000  C
  C1469    1.0000 0.81538  0.92086  0.88933  Biso   1.000  C
  C1470    1.0000 0.85568  0.92695  0.79196  Biso   1.000  C
  H1928    1.0000 0.85628  0.03472  0.90795  Biso   1.000  H
  H1929    1.0000 0.85529  0.08144  0.86396  Biso   1.000  H
  H1930    1.0000 0.79565  0.02894  0.88866  Biso   1.000  H
  H1931    1.0000 0.85526  0.08140  0.86396  Biso   1.000  H
  H1932    1.0000 0.79567  0.02890  0.88866  Biso   1.000  H
  H1933    1.0000 0.79569  0.02894  0.88866  Biso   1.000  H
  H1934    1.0000 0.97657  0.04715  0.73205  Biso   1.000  H
  H1935    1.0000 0.93719  0.06076  0.68864  Biso   1.000  H
  H1936    1.0000 0.97658  0.04711  0.73205  Biso   1.000  H
  H1937    1.0000 0.93717  0.06071  0.68864  Biso   1.000  H
  H1938    1.0000 0.97661  0.04715  0.73205  Biso   1.000  H
  H1939    1.0000 0.97655  0.04711  0.73205  Biso   1.000  H
  H1940    1.0000 0.00648  0.10004  0.68603  Biso   1.000  H
  H1941    1.0000 0.00645  0.10000  0.68603  Biso   1.000  H
  C1471    1.0000 0.07126  0.14433  0.79196  Biso   1.000  C
  C1472    1.0000 0.00948  0.16145  0.85825  Biso   1.000  C
  C1473    1.0000 0.00946  0.16141  0.85825  Biso   1.000  C
  H1942    1.0000 0.86878  0.94637  0.75493  Biso   1.000  H
  C1474    1.0000 0.85767  0.87627  0.80304  Biso   1.000  C
  C1475    1.0000 0.85771  0.87627  0.80304  Biso   1.000  C
  C1476    1.0000 0.81729  0.86988  0.90174  Biso   1.000  C
  H1943    1.0000 0.80067  0.93607  0.91846  Biso   1.000  H
  C1477    1.0000 0.81727  0.86984  0.90174  Biso   1.000  C
  H1944    1.0000 0.80070  0.93607  0.91846  Biso   1.000  H
  C1478    1.0000 0.11488  0.16562  0.83523  Biso   1.000  C
  H1945    1.0000 0.07759  0.13125  0.75493  Biso   1.000  H
  C1479    1.0000 0.11484  0.16562  0.83523  Biso   1.000  C
  H1946    1.0000 0.07753  0.13120  0.75493  Biso   1.000  H
  H1947    1.0000 0.07757  0.13120  0.75493  Biso   1.000  H
  H1948    1.0000 0.97348  0.15975  0.86596  Biso   1.000  H
  H1949    1.0000 0.97350  0.15971  0.86596  Biso   1.000  H
  H1950    1.0000 0.97346  0.15971  0.86596  Biso   1.000  H
  C1480    1.0000 0.05257  0.18274  0.90174  Biso   1.000  C
  C1481    1.0000 0.05255  0.18270  0.90174  Biso   1.000  C
  C1482    1.0000 0.83860  0.84807  0.85825  Biso   1.000  C
  C1483    1.0000 0.88159  0.85246  0.75804  Biso   1.000  C
  C1484    1.0000 0.83856  0.84807  0.85825  Biso   1.000  C
  C1485    1.0000 0.88155  0.85246  0.75804  Biso   1.000  C
  C1486    1.0000 0.79879  0.84237  0.96156  Biso   1.000  C
  C1487    1.0000 0.17157  0.16784  0.82313  Biso   1.000  C
  C1488    1.0000 0.10546  0.18466  0.88933  Biso   1.000  C
  C1489    1.0000 0.10544  0.18461  0.88933  Biso   1.000  C
  C1490    1.0000 0.10550  0.18466  0.88933  Biso   1.000  C
  C1491    1.0000 0.10548  0.18461  0.88933  Biso   1.000  C
  C1492    1.0000 0.04357  0.20126  0.96156  Biso   1.000  C
  C1493    1.0000 0.04355  0.20121  0.96156  Biso   1.000  C
  C1494    1.0000 0.04361  0.20126  0.96156  Biso   1.000  C
  H1951    1.0000 0.84027  0.81378  0.86596  Biso   1.000  H
  H1952    1.0000 0.84031  0.81378  0.86596  Biso   1.000  H
  N213     1.0000 0.86650  0.79909  0.76336  Biso   1.000  N
  C1495    1.0000 0.92196  0.89496  0.71214  Biso   1.000  C
  N214     1.0000 0.86648  0.79905  0.76336  Biso   1.000  N
  C1496    1.0000 0.92200  0.89496  0.71214  Biso   1.000  C
  N215     1.0000 0.76979  0.85806  0.99264  Biso   1.000  N
  C1497    1.0000 0.82080  0.80178  0.98124  Biso   1.000  C
  N216     1.0000 0.76975  0.85806  0.99264  Biso   1.000  N
  C1498    1.0000 0.82078  0.80174  0.98124  Biso   1.000  C
  N217     1.0000 0.18542  0.16775  0.76894  Biso   1.000  N
  C1499    1.0000 0.20538  0.16493  0.87554  Biso   1.000  C
  C1500    1.0000 0.20535  0.16493  0.87554  Biso   1.000  C
  N218     1.0000 0.18546  0.16775  0.76894  Biso   1.000  N
  H1953    1.0000 0.13539  0.19935  0.91846  Biso   1.000  H
  H1954    1.0000 0.13533  0.19930  0.91846  Biso   1.000  H
  H1955    1.0000 0.13537  0.19930  0.91846  Biso   1.000  H
  C1501    1.0000 0.98096  0.17922  0.98124  Biso   1.000  C
  C1502    1.0000 0.98099  0.17922  0.98124  Biso   1.000  C
  N219     1.0000 0.08829  0.23024  0.99264  Biso   1.000  N
  N220     1.0000 0.08823  0.23020  0.99264  Biso   1.000  N
  N221     1.0000 0.08827  0.23020  0.99264  Biso   1.000  N
  C1503    1.0000 0.88647  0.77075  0.72234  Biso   1.000  C
  C1504    1.0000 0.88651  0.77075  0.72234  Biso   1.000  C
  H1956    1.0000 0.95288  0.92947  0.73205  Biso   1.000  H
  H1957    1.0000 0.89998  0.90648  0.68603  Biso   1.000  H
  H1958    1.0000 0.93930  0.87649  0.68864  Biso   1.000  H
  H1959    1.0000 0.93928  0.87645  0.68864  Biso   1.000  H
  H1960    1.0000 0.95292  0.92947  0.73205  Biso   1.000  H
  H1961    1.0000 0.90002  0.90648  0.68603  Biso   1.000  H
  C1505    1.0000 0.75147  0.83677  0.05294  Biso   1.000  C
  C1506    1.0000 0.75150  0.83677  0.05294  Biso   1.000  C
  H1962    1.0000 0.85796  0.81326  0.96173  Biso   1.000  H
  H1963    1.0000 0.79240  0.76176  0.97025  Biso   1.000  H
  H1964    1.0000 0.79236  0.76176  0.97025  Biso   1.000  H
  H1965    1.0000 0.85800  0.81326  0.96173  Biso   1.000  H
  H1966    1.0000 0.82621  0.80439  0.02434  Biso   1.000  H
  H1967    1.0000 0.82615  0.80435  0.02434  Biso   1.000  H
  H1968    1.0000 0.82619  0.80435  0.02434  Biso   1.000  H
  C1507    1.0000 0.24086  0.17205  0.75343  Biso   1.000  C
  C1508    1.0000 0.24084  0.17201  0.75343  Biso   1.000  C
  C1509    1.0000 0.24090  0.17205  0.75343  Biso   1.000  C
  C1510    1.0000 0.24088  0.17201  0.75343  Biso   1.000  C
  H1969    1.0000 0.22618  0.14472  0.86396  Biso   1.000  H
  H1970    1.0000 0.17845  0.14372  0.90795  Biso   1.000  H
  H1971    1.0000 0.23326  0.20434  0.88866  Biso   1.000  H
  H1972    1.0000 0.22614  0.14472  0.86396  Biso   1.000  H
  H1973    1.0000 0.23324  0.20430  0.88866  Biso   1.000  H
  H1974    1.0000 0.17848  0.14372  0.90795  Biso   1.000  H
  H1975    1.0000 0.23330  0.20434  0.88866  Biso   1.000  H
  H1976    1.0000 0.23328  0.20430  0.88866  Biso   1.000  H
  H1977    1.0000 0.95524  0.14202  0.96173  Biso   1.000  H
  H1978    1.0000 0.96939  0.20765  0.97025  Biso   1.000  H
  H1979    1.0000 0.95528  0.14202  0.96173  Biso   1.000  H
  H1980    1.0000 0.96936  0.20760  0.97025  Biso   1.000  H
  H1981    1.0000 0.97815  0.17384  0.02434  Biso   1.000  H
  H1982    1.0000 0.97819  0.17384  0.02434  Biso   1.000  H
  C1511    1.0000 0.08528  0.24854  0.05294  Biso   1.000  C
  H1983    1.0000 0.90468  0.79618  0.68705  Biso   1.000  H
  C1512    1.0000 0.83487  0.71256  0.70274  Biso   1.000  C
  C1513    1.0000 0.93120  0.75919  0.75343  Biso   1.000  C
  C1514    1.0000 0.93118  0.75915  0.75343  Biso   1.000  C
  H1984    1.0000 0.90471  0.79618  0.68705  Biso   1.000  H
  C1515    1.0000 0.83490  0.71256  0.70274  Biso   1.000  C
  H1985    1.0000 0.76397  0.80817  0.06354  Biso   1.000  H
  C1516    1.0000 0.68500  0.80809  0.05693  Biso   1.000  C
  C1517    1.0000 0.78009  0.88927  0.09444  Biso   1.000  C
  C1518    1.0000 0.68498  0.80804  0.05693  Biso   1.000  C
  H1986    1.0000 0.76400  0.80817  0.06354  Biso   1.000  H
  C1519    1.0000 0.22926  0.11573  0.72234  Biso   1.000  C
  C1520    1.0000 0.27366  0.22373  0.71175  Biso   1.000  C
  H1987    1.0000 0.26435  0.17792  0.79014  Biso   1.000  H
  C1521    1.0000 0.22930  0.11573  0.72234  Biso   1.000  C
  H1988    1.0000 0.26438  0.17792  0.79014  Biso   1.000  H
  H1989    1.0000 0.04417  0.23602  0.06354  Biso   1.000  H
  C1522    1.0000 0.12308  0.31503  0.05693  Biso   1.000  C
  C1523    1.0000 0.10918  0.21995  0.09444  Biso   1.000  C
  C1524    1.0000 0.12304  0.31503  0.05693  Biso   1.000  C
  C1525    1.0000 0.10916  0.21990  0.09444  Biso   1.000  C
  H1990    1.0000 0.81528  0.68897  0.73835  Biso   1.000  H
  H1991    1.0000 0.80649  0.71986  0.68155  Biso   1.000  H
  C1526    1.0000 0.85310  0.67858  0.66266  Biso   1.000  C
  C1527    1.0000 0.85304  0.67854  0.66266  Biso   1.000  C
  H1992    1.0000 0.81531  0.68897  0.73835  Biso   1.000  H
  C1528    1.0000 0.85308  0.67854  0.66266  Biso   1.000  C
  N222     1.0000 0.98235  0.81460  0.76894  Biso   1.000  N
  C1529    1.0000 0.95009  0.72638  0.71175  Biso   1.000  C
  H1993    1.0000 0.91361  0.73568  0.79014  Biso   1.000  H
  C1530    1.0000 0.95007  0.72634  0.71175  Biso   1.000  C
  H1994    1.0000 0.91355  0.73564  0.79014  Biso   1.000  H
  H1995    1.0000 0.91359  0.73564  0.79014  Biso   1.000  H
  H1996    1.0000 0.67279  0.83546  0.04226  Biso   1.000  H
  H1997    1.0000 0.66687  0.77319  0.03144  Biso   1.000  H
  C1531    1.0000 0.66438  0.79109  0.12025  Biso   1.000  C
  H1998    1.0000 0.67276  0.83546  0.04226  Biso   1.000  H
  H1999    1.0000 0.66685  0.77315  0.03144  Biso   1.000  H
  C1532    1.0000 0.66436  0.79105  0.12025  Biso   1.000  C
  H2000    1.0000 0.66691  0.77319  0.03144  Biso   1.000  H
  C1533    1.0000 0.66442  0.79109  0.12025  Biso   1.000  C
  H2001    1.0000 0.66689  0.77315  0.03144  Biso   1.000  H
  N223     1.0000 0.84327  0.91356  0.09134  Biso   1.000  N
  C1534    1.0000 0.75999  0.87219  0.15785  Biso   1.000  C
  H2002    1.0000 0.77030  0.91930  0.08096  Biso   1.000  H
  C1535    1.0000 0.75997  0.87214  0.15785  Biso   1.000  C
  H2003    1.0000 0.77028  0.91925  0.08096  Biso   1.000  H
  N224     1.0000 0.84331  0.91356  0.09134  Biso   1.000  N
  N225     1.0000 0.20098  0.06745  0.76336  Biso   1.000  N
  H2004    1.0000 0.20386  0.10852  0.68705  Biso   1.000  H
  C1536    1.0000 0.28748  0.12234  0.70274  Biso   1.000  C
  N226     1.0000 0.20096  0.06740  0.76336  Biso   1.000  N
  C1537    1.0000 0.33115  0.22933  0.69193  Biso   1.000  C
  H2005    1.0000 0.24929  0.21864  0.67654  Biso   1.000  H
  H2006    1.0000 0.28126  0.25984  0.73223  Biso   1.000  H
  H2007    1.0000 0.24925  0.21864  0.67654  Biso   1.000  H
  C1538    1.0000 0.33119  0.22933  0.69193  Biso   1.000  C
  H2008    1.0000 0.28129  0.25984  0.73223  Biso   1.000  H
  H2009    1.0000 0.16268  0.32724  0.04226  Biso   1.000  H
  H2010    1.0000 0.10628  0.33316  0.03144  Biso   1.000  H
  C1539    1.0000 0.12668  0.33563  0.12025  Biso   1.000  C
  H2011    1.0000 0.16266  0.32720  0.04226  Biso   1.000  H
  H2012    1.0000 0.10626  0.33311  0.03144  Biso   1.000  H
  C1540    1.0000 0.12664  0.33563  0.12025  Biso   1.000  C
  N227     1.0000 0.07029  0.15676  0.09134  Biso   1.000  N
  C1541    1.0000 0.11215  0.24002  0.15785  Biso   1.000  C
  H2013    1.0000 0.14896  0.22972  0.08096  Biso   1.000  H
  N228     1.0000 0.07026  0.15671  0.09134  Biso   1.000  N
  C1542    1.0000 0.11218  0.24002  0.15785  Biso   1.000  C
  H2014    1.0000 0.81858  0.64055  0.65295  Biso   1.000  H
  H2015    1.0000 0.86888  0.70026  0.62515  Biso   1.000  H
  C1543    1.0000 0.89820  0.66889  0.69193  Biso   1.000  C
  C1544    1.0000 0.89818  0.66884  0.69193  Biso   1.000  C
  H2016    1.0000 0.86891  0.70026  0.62515  Biso   1.000  H
  C1545    1.0000 0.99628  0.82847  0.82313  Biso   1.000  C
  C1546    1.0000 0.99632  0.82847  0.82313  Biso   1.000  C
  H2017    1.0000 0.96940  0.75076  0.67654  Biso   1.000  H
  H2018    1.0000 0.97858  0.71878  0.73223  Biso   1.000  H
  H2019    1.0000 0.96936  0.75076  0.67654  Biso   1.000  H
  H2020    1.0000 0.97862  0.71878  0.73223  Biso   1.000  H
  H2021    1.0000 0.67357  0.76106  0.13364  Biso   1.000  H
  H2022    1.0000 0.62157  0.77397  0.12176  Biso   1.000  H
  C1547    1.0000 0.69300  0.84298  0.16144  Biso   1.000  C
  C1548    1.0000 0.69294  0.84294  0.16144  Biso   1.000  C
  H2023    1.0000 0.67361  0.76106  0.13364  Biso   1.000  H
  H2024    1.0000 0.62161  0.77397  0.12176  Biso   1.000  H
  C1549    1.0000 0.69298  0.84294  0.16144  Biso   1.000  C
  C1550    1.0000 0.87759  0.96519  0.07613  Biso   1.000  C
  C1551    1.0000 0.87757  0.96515  0.07613  Biso   1.000  C
  C1552    1.0000 0.87763  0.96519  0.07613  Biso   1.000  C
  H2025    1.0000 0.77809  0.90717  0.18343  Biso   1.000  H
  H2026    1.0000 0.77239  0.84490  0.17235  Biso   1.000  H
  H2027    1.0000 0.77237  0.84485  0.17235  Biso   1.000  H
  H2028    1.0000 0.77243  0.84490  0.17235  Biso   1.000  H
  C1553    1.0000 0.14757  0.02912  0.75804  Biso   1.000  C
  H2029    1.0000 0.31108  0.12633  0.73835  Biso   1.000  H
  H2030    1.0000 0.28015  0.08661  0.68155  Biso   1.000  H
  C1554    1.0000 0.32148  0.17453  0.66266  Biso   1.000  C
  H2031    1.0000 0.28019  0.08661  0.68155  Biso   1.000  H
  H2032    1.0000 0.35068  0.26214  0.66373  Biso   1.000  H
  H2033    1.0000 0.35687  0.23772  0.72673  Biso   1.000  H
  H2034    1.0000 0.35066  0.26210  0.66373  Biso   1.000  H
  H2035    1.0000 0.08745  0.32642  0.13364  Biso   1.000  H
  H2036    1.0000 0.15237  0.37844  0.12176  Biso   1.000  H
  C1555    1.0000 0.14998  0.30704  0.16144  Biso   1.000  C
  C1556    1.0000 0.14994  0.30704  0.16144  Biso   1.000  C
  H2037    1.0000 0.08749  0.32642  0.13364  Biso   1.000  H
  C1557    1.0000 0.08756  0.12242  0.07613  Biso   1.000  C
  C1558    1.0000 0.08759  0.12242  0.07613  Biso   1.000  C
  H2038    1.0000 0.12908  0.22194  0.18343  Biso   1.000  H
  H2039    1.0000 0.07246  0.22764  0.17235  Biso   1.000  H
  H2040    1.0000 0.12905  0.22190  0.18343  Biso   1.000  H
  H2041    1.0000 0.07249  0.22764  0.17235  Biso   1.000  H
  H2042    1.0000 0.91148  0.64937  0.66373  Biso   1.000  H
  H2043    1.0000 0.88089  0.64316  0.72673  Biso   1.000  H
  H2044    1.0000 0.88086  0.64316  0.72673  Biso   1.000  H
  H2045    1.0000 0.91151  0.64937  0.66373  Biso   1.000  H
  C1559    1.0000 0.95958  0.79466  0.87554  Biso   1.000  C
  C1560    1.0000 0.05080  0.88518  0.83523  Biso   1.000  C
  C1561    1.0000 0.05077  0.88514  0.83523  Biso   1.000  C
  C1562    1.0000 0.05076  0.88518  0.83523  Biso   1.000  C
  H2046    1.0000 0.68008  0.83016  0.20263  Biso   1.000  H
  H2047    1.0000 0.68077  0.87136  0.15036  Biso   1.000  H
  H2048    1.0000 0.68081  0.87136  0.15036  Biso   1.000  H
  C1563    1.0000 0.94090  0.98379  0.07493  Biso   1.000  C
  C1564    1.0000 0.94088  0.98375  0.07493  Biso   1.000  C
  C1565    1.0000 0.86245  0.00882  0.04665  Biso   1.000  C
  C1566    1.0000 0.86248  0.00882  0.04665  Biso   1.000  C
  C1567    1.0000 0.85956  0.00952  0.07573  Biso   1.000  C
  C1568    1.0000 0.12379  0.98149  0.80304  Biso   1.000  C
  C1569    1.0000 0.12377  0.98144  0.80304  Biso   1.000  C
  C1570    1.0000 0.10509  0.02703  0.71214  Biso   1.000  C
  C1571    1.0000 0.10505  0.02703  0.71214  Biso   1.000  C
  H2049    1.0000 0.35948  0.17805  0.65295  Biso   1.000  H
  H2050    1.0000 0.29978  0.16862  0.62515  Biso   1.000  H
  H2051    1.0000 0.35946  0.17801  0.65295  Biso   1.000  H
  H2052    1.0000 0.29974  0.16862  0.62515  Biso   1.000  H
  H2053    1.0000 0.15007  0.31994  0.20263  Biso   1.000  H
  H2054    1.0000 0.19056  0.31925  0.15036  Biso   1.000  H
  H2055    1.0000 0.19054  0.31920  0.15036  Biso   1.000  H
  H2056    1.0000 0.19060  0.31925  0.15036  Biso   1.000  H
  H2057    1.0000 0.19058  0.31920  0.15036  Biso   1.000  H
  C1572    1.0000 0.04286  0.05915  0.07493  Biso   1.000  C
  C1573    1.0000 0.14638  0.13755  0.04665  Biso   1.000  C
  C1574    1.0000 0.04284  0.05910  0.07493  Biso   1.000  C
  C1575    1.0000 0.14636  0.13750  0.04665  Biso   1.000  C
  C1576    1.0000 0.04290  0.05915  0.07493  Biso   1.000  C
  C1577    1.0000 0.04288  0.05910  0.07493  Biso   1.000  C
  C1578    1.0000 0.14996  0.14042  0.07573  Biso   1.000  C
  H2058    1.0000 0.91859  0.77388  0.86396  Biso   1.000  H
  H2059    1.0000 0.96528  0.82156  0.90795  Biso   1.000  H
  H2060    1.0000 0.97107  0.76676  0.88866  Biso   1.000  H
  H2061    1.0000 0.91857  0.77384  0.86396  Biso   1.000  H
  H2062    1.0000 0.97111  0.76676  0.88866  Biso   1.000  H
  C1579    1.0000 0.07308  0.92877  0.79196  Biso   1.000  C
  C1580    1.0000 0.07920  0.89457  0.88933  Biso   1.000  C
  C1581    1.0000 0.07916  0.89457  0.88933  Biso   1.000  C
  C1582    1.0000 0.95767  0.94116  0.07507  Biso   1.000  C
  C1583    1.0000 0.95771  0.94116  0.07507  Biso   1.000  C
  C1584    1.0000 0.98345  0.04233  0.07507  Biso   1.000  C
  C1585    1.0000 0.98349  0.04233  0.07507  Biso   1.000  C
  H2063    1.0000 0.82029  0.99226  0.04607  Biso   1.000  H
  H2064    1.0000 0.82026  0.99226  0.04607  Biso   1.000  H
  H2065    1.0000 0.87735  0.01673  0.00585  Biso   1.000  H
  H2066    1.0000 0.88047  0.04524  0.06926  Biso   1.000  H
  H2067    1.0000 0.87739  0.01673  0.00585  Biso   1.000  H
  H2068    1.0000 0.88048  0.04520  0.06926  Biso   1.000  H
  H2069    1.0000 0.88045  0.04520  0.06926  Biso   1.000  H
  H2070    1.0000 0.84845  0.01373  0.03543  Biso   1.000  H
  H2071    1.0000 0.82640  0.99748  0.10247  Biso   1.000  H
  H2072    1.0000 0.89197  0.04672  0.08917  Biso   1.000  H
  C1586    1.0000 0.15200  0.99057  0.85825  Biso   1.000  C
  C1587    1.0000 0.15197  0.99057  0.85825  Biso   1.000  C
  H2073    1.0000 0.09358  0.99357  0.68603  Biso   1.000  H
  H2074    1.0000 0.09355  0.99357  0.68603  Biso   1.000  H
  H2075    1.0000 0.07058  0.02342  0.73205  Biso   1.000  H
  H2076    1.0000 0.12355  0.06284  0.68864  Biso   1.000  H
  H2077    1.0000 0.07054  0.02342  0.73205  Biso   1.000  H
  H2078    1.0000 0.12353  0.06280  0.68864  Biso   1.000  H
  H2079    1.0000 0.12359  0.06284  0.68864  Biso   1.000  H
  H2080    1.0000 0.12357  0.06280  0.68864  Biso   1.000  H
  C1588    1.0000 0.05884  0.01651  0.07507  Biso   1.000  C
  C1589    1.0000 0.05888  0.01651  0.07507  Biso   1.000  C
  H2081    1.0000 0.13938  0.12264  0.00585  Biso   1.000  H
  H2082    1.0000 0.16478  0.11956  0.06926  Biso   1.000  H
  H2083    1.0000 0.17196  0.17975  0.04607  Biso   1.000  H
  H2084    1.0000 0.16476  0.11951  0.06926  Biso   1.000  H
  H2085    1.0000 0.17194  0.17970  0.04607  Biso   1.000  H
  H2086    1.0000 0.17200  0.17975  0.04607  Biso   1.000  H
  H2087    1.0000 0.17197  0.17970  0.04607  Biso   1.000  H
  H2088    1.0000 0.16527  0.15154  0.03543  Biso   1.000  H
  H2089    1.0000 0.17108  0.17362  0.10247  Biso   1.000  H
  H2090    1.0000 0.15477  0.10804  0.08917  Biso   1.000  H
  H2091    1.0000 0.05367  0.92247  0.75493  Biso   1.000  H
  H2092    1.0000 0.05371  0.92247  0.75493  Biso   1.000  H
  C1590    1.0000 0.13018  0.94746  0.90174  Biso   1.000  C
  H2093    1.0000 0.06399  0.86467  0.91846  Biso   1.000  H
  C1591    1.0000 0.13015  0.94746  0.90174  Biso   1.000  C
  H2094    1.0000 0.06395  0.86467  0.91846  Biso   1.000  H
  H2095    1.0000 0.92880  0.90117  0.07524  Biso   1.000  H
  C1592    1.0000 0.01631  0.95719  0.07493  Biso   1.000  C
  C1593    1.0000 0.01629  0.95715  0.07493  Biso   1.000  C
  C1594    1.0000 0.01627  0.95719  0.07493  Biso   1.000  C
  H2096    1.0000 0.97235  0.07123  0.07524  Biso   1.000  H
  H2097    1.0000 0.97239  0.07123  0.07524  Biso   1.000  H
  H2098    1.0000 0.18629  0.02655  0.86596  Biso   1.000  H
  H2099    1.0000 0.18623  0.02651  0.86596  Biso   1.000  H
  H2100    1.0000 0.18627  0.02651  0.86596  Biso   1.000  H
  H2101    1.0000 0.09888  0.02764  0.07524  Biso   1.000  H
  C1595    1.0000 0.15770  0.95650  0.96156  Biso   1.000  C
  C1596    1.0000 0.15768  0.95645  0.96156  Biso   1.000  C
  C1597    1.0000 0.15766  0.95650  0.96156  Biso   1.000  C
  C1598    1.0000 0.03490  0.91247  0.07613  Biso   1.000  C
  C1599    1.0000 0.03486  0.91247  0.07613  Biso   1.000  C
  N229     1.0000 0.14200  0.91178  0.99264  Biso   1.000  N
  N230     1.0000 0.14196  0.91178  0.99264  Biso   1.000  N
  C1600    1.0000 0.19826  0.01903  0.98124  Biso   1.000  C
  C1601    1.0000 0.19830  0.01903  0.98124  Biso   1.000  C
  C1602    1.0000 0.99120  0.85367  0.04665  Biso   1.000  C
  C1603    1.0000 0.99048  0.85007  0.07573  Biso   1.000  C
  N231     1.0000 0.08649  0.92977  0.09134  Biso   1.000  N
  N232     1.0000 0.08645  0.92977  0.09134  Biso   1.000  N
  C1604    1.0000 0.16330  0.91478  0.05294  Biso   1.000  C
  C1605    1.0000 0.16326  0.91478  0.05294  Biso   1.000  C
  H2102    1.0000 0.18676  0.04472  0.96173  Biso   1.000  H
  H2103    1.0000 0.23828  0.03064  0.97025  Biso   1.000  H
  H2104    1.0000 0.18679  0.04472  0.96173  Biso   1.000  H
  H2105    1.0000 0.19567  0.02182  0.02434  Biso   1.000  H
  H2106    1.0000 0.98329  0.86067  0.00585  Biso   1.000  H
  H2107    1.0000 0.95479  0.83529  0.06926  Biso   1.000  H
  H2108    1.0000 0.95477  0.83525  0.06926  Biso   1.000  H
  H2109    1.0000 0.98630  0.83477  0.03543  Biso   1.000  H
  H2110    1.0000 0.00779  0.82808  0.04607  Biso   1.000  H
  H2111    1.0000 0.00775  0.82808  0.04607  Biso   1.000  H
  H2112    1.0000 0.95326  0.84524  0.08917  Biso   1.000  H
  H2113    1.0000 0.00258  0.82895  0.10247  Biso   1.000  H
  C1606    1.0000 0.11077  0.89087  0.09444  Biso   1.000  C
  C1607    1.0000 0.11081  0.89087  0.09444  Biso   1.000  C
  H2114    1.0000 0.19191  0.95589  0.06354  Biso   1.000  H
  C1608    1.0000 0.19200  0.87697  0.05693  Biso   1.000  C
  H2115    1.0000 0.19189  0.95585  0.06354  Biso   1.000  H
  C1609    1.0000 0.19197  0.87697  0.05693  Biso   1.000  C
  H2116    1.0000 0.19187  0.95589  0.06354  Biso   1.000  H
  C1610    1.0000 0.12791  0.88788  0.15785  Biso   1.000  C
  H2117    1.0000 0.08078  0.85107  0.08096  Biso   1.000  H
  C1611    1.0000 0.12787  0.88788  0.15785  Biso   1.000  C
  H2118    1.0000 0.08075  0.85107  0.08096  Biso   1.000  H
  H2119    1.0000 0.16461  0.83738  0.04226  Biso   1.000  H
  H2120    1.0000 0.22691  0.89379  0.03144  Biso   1.000  H
  C1612    1.0000 0.20898  0.87336  0.12025  Biso   1.000  C
  H2121    1.0000 0.16457  0.83738  0.04226  Biso   1.000  H
  H2122    1.0000 0.22689  0.89374  0.03144  Biso   1.000  H
  H2123    1.0000 0.22687  0.89379  0.03144  Biso   1.000  H
  C1613    1.0000 0.15710  0.85007  0.16144  Biso   1.000  C
  H2124    1.0000 0.09288  0.87097  0.18343  Biso   1.000  H
  H2125    1.0000 0.15520  0.92755  0.17235  Biso   1.000  H
  C1614    1.0000 0.15706  0.85007  0.16144  Biso   1.000  C
  H2126    1.0000 0.15516  0.92755  0.17235  Biso   1.000  H
  H2127    1.0000 0.23897  0.91256  0.13364  Biso   1.000  H
  H2128    1.0000 0.22610  0.84768  0.12176  Biso   1.000  H
  H2129    1.0000 0.22606  0.84768  0.12176  Biso   1.000  H
  H2130    1.0000 0.23901  0.91256  0.13364  Biso   1.000  H
  H2131    1.0000 0.16989  0.84998  0.20263  Biso   1.000  H
  H2132    1.0000 0.12868  0.80948  0.15036  Biso   1.000  H
  H2133    1.0000 0.16985  0.84998  0.20263  Biso   1.000  H
  H2134    1.0000 0.12871  0.80948  0.15036  Biso   1.000  H
  C1615    1.0000 0.52533  0.54363  0.72363  Biso   1.000  C
  C1616    1.0000 0.49660  0.58139  0.71959  Biso   1.000  C
  H2135    1.0000 0.49791  0.50399  0.70891  Biso   1.000  H
  H2136    1.0000 0.56022  0.56040  0.69809  Biso   1.000  H
  C1617    1.0000 0.54231  0.54002  0.78690  Biso   1.000  C
  N233     1.0000 0.47531  0.57839  0.65929  Biso   1.000  N
  H2137    1.0000 0.52522  0.62250  0.73019  Biso   1.000  H
  C1618    1.0000 0.44408  0.55749  0.76110  Biso   1.000  C
  H2138    1.0000 0.57230  0.57922  0.80029  Biso   1.000  H
  H2139    1.0000 0.55940  0.51429  0.78841  Biso   1.000  H
  C1619    1.0000 0.49043  0.51673  0.82809  Biso   1.000  C
  C1620    1.0000 0.49101  0.62311  0.62821  Biso   1.000  C
  N234     1.0000 0.41982  0.59643  0.75799  Biso   1.000  N
  C1621    1.0000 0.46121  0.55449  0.82450  Biso   1.000  C
  H2140    1.0000 0.41411  0.51772  0.74762  Biso   1.000  H
  H2141    1.0000 0.50320  0.51659  0.86933  Biso   1.000  H
  H2142    1.0000 0.46198  0.47609  0.81701  Biso   1.000  H
  C1622    1.0000 0.46351  0.61412  0.56839  Biso   1.000  C
  C1623    1.0000 0.53159  0.68569  0.64790  Biso   1.000  C
  C1624    1.0000 0.36820  0.57909  0.74283  Biso   1.000  C
  H2143    1.0000 0.42621  0.53763  0.85013  Biso   1.000  H
  H2144    1.0000 0.48853  0.59421  0.83900  Biso   1.000  H
  C1625    1.0000 0.41253  0.56123  0.55602  Biso   1.000  C
  C1626    1.0000 0.48533  0.65723  0.52490  Biso   1.000  C
  H2145    1.0000 0.52902  0.68852  0.69099  Biso   1.000  H
  H2146    1.0000 0.52011  0.71142  0.62839  Biso   1.000  H
  H2147    1.0000 0.57161  0.69730  0.63690  Biso   1.000  H
  C1627    1.0000 0.34962  0.62381  0.74163  Biso   1.000  C
  C1628    1.0000 0.32450  0.52029  0.71330  Biso   1.000  C
  C1629    1.0000 0.32381  0.51673  0.74243  Biso   1.000  C
  C1630    1.0000 0.38410  0.55180  0.50193  Biso   1.000  C
  H2148    1.0000 0.39732  0.53133  0.58511  Biso   1.000  H
  C1631    1.0000 0.45710  0.64810  0.46969  Biso   1.000  C
  H2149    1.0000 0.51962  0.69321  0.53261  Biso   1.000  H
  C1632    1.0000 0.29100  0.60781  0.74172  Biso   1.000  C
  C1633    1.0000 0.39219  0.68322  0.74172  Biso   1.000  C
  H2150    1.0000 0.31662  0.52733  0.67250  Biso   1.000  H
  H2151    1.0000 0.28810  0.50191  0.73591  Biso   1.000  H
  H2152    1.0000 0.34110  0.49469  0.71272  Biso   1.000  H
  H2153    1.0000 0.31963  0.50143  0.70212  Biso   1.000  H
  H2154    1.0000 0.33591  0.49560  0.76912  Biso   1.000  H
  H2155    1.0000 0.28659  0.51190  0.75582  Biso   1.000  H
  C1634    1.0000 0.32961  0.49513  0.48982  Biso   1.000  C
  C1635    1.0000 0.40641  0.59543  0.45861  Biso   1.000  C
  C1636    1.0000 0.48092  0.69582  0.42469  Biso   1.000  C
  C1637    1.0000 0.27420  0.65040  0.74163  Biso   1.000  C
  H2156    1.0000 0.26210  0.56779  0.74190  Biso   1.000  H
  H2157    1.0000 0.43221  0.69430  0.74190  Biso   1.000  H
  C1638    1.0000 0.37619  0.72581  0.74163  Biso   1.000  C
  N235     1.0000 0.31566  0.48122  0.43560  Biso   1.000  N
  C1639    1.0000 0.29291  0.46132  0.54219  Biso   1.000  C
  H2158    1.0000 0.38700  0.58913  0.42158  Biso   1.000  H
  N236     1.0000 0.53431  0.73411  0.43001  Biso   1.000  N
  C1640    1.0000 0.43841  0.69369  0.37880  Biso   1.000  C
  C1641    1.0000 0.21090  0.63180  0.74283  Biso   1.000  C
  C1642    1.0000 0.31680  0.70903  0.74172  Biso   1.000  C
  C1643    1.0000 0.42091  0.78913  0.74283  Biso   1.000  C
  C1644    1.0000 0.26450  0.42581  0.42012  Biso   1.000  C
  H2159    1.0000 0.25190  0.44050  0.53062  Biso   1.000  H
  H2160    1.0000 0.29861  0.48822  0.57460  Biso   1.000  H
  H2161    1.0000 0.30440  0.43341  0.55531  Biso   1.000  H
  C1645    1.0000 0.56261  0.78243  0.38899  Biso   1.000  C
  H2162    1.0000 0.40393  0.69013  0.39871  Biso   1.000  H
  H2163    1.0000 0.42691  0.66023  0.35272  Biso   1.000  H
  H2164    1.0000 0.45688  0.72950  0.35530  Biso   1.000  H
  N237     1.0000 0.17660  0.58022  0.75799  Biso   1.000  N
  C1646    1.0000 0.19580  0.67552  0.71330  Biso   1.000  C
  C1647    1.0000 0.19291  0.67622  0.74243  Biso   1.000  C
  H2165    1.0000 0.30570  0.73793  0.74190  Biso   1.000  H
  N238     1.0000 0.40362  0.82341  0.75799  Biso   1.000  N
  C1648    1.0000 0.47971  0.80421  0.71330  Biso   1.000  C
  C1649    1.0000 0.48331  0.80712  0.74243  Biso   1.000  C
  C1650    1.0000 0.28340  0.39300  0.37840  Biso   1.000  C
  C1651    1.0000 0.21980  0.43741  0.38899  Biso   1.000  C
  H2166    1.0000 0.24691  0.40230  0.45679  Biso   1.000  H
  H2167    1.0000 0.53721  0.77522  0.35370  Biso   1.000  H
  C1652    1.0000 0.62081  0.78899  0.36940  Biso   1.000  C
  C1653    1.0000 0.57419  0.83871  0.42012  Biso   1.000  C
  C1654    1.0000 0.11342  0.55593  0.76110  Biso   1.000  C
  H2168    1.0000 0.21068  0.68339  0.67250  Biso   1.000  H
  H2169    1.0000 0.21380  0.71190  0.73591  Biso   1.000  H
  H2170    1.0000 0.15362  0.65892  0.71272  Biso   1.000  H
  H2171    1.0000 0.18178  0.68039  0.70212  Biso   1.000  H
  H2172    1.0000 0.15971  0.66409  0.76912  Biso   1.000  H
  H2173    1.0000 0.22532  0.71342  0.75582  Biso   1.000  H
  C1655    1.0000 0.44251  0.88660  0.76110  Biso   1.000  C
  H2174    1.0000 0.47271  0.78930  0.67250  Biso   1.000  H
  H2175    1.0000 0.49811  0.78621  0.73591  Biso   1.000  H
  H2176    1.0000 0.50529  0.84640  0.71272  Biso   1.000  H
  H2177    1.0000 0.49860  0.81820  0.70212  Biso   1.000  H
  H2178    1.0000 0.50443  0.84032  0.76912  Biso   1.000  H
  H2179    1.0000 0.48810  0.77470  0.75582  Biso   1.000  H
  C1656    1.0000 0.23151  0.33550  0.35862  Biso   1.000  C
  H2180    1.0000 0.30273  0.41742  0.34319  Biso   1.000  H
  H2181    1.0000 0.31189  0.38539  0.39893  Biso   1.000  H
  C1657    1.0000 0.16820  0.37922  0.36940  Biso   1.000  C
  N239     1.0000 0.19981  0.46570  0.43001  Biso   1.000  N
  H2182    1.0000 0.23798  0.46279  0.35370  Biso   1.000  H
  H2183    1.0000 0.64441  0.79299  0.40500  Biso   1.000  H
  H2184    1.0000 0.61350  0.75331  0.34820  Biso   1.000  H
  C1658    1.0000 0.65483  0.84123  0.32931  Biso   1.000  C
  N240     1.0000 0.51877  0.83445  0.43560  Biso   1.000  N
  C1659    1.0000 0.60701  0.89043  0.37840  Biso   1.000  C
  H2185    1.0000 0.59770  0.84462  0.45679  Biso   1.000  H
  C1660    1.0000 0.08480  0.50343  0.71959  Biso   1.000  C
  C1661    1.0000 0.09330  0.53880  0.82450  Biso   1.000  C
  H2186    1.0000 0.10361  0.58591  0.74762  Biso   1.000  H
  C1662    1.0000 0.41861  0.91520  0.71959  Biso   1.000  C
  C1663    1.0000 0.44550  0.90672  0.82450  Biso   1.000  C
  H2187    1.0000 0.48231  0.89642  0.74762  Biso   1.000  H
  C1664    1.0000 0.18641  0.34519  0.32931  Biso   1.000  C
  H2188    1.0000 0.24478  0.31599  0.33042  Biso   1.000  H
  H2189    1.0000 0.21422  0.30982  0.39338  Biso   1.000  H
  H2190    1.0000 0.14861  0.35562  0.40500  Biso   1.000  H
  H2191    1.0000 0.13982  0.38652  0.34820  Biso   1.000  H
  C1665    1.0000 0.21492  0.51912  0.42469  Biso   1.000  C
  H2192    1.0000 0.69281  0.84471  0.31960  Biso   1.000  H
  H2193    1.0000 0.63313  0.83532  0.29180  Biso   1.000  H
  C1666    1.0000 0.66450  0.89603  0.35862  Biso   1.000  C
  C1667    1.0000 0.50490  0.83450  0.48982  Biso   1.000  C
  H2194    1.0000 0.58262  0.88530  0.34319  Biso   1.000  H
  H2195    1.0000 0.61459  0.92650  0.39893  Biso   1.000  H
  N241     1.0000 0.10312  0.52472  0.65929  Biso   1.000  N
  H2196    1.0000 0.09727  0.47479  0.73019  Biso   1.000  H
  C1668    1.0000 0.01831  0.47470  0.72363  Biso   1.000  C
  C1669    1.0000 0.02631  0.50960  0.82809  Biso   1.000  C
  H2197    1.0000 0.11142  0.57383  0.85013  Biso   1.000  H
  H2198    1.0000 0.10570  0.51151  0.83900  Biso   1.000  H
  N242     1.0000 0.42162  0.89690  0.65929  Biso   1.000  N
  H2199    1.0000 0.37752  0.90273  0.73019  Biso   1.000  H
  C1670    1.0000 0.45643  0.98173  0.72363  Biso   1.000  C
  C1671    1.0000 0.48331  0.97369  0.82809  Biso   1.000  C
  H2200    1.0000 0.46240  0.88860  0.85013  Biso   1.000  H
  H2201    1.0000 0.40579  0.89430  0.83900  Biso   1.000  H
  H2202    1.0000 0.15191  0.30721  0.31960  Biso   1.000  H
  H2203    1.0000 0.20220  0.36692  0.29180  Biso   1.000  H
  C1672    1.0000 0.19098  0.54289  0.46969  Biso   1.000  C
  C1673    1.0000 0.25529  0.56162  0.37880  Biso   1.000  C
  H2204    1.0000 0.68401  0.92880  0.33042  Biso   1.000  H
  H2205    1.0000 0.69022  0.90442  0.39338  Biso   1.000  H
  C1674    1.0000 0.53873  0.83163  0.54219  Biso   1.000  C
  C1675    1.0000 0.44823  0.83232  0.50193  Biso   1.000  C
  C1676    1.0000 0.13210  0.50899  0.62821  Biso   1.000  C
  H2206    1.0000 0.00612  0.50212  0.70891  Biso   1.000  H
  H2207    1.0000 0.00018  0.43980  0.69809  Biso   1.000  H
  C1677    1.0000 0.99769  0.45771  0.78690  Biso   1.000  C
  H2208    1.0000 0.01341  0.49682  0.86933  Biso   1.000  H
  H2209    1.0000 0.01410  0.53802  0.81701  Biso   1.000  H
  C1678    1.0000 0.37690  0.86792  0.62821  Biso   1.000  C
  H2210    1.0000 0.49601  0.99390  0.70891  Biso   1.000  H
  H2211    1.0000 0.43961  0.99981  0.69809  Biso   1.000  H
  C1679    1.0000 0.46001  0.00229  0.78690  Biso   1.000  C
  H2212    1.0000 0.48340  0.98660  0.86933  Biso   1.000  H
  H2213    1.0000 0.52389  0.98591  0.81701  Biso   1.000  H
  C1680    1.0000 0.18901  0.59360  0.45861  Biso   1.000  C
  C1681    1.0000 0.17193  0.51473  0.52490  Biso   1.000  C
  H2214    1.0000 0.28621  0.59612  0.39871  Biso   1.000  H
  H2215    1.0000 0.23329  0.57309  0.35272  Biso   1.000  H
  H2216    1.0000 0.27261  0.54310  0.35530  Biso   1.000  H
  H2217    1.0000 0.55953  0.81142  0.53062  Biso   1.000  H
  H2218    1.0000 0.51180  0.81042  0.57460  Biso   1.000  H
  H2219    1.0000 0.56659  0.87100  0.55531  Biso   1.000  H
  C1682    1.0000 0.40461  0.81103  0.45861  Biso   1.000  C
  C1683    1.0000 0.43879  0.85131  0.55602  Biso   1.000  C
  C1684    1.0000 0.15060  0.53650  0.56839  Biso   1.000  C
  C1685    1.0000 0.15411  0.46840  0.64790  Biso   1.000  C
  H2220    1.0000 0.00690  0.42772  0.80029  Biso   1.000  H
  H2221    1.0000 0.95488  0.44059  0.78841  Biso   1.000  H
  C1686    1.0000 0.38590  0.84940  0.56839  Biso   1.000  C
  C1687    1.0000 0.31431  0.84593  0.64790  Biso   1.000  C
  H2222    1.0000 0.42080  0.99312  0.80029  Biso   1.000  H
  H2223    1.0000 0.48568  0.04505  0.78841  Biso   1.000  H
  C1688    1.0000 0.16772  0.61590  0.50193  Biso   1.000  C
  H2224    1.0000 0.20211  0.61303  0.42158  Biso   1.000  H
  H2225    1.0000 0.17358  0.48039  0.53261  Biso   1.000  H
  C1689    1.0000 0.35190  0.80903  0.46969  Biso   1.000  C
  H2226    1.0000 0.41092  0.79790  0.42158  Biso   1.000  H
  H2227    1.0000 0.46872  0.86600  0.58511  Biso   1.000  H
  C1690    1.0000 0.14871  0.58752  0.55602  Biso   1.000  C
  H2228    1.0000 0.15952  0.47101  0.69099  Biso   1.000  H
  H2229    1.0000 0.19129  0.47992  0.62839  Biso   1.000  H
  H2230    1.0000 0.12573  0.42842  0.63690  Biso   1.000  H
  C1691    1.0000 0.34281  0.82811  0.52490  Biso   1.000  C
  H2231    1.0000 0.31148  0.84049  0.69099  Biso   1.000  H
  H2232    1.0000 0.28859  0.80872  0.62839  Biso   1.000  H
  H2233    1.0000 0.30271  0.87430  0.63690  Biso   1.000  H
  C1692    1.0000 0.16550  0.67040  0.48982  Biso   1.000  C
  C1693    1.0000 0.30423  0.78513  0.42469  Biso   1.000  C
  H2234    1.0000 0.13400  0.60273  0.58511  Biso   1.000  H
  H2235    1.0000 0.30681  0.82641  0.53261  Biso   1.000  H
  N243     1.0000 0.16558  0.68435  0.43560  Biso   1.000  N
  C1694    1.0000 0.16839  0.70712  0.54219  Biso   1.000  C
  N244     1.0000 0.26589  0.80021  0.43001  Biso   1.000  N
  C1695    1.0000 0.30630  0.74471  0.37880  Biso   1.000  C
  C1696    1.0000 0.16131  0.73550  0.42012  Biso   1.000  C
  H2236    1.0000 0.18862  0.74810  0.53062  Biso   1.000  H
  H2237    1.0000 0.18963  0.70143  0.57460  Biso   1.000  H
  H2238    1.0000 0.12898  0.69560  0.55531  Biso   1.000  H
  C1697    1.0000 0.21762  0.78022  0.38899  Biso   1.000  C
  H2239    1.0000 0.30990  0.71381  0.39871  Biso   1.000  H
  H2240    1.0000 0.33980  0.76670  0.35272  Biso   1.000  H
  H2241    1.0000 0.27052  0.72741  0.35530  Biso   1.000  H
  C1698    1.0000 0.10959  0.71659  0.37840  Biso   1.000  C
  H2242    1.0000 0.15540  0.75310  0.45679  Biso   1.000  H
  H2243    1.0000 0.22481  0.76201  0.35370  Biso   1.000  H
  C1699    1.0000 0.21101  0.83180  0.36940  Biso   1.000  C
  C1700    1.0000 0.10402  0.76853  0.35862  Biso   1.000  C
  H2244    1.0000 0.11470  0.69730  0.34319  Biso   1.000  H
  H2245    1.0000 0.07350  0.68813  0.39893  Biso   1.000  H
  H2246    1.0000 0.20700  0.85140  0.40500  Biso   1.000  H
  H2247    1.0000 0.24671  0.86022  0.34820  Biso   1.000  H
  C1701    1.0000 0.15881  0.81359  0.32931  Biso   1.000  C
  H2248    1.0000 0.07122  0.75523  0.33042  Biso   1.000  H
  H2249    1.0000 0.09562  0.78582  0.39338  Biso   1.000  H
  H2250    1.0000 0.15529  0.84810  0.31960  Biso   1.000  H
  H2251    1.0000 0.16470  0.79782  0.29180  Biso   1.000  H
  C1702    1.0000 0.45436  0.48652  0.33565  Biso   1.000  C
  C1703    1.0000 0.50568  0.50034  0.29504  Biso   1.000  C
  H2252    1.0000 0.46537  0.48513  0.37724  Biso   1.000  H
  H2253    1.0000 0.42129  0.44784  0.32532  Biso   1.000  H
  C1704    1.0000 0.43548  0.53224  0.32993  Biso   1.000  C
  C1705    1.0000 0.49145  0.50673  0.23066  Biso   1.000  C
  H2254    1.0000 0.51518  0.46883  0.29783  Biso   1.000  H
  H2255    1.0000 0.54009  0.53693  0.30825  Biso   1.000  H
  H2256    1.0000 0.40127  0.52146  0.35565  Biso   1.000  H
  H2257    1.0000 0.46735  0.57053  0.34306  Biso   1.000  H
  C1706    1.0000 0.41979  0.53615  0.26524  Biso   1.000  C
  C1707    1.0000 0.47246  0.55214  0.22423  Biso   1.000  C
  H2258    1.0000 0.52608  0.51803  0.20565  Biso   1.000  H
  H2259    1.0000 0.45989  0.46875  0.21616  Biso   1.000  H
  N245     1.0000 0.40418  0.58148  0.26067  Biso   1.000  N
  H2260    1.0000 0.38605  0.49804  0.25265  Biso   1.000  H
  N246     1.0000 0.45367  0.55084  0.16375  Biso   1.000  N
  H2261    1.0000 0.50527  0.59165  0.23425  Biso   1.000  H
  C1708    1.0000 0.35576  0.57022  0.23935  Biso   1.000  C
  C1709    1.0000 0.47706  0.59612  0.13071  Biso   1.000  C
  C1710    1.0000 0.34297  0.61924  0.23722  Biso   1.000  C
  C1711    1.0000 0.30878  0.51255  0.21443  Biso   1.000  C
  C1712    1.0000 0.45047  0.59043  0.07046  Biso   1.000  C
  C1713    1.0000 0.52129  0.65636  0.15173  Biso   1.000  C
  C1714    1.0000 0.53637  0.64345  0.13555  Biso   1.000  C
  C1715    1.0000 0.38997  0.67696  0.23735  Biso   1.000  C
  C1716    1.0000 0.28695  0.61003  0.23735  Biso   1.000  C
  H2262    1.0000 0.32699  0.49426  0.19195  Biso   1.000  H
  H2263    1.0000 0.28326  0.51925  0.18822  Biso   1.000  H
  H2264    1.0000 0.28609  0.48704  0.24715  Biso   1.000  H
  C1717    1.0000 0.39596  0.54224  0.05853  Biso   1.000  C
  C1718    1.0000 0.47636  0.63363  0.02731  Biso   1.000  C
  H2265    1.0000 0.52398  0.65653  0.19505  Biso   1.000  H
  H2266    1.0000 0.50916  0.68404  0.13923  Biso   1.000  H
  H2267    1.0000 0.55928  0.66753  0.13444  Biso   1.000  H
  H2268    1.0000 0.55227  0.64176  0.17426  Biso   1.000  H
  H2269    1.0000 0.53720  0.68056  0.13156  Biso   1.000  H
  H2270    1.0000 0.55989  0.64006  0.10393  Biso   1.000  H
  H2271    1.0000 0.42858  0.68365  0.23744  Biso   1.000  H
  C1719    1.0000 0.38077  0.72376  0.23722  Biso   1.000  C
  C1720    1.0000 0.27629  0.65705  0.23722  Biso   1.000  C
  H2272    1.0000 0.25508  0.57144  0.23744  Biso   1.000  H
  C1721    1.0000 0.36748  0.53685  0.00492  Biso   1.000  C
  H2273    1.0000 0.37799  0.51255  0.08753  Biso   1.000  H
  H2274    1.0000 0.51369  0.66644  0.03463  Biso   1.000  H
  C1722    1.0000 0.44805  0.62933  0.97344  Biso   1.000  C
  C1723    1.0000 0.42978  0.78556  0.23935  Biso   1.000  C
  C1724    1.0000 0.32306  0.71303  0.23735  Biso   1.000  C
  C1725    1.0000 0.21448  0.64423  0.23935  Biso   1.000  C
  C1726    1.0000 0.30896  0.48513  0.99233  Biso   1.000  C
  C1727    1.0000 0.39428  0.58065  0.96262  Biso   1.000  C
  C1728    1.0000 0.47497  0.67896  0.92963  Biso   1.000  C
  N247     1.0000 0.41855  0.82272  0.26067  Biso   1.000  N
  C1729    1.0000 0.48748  0.79625  0.21443  Biso   1.000  C
  H2275    1.0000 0.31635  0.74493  0.23744  Biso   1.000  H
  N248     1.0000 0.17729  0.59582  0.26067  Biso   1.000  N
  C1730    1.0000 0.20378  0.69126  0.21443  Biso   1.000  C
  C1731    1.0000 0.27126  0.45454  0.04514  Biso   1.000  C
  N249     1.0000 0.29468  0.47253  0.93854  Biso   1.000  N
  H2276    1.0000 0.37536  0.57713  0.92582  Biso   1.000  H
  N250     1.0000 0.52966  0.71225  0.93251  Biso   1.000  N
  C1732    1.0000 0.43347  0.68304  0.88724  Biso   1.000  C
  C1733    1.0000 0.46388  0.88365  0.26524  Biso   1.000  C
  H2277    1.0000 0.50577  0.83276  0.19195  Biso   1.000  H
  H2278    1.0000 0.48078  0.76405  0.18822  Biso   1.000  H
  H2279    1.0000 0.51295  0.79903  0.24715  Biso   1.000  H
  C1734    1.0000 0.11636  0.58026  0.26524  Biso   1.000  C
  H2280    1.0000 0.16727  0.67305  0.19195  Biso   1.000  H
  H2281    1.0000 0.23597  0.71672  0.18822  Biso   1.000  H
  H2282    1.0000 0.20097  0.71394  0.24715  Biso   1.000  H
  H2283    1.0000 0.23075  0.44224  0.03574  Biso   1.000  H
  H2284    1.0000 0.28396  0.48113  0.07915  Biso   1.000  H
  H2285    1.0000 0.27464  0.42042  0.05494  Biso   1.000  H
  C1735    1.0000 0.23979  0.42185  0.92183  Biso   1.000  C
  C1736    1.0000 0.56047  0.76083  0.89052  Biso   1.000  C
  H2286    1.0000 0.45305  0.72094  0.86733  Biso   1.000  H
  H2287    1.0000 0.39977  0.67896  0.90915  Biso   1.000  H
  H2288    1.0000 0.42050  0.65206  0.85762  Biso   1.000  H
  C1737    1.0000 0.44786  0.92033  0.22423  Biso   1.000  C
  C1738    1.0000 0.46777  0.90325  0.32993  Biso   1.000  C
  H2289    1.0000 0.50198  0.88804  0.25265  Biso   1.000  H
  C1739    1.0000 0.07966  0.52755  0.22423  Biso   1.000  C
  C1740    1.0000 0.09675  0.56453  0.32993  Biso   1.000  C
  H2290    1.0000 0.11198  0.61394  0.25265  Biso   1.000  H
  C1741    1.0000 0.20039  0.43954  0.89052  Biso   1.000  C
  C1742    1.0000 0.25406  0.38505  0.87935  Biso   1.000  C
  H2291    1.0000 0.21976  0.39843  0.95792  Biso   1.000  H
  H2292    1.0000 0.53478  0.75597  0.85612  Biso   1.000  H
  C1743    1.0000 0.61446  0.76005  0.86915  Biso   1.000  C
  C1744    1.0000 0.57818  0.81794  0.92183  Biso   1.000  C
  N251     1.0000 0.44917  0.90286  0.16375  Biso   1.000  N
  H2293    1.0000 0.40838  0.91363  0.23425  Biso   1.000  H
  C1745    1.0000 0.49327  0.98473  0.23066  Biso   1.000  C
  C1746    1.0000 0.51346  0.96783  0.33565  Biso   1.000  C
  H2294    1.0000 0.47859  0.87987  0.35565  Biso   1.000  H
  H2295    1.0000 0.42946  0.89686  0.34306  Biso   1.000  H
  N252     1.0000 0.09717  0.54632  0.16375  Biso   1.000  N
  H2296    1.0000 0.08636  0.49474  0.23425  Biso   1.000  H
  C1747    1.0000 0.01529  0.50855  0.23066  Biso   1.000  C
  C1748    1.0000 0.03217  0.54563  0.33565  Biso   1.000  C
  H2297    1.0000 0.12018  0.59873  0.35565  Biso   1.000  H
  H2298    1.0000 0.10316  0.53263  0.34306  Biso   1.000  H
  N253     1.0000 0.18256  0.47035  0.93251  Biso   1.000  N
  H2299    1.0000 0.22117  0.46523  0.85612  Biso   1.000  H
  C1749    1.0000 0.14557  0.38552  0.86915  Biso   1.000  C
  C1750    1.0000 0.19807  0.33246  0.85612  Biso   1.000  C
  H2300    1.0000 0.27716  0.40934  0.84552  Biso   1.000  H
  H2301    1.0000 0.27767  0.37144  0.90055  Biso   1.000  H
  H2302    1.0000 0.60289  0.72246  0.84964  Biso   1.000  H
  H2303    1.0000 0.63946  0.76414  0.90343  Biso   1.000  H
  C1751    1.0000 0.64859  0.80994  0.82512  Biso   1.000  C
  N254     1.0000 0.52749  0.82215  0.93854  Biso   1.000  N
  C1752    1.0000 0.61499  0.86905  0.87935  Biso   1.000  C
  H2304    1.0000 0.60156  0.82133  0.95792  Biso   1.000  H
  C1753    1.0000 0.40389  0.88095  0.13071  Biso   1.000  C
  H2305    1.0000 0.53130  0.99117  0.21616  Biso   1.000  H
  H2306    1.0000 0.48194  0.00798  0.20565  Biso   1.000  H
  C1754    1.0000 0.49963  0.00529  0.29504  Biso   1.000  C
  H2307    1.0000 0.51489  0.98026  0.37724  Biso   1.000  H
  H2308    1.0000 0.55217  0.97343  0.32532  Biso   1.000  H
  C1755    1.0000 0.11905  0.52294  0.13071  Biso   1.000  C
  H2309    1.0000 0.00888  0.54015  0.21616  Biso   1.000  H
  H2310    1.0000 0.99197  0.47396  0.20565  Biso   1.000  H
  C1756    1.0000 0.99467  0.49434  0.29504  Biso   1.000  C
  H2311    1.0000 0.01974  0.53463  0.37724  Biso   1.000  H
  H2312    1.0000 0.02656  0.57874  0.32532  Biso   1.000  H
  C1757    1.0000 0.20395  0.52503  0.92963  Biso   1.000  C
  H2313    1.0000 0.11956  0.39713  0.84964  Biso   1.000  H
  H2314    1.0000 0.12468  0.36053  0.90343  Biso   1.000  H
  C1758    1.0000 0.16139  0.35145  0.82512  Biso   1.000  C
  H2315    1.0000 0.20805  0.30982  0.82854  Biso   1.000  H
  H2316    1.0000 0.17607  0.30682  0.88973  Biso   1.000  H
  H2317    1.0000 0.68279  0.80833  0.81014  Biso   1.000  H
  H2318    1.0000 0.62357  0.80633  0.79094  Biso   1.000  H
  C1759    1.0000 0.66757  0.86566  0.85612  Biso   1.000  C
  C1760    1.0000 0.51486  0.82385  0.99233  Biso   1.000  C
  H2319    1.0000 0.59067  0.86783  0.84552  Biso   1.000  H
  H2320    1.0000 0.62858  0.90625  0.90055  Biso   1.000  H
  C1761    1.0000 0.40959  0.86005  0.07046  Biso   1.000  C
  C1762    1.0000 0.34370  0.86496  0.15173  Biso   1.000  C
  C1763    1.0000 0.35656  0.89295  0.13555  Biso   1.000  C
  H2321    1.0000 0.53117  0.04631  0.29783  Biso   1.000  H
  H2322    1.0000 0.46306  0.00312  0.30825  Biso   1.000  H
  C1764    1.0000 0.13995  0.54954  0.07046  Biso   1.000  C
  C1765    1.0000 0.13508  0.47874  0.15173  Biso   1.000  C
  C1766    1.0000 0.10707  0.46366  0.13555  Biso   1.000  C
  H2323    1.0000 0.95367  0.48483  0.29783  Biso   1.000  H
  H2324    1.0000 0.99684  0.45992  0.30825  Biso   1.000  H
  C1767    1.0000 0.18127  0.55193  0.97344  Biso   1.000  C
  C1768    1.0000 0.24958  0.56653  0.88724  Biso   1.000  C
  H2325    1.0000 0.12558  0.31725  0.81014  Biso   1.000  H
  H2326    1.0000 0.18276  0.37644  0.79094  Biso   1.000  H
  H2327    1.0000 0.69019  0.89825  0.82854  Biso   1.000  H
  H2328    1.0000 0.69319  0.86926  0.88973  Biso   1.000  H
  C1769    1.0000 0.54549  0.81676  0.04514  Biso   1.000  C
  C1770    1.0000 0.46315  0.83063  0.00492  Biso   1.000  C
  C1771    1.0000 0.45777  0.85375  0.05853  Biso   1.000  C
  C1772    1.0000 0.36639  0.84275  0.02731  Biso   1.000  C
  H2329    1.0000 0.34347  0.86744  0.19505  Biso   1.000  H
  H2330    1.0000 0.31596  0.82515  0.13923  Biso   1.000  H
  H2331    1.0000 0.33247  0.89173  0.13444  Biso   1.000  H
  H2332    1.0000 0.35829  0.91055  0.17426  Biso   1.000  H
  H2333    1.0000 0.31949  0.85666  0.13156  Biso   1.000  H
  H2334    1.0000 0.35996  0.91985  0.10393  Biso   1.000  H
  C1773    1.0000 0.14628  0.60403  0.05853  Biso   1.000  C
  C1774    1.0000 0.15726  0.52364  0.02731  Biso   1.000  C
  H2335    1.0000 0.13257  0.47605  0.19505  Biso   1.000  H
  H2336    1.0000 0.17484  0.49082  0.13923  Biso   1.000  H
  H2337    1.0000 0.10826  0.44076  0.13444  Biso   1.000  H
  H2338    1.0000 0.08948  0.44776  0.17426  Biso   1.000  H
  H2339    1.0000 0.14335  0.46284  0.13156  Biso   1.000  H
  H2340    1.0000 0.08018  0.44015  0.10393  Biso   1.000  H
  C1775    1.0000 0.18638  0.60573  0.96262  Biso   1.000  C
  H2341    1.0000 0.26786  0.54693  0.86733  Biso   1.000  H
  H2342    1.0000 0.27916  0.60025  0.90915  Biso   1.000  H
  H2343    1.0000 0.23158  0.57952  0.85762  Biso   1.000  H
  H2344    1.0000 0.55777  0.78856  0.03574  Biso   1.000  H
  H2345    1.0000 0.51889  0.80286  0.07915  Biso   1.000  H
  H2346    1.0000 0.57958  0.85423  0.05494  Biso   1.000  H
  C1776    1.0000 0.41935  0.81364  0.96262  Biso   1.000  C
  H2347    1.0000 0.48748  0.86544  0.08753  Biso   1.000  H
  H2348    1.0000 0.33355  0.84723  0.03463  Biso   1.000  H
  C1777    1.0000 0.37069  0.81876  0.97344  Biso   1.000  C
  C1778    1.0000 0.16938  0.63254  0.00492  Biso   1.000  C
  H2349    1.0000 0.13457  0.62203  0.08753  Biso   1.000  H
  H2350    1.0000 0.15277  0.48635  0.03463  Biso   1.000  H
  H2351    1.0000 0.20178  0.62463  0.92582  Biso   1.000  H
  H2352    1.0000 0.42287  0.79825  0.92582  Biso   1.000  H
  C1779    1.0000 0.32105  0.79603  0.92963  Biso   1.000  C
  C1780    1.0000 0.17616  0.69104  0.99233  Biso   1.000  C
  N255     1.0000 0.28777  0.81746  0.93251  Biso   1.000  N
  C1781    1.0000 0.31696  0.75045  0.88724  Biso   1.000  C
  C1782    1.0000 0.18327  0.72876  0.04514  Biso   1.000  C
  N256     1.0000 0.17785  0.70534  0.93854  Biso   1.000  N
  C1783    1.0000 0.23915  0.79964  0.89052  Biso   1.000  C
  H2353    1.0000 0.27906  0.73215  0.86733  Biso   1.000  H
  H2354    1.0000 0.32106  0.72085  0.90915  Biso   1.000  H
  H2355    1.0000 0.34798  0.76844  0.85762  Biso   1.000  H
  H2356    1.0000 0.21147  0.76926  0.03574  Biso   1.000  H
  H2357    1.0000 0.19716  0.71603  0.07915  Biso   1.000  H
  H2358    1.0000 0.14576  0.72533  0.05494  Biso   1.000  H
  C1784    1.0000 0.18207  0.76022  0.92183  Biso   1.000  C
  H2359    1.0000 0.24406  0.77883  0.85612  Biso   1.000  H
  C1785    1.0000 0.23998  0.85444  0.86915  Biso   1.000  C
  C1786    1.0000 0.13096  0.74593  0.87935  Biso   1.000  C
  H2360    1.0000 0.17869  0.78026  0.95792  Biso   1.000  H
  H2361    1.0000 0.27755  0.88043  0.84964  Biso   1.000  H
  H2362    1.0000 0.23587  0.87535  0.90343  Biso   1.000  H
  C1787    1.0000 0.19007  0.83862  0.82512  Biso   1.000  C
  C1788    1.0000 0.13436  0.80195  0.85612  Biso   1.000  C
  H2363    1.0000 0.13218  0.72285  0.84552  Biso   1.000  H
  H2364    1.0000 0.09376  0.72233  0.90055  Biso   1.000  H
  H2365    1.0000 0.19168  0.87443  0.81014  Biso   1.000  H
  H2366    1.0000 0.19368  0.81724  0.79094  Biso   1.000  H
  H2367    1.0000 0.10177  0.79195  0.82854  Biso   1.000  H
  H2368    1.0000 0.13075  0.82394  0.88973  Biso   1.000  H
