data_image0
_cell_length_a       17.844
_cell_length_b       28.448
_cell_length_c       13.389
_cell_angle_alpha    90
_cell_angle_beta     90
_cell_angle_gamma    90

_symmetry_space_group_name_H-M    "P 1"
_symmetry_int_tables_number       1

loop_
  _symmetry_equiv_pos_as_xyz
  'x, y, z'

loop_
  _atom_site_label
  _atom_site_occupancy
  _atom_site_fract_x
  _atom_site_fract_y
  _atom_site_fract_z
  _atom_site_thermal_displace_type
  _atom_site_B_iso_or_equiv
  _atom_site_type_symbol
  C1       1.0000 0.36270  0.53009  0.62073  Biso   1.000  C
  N1       1.0000 0.43779  0.52359  0.66009  Biso   1.000  N
  H1       1.0000 0.33350  0.50228  0.63537  Biso   1.000  H
  H2       1.0000 0.36589  0.53301  0.54858  Biso   1.000  H
  N2       1.0000 0.32353  0.57055  0.65927  Biso   1.000  N
  C2       1.0000 0.45522  0.49880  0.75002  Biso   1.000  C
  C3       1.0000 0.50000  0.53642  0.60781  Biso   1.000  C
  C4       1.0000 0.31512  0.61189  0.60721  Biso   1.000  C
  C5       1.0000 0.28121  0.56921  0.75002  Biso   1.000  C
  C6       1.0000 0.43068  0.44569  0.75002  Biso   1.000  C
  C7       1.0000 0.54478  0.49880  0.75002  Biso   1.000  C
  N3       1.0000 0.43779  0.52359  0.83994  Biso   1.000  N
  N4       1.0000 0.56221  0.52359  0.66009  Biso   1.000  N
  O1       1.0000 0.50000  0.55572  0.52618  Biso   1.000  O
  N5       1.0000 0.27062  0.64142  0.65942  Biso   1.000  N
  O2       1.0000 0.34292  0.61962  0.52409  Biso   1.000  O
  N6       1.0000 0.32353  0.57055  0.84069  Biso   1.000  N
  H3       1.0000 0.24462  0.54348  0.75002  Biso   1.000  H
  C8       1.0000 0.24098  0.62011  0.75002  Biso   1.000  C
  H4       1.0000 0.40092  0.43891  0.69124  Biso   1.000  H
  C9       1.0000 0.50000  0.41641  0.75002  Biso   1.000  C
  H5       1.0000 0.40092  0.43891  0.80880  Biso   1.000  H
  C10      1.0000 0.56932  0.44569  0.75002  Biso   1.000  C
  N7       1.0000 0.56221  0.52359  0.83994  Biso   1.000  N
  C11      1.0000 0.50000  0.53642  0.89222  Biso   1.000  C
  C12      1.0000 0.36270  0.53009  0.87930  Biso   1.000  C
  C13      1.0000 0.63730  0.53009  0.62073  Biso   1.000  C
  C14      1.0000 0.24030  0.68321  0.61551  Biso   1.000  C
  C15      1.0000 0.31512  0.61189  0.89282  Biso   1.000  C
  N8       1.0000 0.27062  0.64142  0.84062  Biso   1.000  N
  H6       1.0000 0.18623  0.61790  0.75002  Biso   1.000  H
  H7       1.0000 0.50000  0.39630  0.69139  Biso   1.000  H
  H8       1.0000 0.50000  0.39630  0.80857  Biso   1.000  H
  H9       1.0000 0.59908  0.43891  0.80880  Biso   1.000  H
  H10      1.0000 0.59908  0.43891  0.69124  Biso   1.000  H
  C16      1.0000 0.63730  0.53009  0.87930  Biso   1.000  C
  O3       1.0000 0.50000  0.55572  0.97378  Biso   1.000  O
  H11      1.0000 0.33350  0.50228  0.86459  Biso   1.000  H
  H12      1.0000 0.36589  0.53301  0.95138  Biso   1.000  H
  H13      1.0000 0.66650  0.50228  0.63537  Biso   1.000  H
  H14      1.0000 0.63411  0.53301  0.54858  Biso   1.000  H
  N9       1.0000 0.67647  0.57055  0.65927  Biso   1.000  N
  H15      1.0000 0.25219  0.68332  0.54478  Biso   1.000  H
  H16      1.0000 0.18611  0.68240  0.62170  Biso   1.000  H
  N10      1.0000 0.26782  0.72680  0.65987  Biso   1.000  N
  O4       1.0000 0.34292  0.61962  0.97588  Biso   1.000  O
  C17      1.0000 0.24030  0.68321  0.88453  Biso   1.000  C
  H17      1.0000 0.66650  0.50228  0.86459  Biso   1.000  H
  H18      1.0000 0.63411  0.53301  0.95138  Biso   1.000  H
  N11      1.0000 0.67647  0.57055  0.84069  Biso   1.000  N
  C18      1.0000 0.71879  0.56921  0.75002  Biso   1.000  C
  C19      1.0000 0.68488  0.61189  0.60721  Biso   1.000  C
  C20      1.0000 0.31568  0.75520  0.60572  Biso   1.000  C
  C21      1.0000 0.23902  0.74779  0.75002  Biso   1.000  C
  H19      1.0000 0.25219  0.68332  0.95519  Biso   1.000  H
  H20      1.0000 0.18611  0.68240  0.87833  Biso   1.000  H
  N12      1.0000 0.26782  0.72680  0.84009  Biso   1.000  N
  C22      1.0000 0.68488  0.61189  0.89282  Biso   1.000  C
  H21      1.0000 0.75538  0.54348  0.75002  Biso   1.000  H
  C23      1.0000 0.75902  0.62011  0.75002  Biso   1.000  C
  N13      1.0000 0.72938  0.64142  0.65942  Biso   1.000  N
  O5       1.0000 0.65708  0.61962  0.52409  Biso   1.000  O
  N14      1.0000 0.32218  0.79633  0.65838  Biso   1.000  N
  O6       1.0000 0.34292  0.74687  0.52610  Biso   1.000  O
  C24      1.0000 0.27668  0.79731  0.75002  Biso   1.000  C
  C25      1.0000 0.15221  0.75591  0.75002  Biso   1.000  C
  C26      1.0000 0.31568  0.75520  0.89432  Biso   1.000  C
  N15      1.0000 0.72938  0.64142  0.84062  Biso   1.000  N
  O7       1.0000 0.65708  0.61962  0.97588  Biso   1.000  O
  H22      1.0000 0.81377  0.61790  0.75002  Biso   1.000  H
  C27      1.0000 0.75970  0.68321  0.61551  Biso   1.000  C
  C28      1.0000 0.36270  0.83700  0.62021  Biso   1.000  C
  N16      1.0000 0.32218  0.79633  0.84159  Biso   1.000  N
  C29      1.0000 0.21172  0.83370  0.75002  Biso   1.000  C
  C30      1.0000 0.14128  0.80751  0.78303  Biso   1.000  C
  C31      1.0000 0.14128  0.80751  0.71701  Biso   1.000  C
  O8       1.0000 0.34292  0.74687  0.97393  Biso   1.000  O
  C32      1.0000 0.75970  0.68321  0.88453  Biso   1.000  C
  H23      1.0000 0.74781  0.68332  0.54478  Biso   1.000  H
  H24      1.0000 0.81389  0.68240  0.62170  Biso   1.000  H
  N17      1.0000 0.73218  0.72680  0.65987  Biso   1.000  N
  H25      1.0000 0.36550  0.83461  0.54799  Biso   1.000  H
  H26      1.0000 0.33440  0.86509  0.63612  Biso   1.000  H
  N18      1.0000 0.43841  0.84213  0.65950  Biso   1.000  N
  C33      1.0000 0.36270  0.83700  0.87983  Biso   1.000  C
  H27      1.0000 0.74781  0.68332  0.95519  Biso   1.000  H
  H28      1.0000 0.81389  0.68240  0.87833  Biso   1.000  H
  N19      1.0000 0.73218  0.72680  0.84009  Biso   1.000  N
  C34      1.0000 0.76098  0.74779  0.75002  Biso   1.000  C
  C35      1.0000 0.68432  0.75520  0.60572  Biso   1.000  C
  C36      1.0000 0.45629  0.86741  0.75002  Biso   1.000  C
  C37      1.0000 0.50000  0.82958  0.60512  Biso   1.000  C
  H29      1.0000 0.36550  0.83461  0.95198  Biso   1.000  H
  H30      1.0000 0.33440  0.86509  0.86392  Biso   1.000  H
  N20      1.0000 0.43841  0.84213  0.84054  Biso   1.000  N
  C38      1.0000 0.68432  0.75520  0.89432  Biso   1.000  C
  C39      1.0000 0.72332  0.79731  0.75002  Biso   1.000  C
  C40      1.0000 0.84779  0.75591  0.75002  Biso   1.000  C
  N21      1.0000 0.67782  0.79633  0.65838  Biso   1.000  N
  O9       1.0000 0.65708  0.74687  0.52610  Biso   1.000  O
  H31      1.0000 0.43561  0.89929  0.75002  Biso   1.000  H
  C41      1.0000 0.54371  0.86741  0.75002  Biso   1.000  C
  N22      1.0000 0.56159  0.84213  0.65950  Biso   1.000  N
  O10      1.0000 0.50000  0.81141  0.52334  Biso   1.000  O
  C42      1.0000 0.50000  0.82958  0.89491  Biso   1.000  C
  N23      1.0000 0.67782  0.79633  0.84159  Biso   1.000  N
  O11      1.0000 0.65708  0.74687  0.97393  Biso   1.000  O
  C43      1.0000 0.78828  0.83370  0.75002  Biso   1.000  C
  C44      1.0000 0.85872  0.80751  0.78303  Biso   1.000  C
  C45      1.0000 0.85872  0.80751  0.71701  Biso   1.000  C
  C46      1.0000 0.63730  0.83700  0.62021  Biso   1.000  C
  N24      1.0000 0.56159  0.84213  0.84054  Biso   1.000  N
  H32      1.0000 0.56439  0.89929  0.75002  Biso   1.000  H
  O12      1.0000 0.50000  0.81141  0.97670  Biso   1.000  O
  C47      1.0000 0.63730  0.83700  0.87983  Biso   1.000  C
  H33      1.0000 0.63450  0.83461  0.54799  Biso   1.000  H
  H34      1.0000 0.66560  0.86509  0.63612  Biso   1.000  H
  H35      1.0000 0.63450  0.83461  0.95198  Biso   1.000  H
  H36      1.0000 0.66560  0.86509  0.86392  Biso   1.000  H
  C48      1.0000 0.36270  0.46991  0.37927  Biso   1.000  C
  N25      1.0000 0.32353  0.42945  0.34073  Biso   1.000  N
  H37      1.0000 0.33350  0.49772  0.36463  Biso   1.000  H
  H38      1.0000 0.36589  0.46699  0.45142  Biso   1.000  H
  N26      1.0000 0.43779  0.47641  0.33991  Biso   1.000  N
  C49      1.0000 0.31512  0.38811  0.39279  Biso   1.000  C
  C50      1.0000 0.28121  0.43079  0.24998  Biso   1.000  C
  C51      1.0000 0.45522  0.50120  0.24998  Biso   1.000  C
  C52      1.0000 0.50000  0.46358  0.39219  Biso   1.000  C
  N27      1.0000 0.27062  0.35858  0.34058  Biso   1.000  N
  O13      1.0000 0.34292  0.38038  0.47591  Biso   1.000  O
  C53      1.0000 0.24098  0.37989  0.24998  Biso   1.000  C
  N28      1.0000 0.32353  0.42945  0.15931  Biso   1.000  N
  H39      1.0000 0.24462  0.45652  0.24998  Biso   1.000  H
  N29      1.0000 0.43779  0.47641  0.16013  Biso   1.000  N
  C54      1.0000 0.54478  0.50120  0.24998  Biso   1.000  C
  C55      1.0000 0.43068  0.55431  0.24998  Biso   1.000  C
  N30      1.0000 0.56221  0.47641  0.33991  Biso   1.000  N
  O14      1.0000 0.50000  0.44428  0.47382  Biso   1.000  O
  C56      1.0000 0.24030  0.31679  0.38449  Biso   1.000  C
  N31      1.0000 0.27062  0.35858  0.15938  Biso   1.000  N
  H40      1.0000 0.18623  0.38210  0.24998  Biso   1.000  H
  C57      1.0000 0.31512  0.38811  0.10718  Biso   1.000  C
  C58      1.0000 0.36270  0.46991  0.12070  Biso   1.000  C
  C59      1.0000 0.50000  0.46358  0.10778  Biso   1.000  C
  N32      1.0000 0.56221  0.47641  0.16013  Biso   1.000  N
  C60      1.0000 0.56932  0.55431  0.24998  Biso   1.000  C
  C61      1.0000 0.50000  0.58359  0.24998  Biso   1.000  C
  H41      1.0000 0.40092  0.56109  0.30884  Biso   1.000  H
  H42      1.0000 0.40092  0.56109  0.19120  Biso   1.000  H
  C62      1.0000 0.63730  0.46991  0.37927  Biso   1.000  C
  N33      1.0000 0.26782  0.27320  0.34013  Biso   1.000  N
  H43      1.0000 0.25219  0.31668  0.45522  Biso   1.000  H
  H44      1.0000 0.18611  0.31760  0.37830  Biso   1.000  H
  C63      1.0000 0.24030  0.31679  0.11547  Biso   1.000  C
  O15      1.0000 0.34292  0.38038  0.02412  Biso   1.000  O
  H45      1.0000 0.33350  0.49772  0.13541  Biso   1.000  H
  H46      1.0000 0.36589  0.46699  0.04862  Biso   1.000  H
  O16      1.0000 0.50000  0.44428  0.02622  Biso   1.000  O
  C64      1.0000 0.63730  0.46991  0.12070  Biso   1.000  C
  H47      1.0000 0.59908  0.56109  0.19120  Biso   1.000  H
  H48      1.0000 0.59908  0.56109  0.30884  Biso   1.000  H
  H49      1.0000 0.50000  0.60370  0.19143  Biso   1.000  H
  H50      1.0000 0.50000  0.60370  0.30861  Biso   1.000  H
  H51      1.0000 0.66650  0.49772  0.36463  Biso   1.000  H
  H52      1.0000 0.63411  0.46699  0.45142  Biso   1.000  H
  N34      1.0000 0.67647  0.42945  0.34073  Biso   1.000  N
  C65      1.0000 0.23902  0.25221  0.24998  Biso   1.000  C
  C66      1.0000 0.31568  0.24480  0.39428  Biso   1.000  C
  N35      1.0000 0.26782  0.27320  0.15991  Biso   1.000  N
  H53      1.0000 0.25219  0.31668  0.04481  Biso   1.000  H
  H54      1.0000 0.18611  0.31760  0.12167  Biso   1.000  H
  H55      1.0000 0.66650  0.49772  0.13541  Biso   1.000  H
  H56      1.0000 0.63411  0.46699  0.04862  Biso   1.000  H
  N36      1.0000 0.67647  0.42945  0.15931  Biso   1.000  N
  C67      1.0000 0.71879  0.43079  0.24998  Biso   1.000  C
  C68      1.0000 0.68488  0.38811  0.39279  Biso   1.000  C
  C69      1.0000 0.27668  0.20269  0.24998  Biso   1.000  C
  C70      1.0000 0.15221  0.24409  0.24998  Biso   1.000  C
  N37      1.0000 0.32218  0.20367  0.34162  Biso   1.000  N
  O17      1.0000 0.34292  0.25313  0.47390  Biso   1.000  O
  C71      1.0000 0.31568  0.24480  0.10568  Biso   1.000  C
  C72      1.0000 0.68488  0.38811  0.10718  Biso   1.000  C
  C73      1.0000 0.75902  0.37989  0.24998  Biso   1.000  C
  H57      1.0000 0.75538  0.45652  0.24998  Biso   1.000  H
  N38      1.0000 0.72938  0.35858  0.34058  Biso   1.000  N
  O18      1.0000 0.65708  0.38038  0.47591  Biso   1.000  O
  C74      1.0000 0.21172  0.16630  0.24998  Biso   1.000  C
  N39      1.0000 0.32218  0.20367  0.15841  Biso   1.000  N
  C75      1.0000 0.14128  0.19249  0.28299  Biso   1.000  C
  C76      1.0000 0.14128  0.19249  0.21697  Biso   1.000  C
  C77      1.0000 0.36270  0.16300  0.37979  Biso   1.000  C
  O19      1.0000 0.34292  0.25313  0.02607  Biso   1.000  O
  N40      1.0000 0.72938  0.35858  0.15938  Biso   1.000  N
  O20      1.0000 0.65708  0.38038  0.02412  Biso   1.000  O
  H58      1.0000 0.81377  0.38210  0.24998  Biso   1.000  H
  C78      1.0000 0.75970  0.31679  0.38449  Biso   1.000  C
  C79      1.0000 0.36270  0.16300  0.12017  Biso   1.000  C
  H59      1.0000 0.36550  0.16539  0.45201  Biso   1.000  H
  H60      1.0000 0.33440  0.13491  0.36388  Biso   1.000  H
  N41      1.0000 0.43841  0.15787  0.34050  Biso   1.000  N
  C80      1.0000 0.75970  0.31679  0.11547  Biso   1.000  C
  N42      1.0000 0.73218  0.27320  0.34013  Biso   1.000  N
  H61      1.0000 0.74781  0.31668  0.45522  Biso   1.000  H
  H62      1.0000 0.81389  0.31760  0.37830  Biso   1.000  H
  H63      1.0000 0.36550  0.16539  0.04802  Biso   1.000  H
  H64      1.0000 0.33440  0.13491  0.13608  Biso   1.000  H
  N43      1.0000 0.43841  0.15787  0.15953  Biso   1.000  N
  C81      1.0000 0.45629  0.13259  0.24998  Biso   1.000  C
  C82      1.0000 0.50000  0.17042  0.39488  Biso   1.000  C
  N44      1.0000 0.73218  0.27320  0.15991  Biso   1.000  N
  H65      1.0000 0.74781  0.31668  0.04481  Biso   1.000  H
  H66      1.0000 0.81389  0.31760  0.12167  Biso   1.000  H
  C83      1.0000 0.68432  0.24480  0.39428  Biso   1.000  C
  C84      1.0000 0.76098  0.25221  0.24998  Biso   1.000  C
  C85      1.0000 0.50000  0.17042  0.10509  Biso   1.000  C
  C86      1.0000 0.54371  0.13259  0.24998  Biso   1.000  C
  H67      1.0000 0.43561  0.10071  0.24998  Biso   1.000  H
  N45      1.0000 0.56159  0.15787  0.34050  Biso   1.000  N
  O21      1.0000 0.50000  0.18859  0.47673  Biso   1.000  O
  C87      1.0000 0.68432  0.24480  0.10568  Biso   1.000  C
  N46      1.0000 0.67782  0.20367  0.34162  Biso   1.000  N
  O22      1.0000 0.65708  0.25313  0.47390  Biso   1.000  O
  C88      1.0000 0.72332  0.20269  0.24998  Biso   1.000  C
  C89      1.0000 0.84779  0.24409  0.24998  Biso   1.000  C
  N47      1.0000 0.56159  0.15787  0.15953  Biso   1.000  N
  O23      1.0000 0.50000  0.18859  0.02330  Biso   1.000  O
  H68      1.0000 0.56439  0.10071  0.24998  Biso   1.000  H
  C90      1.0000 0.63730  0.16300  0.37979  Biso   1.000  C
  N48      1.0000 0.67782  0.20367  0.15841  Biso   1.000  N
  O24      1.0000 0.65708  0.25313  0.02607  Biso   1.000  O
  C91      1.0000 0.78828  0.16630  0.24998  Biso   1.000  C
  C92      1.0000 0.85872  0.19249  0.28299  Biso   1.000  C
  C93      1.0000 0.85872  0.19249  0.21697  Biso   1.000  C
  C94      1.0000 0.63730  0.16300  0.12017  Biso   1.000  C
  H69      1.0000 0.63450  0.16539  0.45201  Biso   1.000  H
  H70      1.0000 0.66560  0.13491  0.36388  Biso   1.000  H
  H71      1.0000 0.63450  0.16539  0.04802  Biso   1.000  H
  H72      1.0000 0.66560  0.13491  0.13608  Biso   1.000  H
  C95      1.0000 0.13730  0.33700  0.62021  Biso   1.000  C
  N49      1.0000 0.17782  0.29633  0.65838  Biso   1.000  N
  H73      1.0000 0.13450  0.33461  0.54799  Biso   1.000  H
  H74      1.0000 0.16560  0.36509  0.63612  Biso   1.000  H
  N50      1.0000 0.06159  0.34213  0.65950  Biso   1.000  N
  C96      1.0000 0.18432  0.25520  0.60572  Biso   1.000  C
  C97      1.0000 0.22332  0.29731  0.75002  Biso   1.000  C
  C98      1.0000 0.00000  0.32958  0.60512  Biso   1.000  C
  C99      1.0000 0.04371  0.36741  0.75002  Biso   1.000  C
  O25      1.0000 0.15708  0.24687  0.52610  Biso   1.000  O
  N51      1.0000 0.23218  0.22680  0.65987  Biso   1.000  N
  C100     1.0000 0.26098  0.24779  0.75002  Biso   1.000  C
  C101     1.0000 0.28828  0.33370  0.75002  Biso   1.000  C
  N52      1.0000 0.17782  0.29633  0.84159  Biso   1.000  N
  O26      1.0000 0.00000  0.31141  0.52334  Biso   1.000  O
  N53      1.0000 0.93841  0.34213  0.65950  Biso   1.000  N
  N54      1.0000 0.06159  0.34213  0.84054  Biso   1.000  N
  H75      1.0000 0.06439  0.39929  0.75002  Biso   1.000  H
  C102     1.0000 0.95629  0.36741  0.75002  Biso   1.000  C
  C103     1.0000 0.25970  0.18321  0.61551  Biso   1.000  C
  C104     1.0000 0.34779  0.25591  0.75002  Biso   1.000  C
  N55      1.0000 0.23218  0.22680  0.84009  Biso   1.000  N
  C105     1.0000 0.35872  0.30751  0.78303  Biso   1.000  C
  C106     1.0000 0.35872  0.30751  0.71701  Biso   1.000  C
  C107     1.0000 0.18432  0.25520  0.89432  Biso   1.000  C
  C108     1.0000 0.13730  0.33700  0.87983  Biso   1.000  C
  C109     1.0000 0.86270  0.33700  0.62021  Biso   1.000  C
  C110     1.0000 0.00000  0.32958  0.89491  Biso   1.000  C
  H76      1.0000 0.93561  0.39929  0.75002  Biso   1.000  H
  N56      1.0000 0.93841  0.34213  0.84054  Biso   1.000  N
  H77      1.0000 0.24781  0.18332  0.54478  Biso   1.000  H
  H78      1.0000 0.31389  0.18240  0.62170  Biso   1.000  H
  N57      1.0000 0.22938  0.14142  0.65942  Biso   1.000  N
  C111     1.0000 0.25970  0.18321  0.88453  Biso   1.000  C
  O27      1.0000 0.15708  0.24687  0.97393  Biso   1.000  O
  H79      1.0000 0.13450  0.33461  0.95198  Biso   1.000  H
  H80      1.0000 0.16560  0.36509  0.86392  Biso   1.000  H
  H81      1.0000 0.86550  0.33461  0.54799  Biso   1.000  H
  H82      1.0000 0.83440  0.36509  0.63612  Biso   1.000  H
  N58      1.0000 0.82218  0.29633  0.65838  Biso   1.000  N
  O28      1.0000 0.00000  0.31141  0.97670  Biso   1.000  O
  C112     1.0000 0.86270  0.33700  0.87983  Biso   1.000  C
  C113     1.0000 0.18488  0.11189  0.60721  Biso   1.000  C
  C114     1.0000 0.25902  0.12011  0.75002  Biso   1.000  C
  N59      1.0000 0.22938  0.14142  0.84062  Biso   1.000  N
  H83      1.0000 0.24781  0.18332  0.95519  Biso   1.000  H
  H84      1.0000 0.31389  0.18240  0.87833  Biso   1.000  H
  C115     1.0000 0.81568  0.25520  0.60572  Biso   1.000  C
  C116     1.0000 0.77668  0.29731  0.75002  Biso   1.000  C
  H85      1.0000 0.86550  0.33461  0.95198  Biso   1.000  H
  H86      1.0000 0.83440  0.36509  0.86392  Biso   1.000  H
  N60      1.0000 0.82218  0.29633  0.84159  Biso   1.000  N
  N61      1.0000 0.17647  0.07055  0.65927  Biso   1.000  N
  O29      1.0000 0.15708  0.11962  0.52409  Biso   1.000  O
  C117     1.0000 0.21879  0.06921  0.75002  Biso   1.000  C
  H87      1.0000 0.31377  0.11790  0.75002  Biso   1.000  H
  C118     1.0000 0.18488  0.11189  0.89282  Biso   1.000  C
  N62      1.0000 0.76782  0.22680  0.65987  Biso   1.000  N
  O30      1.0000 0.84292  0.24687  0.52610  Biso   1.000  O
  C119     1.0000 0.73902  0.24779  0.75002  Biso   1.000  C
  C120     1.0000 0.71172  0.33370  0.75002  Biso   1.000  C
  C121     1.0000 0.81568  0.25520  0.89432  Biso   1.000  C
  C122     1.0000 0.13730  0.03009  0.62073  Biso   1.000  C
  H88      1.0000 0.25538  0.04348  0.75002  Biso   1.000  H
  N63      1.0000 0.17647  0.07055  0.84069  Biso   1.000  N
  O31      1.0000 0.15708  0.11962  0.97588  Biso   1.000  O
  C123     1.0000 0.74030  0.18321  0.61551  Biso   1.000  C
  C124     1.0000 0.65221  0.25591  0.75002  Biso   1.000  C
  N64      1.0000 0.76782  0.22680  0.84009  Biso   1.000  N
  C125     1.0000 0.64128  0.30751  0.78303  Biso   1.000  C
  C126     1.0000 0.64128  0.30751  0.71701  Biso   1.000  C
  O32      1.0000 0.84292  0.24687  0.97393  Biso   1.000  O
  H89      1.0000 0.16650  0.00228  0.63537  Biso   1.000  H
  H90      1.0000 0.13411  0.03301  0.54858  Biso   1.000  H
  N65      1.0000 0.06221  0.02359  0.66009  Biso   1.000  N
  C127     1.0000 0.13730  0.03009  0.87930  Biso   1.000  C
  H91      1.0000 0.75219  0.18332  0.54478  Biso   1.000  H
  H92      1.0000 0.68611  0.18240  0.62170  Biso   1.000  H
  N66      1.0000 0.77062  0.14142  0.65942  Biso   1.000  N
  C128     1.0000 0.74030  0.18321  0.88453  Biso   1.000  C
  C129     1.0000 0.00000  0.03642  0.60781  Biso   1.000  C
  C130     1.0000 0.04478  0.99880  0.75002  Biso   1.000  C
  H93      1.0000 0.16650  0.00228  0.86459  Biso   1.000  H
  H94      1.0000 0.13411  0.03301  0.95138  Biso   1.000  H
  N67      1.0000 0.06221  0.02359  0.83994  Biso   1.000  N
  C131     1.0000 0.81512  0.11189  0.60721  Biso   1.000  C
  C132     1.0000 0.74098  0.12011  0.75002  Biso   1.000  C
  H95      1.0000 0.75219  0.18332  0.95519  Biso   1.000  H
  H96      1.0000 0.68611  0.18240  0.87833  Biso   1.000  H
  N68      1.0000 0.77062  0.14142  0.84062  Biso   1.000  N
  O33      1.0000 0.00000  0.05572  0.52618  Biso   1.000  O
  N69      1.0000 0.93779  0.02359  0.66009  Biso   1.000  N
  C133     1.0000 0.95522  0.99880  0.75002  Biso   1.000  C
  C134     1.0000 0.06932  0.94569  0.75002  Biso   1.000  C
  C135     1.0000 0.00000  0.03642  0.89222  Biso   1.000  C
  N70      1.0000 0.82353  0.07055  0.65927  Biso   1.000  N
  O34      1.0000 0.84292  0.11962  0.52409  Biso   1.000  O
  C136     1.0000 0.78121  0.06921  0.75002  Biso   1.000  C
  H97      1.0000 0.68623  0.11790  0.75002  Biso   1.000  H
  C137     1.0000 0.81512  0.11189  0.89282  Biso   1.000  C
  C138     1.0000 0.86270  0.03009  0.62073  Biso   1.000  C
  C139     1.0000 0.93068  0.94569  0.75002  Biso   1.000  C
  N71      1.0000 0.93779  0.02359  0.83994  Biso   1.000  N
  C140     1.0000 0.00000  0.91641  0.75002  Biso   1.000  C
  H98      1.0000 0.09908  0.93891  0.80880  Biso   1.000  H
  H99      1.0000 0.09908  0.93891  0.69124  Biso   1.000  H
  O35      1.0000 0.00000  0.05572  0.97378  Biso   1.000  O
  N72      1.0000 0.82353  0.07055  0.84069  Biso   1.000  N
  H100     1.0000 0.74462  0.04348  0.75002  Biso   1.000  H
  O36      1.0000 0.84292  0.11962  0.97588  Biso   1.000  O
  H101     1.0000 0.83350  0.00228  0.63537  Biso   1.000  H
  H102     1.0000 0.86589  0.03301  0.54858  Biso   1.000  H
  H103     1.0000 0.90092  0.93891  0.69124  Biso   1.000  H
  H104     1.0000 0.90092  0.93891  0.80880  Biso   1.000  H
  C141     1.0000 0.86270  0.03009  0.87930  Biso   1.000  C
  H105     1.0000 0.00000  0.89630  0.69139  Biso   1.000  H
  H106     1.0000 0.00000  0.89630  0.80857  Biso   1.000  H
  H107     1.0000 0.83350  0.00228  0.86459  Biso   1.000  H
  H108     1.0000 0.86589  0.03301  0.95138  Biso   1.000  H
  C142     1.0000 0.13730  0.33700  0.62021  Biso   1.000  C
  N73      1.0000 0.17782  0.29633  0.65838  Biso   1.000  N
  H109     1.0000 0.13450  0.33461  0.54799  Biso   1.000  H
  H110     1.0000 0.16560  0.36509  0.63612  Biso   1.000  H
  N74      1.0000 0.06159  0.34213  0.65950  Biso   1.000  N
  C143     1.0000 0.18432  0.25520  0.60572  Biso   1.000  C
  C144     1.0000 0.22332  0.29731  0.75002  Biso   1.000  C
  C145     1.0000 0.00000  0.32958  0.60512  Biso   1.000  C
  C146     1.0000 0.04371  0.36741  0.75002  Biso   1.000  C
  O37      1.0000 0.15708  0.24687  0.52610  Biso   1.000  O
  N75      1.0000 0.23218  0.22680  0.65987  Biso   1.000  N
  C147     1.0000 0.26098  0.24779  0.75002  Biso   1.000  C
  C148     1.0000 0.28828  0.33370  0.75002  Biso   1.000  C
  N76      1.0000 0.17782  0.29633  0.84159  Biso   1.000  N
  O38      1.0000 0.00000  0.31141  0.52334  Biso   1.000  O
  N77      1.0000 0.93841  0.34213  0.65950  Biso   1.000  N
  N78      1.0000 0.06159  0.34213  0.84054  Biso   1.000  N
  H111     1.0000 0.06439  0.39929  0.75002  Biso   1.000  H
  C149     1.0000 0.95629  0.36741  0.75002  Biso   1.000  C
  C150     1.0000 0.25970  0.18321  0.61551  Biso   1.000  C
  C151     1.0000 0.34779  0.25591  0.75002  Biso   1.000  C
  N79      1.0000 0.23218  0.22680  0.84009  Biso   1.000  N
  C152     1.0000 0.35872  0.30751  0.78303  Biso   1.000  C
  C153     1.0000 0.35872  0.30751  0.71701  Biso   1.000  C
  C154     1.0000 0.18432  0.25520  0.89432  Biso   1.000  C
  C155     1.0000 0.13730  0.33700  0.87983  Biso   1.000  C
  C156     1.0000 0.86270  0.33700  0.62021  Biso   1.000  C
  C157     1.0000 0.00000  0.32958  0.89491  Biso   1.000  C
  H112     1.0000 0.93561  0.39929  0.75002  Biso   1.000  H
  N80      1.0000 0.93841  0.34213  0.84054  Biso   1.000  N
  H113     1.0000 0.24781  0.18332  0.54478  Biso   1.000  H
  H114     1.0000 0.31389  0.18240  0.62170  Biso   1.000  H
  N81      1.0000 0.22938  0.14142  0.65942  Biso   1.000  N
  C158     1.0000 0.25970  0.18321  0.88453  Biso   1.000  C
  O39      1.0000 0.15708  0.24687  0.97393  Biso   1.000  O
  H115     1.0000 0.13450  0.33461  0.95198  Biso   1.000  H
  H116     1.0000 0.16560  0.36509  0.86392  Biso   1.000  H
  H117     1.0000 0.86550  0.33461  0.54799  Biso   1.000  H
  H118     1.0000 0.83440  0.36509  0.63612  Biso   1.000  H
  N82      1.0000 0.82218  0.29633  0.65838  Biso   1.000  N
  O40      1.0000 0.00000  0.31141  0.97670  Biso   1.000  O
  C159     1.0000 0.86270  0.33700  0.87983  Biso   1.000  C
  C160     1.0000 0.18488  0.11189  0.60721  Biso   1.000  C
  C161     1.0000 0.25902  0.12011  0.75002  Biso   1.000  C
  N83      1.0000 0.22938  0.14142  0.84062  Biso   1.000  N
  H119     1.0000 0.24781  0.18332  0.95519  Biso   1.000  H
  H120     1.0000 0.31389  0.18240  0.87833  Biso   1.000  H
  C162     1.0000 0.81568  0.25520  0.60572  Biso   1.000  C
  C163     1.0000 0.77668  0.29731  0.75002  Biso   1.000  C
  H121     1.0000 0.86550  0.33461  0.95198  Biso   1.000  H
  H122     1.0000 0.83440  0.36509  0.86392  Biso   1.000  H
  N84      1.0000 0.82218  0.29633  0.84159  Biso   1.000  N
  N85      1.0000 0.17647  0.07055  0.65927  Biso   1.000  N
  O41      1.0000 0.15708  0.11962  0.52409  Biso   1.000  O
  C164     1.0000 0.21879  0.06921  0.75002  Biso   1.000  C
  H123     1.0000 0.31377  0.11790  0.75002  Biso   1.000  H
  C165     1.0000 0.18488  0.11189  0.89282  Biso   1.000  C
  N86      1.0000 0.76782  0.22680  0.65987  Biso   1.000  N
  O42      1.0000 0.84292  0.24687  0.52610  Biso   1.000  O
  C166     1.0000 0.73902  0.24779  0.75002  Biso   1.000  C
  C167     1.0000 0.71172  0.33370  0.75002  Biso   1.000  C
  C168     1.0000 0.81568  0.25520  0.89432  Biso   1.000  C
  C169     1.0000 0.13730  0.03009  0.62073  Biso   1.000  C
  H124     1.0000 0.25538  0.04348  0.75002  Biso   1.000  H
  N87      1.0000 0.17647  0.07055  0.84069  Biso   1.000  N
  O43      1.0000 0.15708  0.11962  0.97588  Biso   1.000  O
  C170     1.0000 0.74030  0.18321  0.61551  Biso   1.000  C
  C171     1.0000 0.65221  0.25591  0.75002  Biso   1.000  C
  N88      1.0000 0.76782  0.22680  0.84009  Biso   1.000  N
  C172     1.0000 0.64128  0.30751  0.78303  Biso   1.000  C
  C173     1.0000 0.64128  0.30751  0.71701  Biso   1.000  C
  O44      1.0000 0.84292  0.24687  0.97393  Biso   1.000  O
  H125     1.0000 0.16650  0.00228  0.63537  Biso   1.000  H
  H126     1.0000 0.13411  0.03301  0.54858  Biso   1.000  H
  N89      1.0000 0.06221  0.02359  0.66009  Biso   1.000  N
  C174     1.0000 0.13730  0.03009  0.87930  Biso   1.000  C
  H127     1.0000 0.75219  0.18332  0.54478  Biso   1.000  H
  H128     1.0000 0.68611  0.18240  0.62170  Biso   1.000  H
  N90      1.0000 0.77062  0.14142  0.65942  Biso   1.000  N
  C175     1.0000 0.74030  0.18321  0.88453  Biso   1.000  C
  C176     1.0000 0.00000  0.03642  0.60781  Biso   1.000  C
  C177     1.0000 0.04478  0.99880  0.75002  Biso   1.000  C
  H129     1.0000 0.16650  0.00228  0.86459  Biso   1.000  H
  H130     1.0000 0.13411  0.03301  0.95138  Biso   1.000  H
  N91      1.0000 0.06221  0.02359  0.83994  Biso   1.000  N
  C178     1.0000 0.81512  0.11189  0.60721  Biso   1.000  C
  C179     1.0000 0.74098  0.12011  0.75002  Biso   1.000  C
  H131     1.0000 0.75219  0.18332  0.95519  Biso   1.000  H
  H132     1.0000 0.68611  0.18240  0.87833  Biso   1.000  H
  N92      1.0000 0.77062  0.14142  0.84062  Biso   1.000  N
  O45      1.0000 0.00000  0.05572  0.52618  Biso   1.000  O
  N93      1.0000 0.93779  0.02359  0.66009  Biso   1.000  N
  C180     1.0000 0.95522  0.99880  0.75002  Biso   1.000  C
  C181     1.0000 0.06932  0.94569  0.75002  Biso   1.000  C
  C182     1.0000 0.00000  0.03642  0.89222  Biso   1.000  C
  N94      1.0000 0.82353  0.07055  0.65927  Biso   1.000  N
  O46      1.0000 0.84292  0.11962  0.52409  Biso   1.000  O
  C183     1.0000 0.78121  0.06921  0.75002  Biso   1.000  C
  H133     1.0000 0.68623  0.11790  0.75002  Biso   1.000  H
  C184     1.0000 0.81512  0.11189  0.89282  Biso   1.000  C
  C185     1.0000 0.86270  0.03009  0.62073  Biso   1.000  C
  C186     1.0000 0.93068  0.94569  0.75002  Biso   1.000  C
  N95      1.0000 0.93779  0.02359  0.83994  Biso   1.000  N
  C187     1.0000 0.00000  0.91641  0.75002  Biso   1.000  C
  H134     1.0000 0.09908  0.93891  0.80880  Biso   1.000  H
  H135     1.0000 0.09908  0.93891  0.69124  Biso   1.000  H
  O47      1.0000 0.00000  0.05572  0.97378  Biso   1.000  O
  N96      1.0000 0.82353  0.07055  0.84069  Biso   1.000  N
  H136     1.0000 0.74462  0.04348  0.75002  Biso   1.000  H
  O48      1.0000 0.84292  0.11962  0.97588  Biso   1.000  O
  H137     1.0000 0.83350  0.00228  0.63537  Biso   1.000  H
  H138     1.0000 0.86589  0.03301  0.54858  Biso   1.000  H
  H139     1.0000 0.90092  0.93891  0.69124  Biso   1.000  H
  H140     1.0000 0.90092  0.93891  0.80880  Biso   1.000  H
  C188     1.0000 0.86270  0.03009  0.87930  Biso   1.000  C
  H141     1.0000 0.00000  0.89630  0.69139  Biso   1.000  H
  H142     1.0000 0.00000  0.89630  0.80857  Biso   1.000  H
  H143     1.0000 0.83350  0.00228  0.86459  Biso   1.000  H
  H144     1.0000 0.86589  0.03301  0.95138  Biso   1.000  H
  C189     1.0000 0.13730  0.66300  0.37979  Biso   1.000  C
  N97      1.0000 0.06159  0.65787  0.34050  Biso   1.000  N
  H145     1.0000 0.13450  0.66539  0.45201  Biso   1.000  H
  H146     1.0000 0.16560  0.63491  0.36388  Biso   1.000  H
  N98      1.0000 0.17782  0.70367  0.34162  Biso   1.000  N
  C190     1.0000 0.04371  0.63259  0.24998  Biso   1.000  C
  C191     1.0000 0.00000  0.67042  0.39488  Biso   1.000  C
  C192     1.0000 0.22332  0.70269  0.24998  Biso   1.000  C
  C193     1.0000 0.18432  0.74480  0.39428  Biso   1.000  C
  H147     1.0000 0.06439  0.60071  0.24998  Biso   1.000  H
  N99      1.0000 0.06159  0.65787  0.15953  Biso   1.000  N
  C194     1.0000 0.95629  0.63259  0.24998  Biso   1.000  C
  N100     1.0000 0.93841  0.65787  0.34050  Biso   1.000  N
  O49      1.0000 0.00000  0.68859  0.47673  Biso   1.000  O
  N101     1.0000 0.17782  0.70367  0.15841  Biso   1.000  N
  C195     1.0000 0.26098  0.75221  0.24998  Biso   1.000  C
  C196     1.0000 0.28828  0.66630  0.24998  Biso   1.000  C
  N102     1.0000 0.23218  0.77320  0.34013  Biso   1.000  N
  O50      1.0000 0.15708  0.75313  0.47390  Biso   1.000  O
  C197     1.0000 0.13730  0.66300  0.12017  Biso   1.000  C
  C198     1.0000 0.00000  0.67042  0.10509  Biso   1.000  C
  H148     1.0000 0.93561  0.60071  0.24998  Biso   1.000  H
  N103     1.0000 0.93841  0.65787  0.15953  Biso   1.000  N
  C199     1.0000 0.86270  0.66300  0.37979  Biso   1.000  C
  C200     1.0000 0.18432  0.74480  0.10568  Biso   1.000  C
  N104     1.0000 0.23218  0.77320  0.15991  Biso   1.000  N
  C201     1.0000 0.34779  0.74409  0.24998  Biso   1.000  C
  C202     1.0000 0.35872  0.69249  0.28299  Biso   1.000  C
  C203     1.0000 0.35872  0.69249  0.21697  Biso   1.000  C
  C204     1.0000 0.25970  0.81679  0.38449  Biso   1.000  C
  H149     1.0000 0.13450  0.66539  0.04802  Biso   1.000  H
  H150     1.0000 0.16560  0.63491  0.13608  Biso   1.000  H
  O51      1.0000 0.00000  0.68859  0.02330  Biso   1.000  O
  C205     1.0000 0.86270  0.66300  0.12017  Biso   1.000  C
  H151     1.0000 0.86550  0.66539  0.45201  Biso   1.000  H
  H152     1.0000 0.83440  0.63491  0.36388  Biso   1.000  H
  N105     1.0000 0.82218  0.70367  0.34162  Biso   1.000  N
  O52      1.0000 0.15708  0.75313  0.02607  Biso   1.000  O
  C206     1.0000 0.25970  0.81679  0.11547  Biso   1.000  C
  H153     1.0000 0.24781  0.81668  0.45522  Biso   1.000  H
  H154     1.0000 0.31389  0.81760  0.37830  Biso   1.000  H
  N106     1.0000 0.22938  0.85858  0.34058  Biso   1.000  N
  H155     1.0000 0.86550  0.66539  0.04802  Biso   1.000  H
  H156     1.0000 0.83440  0.63491  0.13608  Biso   1.000  H
  N107     1.0000 0.82218  0.70367  0.15841  Biso   1.000  N
  C207     1.0000 0.81568  0.74480  0.39428  Biso   1.000  C
  C208     1.0000 0.77668  0.70269  0.24998  Biso   1.000  C
  H157     1.0000 0.24781  0.81668  0.04481  Biso   1.000  H
  H158     1.0000 0.31389  0.81760  0.12167  Biso   1.000  H
  N108     1.0000 0.22938  0.85858  0.15938  Biso   1.000  N
  C209     1.0000 0.25902  0.87989  0.24998  Biso   1.000  C
  C210     1.0000 0.18488  0.88811  0.39279  Biso   1.000  C
  C211     1.0000 0.81568  0.74480  0.10568  Biso   1.000  C
  N109     1.0000 0.76782  0.77320  0.34013  Biso   1.000  N
  O53      1.0000 0.84292  0.75313  0.47390  Biso   1.000  O
  C212     1.0000 0.73902  0.75221  0.24998  Biso   1.000  C
  C213     1.0000 0.71172  0.66630  0.24998  Biso   1.000  C
  C214     1.0000 0.18488  0.88811  0.10718  Biso   1.000  C
  C215     1.0000 0.21879  0.93079  0.24998  Biso   1.000  C
  H159     1.0000 0.31377  0.88210  0.24998  Biso   1.000  H
  N110     1.0000 0.17647  0.92945  0.34073  Biso   1.000  N
  O54      1.0000 0.15708  0.88038  0.47591  Biso   1.000  O
  N111     1.0000 0.76782  0.77320  0.15991  Biso   1.000  N
  O55      1.0000 0.84292  0.75313  0.02607  Biso   1.000  O
  C216     1.0000 0.74030  0.81679  0.38449  Biso   1.000  C
  C217     1.0000 0.65221  0.74409  0.24998  Biso   1.000  C
  C218     1.0000 0.64128  0.69249  0.28299  Biso   1.000  C
  C219     1.0000 0.64128  0.69249  0.21697  Biso   1.000  C
  N112     1.0000 0.17647  0.92945  0.15931  Biso   1.000  N
  O56      1.0000 0.15708  0.88038  0.02412  Biso   1.000  O
  H160     1.0000 0.25538  0.95652  0.24998  Biso   1.000  H
  C220     1.0000 0.13730  0.96991  0.37927  Biso   1.000  C
  C221     1.0000 0.74030  0.81679  0.11547  Biso   1.000  C
  H161     1.0000 0.75219  0.81668  0.45522  Biso   1.000  H
  H162     1.0000 0.68611  0.81760  0.37830  Biso   1.000  H
  N113     1.0000 0.77062  0.85858  0.34058  Biso   1.000  N
  C222     1.0000 0.13730  0.96991  0.12070  Biso   1.000  C
  H163     1.0000 0.16650  0.99772  0.36463  Biso   1.000  H
  H164     1.0000 0.13411  0.96699  0.45142  Biso   1.000  H
  N114     1.0000 0.06221  0.97641  0.33991  Biso   1.000  N
  H165     1.0000 0.75219  0.81668  0.04481  Biso   1.000  H
  H166     1.0000 0.68611  0.81760  0.12167  Biso   1.000  H
  N115     1.0000 0.77062  0.85858  0.15938  Biso   1.000  N
  C223     1.0000 0.81512  0.88811  0.39279  Biso   1.000  C
  C224     1.0000 0.74098  0.87989  0.24998  Biso   1.000  C
  H167     1.0000 0.16650  0.99772  0.13541  Biso   1.000  H
  H168     1.0000 0.13411  0.96699  0.04862  Biso   1.000  H
  N116     1.0000 0.06221  0.97641  0.16013  Biso   1.000  N
  C225     1.0000 0.04478  0.00120  0.24998  Biso   1.000  C
  C226     1.0000 0.00000  0.96358  0.39219  Biso   1.000  C
  C227     1.0000 0.81512  0.88811  0.10718  Biso   1.000  C
  N117     1.0000 0.82353  0.92945  0.34073  Biso   1.000  N
  O57      1.0000 0.84292  0.88038  0.47591  Biso   1.000  O
  C228     1.0000 0.78121  0.93079  0.24998  Biso   1.000  C
  H169     1.0000 0.68623  0.88210  0.24998  Biso   1.000  H
  C229     1.0000 0.00000  0.96358  0.10778  Biso   1.000  C
  C230     1.0000 0.95522  0.00120  0.24998  Biso   1.000  C
  C231     1.0000 0.06932  0.05431  0.24998  Biso   1.000  C
  N118     1.0000 0.93779  0.97641  0.33991  Biso   1.000  N
  O58      1.0000 0.00000  0.94428  0.47382  Biso   1.000  O
  N119     1.0000 0.82353  0.92945  0.15931  Biso   1.000  N
  O59      1.0000 0.84292  0.88038  0.02412  Biso   1.000  O
  C232     1.0000 0.86270  0.96991  0.37927  Biso   1.000  C
  H170     1.0000 0.74462  0.95652  0.24998  Biso   1.000  H
  N120     1.0000 0.93779  0.97641  0.16013  Biso   1.000  N
  O60      1.0000 0.00000  0.94428  0.02622  Biso   1.000  O
  C233     1.0000 0.93068  0.05431  0.24998  Biso   1.000  C
  H171     1.0000 0.09908  0.06109  0.19120  Biso   1.000  H
  C234     1.0000 0.00000  0.08359  0.24998  Biso   1.000  C
  H172     1.0000 0.09908  0.06109  0.30884  Biso   1.000  H
  C235     1.0000 0.86270  0.96991  0.12070  Biso   1.000  C
  H173     1.0000 0.83350  0.99772  0.36463  Biso   1.000  H
  H174     1.0000 0.86589  0.96699  0.45142  Biso   1.000  H
  H175     1.0000 0.90092  0.06109  0.30884  Biso   1.000  H
  H176     1.0000 0.90092  0.06109  0.19120  Biso   1.000  H
  H177     1.0000 0.00000  0.10370  0.19143  Biso   1.000  H
  H178     1.0000 0.00000  0.10370  0.30861  Biso   1.000  H
  H179     1.0000 0.83350  0.99772  0.13541  Biso   1.000  H
  H180     1.0000 0.86589  0.96699  0.04862  Biso   1.000  H
  C236     1.0000 0.13730  0.66300  0.37979  Biso   1.000  C
  N121     1.0000 0.06159  0.65787  0.34050  Biso   1.000  N
  H181     1.0000 0.13450  0.66539  0.45201  Biso   1.000  H
  H182     1.0000 0.16560  0.63491  0.36388  Biso   1.000  H
  N122     1.0000 0.17782  0.70367  0.34162  Biso   1.000  N
  C237     1.0000 0.04371  0.63259  0.24998  Biso   1.000  C
  C238     1.0000 0.00000  0.67042  0.39488  Biso   1.000  C
  C239     1.0000 0.22332  0.70269  0.24998  Biso   1.000  C
  C240     1.0000 0.18432  0.74480  0.39428  Biso   1.000  C
  H183     1.0000 0.06439  0.60071  0.24998  Biso   1.000  H
  N123     1.0000 0.06159  0.65787  0.15953  Biso   1.000  N
  C241     1.0000 0.95629  0.63259  0.24998  Biso   1.000  C
  N124     1.0000 0.93841  0.65787  0.34050  Biso   1.000  N
  O61      1.0000 0.00000  0.68859  0.47673  Biso   1.000  O
  N125     1.0000 0.17782  0.70367  0.15841  Biso   1.000  N
  C242     1.0000 0.26098  0.75221  0.24998  Biso   1.000  C
  C243     1.0000 0.28828  0.66630  0.24998  Biso   1.000  C
  N126     1.0000 0.23218  0.77320  0.34013  Biso   1.000  N
  O62      1.0000 0.15708  0.75313  0.47390  Biso   1.000  O
  C244     1.0000 0.13730  0.66300  0.12017  Biso   1.000  C
  C245     1.0000 0.00000  0.67042  0.10509  Biso   1.000  C
  H184     1.0000 0.93561  0.60071  0.24998  Biso   1.000  H
  N127     1.0000 0.93841  0.65787  0.15953  Biso   1.000  N
  C246     1.0000 0.86270  0.66300  0.37979  Biso   1.000  C
  C247     1.0000 0.18432  0.74480  0.10568  Biso   1.000  C
  N128     1.0000 0.23218  0.77320  0.15991  Biso   1.000  N
  C248     1.0000 0.34779  0.74409  0.24998  Biso   1.000  C
  C249     1.0000 0.35872  0.69249  0.28299  Biso   1.000  C
  C250     1.0000 0.35872  0.69249  0.21697  Biso   1.000  C
  C251     1.0000 0.25970  0.81679  0.38449  Biso   1.000  C
  H185     1.0000 0.13450  0.66539  0.04802  Biso   1.000  H
  H186     1.0000 0.16560  0.63491  0.13608  Biso   1.000  H
  O63      1.0000 0.00000  0.68859  0.02330  Biso   1.000  O
  C252     1.0000 0.86270  0.66300  0.12017  Biso   1.000  C
  H187     1.0000 0.86550  0.66539  0.45201  Biso   1.000  H
  H188     1.0000 0.83440  0.63491  0.36388  Biso   1.000  H
  N129     1.0000 0.82218  0.70367  0.34162  Biso   1.000  N
  O64      1.0000 0.15708  0.75313  0.02607  Biso   1.000  O
  C253     1.0000 0.25970  0.81679  0.11547  Biso   1.000  C
  H189     1.0000 0.24781  0.81668  0.45522  Biso   1.000  H
  H190     1.0000 0.31389  0.81760  0.37830  Biso   1.000  H
  N130     1.0000 0.22938  0.85858  0.34058  Biso   1.000  N
  H191     1.0000 0.86550  0.66539  0.04802  Biso   1.000  H
  H192     1.0000 0.83440  0.63491  0.13608  Biso   1.000  H
  N131     1.0000 0.82218  0.70367  0.15841  Biso   1.000  N
  C254     1.0000 0.81568  0.74480  0.39428  Biso   1.000  C
  C255     1.0000 0.77668  0.70269  0.24998  Biso   1.000  C
  H193     1.0000 0.24781  0.81668  0.04481  Biso   1.000  H
  H194     1.0000 0.31389  0.81760  0.12167  Biso   1.000  H
  N132     1.0000 0.22938  0.85858  0.15938  Biso   1.000  N
  C256     1.0000 0.25902  0.87989  0.24998  Biso   1.000  C
  C257     1.0000 0.18488  0.88811  0.39279  Biso   1.000  C
  C258     1.0000 0.81568  0.74480  0.10568  Biso   1.000  C
  N133     1.0000 0.76782  0.77320  0.34013  Biso   1.000  N
  O65      1.0000 0.84292  0.75313  0.47390  Biso   1.000  O
  C259     1.0000 0.73902  0.75221  0.24998  Biso   1.000  C
  C260     1.0000 0.71172  0.66630  0.24998  Biso   1.000  C
  C261     1.0000 0.18488  0.88811  0.10718  Biso   1.000  C
  C262     1.0000 0.21879  0.93079  0.24998  Biso   1.000  C
  H195     1.0000 0.31377  0.88210  0.24998  Biso   1.000  H
  N134     1.0000 0.17647  0.92945  0.34073  Biso   1.000  N
  O66      1.0000 0.15708  0.88038  0.47591  Biso   1.000  O
  N135     1.0000 0.76782  0.77320  0.15991  Biso   1.000  N
  O67      1.0000 0.84292  0.75313  0.02607  Biso   1.000  O
  C263     1.0000 0.74030  0.81679  0.38449  Biso   1.000  C
  C264     1.0000 0.65221  0.74409  0.24998  Biso   1.000  C
  C265     1.0000 0.64128  0.69249  0.28299  Biso   1.000  C
  C266     1.0000 0.64128  0.69249  0.21697  Biso   1.000  C
  N136     1.0000 0.17647  0.92945  0.15931  Biso   1.000  N
  O68      1.0000 0.15708  0.88038  0.02412  Biso   1.000  O
  H196     1.0000 0.25538  0.95652  0.24998  Biso   1.000  H
  C267     1.0000 0.13730  0.96991  0.37927  Biso   1.000  C
  C268     1.0000 0.74030  0.81679  0.11547  Biso   1.000  C
  H197     1.0000 0.75219  0.81668  0.45522  Biso   1.000  H
  H198     1.0000 0.68611  0.81760  0.37830  Biso   1.000  H
  N137     1.0000 0.77062  0.85858  0.34058  Biso   1.000  N
  C269     1.0000 0.13730  0.96991  0.12070  Biso   1.000  C
  H199     1.0000 0.16650  0.99772  0.36463  Biso   1.000  H
  H200     1.0000 0.13411  0.96699  0.45142  Biso   1.000  H
  N138     1.0000 0.06221  0.97641  0.33991  Biso   1.000  N
  H201     1.0000 0.75219  0.81668  0.04481  Biso   1.000  H
  H202     1.0000 0.68611  0.81760  0.12167  Biso   1.000  H
  N139     1.0000 0.77062  0.85858  0.15938  Biso   1.000  N
  C270     1.0000 0.81512  0.88811  0.39279  Biso   1.000  C
  C271     1.0000 0.74098  0.87989  0.24998  Biso   1.000  C
  H203     1.0000 0.16650  0.99772  0.13541  Biso   1.000  H
  H204     1.0000 0.13411  0.96699  0.04862  Biso   1.000  H
  N140     1.0000 0.06221  0.97641  0.16013  Biso   1.000  N
  C272     1.0000 0.04478  0.00120  0.24998  Biso   1.000  C
  C273     1.0000 0.00000  0.96358  0.39219  Biso   1.000  C
  C274     1.0000 0.81512  0.88811  0.10718  Biso   1.000  C
  N141     1.0000 0.82353  0.92945  0.34073  Biso   1.000  N
  O69      1.0000 0.84292  0.88038  0.47591  Biso   1.000  O
  C275     1.0000 0.78121  0.93079  0.24998  Biso   1.000  C
  H205     1.0000 0.68623  0.88210  0.24998  Biso   1.000  H
  C276     1.0000 0.00000  0.96358  0.10778  Biso   1.000  C
  C277     1.0000 0.95522  0.00120  0.24998  Biso   1.000  C
  C278     1.0000 0.06932  0.05431  0.24998  Biso   1.000  C
  N142     1.0000 0.93779  0.97641  0.33991  Biso   1.000  N
  O70      1.0000 0.00000  0.94428  0.47382  Biso   1.000  O
  N143     1.0000 0.82353  0.92945  0.15931  Biso   1.000  N
  O71      1.0000 0.84292  0.88038  0.02412  Biso   1.000  O
  C279     1.0000 0.86270  0.96991  0.37927  Biso   1.000  C
  H206     1.0000 0.74462  0.95652  0.24998  Biso   1.000  H
  N144     1.0000 0.93779  0.97641  0.16013  Biso   1.000  N
  O72      1.0000 0.00000  0.94428  0.02622  Biso   1.000  O
  C280     1.0000 0.93068  0.05431  0.24998  Biso   1.000  C
  H207     1.0000 0.09908  0.06109  0.19120  Biso   1.000  H
  C281     1.0000 0.00000  0.08359  0.24998  Biso   1.000  C
  H208     1.0000 0.09908  0.06109  0.30884  Biso   1.000  H
  C282     1.0000 0.86270  0.96991  0.12070  Biso   1.000  C
  H209     1.0000 0.83350  0.99772  0.36463  Biso   1.000  H
  H210     1.0000 0.86589  0.96699  0.45142  Biso   1.000  H
  H211     1.0000 0.90092  0.06109  0.30884  Biso   1.000  H
  H212     1.0000 0.90092  0.06109  0.19120  Biso   1.000  H
  H213     1.0000 0.00000  0.10370  0.19143  Biso   1.000  H
  H214     1.0000 0.00000  0.10370  0.30861  Biso   1.000  H
  H215     1.0000 0.83350  0.99772  0.13541  Biso   1.000  H
  H216     1.0000 0.86589  0.96699  0.04862  Biso   1.000  H
