data_image0
_cell_length_a       15.974
_cell_length_b       11.594
_cell_length_c       14.952
_cell_angle_alpha    90
_cell_angle_beta     90
_cell_angle_gamma    90

_symmetry_space_group_name_H-M    "P 1"
_symmetry_int_tables_number       1

loop_
  _symmetry_equiv_pos_as_xyz
  'x, y, z'

loop_
  _atom_site_label
  _atom_site_occupancy
  _atom_site_fract_x
  _atom_site_fract_y
  _atom_site_fract_z
  _atom_site_thermal_displace_type
  _atom_site_B_iso_or_equiv
  _atom_site_type_symbol
  C1       1.0000 0.31889  0.07383  0.71489  Biso   1.000  C
  H1       1.0000 0.30230  0.15396  0.72017  Biso   1.000  H
  H2       1.0000 0.29429  0.04390  0.66031  Biso   1.000  H
  N1       1.0000 0.28509  0.01216  0.78819  Biso   1.000  N
  N2       1.0000 0.40942  0.06917  0.70633  Biso   1.000  N
  C2       1.0000 0.26011  0.06521  0.86483  Biso   1.000  C
  C3       1.0000 0.26011  0.06521  0.86477  Biso   1.000  C
  C4       1.0000 0.26399  0.89098  0.78618  Biso   1.000  C
  C5       1.0000 0.46000  0.15732  0.73301  Biso   1.000  C
  C6       1.0000 0.45430  0.97844  0.66118  Biso   1.000  C
  O1       1.0000 0.26887  0.16759  0.88276  Biso   1.000  O
  N3       1.0000 0.22386  0.98499  0.91941  Biso   1.000  N
  C7       1.0000 0.21967  0.87218  0.87727  Biso   1.000  C
  H3       1.0000 0.22737  0.87209  0.73569  Biso   1.000  H
  N4       1.0000 0.33511  0.81430  0.79133  Biso   1.000  N
  N5       1.0000 0.33511  0.81430  0.79127  Biso   1.000  N
  N6       1.0000 0.54038  0.12886  0.71141  Biso   1.000  N
  O2       1.0000 0.43727  0.24677  0.76819  Biso   1.000  O
  C8       1.0000 0.54570  0.02156  0.66118  Biso   1.000  C
  H4       1.0000 0.43327  0.96576  0.60039  Biso   1.000  H
  N7       1.0000 0.45962  0.87114  0.71141  Biso   1.000  N
  C9       1.0000 0.18067  0.01527  0.00000  Biso   1.000  C
  H5       1.0000 0.16170  0.84682  0.86932  Biso   1.000  H
  N8       1.0000 0.26981  0.78437  0.91928  Biso   1.000  N
  C10      1.0000 0.39151  0.79093  0.71823  Biso   1.000  C
  C11      1.0000 0.33567  0.75168  0.86898  Biso   1.000  C
  C12      1.0000 0.39151  0.79093  0.71816  Biso   1.000  C
  C13      1.0000 0.60849  0.20907  0.71823  Biso   1.000  C
  C14      1.0000 0.60849  0.20907  0.71816  Biso   1.000  C
  H6       1.0000 0.56667  0.03424  0.60039  Biso   1.000  H
  N9       1.0000 0.59058  0.93083  0.70633  Biso   1.000  N
  C15      1.0000 0.54000  0.84268  0.73301  Biso   1.000  C
  H7       1.0000 0.12652  0.97766  0.00000  Biso   1.000  H
  N10      1.0000 0.22386  0.98499  0.08059  Biso   1.000  N
  H8       1.0000 0.17097  0.09790  0.00000  Biso   1.000  H
  C16      1.0000 0.24628  0.72520  0.00000  Biso   1.000  C
  H9       1.0000 0.41417  0.71390  0.72552  Biso   1.000  H
  H10      1.0000 0.36009  0.79222  0.66272  Biso   1.000  H
  O3       1.0000 0.38713  0.67776  0.88777  Biso   1.000  O
  H11      1.0000 0.58576  0.28610  0.72552  Biso   1.000  H
  H12      1.0000 0.63991  0.20778  0.66272  Biso   1.000  H
  N11      1.0000 0.66489  0.18570  0.79133  Biso   1.000  N
  N12      1.0000 0.66489  0.18570  0.79127  Biso   1.000  N
  C17      1.0000 0.68111  0.92617  0.71489  Biso   1.000  C
  O4       1.0000 0.56273  0.75323  0.76819  Biso   1.000  O
  C18      1.0000 0.21967  0.87218  0.12273  Biso   1.000  C
  C19      1.0000 0.21967  0.87218  0.12266  Biso   1.000  C
  C20      1.0000 0.26011  0.06521  0.13517  Biso   1.000  C
  H13      1.0000 0.27219  0.64947  0.00000  Biso   1.000  H
  H14      1.0000 0.18611  0.71416  0.00000  Biso   1.000  H
  N13      1.0000 0.26981  0.78437  0.08072  Biso   1.000  N
  C21      1.0000 0.66427  0.24832  0.86898  Biso   1.000  C
  C22      1.0000 0.73601  0.10902  0.78618  Biso   1.000  C
  H15      1.0000 0.69770  0.84604  0.72017  Biso   1.000  H
  H16      1.0000 0.70571  0.95610  0.66031  Biso   1.000  H
  N14      1.0000 0.71491  0.98784  0.78819  Biso   1.000  N
  H17      1.0000 0.16170  0.84682  0.13068  Biso   1.000  H
  C23      1.0000 0.26399  0.89098  0.21382  Biso   1.000  C
  N15      1.0000 0.28509  0.01216  0.21181  Biso   1.000  N
  O5       1.0000 0.26887  0.16759  0.11724  Biso   1.000  O
  C24      1.0000 0.33567  0.75168  0.13102  Biso   1.000  C
  O6       1.0000 0.61287  0.32224  0.88777  Biso   1.000  O
  N16      1.0000 0.73019  0.21563  0.91928  Biso   1.000  N
  H18      1.0000 0.77257  0.12791  0.73569  Biso   1.000  H
  C25      1.0000 0.78027  0.12782  0.87727  Biso   1.000  C
  C26      1.0000 0.73989  0.93479  0.86483  Biso   1.000  C
  C27      1.0000 0.73989  0.93479  0.86477  Biso   1.000  C
  H19      1.0000 0.22737  0.87209  0.26431  Biso   1.000  H
  N17      1.0000 0.33511  0.81430  0.20867  Biso   1.000  N
  C28      1.0000 0.31889  0.07383  0.28511  Biso   1.000  C
  O7       1.0000 0.38713  0.67776  0.11223  Biso   1.000  O
  C29      1.0000 0.75366  0.27480  0.00000  Biso   1.000  C
  H20      1.0000 0.83830  0.15318  0.86932  Biso   1.000  H
  N18      1.0000 0.77614  0.01501  0.91941  Biso   1.000  N
  O8       1.0000 0.73106  0.83241  0.88276  Biso   1.000  O
  C30      1.0000 0.39151  0.79093  0.28177  Biso   1.000  C
  H21      1.0000 0.30230  0.15396  0.27983  Biso   1.000  H
  H22      1.0000 0.29429  0.04390  0.33969  Biso   1.000  H
  N19      1.0000 0.40942  0.06917  0.29367  Biso   1.000  N
  H23      1.0000 0.30230  0.15396  0.27976  Biso   1.000  H
  H24      1.0000 0.72781  0.35053  0.00000  Biso   1.000  H
  H25      1.0000 0.81389  0.28584  0.00000  Biso   1.000  H
  N20      1.0000 0.73019  0.21563  0.08072  Biso   1.000  N
  C31      1.0000 0.81927  0.98473  0.00000  Biso   1.000  C
  H26      1.0000 0.41417  0.71390  0.27448  Biso   1.000  H
  H27      1.0000 0.36009  0.79222  0.33728  Biso   1.000  H
  N21      1.0000 0.45962  0.87114  0.28859  Biso   1.000  N
  C32      1.0000 0.45430  0.97844  0.33882  Biso   1.000  C
  C33      1.0000 0.46000  0.15732  0.26699  Biso   1.000  C
  C34      1.0000 0.78027  0.12782  0.12273  Biso   1.000  C
  C35      1.0000 0.66427  0.24832  0.13102  Biso   1.000  C
  C36      1.0000 0.78027  0.12782  0.12266  Biso   1.000  C
  H28      1.0000 0.82897  0.90210  0.00000  Biso   1.000  H
  H29      1.0000 0.87348  0.02234  0.00000  Biso   1.000  H
  N22      1.0000 0.77614  0.01501  0.08059  Biso   1.000  N
  C37      1.0000 0.54000  0.84268  0.26699  Biso   1.000  C
  H30      1.0000 0.43327  0.96576  0.39961  Biso   1.000  H
  C38      1.0000 0.54570  0.02156  0.33882  Biso   1.000  C
  N23      1.0000 0.54038  0.12886  0.28859  Biso   1.000  N
  O9       1.0000 0.43727  0.24677  0.23181  Biso   1.000  O
  H31      1.0000 0.83830  0.15318  0.13068  Biso   1.000  H
  C39      1.0000 0.73601  0.10902  0.21382  Biso   1.000  C
  N24      1.0000 0.66489  0.18570  0.20867  Biso   1.000  N
  O10      1.0000 0.61287  0.32224  0.11223  Biso   1.000  O
  C40      1.0000 0.73989  0.93479  0.13517  Biso   1.000  C
  N25      1.0000 0.59058  0.93083  0.29367  Biso   1.000  N
  O11      1.0000 0.56273  0.75323  0.23181  Biso   1.000  O
  H32      1.0000 0.56667  0.03424  0.39961  Biso   1.000  H
  C41      1.0000 0.60849  0.20907  0.28177  Biso   1.000  C
  N26      1.0000 0.71491  0.98784  0.21181  Biso   1.000  N
  H33      1.0000 0.77257  0.12791  0.26431  Biso   1.000  H
  O12      1.0000 0.73106  0.83241  0.11724  Biso   1.000  O
  C42      1.0000 0.68111  0.92617  0.28511  Biso   1.000  C
  H34      1.0000 0.58576  0.28610  0.27448  Biso   1.000  H
  H35      1.0000 0.63991  0.20778  0.33728  Biso   1.000  H
  H36      1.0000 0.69770  0.84604  0.27983  Biso   1.000  H
  H37      1.0000 0.70571  0.95610  0.33969  Biso   1.000  H
  H38      1.0000 0.69770  0.84604  0.27976  Biso   1.000  H
  C43      1.0000 0.31889  0.07383  0.71489  Biso   1.000  C
  H39      1.0000 0.30230  0.15396  0.72017  Biso   1.000  H
  H40      1.0000 0.29429  0.04390  0.66031  Biso   1.000  H
  N27      1.0000 0.28509  0.01216  0.78819  Biso   1.000  N
  N28      1.0000 0.40942  0.06917  0.70633  Biso   1.000  N
  C44      1.0000 0.26011  0.06521  0.86483  Biso   1.000  C
  C45      1.0000 0.26011  0.06521  0.86477  Biso   1.000  C
  C46      1.0000 0.26399  0.89098  0.78618  Biso   1.000  C
  C47      1.0000 0.46000  0.15732  0.73301  Biso   1.000  C
  C48      1.0000 0.45430  0.97844  0.66118  Biso   1.000  C
  O13      1.0000 0.26887  0.16759  0.88276  Biso   1.000  O
  N29      1.0000 0.22386  0.98499  0.91941  Biso   1.000  N
  C49      1.0000 0.21967  0.87218  0.87727  Biso   1.000  C
  H41      1.0000 0.22737  0.87209  0.73569  Biso   1.000  H
  N30      1.0000 0.33511  0.81430  0.79133  Biso   1.000  N
  N31      1.0000 0.33511  0.81430  0.79127  Biso   1.000  N
  N32      1.0000 0.54038  0.12886  0.71141  Biso   1.000  N
  O14      1.0000 0.43727  0.24677  0.76819  Biso   1.000  O
  C50      1.0000 0.54570  0.02156  0.66118  Biso   1.000  C
  H42      1.0000 0.43327  0.96576  0.60039  Biso   1.000  H
  N33      1.0000 0.45962  0.87114  0.71141  Biso   1.000  N
  C51      1.0000 0.18067  0.01527  0.00000  Biso   1.000  C
  H43      1.0000 0.16170  0.84682  0.86932  Biso   1.000  H
  N34      1.0000 0.26981  0.78437  0.91928  Biso   1.000  N
  C52      1.0000 0.39151  0.79093  0.71823  Biso   1.000  C
  C53      1.0000 0.33567  0.75168  0.86898  Biso   1.000  C
  C54      1.0000 0.39151  0.79093  0.71816  Biso   1.000  C
  C55      1.0000 0.60849  0.20907  0.71823  Biso   1.000  C
  C56      1.0000 0.60849  0.20907  0.71816  Biso   1.000  C
  H44      1.0000 0.56667  0.03424  0.60039  Biso   1.000  H
  N35      1.0000 0.59058  0.93083  0.70633  Biso   1.000  N
  C57      1.0000 0.54000  0.84268  0.73301  Biso   1.000  C
  H45      1.0000 0.12652  0.97766  0.00000  Biso   1.000  H
  N36      1.0000 0.22386  0.98499  0.08059  Biso   1.000  N
  H46      1.0000 0.17097  0.09790  0.00000  Biso   1.000  H
  C58      1.0000 0.24628  0.72520  0.00000  Biso   1.000  C
  H47      1.0000 0.41417  0.71390  0.72552  Biso   1.000  H
  H48      1.0000 0.36009  0.79222  0.66272  Biso   1.000  H
  O15      1.0000 0.38713  0.67776  0.88777  Biso   1.000  O
  H49      1.0000 0.58576  0.28610  0.72552  Biso   1.000  H
  H50      1.0000 0.63991  0.20778  0.66272  Biso   1.000  H
  N37      1.0000 0.66489  0.18570  0.79133  Biso   1.000  N
  N38      1.0000 0.66489  0.18570  0.79127  Biso   1.000  N
  C59      1.0000 0.68111  0.92617  0.71489  Biso   1.000  C
  O16      1.0000 0.56273  0.75323  0.76819  Biso   1.000  O
  C60      1.0000 0.21967  0.87218  0.12273  Biso   1.000  C
  C61      1.0000 0.21967  0.87218  0.12266  Biso   1.000  C
  C62      1.0000 0.26011  0.06521  0.13517  Biso   1.000  C
  H51      1.0000 0.27219  0.64947  0.00000  Biso   1.000  H
  H52      1.0000 0.18611  0.71416  0.00000  Biso   1.000  H
  N39      1.0000 0.26981  0.78437  0.08072  Biso   1.000  N
  C63      1.0000 0.66427  0.24832  0.86898  Biso   1.000  C
  C64      1.0000 0.73601  0.10902  0.78618  Biso   1.000  C
  H53      1.0000 0.69770  0.84604  0.72017  Biso   1.000  H
  H54      1.0000 0.70571  0.95610  0.66031  Biso   1.000  H
  N40      1.0000 0.71491  0.98784  0.78819  Biso   1.000  N
  H55      1.0000 0.16170  0.84682  0.13068  Biso   1.000  H
  C65      1.0000 0.26399  0.89098  0.21382  Biso   1.000  C
  N41      1.0000 0.28509  0.01216  0.21181  Biso   1.000  N
  O17      1.0000 0.26887  0.16759  0.11724  Biso   1.000  O
  C66      1.0000 0.33567  0.75168  0.13102  Biso   1.000  C
  O18      1.0000 0.61287  0.32224  0.88777  Biso   1.000  O
  N42      1.0000 0.73019  0.21563  0.91928  Biso   1.000  N
  H56      1.0000 0.77257  0.12791  0.73569  Biso   1.000  H
  C67      1.0000 0.78027  0.12782  0.87727  Biso   1.000  C
  C68      1.0000 0.73989  0.93479  0.86483  Biso   1.000  C
  C69      1.0000 0.73989  0.93479  0.86477  Biso   1.000  C
  H57      1.0000 0.22737  0.87209  0.26431  Biso   1.000  H
  N43      1.0000 0.33511  0.81430  0.20867  Biso   1.000  N
  C70      1.0000 0.31889  0.07383  0.28511  Biso   1.000  C
  O19      1.0000 0.38713  0.67776  0.11223  Biso   1.000  O
  C71      1.0000 0.75366  0.27480  0.00000  Biso   1.000  C
  H58      1.0000 0.83830  0.15318  0.86932  Biso   1.000  H
  N44      1.0000 0.77614  0.01501  0.91941  Biso   1.000  N
  O20      1.0000 0.73106  0.83241  0.88276  Biso   1.000  O
  C72      1.0000 0.39151  0.79093  0.28177  Biso   1.000  C
  H59      1.0000 0.30230  0.15396  0.27983  Biso   1.000  H
  H60      1.0000 0.29429  0.04390  0.33969  Biso   1.000  H
  N45      1.0000 0.40942  0.06917  0.29367  Biso   1.000  N
  H61      1.0000 0.30230  0.15396  0.27976  Biso   1.000  H
  H62      1.0000 0.72781  0.35053  0.00000  Biso   1.000  H
  H63      1.0000 0.81389  0.28584  0.00000  Biso   1.000  H
  N46      1.0000 0.73019  0.21563  0.08072  Biso   1.000  N
  C73      1.0000 0.81927  0.98473  0.00000  Biso   1.000  C
  H64      1.0000 0.41417  0.71390  0.27448  Biso   1.000  H
  H65      1.0000 0.36009  0.79222  0.33728  Biso   1.000  H
  N47      1.0000 0.45962  0.87114  0.28859  Biso   1.000  N
  C74      1.0000 0.45430  0.97844  0.33882  Biso   1.000  C
  C75      1.0000 0.46000  0.15732  0.26699  Biso   1.000  C
  C76      1.0000 0.78027  0.12782  0.12273  Biso   1.000  C
  C77      1.0000 0.66427  0.24832  0.13102  Biso   1.000  C
  C78      1.0000 0.78027  0.12782  0.12266  Biso   1.000  C
  H66      1.0000 0.82897  0.90210  0.00000  Biso   1.000  H
  H67      1.0000 0.87348  0.02234  0.00000  Biso   1.000  H
  N48      1.0000 0.77614  0.01501  0.08059  Biso   1.000  N
  C79      1.0000 0.54000  0.84268  0.26699  Biso   1.000  C
  H68      1.0000 0.43327  0.96576  0.39961  Biso   1.000  H
  C80      1.0000 0.54570  0.02156  0.33882  Biso   1.000  C
  N49      1.0000 0.54038  0.12886  0.28859  Biso   1.000  N
  O21      1.0000 0.43727  0.24677  0.23181  Biso   1.000  O
  H69      1.0000 0.83830  0.15318  0.13068  Biso   1.000  H
  C81      1.0000 0.73601  0.10902  0.21382  Biso   1.000  C
  N50      1.0000 0.66489  0.18570  0.20867  Biso   1.000  N
  O22      1.0000 0.61287  0.32224  0.11223  Biso   1.000  O
  C82      1.0000 0.73989  0.93479  0.13517  Biso   1.000  C
  N51      1.0000 0.59058  0.93083  0.29367  Biso   1.000  N
  O23      1.0000 0.56273  0.75323  0.23181  Biso   1.000  O
  H70      1.0000 0.56667  0.03424  0.39961  Biso   1.000  H
  C83      1.0000 0.60849  0.20907  0.28177  Biso   1.000  C
  N52      1.0000 0.71491  0.98784  0.21181  Biso   1.000  N
  H71      1.0000 0.77257  0.12791  0.26431  Biso   1.000  H
  O24      1.0000 0.73106  0.83241  0.11724  Biso   1.000  O
  C84      1.0000 0.68111  0.92617  0.28511  Biso   1.000  C
  H72      1.0000 0.58576  0.28610  0.27448  Biso   1.000  H
  H73      1.0000 0.63991  0.20778  0.33728  Biso   1.000  H
  H74      1.0000 0.69770  0.84604  0.27983  Biso   1.000  H
  H75      1.0000 0.70571  0.95610  0.33969  Biso   1.000  H
  H76      1.0000 0.69770  0.84604  0.27976  Biso   1.000  H
  C85      1.0000 0.31889  0.07383  0.71489  Biso   1.000  C
  H77      1.0000 0.30230  0.15396  0.72017  Biso   1.000  H
  H78      1.0000 0.29429  0.04390  0.66031  Biso   1.000  H
  N53      1.0000 0.28509  0.01216  0.78819  Biso   1.000  N
  N54      1.0000 0.40942  0.06917  0.70633  Biso   1.000  N
  C86      1.0000 0.26399  0.89098  0.78618  Biso   1.000  C
  C87      1.0000 0.26011  0.06521  0.86483  Biso   1.000  C
  C88      1.0000 0.26011  0.06521  0.86477  Biso   1.000  C
  C89      1.0000 0.46000  0.15732  0.73301  Biso   1.000  C
  C90      1.0000 0.45430  0.97844  0.66118  Biso   1.000  C
  C91      1.0000 0.21967  0.87218  0.87727  Biso   1.000  C
  H79      1.0000 0.22737  0.87209  0.73569  Biso   1.000  H
  N55      1.0000 0.33511  0.81430  0.79133  Biso   1.000  N
  N56      1.0000 0.33511  0.81430  0.79127  Biso   1.000  N
  O25      1.0000 0.26887  0.16759  0.88276  Biso   1.000  O
  N57      1.0000 0.22386  0.98499  0.91941  Biso   1.000  N
  N58      1.0000 0.54038  0.12886  0.71141  Biso   1.000  N
  O26      1.0000 0.43727  0.24677  0.76819  Biso   1.000  O
  C92      1.0000 0.54570  0.02156  0.66118  Biso   1.000  C
  H80      1.0000 0.43327  0.96576  0.60039  Biso   1.000  H
  N59      1.0000 0.45962  0.87114  0.71141  Biso   1.000  N
  H81      1.0000 0.16170  0.84682  0.86932  Biso   1.000  H
  N60      1.0000 0.26981  0.78437  0.91928  Biso   1.000  N
  C93      1.0000 0.39151  0.79093  0.71823  Biso   1.000  C
  C94      1.0000 0.33567  0.75168  0.86898  Biso   1.000  C
  C95      1.0000 0.39151  0.79093  0.71816  Biso   1.000  C
  C96      1.0000 0.18067  0.01527  0.00000  Biso   1.000  C
  C97      1.0000 0.60849  0.20907  0.71823  Biso   1.000  C
  C98      1.0000 0.60849  0.20907  0.71816  Biso   1.000  C
  H82      1.0000 0.56667  0.03424  0.60039  Biso   1.000  H
  N61      1.0000 0.59058  0.93083  0.70633  Biso   1.000  N
  C99      1.0000 0.54000  0.84268  0.73301  Biso   1.000  C
  C100     1.0000 0.24628  0.72520  0.00000  Biso   1.000  C
  H83      1.0000 0.41417  0.71390  0.72552  Biso   1.000  H
  H84      1.0000 0.36009  0.79222  0.66272  Biso   1.000  H
  O27      1.0000 0.38713  0.67776  0.88777  Biso   1.000  O
  H85      1.0000 0.12652  0.97766  0.00000  Biso   1.000  H
  N62      1.0000 0.22386  0.98499  0.08059  Biso   1.000  N
  H86      1.0000 0.17097  0.09790  0.00000  Biso   1.000  H
  H87      1.0000 0.58576  0.28610  0.72552  Biso   1.000  H
  H88      1.0000 0.63991  0.20778  0.66272  Biso   1.000  H
  N63      1.0000 0.66489  0.18570  0.79133  Biso   1.000  N
  N64      1.0000 0.66489  0.18570  0.79127  Biso   1.000  N
  C101     1.0000 0.68111  0.92617  0.71489  Biso   1.000  C
  O28      1.0000 0.56273  0.75323  0.76819  Biso   1.000  O
  H89      1.0000 0.27219  0.64947  0.00000  Biso   1.000  H
  H90      1.0000 0.18611  0.71416  0.00000  Biso   1.000  H
  N65      1.0000 0.26981  0.78437  0.08072  Biso   1.000  N
  C102     1.0000 0.21967  0.87218  0.12273  Biso   1.000  C
  C103     1.0000 0.21967  0.87218  0.12266  Biso   1.000  C
  C104     1.0000 0.26011  0.06521  0.13517  Biso   1.000  C
  C105     1.0000 0.66427  0.24832  0.86898  Biso   1.000  C
  C106     1.0000 0.73601  0.10902  0.78618  Biso   1.000  C
  H91      1.0000 0.69770  0.84604  0.72017  Biso   1.000  H
  H92      1.0000 0.70571  0.95610  0.66031  Biso   1.000  H
  N66      1.0000 0.71491  0.98784  0.78819  Biso   1.000  N
  C107     1.0000 0.33567  0.75168  0.13102  Biso   1.000  C
  H93      1.0000 0.16170  0.84682  0.13068  Biso   1.000  H
  C108     1.0000 0.26399  0.89098  0.21382  Biso   1.000  C
  N67      1.0000 0.28509  0.01216  0.21181  Biso   1.000  N
  O29      1.0000 0.26887  0.16759  0.11724  Biso   1.000  O
  O30      1.0000 0.61287  0.32224  0.88777  Biso   1.000  O
  N68      1.0000 0.73019  0.21563  0.91928  Biso   1.000  N
  H94      1.0000 0.77257  0.12791  0.73569  Biso   1.000  H
  C109     1.0000 0.78027  0.12782  0.87727  Biso   1.000  C
  C110     1.0000 0.73989  0.93479  0.86483  Biso   1.000  C
  C111     1.0000 0.73989  0.93479  0.86477  Biso   1.000  C
  N69      1.0000 0.33511  0.81430  0.20867  Biso   1.000  N
  O31      1.0000 0.38713  0.67776  0.11223  Biso   1.000  O
  H95      1.0000 0.22737  0.87209  0.26431  Biso   1.000  H
  C112     1.0000 0.31889  0.07383  0.28511  Biso   1.000  C
  C113     1.0000 0.75366  0.27480  0.00000  Biso   1.000  C
  H96      1.0000 0.83830  0.15318  0.86932  Biso   1.000  H
  N70      1.0000 0.77614  0.01501  0.91941  Biso   1.000  N
  O32      1.0000 0.73106  0.83241  0.88276  Biso   1.000  O
  C114     1.0000 0.39151  0.79093  0.28177  Biso   1.000  C
  H97      1.0000 0.30230  0.15396  0.27983  Biso   1.000  H
  H98      1.0000 0.29429  0.04390  0.33969  Biso   1.000  H
  N71      1.0000 0.40942  0.06917  0.29367  Biso   1.000  N
  H99      1.0000 0.30230  0.15396  0.27976  Biso   1.000  H
  H100     1.0000 0.72781  0.35053  0.00000  Biso   1.000  H
  H101     1.0000 0.81389  0.28584  0.00000  Biso   1.000  H
  N72      1.0000 0.73019  0.21563  0.08072  Biso   1.000  N
  C115     1.0000 0.81927  0.98473  0.00000  Biso   1.000  C
  H102     1.0000 0.41417  0.71390  0.27448  Biso   1.000  H
  H103     1.0000 0.36009  0.79222  0.33728  Biso   1.000  H
  N73      1.0000 0.45962  0.87114  0.28859  Biso   1.000  N
  C116     1.0000 0.45430  0.97844  0.33882  Biso   1.000  C
  C117     1.0000 0.46000  0.15732  0.26699  Biso   1.000  C
  C118     1.0000 0.78027  0.12782  0.12273  Biso   1.000  C
  C119     1.0000 0.66427  0.24832  0.13102  Biso   1.000  C
  C120     1.0000 0.78027  0.12782  0.12266  Biso   1.000  C
  H104     1.0000 0.82897  0.90210  0.00000  Biso   1.000  H
  H105     1.0000 0.87348  0.02234  0.00000  Biso   1.000  H
  N74      1.0000 0.77614  0.01501  0.08059  Biso   1.000  N
  C121     1.0000 0.54000  0.84268  0.26699  Biso   1.000  C
  H106     1.0000 0.43327  0.96576  0.39961  Biso   1.000  H
  C122     1.0000 0.54570  0.02156  0.33882  Biso   1.000  C
  N75      1.0000 0.54038  0.12886  0.28859  Biso   1.000  N
  O33      1.0000 0.43727  0.24677  0.23181  Biso   1.000  O
  H107     1.0000 0.83830  0.15318  0.13068  Biso   1.000  H
  C123     1.0000 0.73601  0.10902  0.21382  Biso   1.000  C
  N76      1.0000 0.66489  0.18570  0.20867  Biso   1.000  N
  O34      1.0000 0.61287  0.32224  0.11223  Biso   1.000  O
  C124     1.0000 0.73989  0.93479  0.13517  Biso   1.000  C
  N77      1.0000 0.59058  0.93083  0.29367  Biso   1.000  N
  O35      1.0000 0.56273  0.75323  0.23181  Biso   1.000  O
  H108     1.0000 0.56667  0.03424  0.39961  Biso   1.000  H
  C125     1.0000 0.60849  0.20907  0.28177  Biso   1.000  C
  N78      1.0000 0.71491  0.98784  0.21181  Biso   1.000  N
  H109     1.0000 0.77257  0.12791  0.26431  Biso   1.000  H
  O36      1.0000 0.73106  0.83241  0.11724  Biso   1.000  O
  C126     1.0000 0.68111  0.92617  0.28511  Biso   1.000  C
  H110     1.0000 0.58576  0.28610  0.27448  Biso   1.000  H
  H111     1.0000 0.63991  0.20778  0.33728  Biso   1.000  H
  H112     1.0000 0.69770  0.84604  0.27983  Biso   1.000  H
  H113     1.0000 0.70571  0.95610  0.33969  Biso   1.000  H
  H114     1.0000 0.69770  0.84604  0.27976  Biso   1.000  H
  C127     1.0000 0.31889  0.07383  0.71489  Biso   1.000  C
  H115     1.0000 0.30230  0.15396  0.72017  Biso   1.000  H
  H116     1.0000 0.29429  0.04390  0.66031  Biso   1.000  H
  N79      1.0000 0.28509  0.01216  0.78819  Biso   1.000  N
  N80      1.0000 0.40942  0.06917  0.70633  Biso   1.000  N
  C128     1.0000 0.26399  0.89098  0.78618  Biso   1.000  C
  C129     1.0000 0.26011  0.06521  0.86483  Biso   1.000  C
  C130     1.0000 0.26011  0.06521  0.86477  Biso   1.000  C
  C131     1.0000 0.46000  0.15732  0.73301  Biso   1.000  C
  C132     1.0000 0.45430  0.97844  0.66118  Biso   1.000  C
  C133     1.0000 0.21967  0.87218  0.87727  Biso   1.000  C
  H117     1.0000 0.22737  0.87209  0.73569  Biso   1.000  H
  N81      1.0000 0.33511  0.81430  0.79133  Biso   1.000  N
  N82      1.0000 0.33511  0.81430  0.79127  Biso   1.000  N
  O37      1.0000 0.26887  0.16759  0.88276  Biso   1.000  O
  N83      1.0000 0.22386  0.98499  0.91941  Biso   1.000  N
  N84      1.0000 0.54038  0.12886  0.71141  Biso   1.000  N
  O38      1.0000 0.43727  0.24677  0.76819  Biso   1.000  O
  C134     1.0000 0.54570  0.02156  0.66118  Biso   1.000  C
  H118     1.0000 0.43327  0.96576  0.60039  Biso   1.000  H
  N85      1.0000 0.45962  0.87114  0.71141  Biso   1.000  N
  H119     1.0000 0.16170  0.84682  0.86932  Biso   1.000  H
  N86      1.0000 0.26981  0.78437  0.91928  Biso   1.000  N
  C135     1.0000 0.39151  0.79093  0.71823  Biso   1.000  C
  C136     1.0000 0.33567  0.75168  0.86898  Biso   1.000  C
  C137     1.0000 0.39151  0.79093  0.71816  Biso   1.000  C
  C138     1.0000 0.18067  0.01527  0.00000  Biso   1.000  C
  C139     1.0000 0.60849  0.20907  0.71823  Biso   1.000  C
  C140     1.0000 0.60849  0.20907  0.71816  Biso   1.000  C
  H120     1.0000 0.56667  0.03424  0.60039  Biso   1.000  H
  N87      1.0000 0.59058  0.93083  0.70633  Biso   1.000  N
  C141     1.0000 0.54000  0.84268  0.73301  Biso   1.000  C
  C142     1.0000 0.24628  0.72520  0.00000  Biso   1.000  C
  H121     1.0000 0.41417  0.71390  0.72552  Biso   1.000  H
  H122     1.0000 0.36009  0.79222  0.66272  Biso   1.000  H
  O39      1.0000 0.38713  0.67776  0.88777  Biso   1.000  O
  H123     1.0000 0.12652  0.97766  0.00000  Biso   1.000  H
  N88      1.0000 0.22386  0.98499  0.08059  Biso   1.000  N
  H124     1.0000 0.17097  0.09790  0.00000  Biso   1.000  H
  H125     1.0000 0.58576  0.28610  0.72552  Biso   1.000  H
  H126     1.0000 0.63991  0.20778  0.66272  Biso   1.000  H
  N89      1.0000 0.66489  0.18570  0.79133  Biso   1.000  N
  N90      1.0000 0.66489  0.18570  0.79127  Biso   1.000  N
  C143     1.0000 0.68111  0.92617  0.71489  Biso   1.000  C
  O40      1.0000 0.56273  0.75323  0.76819  Biso   1.000  O
  H127     1.0000 0.27219  0.64947  0.00000  Biso   1.000  H
  H128     1.0000 0.18611  0.71416  0.00000  Biso   1.000  H
  N91      1.0000 0.26981  0.78437  0.08072  Biso   1.000  N
  C144     1.0000 0.21967  0.87218  0.12273  Biso   1.000  C
  C145     1.0000 0.21967  0.87218  0.12266  Biso   1.000  C
  C146     1.0000 0.26011  0.06521  0.13517  Biso   1.000  C
  C147     1.0000 0.66427  0.24832  0.86898  Biso   1.000  C
  C148     1.0000 0.73601  0.10902  0.78618  Biso   1.000  C
  H129     1.0000 0.69770  0.84604  0.72017  Biso   1.000  H
  H130     1.0000 0.70571  0.95610  0.66031  Biso   1.000  H
  N92      1.0000 0.71491  0.98784  0.78819  Biso   1.000  N
  C149     1.0000 0.33567  0.75168  0.13102  Biso   1.000  C
  H131     1.0000 0.16170  0.84682  0.13068  Biso   1.000  H
  C150     1.0000 0.26399  0.89098  0.21382  Biso   1.000  C
  N93      1.0000 0.28509  0.01216  0.21181  Biso   1.000  N
  O41      1.0000 0.26887  0.16759  0.11724  Biso   1.000  O
  O42      1.0000 0.61287  0.32224  0.88777  Biso   1.000  O
  N94      1.0000 0.73019  0.21563  0.91928  Biso   1.000  N
  H132     1.0000 0.77257  0.12791  0.73569  Biso   1.000  H
  C151     1.0000 0.78027  0.12782  0.87727  Biso   1.000  C
  C152     1.0000 0.73989  0.93479  0.86483  Biso   1.000  C
  C153     1.0000 0.73989  0.93479  0.86477  Biso   1.000  C
  N95      1.0000 0.33511  0.81430  0.20867  Biso   1.000  N
  O43      1.0000 0.38713  0.67776  0.11223  Biso   1.000  O
  H133     1.0000 0.22737  0.87209  0.26431  Biso   1.000  H
  C154     1.0000 0.31889  0.07383  0.28511  Biso   1.000  C
  C155     1.0000 0.75366  0.27480  0.00000  Biso   1.000  C
  H134     1.0000 0.83830  0.15318  0.86932  Biso   1.000  H
  N96      1.0000 0.77614  0.01501  0.91941  Biso   1.000  N
  O44      1.0000 0.73106  0.83241  0.88276  Biso   1.000  O
  C156     1.0000 0.39151  0.79093  0.28177  Biso   1.000  C
  H135     1.0000 0.30230  0.15396  0.27983  Biso   1.000  H
  H136     1.0000 0.29429  0.04390  0.33969  Biso   1.000  H
  N97      1.0000 0.40942  0.06917  0.29367  Biso   1.000  N
  H137     1.0000 0.30230  0.15396  0.27976  Biso   1.000  H
  H138     1.0000 0.72781  0.35053  0.00000  Biso   1.000  H
  H139     1.0000 0.81389  0.28584  0.00000  Biso   1.000  H
  N98      1.0000 0.73019  0.21563  0.08072  Biso   1.000  N
  C157     1.0000 0.81927  0.98473  0.00000  Biso   1.000  C
  H140     1.0000 0.41417  0.71390  0.27448  Biso   1.000  H
  H141     1.0000 0.36009  0.79222  0.33728  Biso   1.000  H
  N99      1.0000 0.45962  0.87114  0.28859  Biso   1.000  N
  C158     1.0000 0.45430  0.97844  0.33882  Biso   1.000  C
  C159     1.0000 0.46000  0.15732  0.26699  Biso   1.000  C
  C160     1.0000 0.78027  0.12782  0.12273  Biso   1.000  C
  C161     1.0000 0.66427  0.24832  0.13102  Biso   1.000  C
  C162     1.0000 0.78027  0.12782  0.12266  Biso   1.000  C
  H142     1.0000 0.82897  0.90210  0.00000  Biso   1.000  H
  H143     1.0000 0.87348  0.02234  0.00000  Biso   1.000  H
  N100     1.0000 0.77614  0.01501  0.08059  Biso   1.000  N
  C163     1.0000 0.54000  0.84268  0.26699  Biso   1.000  C
  H144     1.0000 0.43327  0.96576  0.39961  Biso   1.000  H
  C164     1.0000 0.54570  0.02156  0.33882  Biso   1.000  C
  N101     1.0000 0.54038  0.12886  0.28859  Biso   1.000  N
  O45      1.0000 0.43727  0.24677  0.23181  Biso   1.000  O
  H145     1.0000 0.83830  0.15318  0.13068  Biso   1.000  H
  C165     1.0000 0.73601  0.10902  0.21382  Biso   1.000  C
  N102     1.0000 0.66489  0.18570  0.20867  Biso   1.000  N
  O46      1.0000 0.61287  0.32224  0.11223  Biso   1.000  O
  C166     1.0000 0.73989  0.93479  0.13517  Biso   1.000  C
  N103     1.0000 0.59058  0.93083  0.29367  Biso   1.000  N
  O47      1.0000 0.56273  0.75323  0.23181  Biso   1.000  O
  H146     1.0000 0.56667  0.03424  0.39961  Biso   1.000  H
  C167     1.0000 0.60849  0.20907  0.28177  Biso   1.000  C
  N104     1.0000 0.71491  0.98784  0.21181  Biso   1.000  N
  H147     1.0000 0.77257  0.12791  0.26431  Biso   1.000  H
  O48      1.0000 0.73106  0.83241  0.11724  Biso   1.000  O
  C168     1.0000 0.68111  0.92617  0.28511  Biso   1.000  C
  H148     1.0000 0.58576  0.28610  0.27448  Biso   1.000  H
  H149     1.0000 0.63991  0.20778  0.33728  Biso   1.000  H
  H150     1.0000 0.69770  0.84604  0.27983  Biso   1.000  H
  H151     1.0000 0.70571  0.95610  0.33969  Biso   1.000  H
  H152     1.0000 0.69770  0.84604  0.27976  Biso   1.000  H
  C169     1.0000 0.23601  0.39098  0.71382  Biso   1.000  C
  C170     1.0000 0.28027  0.37218  0.62273  Biso   1.000  C
  N105     1.0000 0.16489  0.31430  0.70867  Biso   1.000  N
  N106     1.0000 0.21491  0.51216  0.71181  Biso   1.000  N
  N107     1.0000 0.21485  0.51216  0.71181  Biso   1.000  N
  H153     1.0000 0.27257  0.37209  0.76431  Biso   1.000  H
  N108     1.0000 0.23019  0.28437  0.58072  Biso   1.000  N
  N109     1.0000 0.27614  0.48499  0.58059  Biso   1.000  N
  N110     1.0000 0.27607  0.48499  0.58059  Biso   1.000  N
  H154     1.0000 0.33830  0.34682  0.63068  Biso   1.000  H
  H155     1.0000 0.33824  0.34682  0.63068  Biso   1.000  H
  C171     1.0000 0.23595  0.39098  0.71382  Biso   1.000  C
  C172     1.0000 0.16427  0.25168  0.63102  Biso   1.000  C
  C173     1.0000 0.10849  0.29093  0.78177  Biso   1.000  C
  C174     1.0000 0.23989  0.56521  0.63517  Biso   1.000  C
  C175     1.0000 0.18111  0.57383  0.78511  Biso   1.000  C
  C176     1.0000 0.18104  0.57383  0.78511  Biso   1.000  C
  C177     1.0000 0.25372  0.22520  0.50000  Biso   1.000  C
  C178     1.0000 0.25366  0.22520  0.50000  Biso   1.000  C
  C179     1.0000 0.31927  0.51527  0.50000  Biso   1.000  C
  O49      1.0000 0.11287  0.17776  0.61223  Biso   1.000  O
  H156     1.0000 0.08583  0.21390  0.77448  Biso   1.000  H
  H157     1.0000 0.13991  0.29222  0.83728  Biso   1.000  H
  N111     1.0000 0.04038  0.37114  0.78859  Biso   1.000  N
  H158     1.0000 0.08576  0.21390  0.77448  Biso   1.000  H
  H159     1.0000 0.13985  0.29222  0.83728  Biso   1.000  H
  O50      1.0000 0.23113  0.66759  0.61724  Biso   1.000  O
  O51      1.0000 0.23106  0.66759  0.61724  Biso   1.000  O
  H160     1.0000 0.19770  0.65396  0.77976  Biso   1.000  H
  H161     1.0000 0.20571  0.54390  0.83969  Biso   1.000  H
  N112     1.0000 0.09058  0.56917  0.79367  Biso   1.000  N
  H162     1.0000 0.20565  0.54390  0.83969  Biso   1.000  H
  N113     1.0000 0.09052  0.56917  0.79367  Biso   1.000  N
  N114     1.0000 0.23019  0.28437  0.41928  Biso   1.000  N
  H163     1.0000 0.22781  0.14947  0.50000  Biso   1.000  H
  H164     1.0000 0.31389  0.21416  0.50000  Biso   1.000  H
  H165     1.0000 0.22775  0.14947  0.50000  Biso   1.000  H
  N115     1.0000 0.27614  0.48499  0.41941  Biso   1.000  N
  N116     1.0000 0.27607  0.48499  0.41941  Biso   1.000  N
  H166     1.0000 0.32897  0.59790  0.50000  Biso   1.000  H
  H167     1.0000 0.37348  0.47766  0.50000  Biso   1.000  H
  C180     1.0000 0.04570  0.47844  0.83882  Biso   1.000  C
  C181     1.0000 0.96000  0.34268  0.76699  Biso   1.000  C
  C182     1.0000 0.04000  0.65732  0.76699  Biso   1.000  C
  C183     1.0000 0.28027  0.37218  0.37727  Biso   1.000  C
  C184     1.0000 0.16427  0.25168  0.36898  Biso   1.000  C
  C185     1.0000 0.23989  0.56521  0.36477  Biso   1.000  C
  H168     1.0000 0.06667  0.46576  0.89961  Biso   1.000  H
  C186     1.0000 0.95430  0.52156  0.83882  Biso   1.000  C
  N117     1.0000 0.90942  0.43083  0.79367  Biso   1.000  N
  O52      1.0000 0.93727  0.25323  0.73181  Biso   1.000  O
  O53      1.0000 0.93721  0.25323  0.73181  Biso   1.000  O
  O54      1.0000 0.06273  0.74677  0.73181  Biso   1.000  O
  N118     1.0000 0.95962  0.62886  0.78859  Biso   1.000  N
  C187     1.0000 0.23601  0.39098  0.28618  Biso   1.000  C
  H169     1.0000 0.33830  0.34682  0.36932  Biso   1.000  H
  H170     1.0000 0.33824  0.34682  0.36932  Biso   1.000  H
  C188     1.0000 0.23595  0.39098  0.28618  Biso   1.000  C
  N119     1.0000 0.16489  0.31430  0.29127  Biso   1.000  N
  O55      1.0000 0.11287  0.17776  0.38777  Biso   1.000  O
  N120     1.0000 0.21491  0.51216  0.28819  Biso   1.000  N
  N121     1.0000 0.21485  0.51216  0.28819  Biso   1.000  N
  O56      1.0000 0.23113  0.66759  0.38276  Biso   1.000  O
  O57      1.0000 0.23106  0.66759  0.38276  Biso   1.000  O
  H171     1.0000 0.93333  0.53424  0.89961  Biso   1.000  H
  H172     1.0000 0.93327  0.53424  0.89961  Biso   1.000  H
  C189     1.0000 0.81889  0.42617  0.78511  Biso   1.000  C
  C190     1.0000 0.89151  0.70907  0.78177  Biso   1.000  C
  C191     1.0000 0.89145  0.70907  0.78177  Biso   1.000  C
  H173     1.0000 0.27257  0.37209  0.23569  Biso   1.000  H
  C192     1.0000 0.10849  0.29093  0.21823  Biso   1.000  C
  C193     1.0000 0.18111  0.57383  0.21489  Biso   1.000  C
  C194     1.0000 0.18104  0.57383  0.21489  Biso   1.000  C
  H174     1.0000 0.80230  0.34604  0.77976  Biso   1.000  H
  H175     1.0000 0.79429  0.45610  0.83969  Biso   1.000  H
  N122     1.0000 0.78509  0.48784  0.71181  Biso   1.000  N
  H176     1.0000 0.91417  0.78610  0.77448  Biso   1.000  H
  H177     1.0000 0.86009  0.70778  0.83728  Biso   1.000  H
  N123     1.0000 0.83511  0.68570  0.70867  Biso   1.000  N
  H178     1.0000 0.08583  0.21390  0.22552  Biso   1.000  H
  H179     1.0000 0.13991  0.29222  0.16272  Biso   1.000  H
  N124     1.0000 0.04038  0.37114  0.21141  Biso   1.000  N
  H180     1.0000 0.08576  0.21390  0.22552  Biso   1.000  H
  H181     1.0000 0.13985  0.29222  0.16272  Biso   1.000  H
  H182     1.0000 0.19770  0.65396  0.22017  Biso   1.000  H
  H183     1.0000 0.20571  0.54390  0.16031  Biso   1.000  H
  N125     1.0000 0.09058  0.56917  0.20633  Biso   1.000  N
  H184     1.0000 0.20565  0.54390  0.16031  Biso   1.000  H
  N126     1.0000 0.09052  0.56917  0.20633  Biso   1.000  N
  C195     1.0000 0.76011  0.43479  0.63517  Biso   1.000  C
  C196     1.0000 0.76399  0.60902  0.71382  Biso   1.000  C
  C197     1.0000 0.83573  0.74832  0.63102  Biso   1.000  C
  C198     1.0000 0.83567  0.74832  0.63102  Biso   1.000  C
  C199     1.0000 0.04570  0.47844  0.16118  Biso   1.000  C
  C200     1.0000 0.96000  0.34268  0.23301  Biso   1.000  C
  C201     1.0000 0.04000  0.65732  0.23301  Biso   1.000  C
  N127     1.0000 0.72386  0.51501  0.58059  Biso   1.000  N
  O58      1.0000 0.76887  0.33241  0.61724  Biso   1.000  O
  C202     1.0000 0.71973  0.62782  0.62273  Biso   1.000  C
  C203     1.0000 0.71967  0.62782  0.62273  Biso   1.000  C
  H185     1.0000 0.72743  0.62791  0.76431  Biso   1.000  H
  H186     1.0000 0.72737  0.62791  0.76431  Biso   1.000  H
  N128     1.0000 0.76981  0.71563  0.58072  Biso   1.000  N
  N129     1.0000 0.76975  0.71563  0.58072  Biso   1.000  N
  O59      1.0000 0.88713  0.82224  0.61223  Biso   1.000  O
  O60      1.0000 0.88707  0.82224  0.61223  Biso   1.000  O
  H187     1.0000 0.06667  0.46576  0.10039  Biso   1.000  H
  C204     1.0000 0.95430  0.52156  0.16118  Biso   1.000  C
  N130     1.0000 0.90942  0.43083  0.20633  Biso   1.000  N
  O61      1.0000 0.93727  0.25323  0.26819  Biso   1.000  O
  O62      1.0000 0.93721  0.25323  0.26819  Biso   1.000  O
  O63      1.0000 0.06273  0.74677  0.26819  Biso   1.000  O
  N131     1.0000 0.95962  0.62886  0.21141  Biso   1.000  N
  C205     1.0000 0.68073  0.48473  0.50000  Biso   1.000  C
  C206     1.0000 0.68067  0.48473  0.50000  Biso   1.000  C
  H188     1.0000 0.66170  0.65318  0.63068  Biso   1.000  H
  C207     1.0000 0.74628  0.77480  0.50000  Biso   1.000  C
  H189     1.0000 0.93333  0.53424  0.10039  Biso   1.000  H
  H190     1.0000 0.93327  0.53424  0.10039  Biso   1.000  H
  C208     1.0000 0.81889  0.42617  0.21489  Biso   1.000  C
  C209     1.0000 0.89151  0.70907  0.21823  Biso   1.000  C
  C210     1.0000 0.89145  0.70907  0.21823  Biso   1.000  C
  N132     1.0000 0.72386  0.51501  0.41941  Biso   1.000  N
  H191     1.0000 0.67103  0.40210  0.50000  Biso   1.000  H
  H192     1.0000 0.62652  0.52234  0.50000  Biso   1.000  H
  H193     1.0000 0.67097  0.40210  0.50000  Biso   1.000  H
  H194     1.0000 0.62646  0.52234  0.50000  Biso   1.000  H
  N133     1.0000 0.76981  0.71563  0.41928  Biso   1.000  N
  N134     1.0000 0.76975  0.71563  0.41928  Biso   1.000  N
  H195     1.0000 0.77219  0.85053  0.50000  Biso   1.000  H
  H196     1.0000 0.68611  0.78584  0.50000  Biso   1.000  H
  H197     1.0000 0.68605  0.78584  0.50000  Biso   1.000  H
  H198     1.0000 0.80230  0.34604  0.22017  Biso   1.000  H
  H199     1.0000 0.79429  0.45610  0.16031  Biso   1.000  H
  N135     1.0000 0.78509  0.48784  0.28819  Biso   1.000  N
  H200     1.0000 0.91417  0.78610  0.22552  Biso   1.000  H
  H201     1.0000 0.86009  0.70778  0.16272  Biso   1.000  H
  N136     1.0000 0.83511  0.68570  0.29127  Biso   1.000  N
  C211     1.0000 0.76011  0.43479  0.36477  Biso   1.000  C
  C212     1.0000 0.71973  0.62782  0.37727  Biso   1.000  C
  C213     1.0000 0.71967  0.62782  0.37727  Biso   1.000  C
  C214     1.0000 0.83573  0.74832  0.36898  Biso   1.000  C
  C215     1.0000 0.83567  0.74832  0.36898  Biso   1.000  C
  C216     1.0000 0.76399  0.60902  0.28618  Biso   1.000  C
  O64      1.0000 0.76887  0.33241  0.38276  Biso   1.000  O
  H202     1.0000 0.66170  0.65318  0.36932  Biso   1.000  H
  O65      1.0000 0.88713  0.82224  0.38777  Biso   1.000  O
  O66      1.0000 0.88707  0.82224  0.38777  Biso   1.000  O
  H203     1.0000 0.72743  0.62791  0.23569  Biso   1.000  H
  H204     1.0000 0.72737  0.62791  0.23569  Biso   1.000  H
  C217     1.0000 0.23601  0.39098  0.71382  Biso   1.000  C
  C218     1.0000 0.28027  0.37218  0.62273  Biso   1.000  C
  N137     1.0000 0.16489  0.31430  0.70867  Biso   1.000  N
  H205     1.0000 0.27257  0.37209  0.76431  Biso   1.000  H
  N138     1.0000 0.21491  0.51216  0.71181  Biso   1.000  N
  N139     1.0000 0.21485  0.51216  0.71181  Biso   1.000  N
  N140     1.0000 0.23019  0.28437  0.58072  Biso   1.000  N
  N141     1.0000 0.27614  0.48499  0.58059  Biso   1.000  N
  N142     1.0000 0.27607  0.48499  0.58059  Biso   1.000  N
  H206     1.0000 0.33830  0.34682  0.63068  Biso   1.000  H
  H207     1.0000 0.33824  0.34682  0.63068  Biso   1.000  H
  C219     1.0000 0.23595  0.39098  0.71382  Biso   1.000  C
  C220     1.0000 0.16427  0.25168  0.63102  Biso   1.000  C
  C221     1.0000 0.10849  0.29093  0.78177  Biso   1.000  C
  C222     1.0000 0.23989  0.56521  0.63517  Biso   1.000  C
  C223     1.0000 0.18111  0.57383  0.78511  Biso   1.000  C
  C224     1.0000 0.18104  0.57383  0.78511  Biso   1.000  C
  C225     1.0000 0.25372  0.22520  0.50000  Biso   1.000  C
  C226     1.0000 0.25366  0.22520  0.50000  Biso   1.000  C
  C227     1.0000 0.31927  0.51527  0.50000  Biso   1.000  C
  O67      1.0000 0.11287  0.17776  0.61223  Biso   1.000  O
  N143     1.0000 0.04038  0.37114  0.78859  Biso   1.000  N
  H208     1.0000 0.08583  0.21390  0.77448  Biso   1.000  H
  H209     1.0000 0.13991  0.29222  0.83728  Biso   1.000  H
  H210     1.0000 0.08576  0.21390  0.77448  Biso   1.000  H
  H211     1.0000 0.13985  0.29222  0.83728  Biso   1.000  H
  O68      1.0000 0.23113  0.66759  0.61724  Biso   1.000  O
  O69      1.0000 0.23106  0.66759  0.61724  Biso   1.000  O
  H212     1.0000 0.19770  0.65396  0.77976  Biso   1.000  H
  H213     1.0000 0.20571  0.54390  0.83969  Biso   1.000  H
  N144     1.0000 0.09058  0.56917  0.79367  Biso   1.000  N
  H214     1.0000 0.20565  0.54390  0.83969  Biso   1.000  H
  N145     1.0000 0.09052  0.56917  0.79367  Biso   1.000  N
  N146     1.0000 0.23019  0.28437  0.41928  Biso   1.000  N
  H215     1.0000 0.31389  0.21416  0.50000  Biso   1.000  H
  H216     1.0000 0.22781  0.14947  0.50000  Biso   1.000  H
  H217     1.0000 0.22775  0.14947  0.50000  Biso   1.000  H
  N147     1.0000 0.27614  0.48499  0.41941  Biso   1.000  N
  N148     1.0000 0.27607  0.48499  0.41941  Biso   1.000  N
  H218     1.0000 0.32897  0.59790  0.50000  Biso   1.000  H
  H219     1.0000 0.37348  0.47766  0.50000  Biso   1.000  H
  C228     1.0000 0.04570  0.47844  0.83882  Biso   1.000  C
  C229     1.0000 0.96000  0.34268  0.76699  Biso   1.000  C
  C230     1.0000 0.04000  0.65732  0.76699  Biso   1.000  C
  C231     1.0000 0.16427  0.25168  0.36898  Biso   1.000  C
  C232     1.0000 0.28027  0.37218  0.37727  Biso   1.000  C
  C233     1.0000 0.23989  0.56521  0.36477  Biso   1.000  C
  H220     1.0000 0.06667  0.46576  0.89961  Biso   1.000  H
  C234     1.0000 0.95430  0.52156  0.83882  Biso   1.000  C
  N149     1.0000 0.90942  0.43083  0.79367  Biso   1.000  N
  O70      1.0000 0.93727  0.25323  0.73181  Biso   1.000  O
  O71      1.0000 0.93721  0.25323  0.73181  Biso   1.000  O
  O72      1.0000 0.06273  0.74677  0.73181  Biso   1.000  O
  N150     1.0000 0.95962  0.62886  0.78859  Biso   1.000  N
  N151     1.0000 0.16489  0.31430  0.29127  Biso   1.000  N
  O73      1.0000 0.11287  0.17776  0.38777  Biso   1.000  O
  C235     1.0000 0.23601  0.39098  0.28618  Biso   1.000  C
  C236     1.0000 0.23595  0.39098  0.28618  Biso   1.000  C
  H221     1.0000 0.33830  0.34682  0.36932  Biso   1.000  H
  H222     1.0000 0.33824  0.34682  0.36932  Biso   1.000  H
  N152     1.0000 0.21491  0.51216  0.28819  Biso   1.000  N
  N153     1.0000 0.21485  0.51216  0.28819  Biso   1.000  N
  O74      1.0000 0.23113  0.66759  0.38276  Biso   1.000  O
  O75      1.0000 0.23106  0.66759  0.38276  Biso   1.000  O
  H223     1.0000 0.93333  0.53424  0.89961  Biso   1.000  H
  H224     1.0000 0.93327  0.53424  0.89961  Biso   1.000  H
  C237     1.0000 0.81889  0.42617  0.78511  Biso   1.000  C
  C238     1.0000 0.89151  0.70907  0.78177  Biso   1.000  C
  C239     1.0000 0.89145  0.70907  0.78177  Biso   1.000  C
  C240     1.0000 0.10849  0.29093  0.21823  Biso   1.000  C
  H225     1.0000 0.27257  0.37209  0.23569  Biso   1.000  H
  C241     1.0000 0.18111  0.57383  0.21489  Biso   1.000  C
  C242     1.0000 0.18104  0.57383  0.21489  Biso   1.000  C
  N154     1.0000 0.78509  0.48784  0.71181  Biso   1.000  N
  H226     1.0000 0.80230  0.34604  0.77976  Biso   1.000  H
  H227     1.0000 0.79429  0.45610  0.83969  Biso   1.000  H
  N155     1.0000 0.83511  0.68570  0.70867  Biso   1.000  N
  H228     1.0000 0.91417  0.78610  0.77448  Biso   1.000  H
  H229     1.0000 0.86009  0.70778  0.83728  Biso   1.000  H
  N156     1.0000 0.04038  0.37114  0.21141  Biso   1.000  N
  H230     1.0000 0.08583  0.21390  0.22552  Biso   1.000  H
  H231     1.0000 0.13991  0.29222  0.16272  Biso   1.000  H
  H232     1.0000 0.08576  0.21390  0.22552  Biso   1.000  H
  H233     1.0000 0.13985  0.29222  0.16272  Biso   1.000  H
  N157     1.0000 0.09058  0.56917  0.20633  Biso   1.000  N
  N158     1.0000 0.09052  0.56917  0.20633  Biso   1.000  N
  H234     1.0000 0.19770  0.65396  0.22017  Biso   1.000  H
  H235     1.0000 0.20571  0.54390  0.16031  Biso   1.000  H
  H236     1.0000 0.20565  0.54390  0.16031  Biso   1.000  H
  C243     1.0000 0.76011  0.43479  0.63517  Biso   1.000  C
  C244     1.0000 0.76399  0.60902  0.71382  Biso   1.000  C
  C245     1.0000 0.83573  0.74832  0.63102  Biso   1.000  C
  C246     1.0000 0.83567  0.74832  0.63102  Biso   1.000  C
  C247     1.0000 0.04570  0.47844  0.16118  Biso   1.000  C
  C248     1.0000 0.96000  0.34268  0.23301  Biso   1.000  C
  C249     1.0000 0.04000  0.65732  0.23301  Biso   1.000  C
  N159     1.0000 0.72386  0.51501  0.58059  Biso   1.000  N
  O76      1.0000 0.76887  0.33241  0.61724  Biso   1.000  O
  C250     1.0000 0.71973  0.62782  0.62273  Biso   1.000  C
  C251     1.0000 0.71967  0.62782  0.62273  Biso   1.000  C
  H237     1.0000 0.72743  0.62791  0.76431  Biso   1.000  H
  H238     1.0000 0.72737  0.62791  0.76431  Biso   1.000  H
  N160     1.0000 0.76981  0.71563  0.58072  Biso   1.000  N
  N161     1.0000 0.76975  0.71563  0.58072  Biso   1.000  N
  O77      1.0000 0.88713  0.82224  0.61223  Biso   1.000  O
  O78      1.0000 0.88707  0.82224  0.61223  Biso   1.000  O
  H239     1.0000 0.06667  0.46576  0.10039  Biso   1.000  H
  C252     1.0000 0.95430  0.52156  0.16118  Biso   1.000  C
  N162     1.0000 0.90942  0.43083  0.20633  Biso   1.000  N
  O79      1.0000 0.93727  0.25323  0.26819  Biso   1.000  O
  O80      1.0000 0.93721  0.25323  0.26819  Biso   1.000  O
  N163     1.0000 0.95962  0.62886  0.21141  Biso   1.000  N
  O81      1.0000 0.06273  0.74677  0.26819  Biso   1.000  O
  C253     1.0000 0.68073  0.48473  0.50000  Biso   1.000  C
  C254     1.0000 0.68067  0.48473  0.50000  Biso   1.000  C
  H240     1.0000 0.66170  0.65318  0.63068  Biso   1.000  H
  C255     1.0000 0.74628  0.77480  0.50000  Biso   1.000  C
  H241     1.0000 0.93333  0.53424  0.10039  Biso   1.000  H
  H242     1.0000 0.93327  0.53424  0.10039  Biso   1.000  H
  C256     1.0000 0.81889  0.42617  0.21489  Biso   1.000  C
  C257     1.0000 0.89151  0.70907  0.21823  Biso   1.000  C
  C258     1.0000 0.89145  0.70907  0.21823  Biso   1.000  C
  N164     1.0000 0.72386  0.51501  0.41941  Biso   1.000  N
  H243     1.0000 0.67103  0.40210  0.50000  Biso   1.000  H
  H244     1.0000 0.62652  0.52234  0.50000  Biso   1.000  H
  H245     1.0000 0.67097  0.40210  0.50000  Biso   1.000  H
  H246     1.0000 0.62646  0.52234  0.50000  Biso   1.000  H
  N165     1.0000 0.76981  0.71563  0.41928  Biso   1.000  N
  N166     1.0000 0.76975  0.71563  0.41928  Biso   1.000  N
  H247     1.0000 0.77219  0.85053  0.50000  Biso   1.000  H
  H248     1.0000 0.68611  0.78584  0.50000  Biso   1.000  H
  H249     1.0000 0.68605  0.78584  0.50000  Biso   1.000  H
  H250     1.0000 0.80230  0.34604  0.22017  Biso   1.000  H
  H251     1.0000 0.79429  0.45610  0.16031  Biso   1.000  H
  N167     1.0000 0.78509  0.48784  0.28819  Biso   1.000  N
  H252     1.0000 0.91417  0.78610  0.22552  Biso   1.000  H
  H253     1.0000 0.86009  0.70778  0.16272  Biso   1.000  H
  N168     1.0000 0.83511  0.68570  0.29127  Biso   1.000  N
  C259     1.0000 0.76011  0.43479  0.36477  Biso   1.000  C
  C260     1.0000 0.71973  0.62782  0.37727  Biso   1.000  C
  C261     1.0000 0.71967  0.62782  0.37727  Biso   1.000  C
  C262     1.0000 0.83573  0.74832  0.36898  Biso   1.000  C
  C263     1.0000 0.83567  0.74832  0.36898  Biso   1.000  C
  C264     1.0000 0.76399  0.60902  0.28618  Biso   1.000  C
  O82      1.0000 0.76887  0.33241  0.38276  Biso   1.000  O
  H254     1.0000 0.66170  0.65318  0.36932  Biso   1.000  H
  O83      1.0000 0.88713  0.82224  0.38777  Biso   1.000  O
  O84      1.0000 0.88707  0.82224  0.38777  Biso   1.000  O
  H255     1.0000 0.72743  0.62791  0.23569  Biso   1.000  H
  H256     1.0000 0.72737  0.62791  0.23569  Biso   1.000  H
