data_image0
_cell_length_a       16.457
_cell_length_b       19.459
_cell_length_c       12.457
_cell_angle_alpha    93.71
_cell_angle_beta     96.47
_cell_angle_gamma    102.01

_symmetry_space_group_name_H-M    "P 1"
_symmetry_int_tables_number       1

loop_
  _symmetry_equiv_pos_as_xyz
  'x, y, z'

loop_
  _atom_site_label
  _atom_site_occupancy
  _atom_site_fract_x
  _atom_site_fract_y
  _atom_site_fract_z
  _atom_site_thermal_displace_type
  _atom_site_B_iso_or_equiv
  _atom_site_type_symbol
  C1       1.0000 0.41516  0.76348  0.59262  Biso   1.000  C
  C2       1.0000 0.39695  0.73997  0.48261  Biso   1.000  C
  C3       1.0000 0.39696  0.74002  0.48261  Biso   1.000  C
  C4       1.0000 0.49155  0.75919  0.64997  Biso   1.000  C
  O1       1.0000 0.36567  0.80095  0.64097  Biso   1.000  O
  O2       1.0000 0.36562  0.80101  0.64097  Biso   1.000  O
  C5       1.0000 0.45493  0.71206  0.42996  Biso   1.000  C
  C6       1.0000 0.45494  0.71211  0.42996  Biso   1.000  C
  O3       1.0000 0.32066  0.74241  0.42964  Biso   1.000  O
  C7       1.0000 0.54953  0.73129  0.59741  Biso   1.000  C
  O4       1.0000 0.50494  0.77519  0.76087  Biso   1.000  O
  C8       1.0000 0.30686  0.76190  0.68608  Biso   1.000  C
  C9       1.0000 0.30680  0.76190  0.68608  Biso   1.000  C
  C10      1.0000 0.43508  0.68601  0.31160  Biso   1.000  C
  C11      1.0000 0.43502  0.68601  0.31160  Biso   1.000  C
  C12      1.0000 0.53126  0.70778  0.48740  Biso   1.000  C
  C13      1.0000 0.53120  0.70778  0.48740  Biso   1.000  C
  C14      1.0000 0.31644  0.79749  0.36230  Biso   1.000  C
  C15      1.0000 0.63415  0.73119  0.66076  Biso   1.000  C
  C16      1.0000 0.55207  0.84048  0.79527  Biso   1.000  C
  C17      1.0000 0.55201  0.84048  0.79527  Biso   1.000  C
  C18      1.0000 0.26006  0.80247  0.75122  Biso   1.000  C
  H1       1.0000 0.26304  0.73298  0.61898  Biso   1.000  H
  H2       1.0000 0.33105  0.72496  0.73499  Biso   1.000  H
  H3       1.0000 0.33100  0.72501  0.73499  Biso   1.000  H
  C19      1.0000 0.46674  0.61959  0.28029  Biso   1.000  C
  C20      1.0000 0.45954  0.74891  0.24313  Biso   1.000  C
  H4       1.0000 0.36807  0.66500  0.29400  Biso   1.000  H
  H5       1.0000 0.36801  0.66500  0.29400  Biso   1.000  H
  H6       1.0000 0.57606  0.68601  0.44700  Biso   1.000  H
  O5       1.0000 0.32248  0.77461  0.25408  Biso   1.000  O
  O6       1.0000 0.32242  0.77461  0.25408  Biso   1.000  O
  H7       1.0000 0.36606  0.84301  0.39102  Biso   1.000  H
  H8       1.0000 0.25607  0.81100  0.36498  Biso   1.000  H
  H9       1.0000 0.25601  0.81100  0.36498  Biso   1.000  H
  C21      1.0000 0.69036  0.80347  0.65606  Biso   1.000  C
  H10      1.0000 0.62406  0.72097  0.74302  Biso   1.000  H
  C22      1.0000 0.67347  0.67021  0.62093  Biso   1.000  C
  C23      1.0000 0.69030  0.80347  0.65606  Biso   1.000  C
  H11      1.0000 0.62400  0.72097  0.74302  Biso   1.000  H
  C24      1.0000 0.67341  0.67021  0.62093  Biso   1.000  C
  O7       1.0000 0.63782  0.84356  0.81717  Biso   1.000  O
  H12      1.0000 0.53006  0.86099  0.86698  Biso   1.000  H
  H13      1.0000 0.54308  0.87398  0.72996  Biso   1.000  H
  O8       1.0000 0.63784  0.84361  0.81717  Biso   1.000  O
  H14      1.0000 0.54302  0.87398  0.72996  Biso   1.000  H
  C25      1.0000 0.23223  0.86270  0.72218  Biso   1.000  C
  H15      1.0000 0.29903  0.81498  0.82796  Biso   1.000  H
  H16      1.0000 0.20204  0.76700  0.76103  Biso   1.000  H
  C26      1.0000 0.43012  0.58528  0.16720  Biso   1.000  C
  H17      1.0000 0.45104  0.58096  0.33797  Biso   1.000  H
  H18      1.0000 0.53407  0.63399  0.28296  Biso   1.000  H
  H19      1.0000 0.45105  0.58101  0.33797  Biso   1.000  H
  H20      1.0000 0.53401  0.63399  0.28296  Biso   1.000  H
  C27      1.0000 0.53845  0.76637  0.20882  Biso   1.000  C
  C28      1.0000 0.40198  0.79131  0.22180  Biso   1.000  C
  C29      1.0000 0.53846  0.76643  0.20882  Biso   1.000  C
  C30      1.0000 0.40192  0.79131  0.22180  Biso   1.000  C
  C31      1.0000 0.74253  0.81808  0.57591  Biso   1.000  C
  C32      1.0000 0.68333  0.85737  0.73167  Biso   1.000  C
  H21      1.0000 0.67606  0.67197  0.53502  Biso   1.000  H
  H22      1.0000 0.73604  0.67800  0.66304  Biso   1.000  H
  C33      1.0000 0.62287  0.59859  0.63602  Biso   1.000  C
  H23      1.0000 0.67600  0.67197  0.53502  Biso   1.000  H
  C34      1.0000 0.62281  0.59859  0.63602  Biso   1.000  C
  O9       1.0000 0.28318  0.91187  0.68113  Biso   1.000  O
  H24      1.0000 0.22107  0.88797  0.79697  Biso   1.000  H
  H25      1.0000 0.17404  0.84700  0.66798  Biso   1.000  H
  O10      1.0000 0.28312  0.91187  0.68113  Biso   1.000  O
  H26      1.0000 0.22101  0.88797  0.79697  Biso   1.000  H
  C35      1.0000 0.44514  0.51507  0.13832  Biso   1.000  C
  C36      1.0000 0.44515  0.51512  0.13832  Biso   1.000  C
  H27      1.0000 0.36305  0.58102  0.15901  Biso   1.000  H
  H28      1.0000 0.45704  0.62000  0.10903  Biso   1.000  H
  C37      1.0000 0.55988  0.82631  0.15333  Biso   1.000  C
  H29      1.0000 0.58301  0.73396  0.22496  Biso   1.000  H
  C38      1.0000 0.55982  0.82631  0.15333  Biso   1.000  C
  H30      1.0000 0.58303  0.73402  0.22496  Biso   1.000  H
  C39      1.0000 0.42323  0.85119  0.16639  Biso   1.000  C
  C40      1.0000 0.78788  0.88669  0.57128  Biso   1.000  C
  H31      1.0000 0.74806  0.77599  0.51701  Biso   1.000  H
  C41      1.0000 0.78782  0.88669  0.57128  Biso   1.000  C
  C42      1.0000 0.72866  0.92588  0.72712  Biso   1.000  C
  H32      1.0000 0.62703  0.59600  0.72299  Biso   1.000  H
  H33      1.0000 0.55803  0.59496  0.60300  Biso   1.000  H
  C43      1.0000 0.65163  0.53666  0.59262  Biso   1.000  C
  H34      1.0000 0.55804  0.59502  0.60300  Biso   1.000  H
  C44      1.0000 0.65164  0.53672  0.59262  Biso   1.000  C
  C45      1.0000 0.26846  0.97959  0.69078  Biso   1.000  C
  C46      1.0000 0.37893  0.46528  0.07983  Biso   1.000  C
  C47      1.0000 0.37894  0.46533  0.07983  Biso   1.000  C
  C48      1.0000 0.52063  0.49617  0.17166  Biso   1.000  C
  C49      1.0000 0.50223  0.86829  0.13207  Biso   1.000  C
  C50      1.0000 0.64716  0.85159  0.12331  Biso   1.000  C
  O11      1.0000 0.37225  0.89751  0.16249  Biso   1.000  O
  C51      1.0000 0.78086  0.94059  0.64689  Biso   1.000  C
  C52      1.0000 0.84345  0.90610  0.48359  Biso   1.000  C
  O12      1.0000 0.70394  0.97940  0.78732  Biso   1.000  O
  C53      1.0000 0.61784  0.50299  0.49024  Biso   1.000  C
  C54      1.0000 0.71692  0.51455  0.65249  Biso   1.000  C
  C55      1.0000 0.71693  0.51461  0.65249  Biso   1.000  C
  C56      1.0000 0.21871  0.00201  0.60771  Biso   1.000  C
  C57      1.0000 0.31052  0.02737  0.77750  Biso   1.000  C
  C58      1.0000 0.31047  0.02742  0.77750  Biso   1.000  C
  C59      1.0000 0.38811  0.39670  0.05476  Biso   1.000  C
  H35      1.0000 0.32007  0.47999  0.05403  Biso   1.000  H
  H36      1.0000 0.32001  0.47999  0.05403  Biso   1.000  H
  C60      1.0000 0.52992  0.42750  0.14667  Biso   1.000  C
  H37      1.0000 0.57203  0.53500  0.21701  Biso   1.000  H
  O13      1.0000 0.51957  0.92591  0.07301  Biso   1.000  O
  C61      1.0000 0.69715  0.90241  0.21871  Biso   1.000  C
  H38      1.0000 0.64205  0.87800  0.04997  Biso   1.000  H
  C62      1.0000 0.68967  0.79048  0.08843  Biso   1.000  C
  C63      1.0000 0.68961  0.79048  0.08843  Biso   1.000  C
  C64      1.0000 0.31377  0.88782  0.07829  Biso   1.000  C
  C65      1.0000 0.31371  0.88782  0.07829  Biso   1.000  C
  O14      1.0000 0.82433  0.00950  0.64292  Biso   1.000  O
  O15      1.0000 0.82427  0.00950  0.64292  Biso   1.000  O
  C66      1.0000 0.78897  0.92777  0.38859  Biso   1.000  C
  C67      1.0000 0.78892  0.92782  0.38859  Biso   1.000  C
  H39      1.0000 0.89505  0.95096  0.51101  Biso   1.000  H
  C68      1.0000 0.88774  0.84666  0.45479  Biso   1.000  C
  H40      1.0000 0.89506  0.95101  0.51101  Biso   1.000  H
  C69      1.0000 0.88776  0.84672  0.45479  Biso   1.000  C
  C70      1.0000 0.75487  0.00798  0.87380  Biso   1.000  C
  C71      1.0000 0.64934  0.44720  0.44773  Biso   1.000  C
  H41      1.0000 0.56703  0.51996  0.44400  Biso   1.000  H
  H42      1.0000 0.56704  0.52001  0.44400  Biso   1.000  H
  C72      1.0000 0.74836  0.45877  0.60998  Biso   1.000  C
  H43      1.0000 0.74303  0.54100  0.73199  Biso   1.000  H
  C73      1.0000 0.74830  0.45877  0.60998  Biso   1.000  C
  O16      1.0000 0.17169  0.95087  0.52812  Biso   1.000  O
  O17      1.0000 0.17164  0.95092  0.52812  Biso   1.000  O
  C74      1.0000 0.21113  0.07221  0.61136  Biso   1.000  C
  C75      1.0000 0.21107  0.07221  0.61136  Biso   1.000  C
  O18      1.0000 0.34928  0.99979  0.86406  Biso   1.000  O
  O19      1.0000 0.34922  0.99979  0.86406  Biso   1.000  O
  C76      1.0000 0.30290  0.09757  0.78132  Biso   1.000  C
  C77      1.0000 0.46360  0.37777  0.08826  Biso   1.000  C
  H44      1.0000 0.33703  0.35797  0.00998  Biso   1.000  H
  C78      1.0000 0.46362  0.37782  0.08826  Biso   1.000  C
  H45      1.0000 0.33704  0.35802  0.00998  Biso   1.000  H
  H46      1.0000 0.58802  0.41298  0.17304  Biso   1.000  H
  C79      1.0000 0.56387  0.99022  0.13613  Biso   1.000  C
  C80      1.0000 0.74684  0.87999  0.30179  Biso   1.000  C
  C81      1.0000 0.68959  0.97261  0.22253  Biso   1.000  C
  C82      1.0000 0.68953  0.97261  0.22253  Biso   1.000  C
  H47      1.0000 0.70106  0.76201  0.15803  Biso   1.000  H
  H48      1.0000 0.64806  0.75500  0.02499  Biso   1.000  H
  C83      1.0000 0.77256  0.81738  0.04657  Biso   1.000  C
  H49      1.0000 0.64800  0.75500  0.02499  Biso   1.000  H
  C84      1.0000 0.77250  0.81738  0.04657  Biso   1.000  C
  C85      1.0000 0.24958  0.92542  0.07707  Biso   1.000  C
  H50      1.0000 0.28309  0.83300  0.06904  Biso   1.000  H
  H51      1.0000 0.34605  0.90102  0.00900  Biso   1.000  H
  C86      1.0000 0.24951  0.92542  0.07707  Biso   1.000  C
  H52      1.0000 0.28303  0.83300  0.06904  Biso   1.000  H
  C87      1.0000 0.79273  0.05297  0.57023  Biso   1.000  C
  C88      1.0000 0.79268  0.05302  0.57023  Biso   1.000  C
  C89      1.0000 0.78134  0.99797  0.39232  Biso   1.000  C
  C90      1.0000 0.78136  0.99802  0.39232  Biso   1.000  C
  H53      1.0000 0.84403  0.80499  0.40303  Biso   1.000  H
  H54      1.0000 0.91004  0.82597  0.52796  Biso   1.000  H
  C91      1.0000 0.96224  0.87779  0.39557  Biso   1.000  C
  H55      1.0000 0.74206  0.97198  0.93497  Biso   1.000  H
  H56      1.0000 0.81802  0.01098  0.85603  Biso   1.000  H
  C92      1.0000 0.75046  0.07456  0.92288  Biso   1.000  C
  H57      1.0000 0.81796  0.01098  0.85603  Biso   1.000  H
  C93      1.0000 0.75048  0.07461  0.92288  Biso   1.000  C
  C94      1.0000 0.71451  0.42510  0.50760  Biso   1.000  C
  H58      1.0000 0.62302  0.42096  0.36798  Biso   1.000  H
  H59      1.0000 0.62303  0.42101  0.36798  Biso   1.000  H
  H60      1.0000 0.79902  0.44199  0.65598  Biso   1.000  H
  C95      1.0000 0.20738  0.94701  0.42980  Biso   1.000  C
  C96      1.0000 0.20732  0.94701  0.42980  Biso   1.000  C
  C97      1.0000 0.25320  0.11999  0.69816  Biso   1.000  C
  C98      1.0000 0.15659  0.09387  0.51636  Biso   1.000  C
  C99      1.0000 0.43618  0.00976  0.86390  Biso   1.000  C
  C100     1.0000 0.35289  0.14839  0.87672  Biso   1.000  C
  H61      1.0000 0.47103  0.32499  0.06904  Biso   1.000  H
  H62      1.0000 0.55107  0.98701  0.21904  Biso   1.000  H
  O20      1.0000 0.65082  0.00018  0.13588  Biso   1.000  O
  H63      1.0000 0.54200  0.03398  0.10400  Biso   1.000  H
  O21      1.0000 0.65076  0.00018  0.13588  Biso   1.000  O
  H64      1.0000 0.54201  0.03403  0.10400  Biso   1.000  H
  H65      1.0000 0.75306  0.82597  0.29903  Biso   1.000  H
  H66      1.0000 0.75301  0.82602  0.29903  Biso   1.000  H
  C101     1.0000 0.73158  0.02039  0.30917  Biso   1.000  C
  H67      1.0000 0.81506  0.84997  0.11098  Biso   1.000  H
  C102     1.0000 0.81306  0.76100  0.01079  Biso   1.000  C
  H68      1.0000 0.81501  0.85003  0.11098  Biso   1.000  H
  H69      1.0000 0.76207  0.84797  0.97996  Biso   1.000  H
  H70      1.0000 0.76202  0.84802  0.97996  Biso   1.000  H
  C103     1.0000 0.24518  0.99200  0.12623  Biso   1.000  C
  H71      1.0000 0.20008  0.89100  0.10903  Biso   1.000  H
  C104     1.0000 0.24511  0.99200  0.12623  Biso   1.000  C
  H72      1.0000 0.20002  0.89100  0.10903  Biso   1.000  H
  H73      1.0000 0.23208  0.92901  0.99197  Biso   1.000  H
  H74      1.0000 0.23202  0.92901  0.99197  Biso   1.000  H
  O22      1.0000 0.82842  0.04911  0.47190  Biso   1.000  O
  O23      1.0000 0.82836  0.04911  0.47190  Biso   1.000  O
  H75      1.0000 0.72499  0.03698  0.55303  Biso   1.000  H
  H76      1.0000 0.80998  0.10699  0.60600  Biso   1.000  H
  H77      1.0000 0.93908  0.89899  0.32296  Biso   1.000  H
  H78      1.0000 0.93902  0.89899  0.32296  Biso   1.000  H
  H79      1.0000 0.00503  0.91898  0.44797  Biso   1.000  H
  C105     1.0000 0.00934  0.82218  0.36303  Biso   1.000  C
  H80      1.0000 0.80003  0.10898  0.89100  Biso   1.000  H
  C106     1.0000 0.68627  0.11216  0.92166  Biso   1.000  C
  H81      1.0000 0.79997  0.10898  0.89100  Biso   1.000  H
  C107     1.0000 0.68628  0.11221  0.92166  Biso   1.000  C
  H82      1.0000 0.76802  0.07096  0.00798  Biso   1.000  H
  H83      1.0000 0.76796  0.07096  0.00798  Biso   1.000  H
  H84      1.0000 0.73904  0.38198  0.47499  Biso   1.000  H
  H85      1.0000 0.73898  0.38198  0.47499  Biso   1.000  H
  O24      1.0000 0.17578  0.99048  0.35711  Biso   1.000  O
  O25      1.0000 0.17572  0.99048  0.35711  Biso   1.000  O
  H86      1.0000 0.27506  0.96300  0.44700  Biso   1.000  H
  H87      1.0000 0.19006  0.89299  0.39402  Biso   1.000  H
  H88      1.0000 0.24697  0.17396  0.70100  Biso   1.000  H
  H89      1.0000 0.24699  0.17401  0.70100  Biso   1.000  H
  C108     1.0000 0.21222  0.11329  0.42867  Biso   1.000  C
  C109     1.0000 0.21216  0.11329  0.42867  Biso   1.000  C
  H90      1.0000 0.10499  0.04897  0.48902  Biso   1.000  H
  C110     1.0000 0.11228  0.15326  0.54516  Biso   1.000  C
  H91      1.0000 0.10500  0.04902  0.48902  Biso   1.000  H
  C111     1.0000 0.11230  0.15331  0.54516  Biso   1.000  C
  H92      1.0000 0.45805  0.96600  0.89603  Biso   1.000  H
  O26      1.0000 0.48048  0.07407  0.92702  Biso   1.000  O
  H93      1.0000 0.44898  0.01296  0.78099  Biso   1.000  H
  H94      1.0000 0.44899  0.01302  0.78099  Biso   1.000  H
  C112     1.0000 0.44023  0.17367  0.84670  Biso   1.000  C
  H95      1.0000 0.35799  0.12197  0.94998  Biso   1.000  H
  C113     1.0000 0.31044  0.20950  0.91160  Biso   1.000  C
  C114     1.0000 0.44017  0.17367  0.84670  Biso   1.000  C
  C115     1.0000 0.31038  0.20950  0.91160  Biso   1.000  C
  O27      1.0000 0.71693  0.08811  0.31890  Biso   1.000  O
  O28      1.0000 0.71687  0.08811  0.31890  Biso   1.000  O
  C116     1.0000 0.84788  0.72208  0.08672  Biso   1.000  C
  C117     1.0000 0.84783  0.72213  0.08672  Biso   1.000  C
  C118     1.0000 0.81105  0.74302  0.90022  Biso   1.000  C
  H96      1.0000 0.18209  0.98900  0.14400  Biso   1.000  H
  H97      1.0000 0.18203  0.98900  0.14400  Biso   1.000  H
  O29      1.0000 0.29610  0.02058  0.21271  Biso   1.000  O
  H98      1.0000 0.25798  0.02800  0.06498  Biso   1.000  H
  C119     1.0000 0.03827  0.78211  0.44173  Biso   1.000  C
  C120     1.0000 0.02588  0.81231  0.25627  Biso   1.000  C
  C121     1.0000 0.03821  0.78211  0.44173  Biso   1.000  C
  C122     1.0000 0.02581  0.81231  0.25627  Biso   1.000  C
  H99      1.0000 0.71702  0.16698  0.93099  Biso   1.000  H
  H100     1.0000 0.65400  0.09896  0.99102  Biso   1.000  H
  O30      1.0000 0.62779  0.10247  0.83754  Biso   1.000  O
  H101     1.0000 0.71696  0.16698  0.93099  Biso   1.000  H
  H102     1.0000 0.65401  0.09902  0.99102  Biso   1.000  H
  O31      1.0000 0.62781  0.10252  0.83754  Biso   1.000  O
  C123     1.0000 0.21919  0.05939  0.35314  Biso   1.000  C
  C124     1.0000 0.25752  0.18190  0.42412  Biso   1.000  C
  H103     1.0000 0.15602  0.19499  0.59700  Biso   1.000  H
  H104     1.0000 0.09000  0.17400  0.47199  Biso   1.000  H
  C125     1.0000 0.03781  0.12218  0.60438  Biso   1.000  C
  H105     1.0000 0.15596  0.19499  0.59700  Biso   1.000  H
  C126     1.0000 0.49781  0.13168  0.86788  Biso   1.000  C
  C127     1.0000 0.49775  0.13168  0.86788  Biso   1.000  C
  C128     1.0000 0.46160  0.23361  0.79121  Biso   1.000  C
  H106     1.0000 0.29899  0.23797  0.84200  Biso   1.000  H
  H107     1.0000 0.35198  0.24497  0.97496  Biso   1.000  H
  C129     1.0000 0.22748  0.18259  0.95338  Biso   1.000  C
  C130     1.0000 0.76781  0.13728  0.27777  Biso   1.000  C
  C131     1.0000 0.76775  0.13728  0.27777  Biso   1.000  C
  C132     1.0000 0.88074  0.66518  0.05200  Biso   1.000  C
  H108     1.0000 0.84903  0.73599  0.17199  Biso   1.000  H
  C133     1.0000 0.84404  0.68612  0.86549  Biso   1.000  C
  H109     1.0000 0.78403  0.77300  0.84099  Biso   1.000  H
  C134     1.0000 0.27138  0.07410  0.27290  Biso   1.000  C
  C135     1.0000 0.08365  0.73197  0.41382  Biso   1.000  C
  H110     1.0000 0.02505  0.79001  0.52399  Biso   1.000  H
  C136     1.0000 0.08367  0.73202  0.41382  Biso   1.000  C
  C137     1.0000 0.07125  0.76217  0.22837  Biso   1.000  C
  H111     1.0000 0.00305  0.84300  0.19502  Biso   1.000  H
  C138     1.0000 0.07121  0.76222  0.22837  Biso   1.000  C
  C139     1.0000 0.57681  0.14878  0.83356  Biso   1.000  C
  C140     1.0000 0.57675  0.14878  0.83356  Biso   1.000  C
  C141     1.0000 0.30968  0.19650  0.34389  Biso   1.000  C
  H112     1.0000 0.25199  0.22399  0.48302  Biso   1.000  H
  H113     1.0000 0.99501  0.08100  0.55198  Biso   1.000  H
  C142     1.0000 0.99071  0.17780  0.63699  Biso   1.000  C
  H114     1.0000 0.06102  0.10098  0.67699  Biso   1.000  H
  H115     1.0000 0.06096  0.10098  0.67699  Biso   1.000  H
  C143     1.0000 0.54051  0.25107  0.75690  Biso   1.000  C
  H116     1.0000 0.41701  0.26596  0.77499  Biso   1.000  H
  H117     1.0000 0.41697  0.26601  0.77499  Biso   1.000  H
  H118     1.0000 0.18498  0.15000  0.88897  Biso   1.000  H
  C144     1.0000 0.18698  0.23898  0.98916  Biso   1.000  C
  H119     1.0000 0.23802  0.15195  0.01999  Biso   1.000  H
  H120     1.0000 0.23797  0.15200  0.01999  Biso   1.000  H
  H121     1.0000 0.77903  0.11201  0.20298  Biso   1.000  H
  H122     1.0000 0.82600  0.15298  0.33196  Biso   1.000  H
  C145     1.0000 0.73999  0.19751  0.24881  Biso   1.000  C
  H123     1.0000 0.77897  0.11201  0.20298  Biso   1.000  H
  H124     1.0000 0.90805  0.63498  0.11098  Biso   1.000  H
  H125     1.0000 0.90799  0.63498  0.11098  Biso   1.000  H
  C146     1.0000 0.87884  0.64719  0.94127  Biso   1.000  C
  H126     1.0000 0.84202  0.67199  0.77999  Biso   1.000  H
  C147     1.0000 0.31671  0.14260  0.26828  Biso   1.000  C
  C148     1.0000 0.10015  0.72211  0.30722  Biso   1.000  C
  H127     1.0000 0.10604  0.70100  0.47499  Biso   1.000  H
  H128     1.0000 0.08404  0.75400  0.14603  Biso   1.000  H
  C149     1.0000 0.59813  0.20867  0.77823  Biso   1.000  C
  C150     1.0000 0.59807  0.20867  0.77823  Biso   1.000  C
  C151     1.0000 0.36589  0.26878  0.33918  Biso   1.000  C
  C152     1.0000 0.96184  0.21787  0.55830  Biso   1.000  C
  C153     1.0000 0.97423  0.18767  0.74367  Biso   1.000  C
  C154     1.0000 0.96179  0.21792  0.55830  Biso   1.000  C
  C155     1.0000 0.97417  0.18767  0.74367  Biso   1.000  C
  C156     1.0000 0.56503  0.31397  0.68843  Biso   1.000  C
  C157     1.0000 0.56497  0.31397  0.68843  Biso   1.000  C
  C158     1.0000 0.15223  0.27790  0.91331  Biso   1.000  C
  C159     1.0000 0.15217  0.27790  0.91331  Biso   1.000  C
  C160     1.0000 0.18900  0.25696  0.09981  Biso   1.000  C
  C161     1.0000 0.18901  0.25701  0.09981  Biso   1.000  C
  H129     1.0000 0.70101  0.18499  0.17199  Biso   1.000  H
  H130     1.0000 0.79801  0.23298  0.23899  Biso   1.000  H
  C162     1.0000 0.69318  0.23808  0.31387  Biso   1.000  C
  H131     1.0000 0.79803  0.23303  0.23899  Biso   1.000  H
  H132     1.0000 0.90404  0.60297  0.91401  Biso   1.000  H
  H133     1.0000 0.90405  0.60303  0.91401  Biso   1.000  H
  O32      1.0000 0.36220  0.15637  0.18277  Biso   1.000  O
  O33      1.0000 0.36222  0.15642  0.18277  Biso   1.000  O
  H134     1.0000 0.13507  0.68297  0.28597  Biso   1.000  H
  H135     1.0000 0.13501  0.68297  0.28597  Biso   1.000  H
  O34      1.0000 0.67762  0.22536  0.74586  Biso   1.000  O
  O35      1.0000 0.67757  0.22541  0.74586  Biso   1.000  O
  C163     1.0000 0.45052  0.26869  0.40262  Biso   1.000  C
  H136     1.0000 0.37605  0.27901  0.25700  Biso   1.000  H
  C164     1.0000 0.32664  0.32977  0.37910  Biso   1.000  C
  H137     1.0000 0.37598  0.27901  0.25700  Biso   1.000  H
  C165     1.0000 0.32659  0.32982  0.37910  Biso   1.000  C
  C166     1.0000 0.91640  0.26801  0.58621  Biso   1.000  C
  H138     1.0000 0.97499  0.20997  0.47596  Biso   1.000  H
  H139     1.0000 0.97500  0.21002  0.47596  Biso   1.000  H
  C167     1.0000 0.92879  0.23781  0.77158  Biso   1.000  C
  H140     1.0000 0.99700  0.15698  0.80500  Biso   1.000  H
  C168     1.0000 0.54510  0.28786  0.56999  Biso   1.000  C
  C169     1.0000 0.54511  0.28791  0.56999  Biso   1.000  C
  H141     1.0000 0.63204  0.33497  0.70603  Biso   1.000  H
  C170     1.0000 0.53330  0.38039  0.71966  Biso   1.000  C
  H142     1.0000 0.63198  0.33497  0.70603  Biso   1.000  H
  C171     1.0000 0.11931  0.33480  0.94803  Biso   1.000  C
  H143     1.0000 0.15101  0.26399  0.82796  Biso   1.000  H
  C172     1.0000 0.15601  0.31386  0.13453  Biso   1.000  C
  H144     1.0000 0.21602  0.22698  0.15903  Biso   1.000  H
  C173     1.0000 0.15602  0.31391  0.13453  Biso   1.000  C
  H145     1.0000 0.21596  0.22698  0.15903  Biso   1.000  H
  H146     1.0000 0.73701  0.26699  0.38096  Biso   1.000  H
  H147     1.0000 0.66900  0.27502  0.26504  Biso   1.000  H
  O36      1.0000 0.63442  0.19897  0.35898  Biso   1.000  O
  O37      1.0000 0.63437  0.19902  0.35898  Biso   1.000  O
  C174     1.0000 0.44803  0.15950  0.20468  Biso   1.000  C
  C175     1.0000 0.44797  0.15950  0.20468  Biso   1.000  C
  C176     1.0000 0.68361  0.20248  0.63772  Biso   1.000  C
  C177     1.0000 0.50849  0.24078  0.34997  Biso   1.000  C
  C178     1.0000 0.46885  0.29220  0.51263  Biso   1.000  C
  C179     1.0000 0.46878  0.29220  0.51263  Biso   1.000  C
  H148     1.0000 0.32399  0.32801  0.46501  Biso   1.000  H
  H149     1.0000 0.26401  0.32198  0.33699  Biso   1.000  H
  C180     1.0000 0.37724  0.40139  0.36401  Biso   1.000  C
  C181     1.0000 0.37718  0.40139  0.36401  Biso   1.000  C
  C182     1.0000 0.89990  0.27787  0.69281  Biso   1.000  C
  H150     1.0000 0.89400  0.29897  0.52496  Biso   1.000  H
  H151     1.0000 0.89401  0.29902  0.52496  Biso   1.000  H
  H152     1.0000 0.91601  0.24598  0.85400  Biso   1.000  H
  C183     1.0000 0.60310  0.26001  0.51742  Biso   1.000  C
  H153     1.0000 0.54899  0.41896  0.66198  Biso   1.000  H
  H154     1.0000 0.46603  0.36599  0.71698  Biso   1.000  H
  C184     1.0000 0.56992  0.41470  0.83283  Biso   1.000  C
  H155     1.0000 0.54900  0.41902  0.66198  Biso   1.000  H
  H156     1.0000 0.46597  0.36599  0.71698  Biso   1.000  H
  H157     1.0000 0.09199  0.36500  0.88897  Biso   1.000  H
  C185     1.0000 0.12120  0.35278  0.05868  Biso   1.000  C
  H158     1.0000 0.15802  0.32799  0.21996  Biso   1.000  H
  H159     1.0000 0.15796  0.32799  0.21996  Biso   1.000  H
  C186     1.0000 0.58489  0.23650  0.40741  Biso   1.000  C
  O38      1.0000 0.49510  0.22478  0.23908  Biso   1.000  O
  H160     1.0000 0.46998  0.13898  0.13296  Biso   1.000  H
  H161     1.0000 0.45702  0.12599  0.26998  Biso   1.000  H
  H162     1.0000 0.45696  0.12599  0.26998  Biso   1.000  H
  O39      1.0000 0.67939  0.25757  0.57039  Biso   1.000  O
  O40      1.0000 0.67940  0.25762  0.57039  Biso   1.000  O
  H163     1.0000 0.63399  0.15697  0.60901  Biso   1.000  H
  H164     1.0000 0.74403  0.18898  0.63497  Biso   1.000  H
  H165     1.0000 0.74397  0.18898  0.63497  Biso   1.000  H
  H166     1.0000 0.42399  0.31397  0.55303  Biso   1.000  H
  H167     1.0000 0.42401  0.31402  0.55303  Biso   1.000  H
  H168     1.0000 0.37301  0.40397  0.27696  Biso   1.000  H
  H169     1.0000 0.44202  0.40501  0.39703  Biso   1.000  H
  C187     1.0000 0.34842  0.46332  0.40741  Biso   1.000  C
  H170     1.0000 0.37302  0.40403  0.27696  Biso   1.000  H
  H171     1.0000 0.86503  0.31700  0.71398  Biso   1.000  H
  H172     1.0000 0.86497  0.31700  0.71398  Biso   1.000  H
  H173     1.0000 0.63700  0.41896  0.84102  Biso   1.000  H
  H174     1.0000 0.54301  0.37998  0.89100  Biso   1.000  H
  C188     1.0000 0.55489  0.48486  0.86171  Biso   1.000  C
  H175     1.0000 0.63701  0.41902  0.84102  Biso   1.000  H
  C189     1.0000 0.55491  0.48491  0.86171  Biso   1.000  C
  H176     1.0000 0.09601  0.39700  0.08602  Biso   1.000  H
  C190     1.0000 0.38221  0.49699  0.50979  Biso   1.000  C
  C191     1.0000 0.28311  0.48537  0.34746  Biso   1.000  C
  C192     1.0000 0.28312  0.48542  0.34746  Biso   1.000  C
  C193     1.0000 0.62112  0.53470  0.92020  Biso   1.000  C
  C194     1.0000 0.47941  0.50380  0.82829  Biso   1.000  C
  C195     1.0000 0.35071  0.55277  0.55230  Biso   1.000  C
  H177     1.0000 0.43302  0.48002  0.55603  Biso   1.000  H
  C196     1.0000 0.25174  0.54120  0.38997  Biso   1.000  C
  H178     1.0000 0.25702  0.45898  0.26804  Biso   1.000  H
  C197     1.0000 0.25168  0.54120  0.38997  Biso   1.000  C
  C198     1.0000 0.61193  0.60327  0.94519  Biso   1.000  C
  H179     1.0000 0.68004  0.51999  0.94600  Biso   1.000  H
  C199     1.0000 0.61187  0.60327  0.94519  Biso   1.000  C
  H180     1.0000 0.67998  0.51999  0.94600  Biso   1.000  H
  C200     1.0000 0.47012  0.57247  0.85327  Biso   1.000  C
  H181     1.0000 0.42802  0.46498  0.78302  Biso   1.000  H
  C201     1.0000 0.28553  0.57488  0.49243  Biso   1.000  C
  H182     1.0000 0.37701  0.57896  0.63196  Biso   1.000  H
  C202     1.0000 0.28547  0.57488  0.49243  Biso   1.000  C
  H183     1.0000 0.37702  0.57902  0.63196  Biso   1.000  H
  H184     1.0000 0.20102  0.55798  0.34397  Biso   1.000  H
  C203     1.0000 0.53644  0.62221  0.91168  Biso   1.000  C
  H185     1.0000 0.66300  0.64196  0.98997  Biso   1.000  H
  C204     1.0000 0.53638  0.62221  0.91168  Biso   1.000  C
  H186     1.0000 0.66301  0.64201  0.98997  Biso   1.000  H
  H187     1.0000 0.41203  0.58700  0.82699  Biso   1.000  H
  H188     1.0000 0.26100  0.61799  0.52496  Biso   1.000  H
  H189     1.0000 0.52901  0.67499  0.93099  Biso   1.000  H
  C205     1.0000 0.41516  0.76348  0.59262  Biso   1.000  C
  C206     1.0000 0.39695  0.73997  0.48261  Biso   1.000  C
  C207     1.0000 0.39696  0.74002  0.48261  Biso   1.000  C
  C208     1.0000 0.49155  0.75919  0.64997  Biso   1.000  C
  O41      1.0000 0.36567  0.80095  0.64097  Biso   1.000  O
  O42      1.0000 0.36562  0.80101  0.64097  Biso   1.000  O
  C209     1.0000 0.45493  0.71206  0.42996  Biso   1.000  C
  C210     1.0000 0.45494  0.71211  0.42996  Biso   1.000  C
  O43      1.0000 0.32066  0.74241  0.42964  Biso   1.000  O
  C211     1.0000 0.54953  0.73129  0.59741  Biso   1.000  C
  O44      1.0000 0.50494  0.77519  0.76087  Biso   1.000  O
  C212     1.0000 0.30686  0.76190  0.68608  Biso   1.000  C
  C213     1.0000 0.30680  0.76190  0.68608  Biso   1.000  C
  C214     1.0000 0.43508  0.68601  0.31160  Biso   1.000  C
  C215     1.0000 0.43502  0.68601  0.31160  Biso   1.000  C
  C216     1.0000 0.53126  0.70778  0.48740  Biso   1.000  C
  C217     1.0000 0.53120  0.70778  0.48740  Biso   1.000  C
  C218     1.0000 0.31644  0.79749  0.36230  Biso   1.000  C
  C219     1.0000 0.63415  0.73119  0.66076  Biso   1.000  C
  C220     1.0000 0.55207  0.84048  0.79527  Biso   1.000  C
  C221     1.0000 0.55201  0.84048  0.79527  Biso   1.000  C
  C222     1.0000 0.26006  0.80247  0.75122  Biso   1.000  C
  H190     1.0000 0.26304  0.73298  0.61898  Biso   1.000  H
  H191     1.0000 0.33105  0.72496  0.73499  Biso   1.000  H
  H192     1.0000 0.33100  0.72501  0.73499  Biso   1.000  H
  C223     1.0000 0.46674  0.61959  0.28029  Biso   1.000  C
  C224     1.0000 0.45954  0.74891  0.24313  Biso   1.000  C
  H193     1.0000 0.36807  0.66500  0.29400  Biso   1.000  H
  H194     1.0000 0.36801  0.66500  0.29400  Biso   1.000  H
  H195     1.0000 0.57606  0.68601  0.44700  Biso   1.000  H
  O45      1.0000 0.32248  0.77461  0.25408  Biso   1.000  O
  O46      1.0000 0.32242  0.77461  0.25408  Biso   1.000  O
  H196     1.0000 0.36606  0.84301  0.39102  Biso   1.000  H
  H197     1.0000 0.25607  0.81100  0.36498  Biso   1.000  H
  H198     1.0000 0.25601  0.81100  0.36498  Biso   1.000  H
  C225     1.0000 0.69036  0.80347  0.65606  Biso   1.000  C
  H199     1.0000 0.62406  0.72097  0.74302  Biso   1.000  H
  C226     1.0000 0.67347  0.67021  0.62093  Biso   1.000  C
  C227     1.0000 0.69030  0.80347  0.65606  Biso   1.000  C
  H200     1.0000 0.62400  0.72097  0.74302  Biso   1.000  H
  C228     1.0000 0.67341  0.67021  0.62093  Biso   1.000  C
  H201     1.0000 0.53006  0.86099  0.86698  Biso   1.000  H
  O47      1.0000 0.63782  0.84356  0.81717  Biso   1.000  O
  H202     1.0000 0.54308  0.87398  0.72996  Biso   1.000  H
  O48      1.0000 0.63784  0.84361  0.81717  Biso   1.000  O
  H203     1.0000 0.54302  0.87398  0.72996  Biso   1.000  H
  C229     1.0000 0.23223  0.86270  0.72218  Biso   1.000  C
  H204     1.0000 0.29903  0.81498  0.82796  Biso   1.000  H
  H205     1.0000 0.20204  0.76700  0.76103  Biso   1.000  H
  C230     1.0000 0.43012  0.58528  0.16720  Biso   1.000  C
  H206     1.0000 0.45104  0.58096  0.33797  Biso   1.000  H
  H207     1.0000 0.53407  0.63399  0.28296  Biso   1.000  H
  H208     1.0000 0.45105  0.58101  0.33797  Biso   1.000  H
  H209     1.0000 0.53401  0.63399  0.28296  Biso   1.000  H
  C231     1.0000 0.53845  0.76637  0.20882  Biso   1.000  C
  C232     1.0000 0.40198  0.79131  0.22180  Biso   1.000  C
  C233     1.0000 0.53846  0.76643  0.20882  Biso   1.000  C
  C234     1.0000 0.40192  0.79131  0.22180  Biso   1.000  C
  C235     1.0000 0.74253  0.81808  0.57591  Biso   1.000  C
  C236     1.0000 0.68333  0.85737  0.73167  Biso   1.000  C
  H210     1.0000 0.73604  0.67800  0.66304  Biso   1.000  H
  H211     1.0000 0.67606  0.67197  0.53502  Biso   1.000  H
  C237     1.0000 0.62287  0.59859  0.63602  Biso   1.000  C
  H212     1.0000 0.67600  0.67197  0.53502  Biso   1.000  H
  C238     1.0000 0.62281  0.59859  0.63602  Biso   1.000  C
  H213     1.0000 0.17404  0.84700  0.66798  Biso   1.000  H
  O49      1.0000 0.28318  0.91187  0.68113  Biso   1.000  O
  H214     1.0000 0.22107  0.88797  0.79697  Biso   1.000  H
  O50      1.0000 0.28312  0.91187  0.68113  Biso   1.000  O
  H215     1.0000 0.22101  0.88797  0.79697  Biso   1.000  H
  C239     1.0000 0.44514  0.51507  0.13832  Biso   1.000  C
  C240     1.0000 0.44515  0.51512  0.13832  Biso   1.000  C
  H216     1.0000 0.36305  0.58102  0.15901  Biso   1.000  H
  H217     1.0000 0.45704  0.62000  0.10903  Biso   1.000  H
  C241     1.0000 0.55988  0.82631  0.15333  Biso   1.000  C
  H218     1.0000 0.58301  0.73396  0.22496  Biso   1.000  H
  C242     1.0000 0.55982  0.82631  0.15333  Biso   1.000  C
  H219     1.0000 0.58303  0.73402  0.22496  Biso   1.000  H
  C243     1.0000 0.42323  0.85119  0.16639  Biso   1.000  C
  H220     1.0000 0.74806  0.77599  0.51701  Biso   1.000  H
  C244     1.0000 0.78788  0.88669  0.57128  Biso   1.000  C
  C245     1.0000 0.78782  0.88669  0.57128  Biso   1.000  C
  C246     1.0000 0.72866  0.92588  0.72712  Biso   1.000  C
  H221     1.0000 0.62703  0.59600  0.72299  Biso   1.000  H
  H222     1.0000 0.55803  0.59496  0.60300  Biso   1.000  H
  C247     1.0000 0.65163  0.53666  0.59262  Biso   1.000  C
  H223     1.0000 0.55804  0.59502  0.60300  Biso   1.000  H
  C248     1.0000 0.65164  0.53672  0.59262  Biso   1.000  C
  C249     1.0000 0.26846  0.97959  0.69078  Biso   1.000  C
  C250     1.0000 0.37893  0.46528  0.07983  Biso   1.000  C
  C251     1.0000 0.37894  0.46533  0.07983  Biso   1.000  C
  C252     1.0000 0.52063  0.49617  0.17166  Biso   1.000  C
  C253     1.0000 0.50223  0.86829  0.13207  Biso   1.000  C
  C254     1.0000 0.64716  0.85159  0.12331  Biso   1.000  C
  O51      1.0000 0.37225  0.89751  0.16249  Biso   1.000  O
  C255     1.0000 0.84345  0.90610  0.48359  Biso   1.000  C
  C256     1.0000 0.78086  0.94059  0.64689  Biso   1.000  C
  O52      1.0000 0.70394  0.97940  0.78732  Biso   1.000  O
  C257     1.0000 0.61784  0.50299  0.49024  Biso   1.000  C
  C258     1.0000 0.71692  0.51455  0.65249  Biso   1.000  C
  C259     1.0000 0.71693  0.51461  0.65249  Biso   1.000  C
  C260     1.0000 0.21871  0.00201  0.60771  Biso   1.000  C
  C261     1.0000 0.31052  0.02737  0.77750  Biso   1.000  C
  C262     1.0000 0.31047  0.02742  0.77750  Biso   1.000  C
  C263     1.0000 0.38811  0.39670  0.05476  Biso   1.000  C
  H224     1.0000 0.32007  0.47999  0.05403  Biso   1.000  H
  H225     1.0000 0.32001  0.47999  0.05403  Biso   1.000  H
  C264     1.0000 0.52992  0.42750  0.14667  Biso   1.000  C
  H226     1.0000 0.57203  0.53500  0.21701  Biso   1.000  H
  O53      1.0000 0.51957  0.92591  0.07301  Biso   1.000  O
  C265     1.0000 0.69715  0.90241  0.21871  Biso   1.000  C
  H227     1.0000 0.64205  0.87800  0.04997  Biso   1.000  H
  C266     1.0000 0.68967  0.79048  0.08843  Biso   1.000  C
  C267     1.0000 0.68961  0.79048  0.08843  Biso   1.000  C
  C268     1.0000 0.31377  0.88782  0.07829  Biso   1.000  C
  C269     1.0000 0.31371  0.88782  0.07829  Biso   1.000  C
  C270     1.0000 0.78897  0.92777  0.38859  Biso   1.000  C
  C271     1.0000 0.78892  0.92782  0.38859  Biso   1.000  C
  H228     1.0000 0.89505  0.95096  0.51101  Biso   1.000  H
  C272     1.0000 0.88774  0.84666  0.45479  Biso   1.000  C
  H229     1.0000 0.89506  0.95101  0.51101  Biso   1.000  H
  C273     1.0000 0.88776  0.84672  0.45479  Biso   1.000  C
  O54      1.0000 0.82433  0.00950  0.64292  Biso   1.000  O
  O55      1.0000 0.82427  0.00950  0.64292  Biso   1.000  O
  C274     1.0000 0.75487  0.00798  0.87380  Biso   1.000  C
  C275     1.0000 0.64934  0.44720  0.44773  Biso   1.000  C
  H230     1.0000 0.56703  0.51996  0.44400  Biso   1.000  H
  H231     1.0000 0.56704  0.52001  0.44400  Biso   1.000  H
  H232     1.0000 0.74303  0.54100  0.73199  Biso   1.000  H
  C276     1.0000 0.74836  0.45877  0.60998  Biso   1.000  C
  C277     1.0000 0.74830  0.45877  0.60998  Biso   1.000  C
  O56      1.0000 0.17169  0.95087  0.52812  Biso   1.000  O
  O57      1.0000 0.17164  0.95092  0.52812  Biso   1.000  O
  C278     1.0000 0.21113  0.07221  0.61136  Biso   1.000  C
  C279     1.0000 0.21107  0.07221  0.61136  Biso   1.000  C
  O58      1.0000 0.34928  0.99979  0.86406  Biso   1.000  O
  O59      1.0000 0.34922  0.99979  0.86406  Biso   1.000  O
  C280     1.0000 0.30290  0.09757  0.78132  Biso   1.000  C
  C281     1.0000 0.46360  0.37777  0.08826  Biso   1.000  C
  H233     1.0000 0.33703  0.35797  0.00998  Biso   1.000  H
  C282     1.0000 0.46362  0.37782  0.08826  Biso   1.000  C
  H234     1.0000 0.33704  0.35802  0.00998  Biso   1.000  H
  H235     1.0000 0.58802  0.41298  0.17304  Biso   1.000  H
  C283     1.0000 0.56387  0.99022  0.13613  Biso   1.000  C
  C284     1.0000 0.74684  0.87999  0.30179  Biso   1.000  C
  C285     1.0000 0.68959  0.97261  0.22253  Biso   1.000  C
  C286     1.0000 0.68953  0.97261  0.22253  Biso   1.000  C
  H236     1.0000 0.70106  0.76201  0.15803  Biso   1.000  H
  H237     1.0000 0.64806  0.75500  0.02499  Biso   1.000  H
  C287     1.0000 0.77256  0.81738  0.04657  Biso   1.000  C
  H238     1.0000 0.64800  0.75500  0.02499  Biso   1.000  H
  C288     1.0000 0.77250  0.81738  0.04657  Biso   1.000  C
  H239     1.0000 0.34605  0.90102  0.00900  Biso   1.000  H
  C289     1.0000 0.24958  0.92542  0.07707  Biso   1.000  C
  H240     1.0000 0.28309  0.83300  0.06904  Biso   1.000  H
  C290     1.0000 0.24951  0.92542  0.07707  Biso   1.000  C
  H241     1.0000 0.28303  0.83300  0.06904  Biso   1.000  H
  C291     1.0000 0.78134  0.99797  0.39232  Biso   1.000  C
  C292     1.0000 0.78136  0.99802  0.39232  Biso   1.000  C
  H242     1.0000 0.84403  0.80499  0.40303  Biso   1.000  H
  H243     1.0000 0.91004  0.82597  0.52796  Biso   1.000  H
  C293     1.0000 0.96224  0.87779  0.39557  Biso   1.000  C
  C294     1.0000 0.79273  0.05297  0.57023  Biso   1.000  C
  C295     1.0000 0.79268  0.05302  0.57023  Biso   1.000  C
  H244     1.0000 0.74206  0.97198  0.93497  Biso   1.000  H
  H245     1.0000 0.81802  0.01098  0.85603  Biso   1.000  H
  C296     1.0000 0.75046  0.07456  0.92288  Biso   1.000  C
  H246     1.0000 0.81796  0.01098  0.85603  Biso   1.000  H
  C297     1.0000 0.75048  0.07461  0.92288  Biso   1.000  C
  C298     1.0000 0.71451  0.42510  0.50760  Biso   1.000  C
  H247     1.0000 0.62302  0.42096  0.36798  Biso   1.000  H
  H248     1.0000 0.62303  0.42101  0.36798  Biso   1.000  H
  H249     1.0000 0.79902  0.44199  0.65598  Biso   1.000  H
  C299     1.0000 0.20738  0.94701  0.42980  Biso   1.000  C
  C300     1.0000 0.20732  0.94701  0.42980  Biso   1.000  C
  C301     1.0000 0.15659  0.09387  0.51636  Biso   1.000  C
  C302     1.0000 0.25320  0.11999  0.69816  Biso   1.000  C
  C303     1.0000 0.43618  0.00976  0.86390  Biso   1.000  C
  C304     1.0000 0.35289  0.14839  0.87672  Biso   1.000  C
  H250     1.0000 0.47103  0.32499  0.06904  Biso   1.000  H
  H251     1.0000 0.55107  0.98701  0.21904  Biso   1.000  H
  O60      1.0000 0.65082  0.00018  0.13588  Biso   1.000  O
  H252     1.0000 0.54200  0.03398  0.10400  Biso   1.000  H
  O61      1.0000 0.65076  0.00018  0.13588  Biso   1.000  O
  H253     1.0000 0.54201  0.03403  0.10400  Biso   1.000  H
  H254     1.0000 0.75306  0.82597  0.29903  Biso   1.000  H
  H255     1.0000 0.75301  0.82602  0.29903  Biso   1.000  H
  C305     1.0000 0.73158  0.02039  0.30917  Biso   1.000  C
  C306     1.0000 0.81306  0.76100  0.01079  Biso   1.000  C
  H256     1.0000 0.76207  0.84797  0.97996  Biso   1.000  H
  H257     1.0000 0.76202  0.84802  0.97996  Biso   1.000  H
  H258     1.0000 0.81506  0.84997  0.11098  Biso   1.000  H
  H259     1.0000 0.81501  0.85003  0.11098  Biso   1.000  H
  H260     1.0000 0.23208  0.92901  0.99197  Biso   1.000  H
  H261     1.0000 0.23202  0.92901  0.99197  Biso   1.000  H
  C307     1.0000 0.24518  0.99200  0.12623  Biso   1.000  C
  H262     1.0000 0.20008  0.89100  0.10903  Biso   1.000  H
  C308     1.0000 0.24511  0.99200  0.12623  Biso   1.000  C
  H263     1.0000 0.20002  0.89100  0.10903  Biso   1.000  H
  O62      1.0000 0.82842  0.04911  0.47190  Biso   1.000  O
  O63      1.0000 0.82836  0.04911  0.47190  Biso   1.000  O
  H264     1.0000 0.93908  0.89899  0.32296  Biso   1.000  H
  H265     1.0000 0.93902  0.89899  0.32296  Biso   1.000  H
  H266     1.0000 0.00503  0.91898  0.44797  Biso   1.000  H
  C309     1.0000 0.00934  0.82218  0.36303  Biso   1.000  C
  H267     1.0000 0.72499  0.03698  0.55303  Biso   1.000  H
  H268     1.0000 0.80998  0.10699  0.60600  Biso   1.000  H
  H269     1.0000 0.80003  0.10898  0.89100  Biso   1.000  H
  C310     1.0000 0.68627  0.11216  0.92166  Biso   1.000  C
  H270     1.0000 0.79997  0.10898  0.89100  Biso   1.000  H
  C311     1.0000 0.68628  0.11221  0.92166  Biso   1.000  C
  H271     1.0000 0.76802  0.07096  0.00798  Biso   1.000  H
  H272     1.0000 0.76796  0.07096  0.00798  Biso   1.000  H
  H273     1.0000 0.73904  0.38198  0.47499  Biso   1.000  H
  H274     1.0000 0.73898  0.38198  0.47499  Biso   1.000  H
  O64      1.0000 0.17578  0.99048  0.35711  Biso   1.000  O
  O65      1.0000 0.17572  0.99048  0.35711  Biso   1.000  O
  H275     1.0000 0.27506  0.96300  0.44700  Biso   1.000  H
  H276     1.0000 0.19006  0.89299  0.39402  Biso   1.000  H
  C312     1.0000 0.21222  0.11329  0.42867  Biso   1.000  C
  C313     1.0000 0.21216  0.11329  0.42867  Biso   1.000  C
  H277     1.0000 0.10499  0.04897  0.48902  Biso   1.000  H
  C314     1.0000 0.11228  0.15326  0.54516  Biso   1.000  C
  H278     1.0000 0.10500  0.04902  0.48902  Biso   1.000  H
  C315     1.0000 0.11230  0.15331  0.54516  Biso   1.000  C
  H279     1.0000 0.24697  0.17396  0.70100  Biso   1.000  H
  H280     1.0000 0.24699  0.17401  0.70100  Biso   1.000  H
  H281     1.0000 0.45805  0.96600  0.89603  Biso   1.000  H
  O66      1.0000 0.48048  0.07407  0.92702  Biso   1.000  O
  H282     1.0000 0.44898  0.01296  0.78099  Biso   1.000  H
  H283     1.0000 0.44899  0.01302  0.78099  Biso   1.000  H
  C316     1.0000 0.44023  0.17367  0.84670  Biso   1.000  C
  H284     1.0000 0.35799  0.12197  0.94998  Biso   1.000  H
  C317     1.0000 0.31044  0.20950  0.91160  Biso   1.000  C
  C318     1.0000 0.44017  0.17367  0.84670  Biso   1.000  C
  C319     1.0000 0.31038  0.20950  0.91160  Biso   1.000  C
  O67      1.0000 0.71693  0.08811  0.31890  Biso   1.000  O
  O68      1.0000 0.71687  0.08811  0.31890  Biso   1.000  O
  C320     1.0000 0.81105  0.74302  0.90022  Biso   1.000  C
  C321     1.0000 0.84788  0.72208  0.08672  Biso   1.000  C
  C322     1.0000 0.84783  0.72213  0.08672  Biso   1.000  C
  H285     1.0000 0.18209  0.98900  0.14400  Biso   1.000  H
  H286     1.0000 0.18203  0.98900  0.14400  Biso   1.000  H
  O69      1.0000 0.29610  0.02058  0.21271  Biso   1.000  O
  H287     1.0000 0.25798  0.02800  0.06498  Biso   1.000  H
  C323     1.0000 0.03827  0.78211  0.44173  Biso   1.000  C
  C324     1.0000 0.02588  0.81231  0.25627  Biso   1.000  C
  C325     1.0000 0.03821  0.78211  0.44173  Biso   1.000  C
  C326     1.0000 0.02581  0.81231  0.25627  Biso   1.000  C
  H288     1.0000 0.71702  0.16698  0.93099  Biso   1.000  H
  H289     1.0000 0.65400  0.09896  0.99102  Biso   1.000  H
  O70      1.0000 0.62779  0.10247  0.83754  Biso   1.000  O
  H290     1.0000 0.71696  0.16698  0.93099  Biso   1.000  H
  H291     1.0000 0.65401  0.09902  0.99102  Biso   1.000  H
  O71      1.0000 0.62781  0.10252  0.83754  Biso   1.000  O
  C327     1.0000 0.21919  0.05939  0.35314  Biso   1.000  C
  C328     1.0000 0.25752  0.18190  0.42412  Biso   1.000  C
  H292     1.0000 0.15602  0.19499  0.59700  Biso   1.000  H
  H293     1.0000 0.09000  0.17400  0.47199  Biso   1.000  H
  C329     1.0000 0.03781  0.12218  0.60438  Biso   1.000  C
  H294     1.0000 0.15596  0.19499  0.59700  Biso   1.000  H
  C330     1.0000 0.49781  0.13168  0.86788  Biso   1.000  C
  C331     1.0000 0.49775  0.13168  0.86788  Biso   1.000  C
  C332     1.0000 0.46160  0.23361  0.79121  Biso   1.000  C
  H295     1.0000 0.29899  0.23797  0.84200  Biso   1.000  H
  H296     1.0000 0.35198  0.24497  0.97496  Biso   1.000  H
  C333     1.0000 0.22748  0.18259  0.95338  Biso   1.000  C
  C334     1.0000 0.76781  0.13728  0.27777  Biso   1.000  C
  C335     1.0000 0.76775  0.13728  0.27777  Biso   1.000  C
  C336     1.0000 0.84404  0.68612  0.86549  Biso   1.000  C
  H297     1.0000 0.78403  0.77300  0.84099  Biso   1.000  H
  C337     1.0000 0.88074  0.66518  0.05200  Biso   1.000  C
  H298     1.0000 0.84903  0.73599  0.17199  Biso   1.000  H
  C338     1.0000 0.27138  0.07410  0.27290  Biso   1.000  C
  C339     1.0000 0.08365  0.73197  0.41382  Biso   1.000  C
  H299     1.0000 0.02505  0.79001  0.52399  Biso   1.000  H
  C340     1.0000 0.08367  0.73202  0.41382  Biso   1.000  C
  C341     1.0000 0.07125  0.76217  0.22837  Biso   1.000  C
  H300     1.0000 0.00305  0.84300  0.19502  Biso   1.000  H
  C342     1.0000 0.07121  0.76222  0.22837  Biso   1.000  C
  C343     1.0000 0.57681  0.14878  0.83356  Biso   1.000  C
  C344     1.0000 0.57675  0.14878  0.83356  Biso   1.000  C
  C345     1.0000 0.30968  0.19650  0.34389  Biso   1.000  C
  H301     1.0000 0.25199  0.22399  0.48302  Biso   1.000  H
  H302     1.0000 0.99501  0.08100  0.55198  Biso   1.000  H
  C346     1.0000 0.99071  0.17780  0.63699  Biso   1.000  C
  H303     1.0000 0.06102  0.10098  0.67699  Biso   1.000  H
  H304     1.0000 0.06096  0.10098  0.67699  Biso   1.000  H
  C347     1.0000 0.54051  0.25107  0.75690  Biso   1.000  C
  H305     1.0000 0.41701  0.26596  0.77499  Biso   1.000  H
  H306     1.0000 0.41697  0.26601  0.77499  Biso   1.000  H
  H307     1.0000 0.18498  0.15000  0.88897  Biso   1.000  H
  C348     1.0000 0.18698  0.23898  0.98916  Biso   1.000  C
  H308     1.0000 0.23802  0.15195  0.01999  Biso   1.000  H
  H309     1.0000 0.23797  0.15200  0.01999  Biso   1.000  H
  H310     1.0000 0.77903  0.11201  0.20298  Biso   1.000  H
  H311     1.0000 0.82600  0.15298  0.33196  Biso   1.000  H
  C349     1.0000 0.73999  0.19751  0.24881  Biso   1.000  C
  H312     1.0000 0.77897  0.11201  0.20298  Biso   1.000  H
  C350     1.0000 0.87884  0.64719  0.94127  Biso   1.000  C
  H313     1.0000 0.84202  0.67199  0.77999  Biso   1.000  H
  H314     1.0000 0.90805  0.63498  0.11098  Biso   1.000  H
  H315     1.0000 0.90799  0.63498  0.11098  Biso   1.000  H
  C351     1.0000 0.31671  0.14260  0.26828  Biso   1.000  C
  C352     1.0000 0.10015  0.72211  0.30722  Biso   1.000  C
  H316     1.0000 0.10604  0.70100  0.47499  Biso   1.000  H
  H317     1.0000 0.08404  0.75400  0.14603  Biso   1.000  H
  C353     1.0000 0.59813  0.20867  0.77823  Biso   1.000  C
  C354     1.0000 0.59807  0.20867  0.77823  Biso   1.000  C
  C355     1.0000 0.36589  0.26878  0.33918  Biso   1.000  C
  C356     1.0000 0.96184  0.21787  0.55830  Biso   1.000  C
  C357     1.0000 0.97423  0.18767  0.74367  Biso   1.000  C
  C358     1.0000 0.96179  0.21792  0.55830  Biso   1.000  C
  C359     1.0000 0.97417  0.18767  0.74367  Biso   1.000  C
  C360     1.0000 0.56503  0.31397  0.68843  Biso   1.000  C
  C361     1.0000 0.56497  0.31397  0.68843  Biso   1.000  C
  C362     1.0000 0.15223  0.27790  0.91331  Biso   1.000  C
  C363     1.0000 0.15217  0.27790  0.91331  Biso   1.000  C
  C364     1.0000 0.18900  0.25696  0.09981  Biso   1.000  C
  C365     1.0000 0.18901  0.25701  0.09981  Biso   1.000  C
  H318     1.0000 0.70101  0.18499  0.17199  Biso   1.000  H
  H319     1.0000 0.79801  0.23298  0.23899  Biso   1.000  H
  C366     1.0000 0.69318  0.23808  0.31387  Biso   1.000  C
  H320     1.0000 0.79803  0.23303  0.23899  Biso   1.000  H
  H321     1.0000 0.90404  0.60297  0.91401  Biso   1.000  H
  H322     1.0000 0.90405  0.60303  0.91401  Biso   1.000  H
  O72      1.0000 0.36220  0.15637  0.18277  Biso   1.000  O
  O73      1.0000 0.36222  0.15642  0.18277  Biso   1.000  O
  H323     1.0000 0.13507  0.68297  0.28597  Biso   1.000  H
  H324     1.0000 0.13501  0.68297  0.28597  Biso   1.000  H
  O74      1.0000 0.67762  0.22536  0.74586  Biso   1.000  O
  O75      1.0000 0.67757  0.22541  0.74586  Biso   1.000  O
  C367     1.0000 0.45052  0.26869  0.40262  Biso   1.000  C
  H325     1.0000 0.37605  0.27901  0.25700  Biso   1.000  H
  C368     1.0000 0.32664  0.32977  0.37910  Biso   1.000  C
  H326     1.0000 0.37598  0.27901  0.25700  Biso   1.000  H
  C369     1.0000 0.32659  0.32982  0.37910  Biso   1.000  C
  C370     1.0000 0.91640  0.26801  0.58621  Biso   1.000  C
  H327     1.0000 0.97499  0.20997  0.47596  Biso   1.000  H
  H328     1.0000 0.97500  0.21002  0.47596  Biso   1.000  H
  C371     1.0000 0.92879  0.23781  0.77158  Biso   1.000  C
  H329     1.0000 0.99700  0.15698  0.80500  Biso   1.000  H
  C372     1.0000 0.54510  0.28786  0.56999  Biso   1.000  C
  C373     1.0000 0.54511  0.28791  0.56999  Biso   1.000  C
  H330     1.0000 0.63204  0.33497  0.70603  Biso   1.000  H
  C374     1.0000 0.53330  0.38039  0.71966  Biso   1.000  C
  H331     1.0000 0.63198  0.33497  0.70603  Biso   1.000  H
  C375     1.0000 0.11931  0.33480  0.94803  Biso   1.000  C
  H332     1.0000 0.15101  0.26399  0.82796  Biso   1.000  H
  C376     1.0000 0.15601  0.31386  0.13453  Biso   1.000  C
  H333     1.0000 0.21602  0.22698  0.15903  Biso   1.000  H
  C377     1.0000 0.15602  0.31391  0.13453  Biso   1.000  C
  H334     1.0000 0.21596  0.22698  0.15903  Biso   1.000  H
  H335     1.0000 0.73701  0.26699  0.38096  Biso   1.000  H
  H336     1.0000 0.66900  0.27502  0.26504  Biso   1.000  H
  O76      1.0000 0.63442  0.19897  0.35898  Biso   1.000  O
  O77      1.0000 0.63437  0.19902  0.35898  Biso   1.000  O
  C378     1.0000 0.44803  0.15950  0.20468  Biso   1.000  C
  C379     1.0000 0.44797  0.15950  0.20468  Biso   1.000  C
  C380     1.0000 0.68361  0.20248  0.63772  Biso   1.000  C
  C381     1.0000 0.50849  0.24078  0.34997  Biso   1.000  C
  C382     1.0000 0.46885  0.29220  0.51263  Biso   1.000  C
  C383     1.0000 0.46878  0.29220  0.51263  Biso   1.000  C
  H337     1.0000 0.32399  0.32801  0.46501  Biso   1.000  H
  H338     1.0000 0.26401  0.32198  0.33699  Biso   1.000  H
  C384     1.0000 0.37724  0.40139  0.36401  Biso   1.000  C
  C385     1.0000 0.37718  0.40139  0.36401  Biso   1.000  C
  C386     1.0000 0.89990  0.27787  0.69281  Biso   1.000  C
  H339     1.0000 0.89400  0.29897  0.52496  Biso   1.000  H
  H340     1.0000 0.89401  0.29902  0.52496  Biso   1.000  H
  H341     1.0000 0.91601  0.24598  0.85400  Biso   1.000  H
  C387     1.0000 0.60310  0.26001  0.51742  Biso   1.000  C
  H342     1.0000 0.54899  0.41896  0.66198  Biso   1.000  H
  H343     1.0000 0.46603  0.36599  0.71698  Biso   1.000  H
  C388     1.0000 0.56992  0.41470  0.83283  Biso   1.000  C
  H344     1.0000 0.54900  0.41902  0.66198  Biso   1.000  H
  H345     1.0000 0.46597  0.36599  0.71698  Biso   1.000  H
  H346     1.0000 0.09199  0.36500  0.88897  Biso   1.000  H
  C389     1.0000 0.12120  0.35278  0.05868  Biso   1.000  C
  H347     1.0000 0.15802  0.32799  0.21996  Biso   1.000  H
  H348     1.0000 0.15796  0.32799  0.21996  Biso   1.000  H
  C390     1.0000 0.58489  0.23650  0.40741  Biso   1.000  C
  O78      1.0000 0.49510  0.22478  0.23908  Biso   1.000  O
  H349     1.0000 0.46998  0.13898  0.13296  Biso   1.000  H
  H350     1.0000 0.45702  0.12599  0.26998  Biso   1.000  H
  H351     1.0000 0.45696  0.12599  0.26998  Biso   1.000  H
  O79      1.0000 0.67939  0.25757  0.57039  Biso   1.000  O
  O80      1.0000 0.67940  0.25762  0.57039  Biso   1.000  O
  H352     1.0000 0.63399  0.15697  0.60901  Biso   1.000  H
  H353     1.0000 0.74403  0.18898  0.63497  Biso   1.000  H
  H354     1.0000 0.74397  0.18898  0.63497  Biso   1.000  H
  H355     1.0000 0.42399  0.31397  0.55303  Biso   1.000  H
  H356     1.0000 0.42401  0.31402  0.55303  Biso   1.000  H
  H357     1.0000 0.37301  0.40397  0.27696  Biso   1.000  H
  H358     1.0000 0.44202  0.40501  0.39703  Biso   1.000  H
  C391     1.0000 0.34842  0.46332  0.40741  Biso   1.000  C
  H359     1.0000 0.37302  0.40403  0.27696  Biso   1.000  H
  H360     1.0000 0.86503  0.31700  0.71398  Biso   1.000  H
  H361     1.0000 0.86497  0.31700  0.71398  Biso   1.000  H
  H362     1.0000 0.63700  0.41896  0.84102  Biso   1.000  H
  H363     1.0000 0.54301  0.37998  0.89100  Biso   1.000  H
  C392     1.0000 0.55489  0.48486  0.86171  Biso   1.000  C
  H364     1.0000 0.63701  0.41902  0.84102  Biso   1.000  H
  C393     1.0000 0.55491  0.48491  0.86171  Biso   1.000  C
  H365     1.0000 0.09601  0.39700  0.08602  Biso   1.000  H
  C394     1.0000 0.38221  0.49699  0.50979  Biso   1.000  C
  C395     1.0000 0.28311  0.48537  0.34746  Biso   1.000  C
  C396     1.0000 0.28312  0.48542  0.34746  Biso   1.000  C
  C397     1.0000 0.62112  0.53470  0.92020  Biso   1.000  C
  C398     1.0000 0.47941  0.50380  0.82829  Biso   1.000  C
  C399     1.0000 0.35071  0.55277  0.55230  Biso   1.000  C
  H366     1.0000 0.43302  0.48002  0.55603  Biso   1.000  H
  C400     1.0000 0.25174  0.54120  0.38997  Biso   1.000  C
  H367     1.0000 0.25702  0.45898  0.26804  Biso   1.000  H
  C401     1.0000 0.25168  0.54120  0.38997  Biso   1.000  C
  C402     1.0000 0.61193  0.60327  0.94519  Biso   1.000  C
  H368     1.0000 0.68004  0.51999  0.94600  Biso   1.000  H
  C403     1.0000 0.61187  0.60327  0.94519  Biso   1.000  C
  H369     1.0000 0.67998  0.51999  0.94600  Biso   1.000  H
  C404     1.0000 0.47012  0.57247  0.85327  Biso   1.000  C
  H370     1.0000 0.42802  0.46498  0.78302  Biso   1.000  H
  C405     1.0000 0.28553  0.57488  0.49243  Biso   1.000  C
  H371     1.0000 0.37701  0.57896  0.63196  Biso   1.000  H
  C406     1.0000 0.28547  0.57488  0.49243  Biso   1.000  C
  H372     1.0000 0.37702  0.57902  0.63196  Biso   1.000  H
  H373     1.0000 0.20102  0.55798  0.34397  Biso   1.000  H
  C407     1.0000 0.53644  0.62221  0.91168  Biso   1.000  C
  H374     1.0000 0.66300  0.64196  0.98997  Biso   1.000  H
  C408     1.0000 0.53638  0.62221  0.91168  Biso   1.000  C
  H375     1.0000 0.66301  0.64201  0.98997  Biso   1.000  H
  H376     1.0000 0.41203  0.58700  0.82699  Biso   1.000  H
  H377     1.0000 0.26100  0.61799  0.52496  Biso   1.000  H
  H378     1.0000 0.52901  0.67499  0.93099  Biso   1.000  H
