data_image0
_cell_length_a       11.345
_cell_length_b       12.587
_cell_length_c       13.342
_cell_angle_alpha    61.92
_cell_angle_beta     83.1
_cell_angle_gamma    69.12

_symmetry_space_group_name_H-M    "P 1"
_symmetry_int_tables_number       1

loop_
  _symmetry_equiv_pos_as_xyz
  'x, y, z'

loop_
  _atom_site_label
  _atom_site_occupancy
  _atom_site_fract_x
  _atom_site_fract_y
  _atom_site_fract_z
  _atom_site_thermal_displace_type
  _atom_site_B_iso_or_equiv
  _atom_site_type_symbol
  O1       1.0000 0.11518  0.33381  0.27876  Biso   1.000  O
  C1       1.0000 0.01539  0.36021  0.23171  Biso   1.000  C
  C2       1.0000 0.01530  0.36021  0.23171  Biso   1.000  C
  N1       1.0000 0.00287  0.32467  0.15283  Biso   1.000  N
  N2       1.0000 0.00296  0.32467  0.15283  Biso   1.000  N
  N3       1.0000 0.89939  0.43121  0.24890  Biso   1.000  N
  C3       1.0000 0.11032  0.27219  0.09820  Biso   1.000  C
  C4       1.0000 0.11023  0.27219  0.09820  Biso   1.000  C
  C5       1.0000 0.87415  0.37672  0.10713  Biso   1.000  C
  C6       1.0000 0.87424  0.37672  0.10713  Biso   1.000  C
  C7       1.0000 0.88179  0.49859  0.31527  Biso   1.000  C
  C8       1.0000 0.79992  0.45060  0.17623  Biso   1.000  C
  C9       1.0000 0.80001  0.45060  0.17623  Biso   1.000  C
  H1       1.0000 0.18390  0.28710  0.11334  Biso   1.000  H
  H2       1.0000 0.09135  0.31817  0.01574  Biso   1.000  H
  N4       1.0000 0.14191  0.13729  0.13606  Biso   1.000  N
  H3       1.0000 0.09144  0.31817  0.01574  Biso   1.000  H
  H4       1.0000 0.18381  0.28710  0.11334  Biso   1.000  H
  N5       1.0000 0.14182  0.13729  0.13606  Biso   1.000  N
  O2       1.0000 0.87011  0.45280  0.99081  Biso   1.000  O
  O3       1.0000 0.87002  0.45280  0.99081  Biso   1.000  O
  N6       1.0000 0.81591  0.28150  0.13640  Biso   1.000  N
  H5       1.0000 0.96164  0.50901  0.32174  Biso   1.000  H
  H6       1.0000 0.81901  0.58431  0.27451  Biso   1.000  H
  N7       1.0000 0.84087  0.43567  0.42853  Biso   1.000  N
  H7       1.0000 0.81910  0.58431  0.27451  Biso   1.000  H
  H8       1.0000 0.96173  0.50901  0.32174  Biso   1.000  H
  N8       1.0000 0.84096  0.43567  0.42853  Biso   1.000  N
  N9       1.0000 0.71319  0.38226  0.23707  Biso   1.000  N
  O4       1.0000 0.74024  0.58000  0.11292  Biso   1.000  O
  O5       1.0000 0.74033  0.58000  0.11292  Biso   1.000  O
  C10      1.0000 0.24727  0.04596  0.20499  Biso   1.000  C
  C11      1.0000 0.07967  0.08431  0.08977  Biso   1.000  C
  C12      1.0000 0.24723  0.04604  0.20499  Biso   1.000  C
  C13      1.0000 0.07976  0.08431  0.08977  Biso   1.000  C
  C14      1.0000 0.24715  0.04604  0.20499  Biso   1.000  C
  H9       1.0000 0.91035  0.40771  0.96009  Biso   1.000  H
  C15      1.0000 0.72344  0.28610  0.21282  Biso   1.000  C
  C16      1.0000 0.84208  0.19821  0.08509  Biso   1.000  C
  C17      1.0000 0.72352  0.28610  0.21282  Biso   1.000  C
  C18      1.0000 0.84217  0.19821  0.08509  Biso   1.000  C
  C19      1.0000 0.70999  0.44736  0.45431  Biso   1.000  C
  C20      1.0000 0.92083  0.36834  0.52392  Biso   1.000  C
  C21      1.0000 0.92080  0.36842  0.52392  Biso   1.000  C
  C22      1.0000 0.61651  0.42195  0.30616  Biso   1.000  C
  C23      1.0000 0.61660  0.42195  0.30616  Biso   1.000  C
  H10      1.0000 0.70281  0.61104  0.15563  Biso   1.000  H
  H11      1.0000 0.70289  0.61104  0.15563  Biso   1.000  H
  O6       1.0000 0.31840  0.06624  0.24992  Biso   1.000  O
  O7       1.0000 0.31846  0.06632  0.24992  Biso   1.000  O
  O8       1.0000 0.31849  0.06624  0.24992  Biso   1.000  O
  O9       1.0000 0.31837  0.06632  0.24992  Biso   1.000  O
  N10      1.0000 0.26027  0.92976  0.21358  Biso   1.000  N
  N11      1.0000 0.26036  0.92976  0.21358  Biso   1.000  N
  N12      1.0000 0.95587  0.08615  0.13172  Biso   1.000  N
  N13      1.0000 0.95596  0.08615  0.13172  Biso   1.000  N
  C24      1.0000 0.16140  0.93774  0.14798  Biso   1.000  C
  C25      1.0000 0.16137  0.93783  0.14798  Biso   1.000  C
  C26      1.0000 0.16146  0.93783  0.14798  Biso   1.000  C
  O10      1.0000 0.06948  0.14533  0.97362  Biso   1.000  O
  O11      1.0000 0.06957  0.14533  0.97362  Biso   1.000  O
  O12      1.0000 0.65887  0.21721  0.25000  Biso   1.000  O
  O13      1.0000 0.65896  0.21721  0.25000  Biso   1.000  O
  H12      1.0000 0.76994  0.16942  0.09420  Biso   1.000  H
  H13      1.0000 0.84978  0.24737  0.00340  Biso   1.000  H
  H14      1.0000 0.77003  0.16942  0.09420  Biso   1.000  H
  H15      1.0000 0.84975  0.24746  0.00340  Biso   1.000  H
  H16      1.0000 0.84984  0.24746  0.00340  Biso   1.000  H
  C27      1.0000 0.71770  0.37049  0.58867  Biso   1.000  C
  N14      1.0000 0.66107  0.37608  0.42112  Biso   1.000  N
  O14      1.0000 0.62991  0.57302  0.40802  Biso   1.000  O
  O15      1.0000 0.63000  0.57302  0.40802  Biso   1.000  O
  N15      1.0000 0.66116  0.37608  0.42112  Biso   1.000  N
  O16      1.0000 0.03321  0.34899  0.52630  Biso   1.000  O
  O17      1.0000 0.03312  0.34899  0.52630  Biso   1.000  O
  N16      1.0000 0.85121  0.32905  0.61820  Biso   1.000  N
  N17      1.0000 0.85130  0.32905  0.61820  Biso   1.000  N
  H17      1.0000 0.58184  0.51583  0.26949  Biso   1.000  H
  H18      1.0000 0.54774  0.39090  0.30897  Biso   1.000  H
  H19      1.0000 0.54783  0.39090  0.30897  Biso   1.000  H
  H20      1.0000 0.58193  0.51583  0.26949  Biso   1.000  H
  C28      1.0000 0.36159  0.81306  0.27979  Biso   1.000  C
  C29      1.0000 0.36167  0.81306  0.27979  Biso   1.000  C
  C30      1.0000 0.95144  0.96643  0.19997  Biso   1.000  C
  N18      1.0000 0.07091  0.87840  0.21588  Biso   1.000  N
  O18      1.0000 0.21050  0.88695  0.07488  Biso   1.000  O
  O19      1.0000 0.21059  0.88695  0.07488  Biso   1.000  O
  H21      1.0000 0.03460  0.11220  0.95082  Biso   1.000  H
  H22      1.0000 0.03468  0.11220  0.95082  Biso   1.000  H
  N19      1.0000 0.67363  0.26808  0.60952  Biso   1.000  N
  O20      1.0000 0.64363  0.43842  0.64271  Biso   1.000  O
  O21      1.0000 0.64372  0.43842  0.64271  Biso   1.000  O
  C31      1.0000 0.63397  0.27734  0.51183  Biso   1.000  C
  C32      1.0000 0.63406  0.27734  0.51183  Biso   1.000  C
  H23      1.0000 0.57033  0.58175  0.37109  Biso   1.000  H
  H24      1.0000 0.57042  0.58175  0.37109  Biso   1.000  H
  C33      1.0000 0.90579  0.25767  0.73299  Biso   1.000  C
  C34      1.0000 0.90587  0.25767  0.73299  Biso   1.000  C
  H25      1.0000 0.39154  0.76430  0.23664  Biso   1.000  H
  H26      1.0000 0.43195  0.83512  0.29085  Biso   1.000  H
  N20      1.0000 0.32635  0.73199  0.39049  Biso   1.000  N
  H27      1.0000 0.39163  0.76430  0.23664  Biso   1.000  H
  O22      1.0000 0.85772  0.93984  0.24149  Biso   1.000  O
  O23      1.0000 0.85763  0.93984  0.24149  Biso   1.000  O
  C35      1.0000 0.09414  0.74231  0.26702  Biso   1.000  C
  C36      1.0000 0.09423  0.74231  0.26702  Biso   1.000  C
  H28      1.0000 0.15200  0.89355  0.03812  Biso   1.000  H
  H29      1.0000 0.15209  0.89355  0.03812  Biso   1.000  H
  C37      1.0000 0.63834  0.18693  0.72023  Biso   1.000  C
  H30      1.0000 0.56926  0.46872  0.61760  Biso   1.000  H
  H31      1.0000 0.56935  0.46872  0.61760  Biso   1.000  H
  O24      1.0000 0.58359  0.20890  0.50724  Biso   1.000  O
  O25      1.0000 0.58368  0.20890  0.50724  Biso   1.000  O
  H32      1.0000 0.84913  0.29228  0.78013  Biso   1.000  H
  H33      1.0000 0.98598  0.27055  0.73325  Biso   1.000  H
  N21      1.0000 0.92898  0.12167  0.78413  Biso   1.000  N
  H34      1.0000 0.98607  0.27055  0.73325  Biso   1.000  H
  N22      1.0000 0.92907  0.12167  0.78413  Biso   1.000  N
  C38      1.0000 0.36596  0.72264  0.48818  Biso   1.000  C
  C39      1.0000 0.28222  0.62949  0.41134  Biso   1.000  C
  C40      1.0000 0.28231  0.62949  0.41134  Biso   1.000  C
  H35      1.0000 0.15086  0.70779  0.21988  Biso   1.000  H
  H36      1.0000 0.01395  0.72943  0.26677  Biso   1.000  H
  N23      1.0000 0.14872  0.67094  0.38181  Biso   1.000  N
  H37      1.0000 0.01391  0.72952  0.26677  Biso   1.000  H
  N24      1.0000 0.14881  0.67094  0.38181  Biso   1.000  N
  H38      1.0000 0.60839  0.23564  0.76345  Biso   1.000  H
  H39      1.0000 0.56807  0.16483  0.70925  Biso   1.000  H
  N25      1.0000 0.73966  0.07022  0.78643  Biso   1.000  N
  H40      1.0000 0.60848  0.23564  0.76345  Biso   1.000  H
  C41      1.0000 0.04854  0.03364  0.80004  Biso   1.000  C
  C42      1.0000 0.83853  0.06224  0.85203  Biso   1.000  C
  C43      1.0000 0.83861  0.06224  0.85203  Biso   1.000  C
  N26      1.0000 0.33886  0.62390  0.57889  Biso   1.000  N
  O26      1.0000 0.41631  0.79117  0.49277  Biso   1.000  O
  O27      1.0000 0.41639  0.79117  0.49277  Biso   1.000  O
  N27      1.0000 0.33895  0.62390  0.57889  Biso   1.000  N
  C44      1.0000 0.28993  0.55263  0.54570  Biso   1.000  C
  O28      1.0000 0.35626  0.56165  0.35730  Biso   1.000  O
  C45      1.0000 0.29002  0.55263  0.54570  Biso   1.000  C
  C46      1.0000 0.07919  0.63165  0.47609  Biso   1.000  C
  C47      1.0000 0.75284  0.95403  0.79502  Biso   1.000  C
  C48      1.0000 0.75275  0.95403  0.79502  Biso   1.000  C
  O29      1.0000 0.14239  0.06015  0.75852  Biso   1.000  O
  O30      1.0000 0.14230  0.06015  0.75852  Biso   1.000  O
  N28      1.0000 0.04405  0.91384  0.86829  Biso   1.000  N
  C49      1.0000 0.92034  0.91568  0.91024  Biso   1.000  C
  C50      1.0000 0.92025  0.91568  0.91024  Biso   1.000  C
  O31      1.0000 0.78943  0.11304  0.92513  Biso   1.000  O
  O32      1.0000 0.78951  0.11304  0.92513  Biso   1.000  O
  C51      1.0000 0.38338  0.57812  0.69385  Biso   1.000  C
  N29      1.0000 0.15906  0.56432  0.57148  Biso   1.000  N
  O33      1.0000 0.36998  0.42705  0.59199  Biso   1.000  O
  N30      1.0000 0.15915  0.56432  0.57148  Biso   1.000  N
  H41      1.0000 0.43063  0.53135  0.38241  Biso   1.000  H
  H42      1.0000 0.43072  0.53135  0.38241  Biso   1.000  H
  O34      1.0000 0.96680  0.65100  0.47371  Biso   1.000  O
  N31      1.0000 0.85810  0.86269  0.86395  Biso   1.000  N
  O35      1.0000 0.68161  0.93375  0.75009  Biso   1.000  O
  O36      1.0000 0.68153  0.93375  0.75009  Biso   1.000  O
  C52      1.0000 0.15785  0.80177  0.91492  Biso   1.000  C
  C53      1.0000 0.15790  0.80186  0.91492  Biso   1.000  C
  C54      1.0000 0.15794  0.80177  0.91492  Biso   1.000  C
  O37      1.0000 0.93041  0.85474  0.02639  Biso   1.000  O
  O38      1.0000 0.93050  0.85474  0.02639  Biso   1.000  O
  H43      1.0000 0.84793  0.10644  0.96189  Biso   1.000  H
  H44      1.0000 0.84801  0.10644  0.96189  Biso   1.000  H
  N32      1.0000 0.28679  0.61781  0.76294  Biso   1.000  N
  H45      1.0000 0.41806  0.48424  0.73052  Biso   1.000  H
  H46      1.0000 0.45219  0.60908  0.69104  Biso   1.000  H
  H47      1.0000 0.41815  0.48424  0.73052  Biso   1.000  H
  C55      1.0000 0.11814  0.50139  0.68474  Biso   1.000  C
  C56      1.0000 0.11823  0.50139  0.68474  Biso   1.000  C
  H48      1.0000 0.42957  0.41832  0.62892  Biso   1.000  H
  H49      1.0000 0.42965  0.41832  0.62892  Biso   1.000  H
  C57      1.0000 0.88979  0.72780  0.90181  Biso   1.000  C
  C58      1.0000 0.88970  0.72780  0.90181  Biso   1.000  C
  H50      1.0000 0.22995  0.83065  0.90581  Biso   1.000  H
  H51      1.0000 0.15014  0.75261  0.99661  Biso   1.000  H
  N33      1.0000 0.18411  0.71848  0.86361  Biso   1.000  N
  H52      1.0000 0.15023  0.75261  0.99661  Biso   1.000  H
  H53      1.0000 0.96533  0.88778  0.04920  Biso   1.000  H
  C59      1.0000 0.20001  0.54939  0.82378  Biso   1.000  C
  C60      1.0000 0.27649  0.71388  0.78719  Biso   1.000  C
  C61      1.0000 0.27646  0.71397  0.78719  Biso   1.000  C
  N34      1.0000 0.10063  0.56877  0.75111  Biso   1.000  N
  H54      1.0000 0.03825  0.49106  0.67828  Biso   1.000  H
  H55      1.0000 0.18092  0.41567  0.72550  Biso   1.000  H
  H56      1.0000 0.03834  0.49106  0.67828  Biso   1.000  H
  H57      1.0000 0.81618  0.71292  0.88675  Biso   1.000  H
  H58      1.0000 0.90867  0.68177  0.98435  Biso   1.000  H
  N35      1.0000 0.99715  0.67532  0.84718  Biso   1.000  N
  H59      1.0000 0.81609  0.71292  0.88675  Biso   1.000  H
  H60      1.0000 0.90858  0.68177  0.98435  Biso   1.000  H
  N36      1.0000 0.99706  0.67532  0.84718  Biso   1.000  N
  C62      1.0000 0.12574  0.62335  0.89288  Biso   1.000  C
  C63      1.0000 0.12583  0.62335  0.89288  Biso   1.000  C
  O39      1.0000 0.25969  0.41998  0.88709  Biso   1.000  O
  O40      1.0000 0.25978  0.41998  0.88709  Biso   1.000  O
  O41      1.0000 0.34103  0.78286  0.75001  Biso   1.000  O
  O42      1.0000 0.34112  0.78286  0.75001  Biso   1.000  O
  C64      1.0000 0.98468  0.63986  0.76830  Biso   1.000  C
  C65      1.0000 0.98459  0.63986  0.76830  Biso   1.000  C
  O43      1.0000 0.13000  0.54718  0.00920  Biso   1.000  O
  O44      1.0000 0.12991  0.54718  0.00920  Biso   1.000  O
  H61      1.0000 0.29709  0.38903  0.84438  Biso   1.000  H
  H62      1.0000 0.29718  0.38903  0.84438  Biso   1.000  H
  O45      1.0000 0.88484  0.66618  0.72125  Biso   1.000  O
  O46      1.0000 0.88475  0.66618  0.72125  Biso   1.000  O
  H63      1.0000 0.08967  0.59227  0.03992  Biso   1.000  H
  H64      1.0000 0.08958  0.59227  0.03992  Biso   1.000  H
  O47      1.0000 0.11518  0.33381  0.27876  Biso   1.000  O
  C66      1.0000 0.01539  0.36021  0.23171  Biso   1.000  C
  C67      1.0000 0.01530  0.36021  0.23171  Biso   1.000  C
  N37      1.0000 0.00287  0.32467  0.15283  Biso   1.000  N
  N38      1.0000 0.89939  0.43121  0.24890  Biso   1.000  N
  N39      1.0000 0.00296  0.32467  0.15283  Biso   1.000  N
  C68      1.0000 0.11032  0.27219  0.09820  Biso   1.000  C
  C69      1.0000 0.87415  0.37672  0.10713  Biso   1.000  C
  C70      1.0000 0.87424  0.37672  0.10713  Biso   1.000  C
  C71      1.0000 0.11023  0.27219  0.09820  Biso   1.000  C
  C72      1.0000 0.88179  0.49859  0.31527  Biso   1.000  C
  C73      1.0000 0.79992  0.45060  0.17623  Biso   1.000  C
  C74      1.0000 0.80001  0.45060  0.17623  Biso   1.000  C
  H65      1.0000 0.18390  0.28710  0.11334  Biso   1.000  H
  N40      1.0000 0.14191  0.13729  0.13606  Biso   1.000  N
  H66      1.0000 0.09144  0.31817  0.01574  Biso   1.000  H
  H67      1.0000 0.09135  0.31817  0.01574  Biso   1.000  H
  H68      1.0000 0.18381  0.28710  0.11334  Biso   1.000  H
  N41      1.0000 0.14182  0.13729  0.13606  Biso   1.000  N
  O48      1.0000 0.87011  0.45280  0.99081  Biso   1.000  O
  O49      1.0000 0.87002  0.45280  0.99081  Biso   1.000  O
  N42      1.0000 0.81591  0.28150  0.13640  Biso   1.000  N
  H69      1.0000 0.96164  0.50901  0.32174  Biso   1.000  H
  H70      1.0000 0.81901  0.58431  0.27451  Biso   1.000  H
  N43      1.0000 0.84087  0.43567  0.42853  Biso   1.000  N
  H71      1.0000 0.81910  0.58431  0.27451  Biso   1.000  H
  H72      1.0000 0.96173  0.50901  0.32174  Biso   1.000  H
  N44      1.0000 0.84096  0.43567  0.42853  Biso   1.000  N
  N45      1.0000 0.71319  0.38226  0.23707  Biso   1.000  N
  O50      1.0000 0.74024  0.58000  0.11292  Biso   1.000  O
  O51      1.0000 0.74033  0.58000  0.11292  Biso   1.000  O
  C75      1.0000 0.24727  0.04596  0.20499  Biso   1.000  C
  C76      1.0000 0.07976  0.08431  0.08977  Biso   1.000  C
  C77      1.0000 0.07967  0.08431  0.08977  Biso   1.000  C
  C78      1.0000 0.24723  0.04604  0.20499  Biso   1.000  C
  C79      1.0000 0.24715  0.04604  0.20499  Biso   1.000  C
  H73      1.0000 0.91035  0.40771  0.96009  Biso   1.000  H
  C80      1.0000 0.72344  0.28610  0.21282  Biso   1.000  C
  C81      1.0000 0.84208  0.19821  0.08509  Biso   1.000  C
  C82      1.0000 0.72352  0.28610  0.21282  Biso   1.000  C
  C83      1.0000 0.84217  0.19821  0.08509  Biso   1.000  C
  C84      1.0000 0.70999  0.44736  0.45431  Biso   1.000  C
  C85      1.0000 0.92083  0.36834  0.52392  Biso   1.000  C
  C86      1.0000 0.92080  0.36842  0.52392  Biso   1.000  C
  C87      1.0000 0.61651  0.42195  0.30616  Biso   1.000  C
  C88      1.0000 0.61660  0.42195  0.30616  Biso   1.000  C
  H74      1.0000 0.70281  0.61104  0.15563  Biso   1.000  H
  H75      1.0000 0.70289  0.61104  0.15563  Biso   1.000  H
  N46      1.0000 0.26027  0.92976  0.21358  Biso   1.000  N
  N47      1.0000 0.26036  0.92976  0.21358  Biso   1.000  N
  O52      1.0000 0.31840  0.06624  0.24992  Biso   1.000  O
  O53      1.0000 0.31846  0.06632  0.24992  Biso   1.000  O
  O54      1.0000 0.31849  0.06624  0.24992  Biso   1.000  O
  O55      1.0000 0.31837  0.06632  0.24992  Biso   1.000  O
  N48      1.0000 0.95587  0.08615  0.13172  Biso   1.000  N
  N49      1.0000 0.95596  0.08615  0.13172  Biso   1.000  N
  C89      1.0000 0.16140  0.93774  0.14798  Biso   1.000  C
  C90      1.0000 0.16137  0.93783  0.14798  Biso   1.000  C
  C91      1.0000 0.16146  0.93783  0.14798  Biso   1.000  C
  O56      1.0000 0.06948  0.14533  0.97362  Biso   1.000  O
  O57      1.0000 0.06957  0.14533  0.97362  Biso   1.000  O
  O58      1.0000 0.65887  0.21721  0.25000  Biso   1.000  O
  O59      1.0000 0.65896  0.21721  0.25000  Biso   1.000  O
  H76      1.0000 0.76994  0.16942  0.09420  Biso   1.000  H
  H77      1.0000 0.84978  0.24737  0.00340  Biso   1.000  H
  H78      1.0000 0.77003  0.16942  0.09420  Biso   1.000  H
  H79      1.0000 0.84975  0.24746  0.00340  Biso   1.000  H
  H80      1.0000 0.84984  0.24746  0.00340  Biso   1.000  H
  C92      1.0000 0.71770  0.37049  0.58867  Biso   1.000  C
  N50      1.0000 0.66107  0.37608  0.42112  Biso   1.000  N
  O60      1.0000 0.62991  0.57302  0.40802  Biso   1.000  O
  O61      1.0000 0.63000  0.57302  0.40802  Biso   1.000  O
  N51      1.0000 0.66116  0.37608  0.42112  Biso   1.000  N
  O62      1.0000 0.03321  0.34899  0.52630  Biso   1.000  O
  N52      1.0000 0.85121  0.32905  0.61820  Biso   1.000  N
  N53      1.0000 0.85130  0.32905  0.61820  Biso   1.000  N
  O63      1.0000 0.03312  0.34899  0.52630  Biso   1.000  O
  H81      1.0000 0.58184  0.51583  0.26949  Biso   1.000  H
  H82      1.0000 0.54774  0.39090  0.30897  Biso   1.000  H
  H83      1.0000 0.54783  0.39090  0.30897  Biso   1.000  H
  H84      1.0000 0.58193  0.51583  0.26949  Biso   1.000  H
  C93      1.0000 0.36159  0.81306  0.27979  Biso   1.000  C
  C94      1.0000 0.36167  0.81306  0.27979  Biso   1.000  C
  C95      1.0000 0.95144  0.96643  0.19997  Biso   1.000  C
  N54      1.0000 0.07091  0.87840  0.21588  Biso   1.000  N
  O64      1.0000 0.21050  0.88695  0.07488  Biso   1.000  O
  O65      1.0000 0.21059  0.88695  0.07488  Biso   1.000  O
  H85      1.0000 0.03460  0.11220  0.95082  Biso   1.000  H
  H86      1.0000 0.03468  0.11220  0.95082  Biso   1.000  H
  N55      1.0000 0.67363  0.26808  0.60952  Biso   1.000  N
  O66      1.0000 0.64363  0.43842  0.64271  Biso   1.000  O
  O67      1.0000 0.64372  0.43842  0.64271  Biso   1.000  O
  C96      1.0000 0.63397  0.27734  0.51183  Biso   1.000  C
  C97      1.0000 0.63406  0.27734  0.51183  Biso   1.000  C
  H87      1.0000 0.57033  0.58175  0.37109  Biso   1.000  H
  H88      1.0000 0.57042  0.58175  0.37109  Biso   1.000  H
  C98      1.0000 0.90579  0.25767  0.73299  Biso   1.000  C
  C99      1.0000 0.90587  0.25767  0.73299  Biso   1.000  C
  H89      1.0000 0.39154  0.76430  0.23664  Biso   1.000  H
  H90      1.0000 0.43195  0.83512  0.29085  Biso   1.000  H
  N56      1.0000 0.32635  0.73199  0.39049  Biso   1.000  N
  H91      1.0000 0.39163  0.76430  0.23664  Biso   1.000  H
  O68      1.0000 0.85772  0.93984  0.24149  Biso   1.000  O
  O69      1.0000 0.85763  0.93984  0.24149  Biso   1.000  O
  C100     1.0000 0.09414  0.74231  0.26702  Biso   1.000  C
  C101     1.0000 0.09423  0.74231  0.26702  Biso   1.000  C
  H92      1.0000 0.15200  0.89355  0.03812  Biso   1.000  H
  H93      1.0000 0.15209  0.89355  0.03812  Biso   1.000  H
  C102     1.0000 0.63834  0.18693  0.72023  Biso   1.000  C
  H94      1.0000 0.56926  0.46872  0.61760  Biso   1.000  H
  H95      1.0000 0.56935  0.46872  0.61760  Biso   1.000  H
  O70      1.0000 0.58359  0.20890  0.50724  Biso   1.000  O
  O71      1.0000 0.58368  0.20890  0.50724  Biso   1.000  O
  H96      1.0000 0.84913  0.29228  0.78013  Biso   1.000  H
  H97      1.0000 0.98598  0.27055  0.73325  Biso   1.000  H
  N57      1.0000 0.92898  0.12167  0.78413  Biso   1.000  N
  H98      1.0000 0.98607  0.27055  0.73325  Biso   1.000  H
  N58      1.0000 0.92907  0.12167  0.78413  Biso   1.000  N
  C103     1.0000 0.36596  0.72264  0.48818  Biso   1.000  C
  C104     1.0000 0.28222  0.62949  0.41134  Biso   1.000  C
  C105     1.0000 0.28231  0.62949  0.41134  Biso   1.000  C
  H99      1.0000 0.15086  0.70779  0.21988  Biso   1.000  H
  H100     1.0000 0.01395  0.72943  0.26677  Biso   1.000  H
  N59      1.0000 0.14872  0.67094  0.38181  Biso   1.000  N
  H101     1.0000 0.01391  0.72952  0.26677  Biso   1.000  H
  N60      1.0000 0.14881  0.67094  0.38181  Biso   1.000  N
  H102     1.0000 0.60839  0.23564  0.76345  Biso   1.000  H
  H103     1.0000 0.56807  0.16483  0.70925  Biso   1.000  H
  N61      1.0000 0.73966  0.07022  0.78643  Biso   1.000  N
  H104     1.0000 0.60848  0.23564  0.76345  Biso   1.000  H
  C106     1.0000 0.04854  0.03364  0.80004  Biso   1.000  C
  C107     1.0000 0.83853  0.06224  0.85203  Biso   1.000  C
  C108     1.0000 0.83861  0.06224  0.85203  Biso   1.000  C
  N62      1.0000 0.33886  0.62390  0.57889  Biso   1.000  N
  O72      1.0000 0.41631  0.79117  0.49277  Biso   1.000  O
  O73      1.0000 0.41639  0.79117  0.49277  Biso   1.000  O
  N63      1.0000 0.33895  0.62390  0.57889  Biso   1.000  N
  C109     1.0000 0.28993  0.55263  0.54570  Biso   1.000  C
  O74      1.0000 0.35626  0.56165  0.35730  Biso   1.000  O
  C110     1.0000 0.29002  0.55263  0.54570  Biso   1.000  C
  C111     1.0000 0.07919  0.63165  0.47609  Biso   1.000  C
  C112     1.0000 0.75284  0.95403  0.79502  Biso   1.000  C
  C113     1.0000 0.75275  0.95403  0.79502  Biso   1.000  C
  O75      1.0000 0.14239  0.06015  0.75852  Biso   1.000  O
  N64      1.0000 0.04405  0.91384  0.86829  Biso   1.000  N
  O76      1.0000 0.14230  0.06015  0.75852  Biso   1.000  O
  C114     1.0000 0.92034  0.91568  0.91024  Biso   1.000  C
  C115     1.0000 0.92025  0.91568  0.91024  Biso   1.000  C
  O77      1.0000 0.78943  0.11304  0.92513  Biso   1.000  O
  O78      1.0000 0.78951  0.11304  0.92513  Biso   1.000  O
  C116     1.0000 0.38338  0.57812  0.69385  Biso   1.000  C
  N65      1.0000 0.15906  0.56432  0.57148  Biso   1.000  N
  O79      1.0000 0.36998  0.42705  0.59199  Biso   1.000  O
  N66      1.0000 0.15915  0.56432  0.57148  Biso   1.000  N
  H105     1.0000 0.43063  0.53135  0.38241  Biso   1.000  H
  H106     1.0000 0.43072  0.53135  0.38241  Biso   1.000  H
  O80      1.0000 0.96680  0.65100  0.47371  Biso   1.000  O
  N67      1.0000 0.85810  0.86269  0.86395  Biso   1.000  N
  O81      1.0000 0.68161  0.93375  0.75009  Biso   1.000  O
  O82      1.0000 0.68153  0.93375  0.75009  Biso   1.000  O
  C117     1.0000 0.15785  0.80177  0.91492  Biso   1.000  C
  C118     1.0000 0.15790  0.80186  0.91492  Biso   1.000  C
  C119     1.0000 0.15794  0.80177  0.91492  Biso   1.000  C
  O83      1.0000 0.93041  0.85474  0.02639  Biso   1.000  O
  O84      1.0000 0.93050  0.85474  0.02639  Biso   1.000  O
  H107     1.0000 0.84793  0.10644  0.96189  Biso   1.000  H
  H108     1.0000 0.84801  0.10644  0.96189  Biso   1.000  H
  N68      1.0000 0.28679  0.61781  0.76294  Biso   1.000  N
  H109     1.0000 0.41806  0.48424  0.73052  Biso   1.000  H
  H110     1.0000 0.45219  0.60908  0.69104  Biso   1.000  H
  H111     1.0000 0.41815  0.48424  0.73052  Biso   1.000  H
  C120     1.0000 0.11814  0.50139  0.68474  Biso   1.000  C
  C121     1.0000 0.11823  0.50139  0.68474  Biso   1.000  C
  H112     1.0000 0.42957  0.41832  0.62892  Biso   1.000  H
  H113     1.0000 0.42965  0.41832  0.62892  Biso   1.000  H
  C122     1.0000 0.88979  0.72780  0.90181  Biso   1.000  C
  C123     1.0000 0.88970  0.72780  0.90181  Biso   1.000  C
  H114     1.0000 0.22995  0.83065  0.90581  Biso   1.000  H
  H115     1.0000 0.15014  0.75261  0.99661  Biso   1.000  H
  N69      1.0000 0.18411  0.71848  0.86361  Biso   1.000  N
  H116     1.0000 0.15023  0.75261  0.99661  Biso   1.000  H
  H117     1.0000 0.96533  0.88778  0.04920  Biso   1.000  H
  C124     1.0000 0.20001  0.54939  0.82378  Biso   1.000  C
  C125     1.0000 0.27649  0.71388  0.78719  Biso   1.000  C
  C126     1.0000 0.27646  0.71397  0.78719  Biso   1.000  C
  N70      1.0000 0.10063  0.56877  0.75111  Biso   1.000  N
  H118     1.0000 0.03825  0.49106  0.67828  Biso   1.000  H
  H119     1.0000 0.18092  0.41567  0.72550  Biso   1.000  H
  H120     1.0000 0.03834  0.49106  0.67828  Biso   1.000  H
  H121     1.0000 0.81618  0.71292  0.88675  Biso   1.000  H
  H122     1.0000 0.90867  0.68177  0.98435  Biso   1.000  H
  N71      1.0000 0.99715  0.67532  0.84718  Biso   1.000  N
  H123     1.0000 0.81609  0.71292  0.88675  Biso   1.000  H
  H124     1.0000 0.90858  0.68177  0.98435  Biso   1.000  H
  N72      1.0000 0.99706  0.67532  0.84718  Biso   1.000  N
  C127     1.0000 0.12574  0.62335  0.89288  Biso   1.000  C
  C128     1.0000 0.12583  0.62335  0.89288  Biso   1.000  C
  O85      1.0000 0.25969  0.41998  0.88709  Biso   1.000  O
  O86      1.0000 0.25978  0.41998  0.88709  Biso   1.000  O
  O87      1.0000 0.34103  0.78286  0.75001  Biso   1.000  O
  O88      1.0000 0.34112  0.78286  0.75001  Biso   1.000  O
  C129     1.0000 0.98468  0.63986  0.76830  Biso   1.000  C
  C130     1.0000 0.98459  0.63986  0.76830  Biso   1.000  C
  O89      1.0000 0.13000  0.54718  0.00920  Biso   1.000  O
  O90      1.0000 0.12991  0.54718  0.00920  Biso   1.000  O
  H125     1.0000 0.29709  0.38903  0.84438  Biso   1.000  H
  H126     1.0000 0.29718  0.38903  0.84438  Biso   1.000  H
  O91      1.0000 0.88484  0.66618  0.72125  Biso   1.000  O
  O92      1.0000 0.88475  0.66618  0.72125  Biso   1.000  O
  H127     1.0000 0.08967  0.59227  0.03992  Biso   1.000  H
  H128     1.0000 0.08958  0.59227  0.03992  Biso   1.000  H
  O93      1.0000 0.11518  0.33381  0.27876  Biso   1.000  O
  C131     1.0000 0.01539  0.36021  0.23171  Biso   1.000  C
  C132     1.0000 0.01530  0.36021  0.23171  Biso   1.000  C
  N73      1.0000 0.00287  0.32467  0.15283  Biso   1.000  N
  N74      1.0000 0.89939  0.43121  0.24890  Biso   1.000  N
  N75      1.0000 0.00296  0.32467  0.15283  Biso   1.000  N
  C133     1.0000 0.11032  0.27219  0.09820  Biso   1.000  C
  C134     1.0000 0.87415  0.37672  0.10713  Biso   1.000  C
  C135     1.0000 0.87424  0.37672  0.10713  Biso   1.000  C
  C136     1.0000 0.11023  0.27219  0.09820  Biso   1.000  C
  C137     1.0000 0.88179  0.49859  0.31527  Biso   1.000  C
  C138     1.0000 0.79992  0.45060  0.17623  Biso   1.000  C
  C139     1.0000 0.80001  0.45060  0.17623  Biso   1.000  C
  H129     1.0000 0.18390  0.28710  0.11334  Biso   1.000  H
  N76      1.0000 0.14191  0.13729  0.13606  Biso   1.000  N
  H130     1.0000 0.09135  0.31817  0.01574  Biso   1.000  H
  H131     1.0000 0.09144  0.31817  0.01574  Biso   1.000  H
  H132     1.0000 0.18381  0.28710  0.11334  Biso   1.000  H
  N77      1.0000 0.14182  0.13729  0.13606  Biso   1.000  N
  O94      1.0000 0.87011  0.45280  0.99081  Biso   1.000  O
  O95      1.0000 0.87002  0.45280  0.99081  Biso   1.000  O
  N78      1.0000 0.81591  0.28150  0.13640  Biso   1.000  N
  H133     1.0000 0.96164  0.50901  0.32174  Biso   1.000  H
  H134     1.0000 0.81901  0.58431  0.27451  Biso   1.000  H
  N79      1.0000 0.84087  0.43567  0.42853  Biso   1.000  N
  H135     1.0000 0.81910  0.58431  0.27451  Biso   1.000  H
  H136     1.0000 0.96173  0.50901  0.32174  Biso   1.000  H
  N80      1.0000 0.84096  0.43567  0.42853  Biso   1.000  N
  N81      1.0000 0.71319  0.38226  0.23707  Biso   1.000  N
  O96      1.0000 0.74024  0.58000  0.11292  Biso   1.000  O
  O97      1.0000 0.74033  0.58000  0.11292  Biso   1.000  O
  C140     1.0000 0.24727  0.04596  0.20499  Biso   1.000  C
  C141     1.0000 0.07967  0.08431  0.08977  Biso   1.000  C
  C142     1.0000 0.24723  0.04604  0.20499  Biso   1.000  C
  C143     1.0000 0.07976  0.08431  0.08977  Biso   1.000  C
  C144     1.0000 0.24715  0.04604  0.20499  Biso   1.000  C
  H137     1.0000 0.91035  0.40771  0.96009  Biso   1.000  H
  C145     1.0000 0.72344  0.28610  0.21282  Biso   1.000  C
  C146     1.0000 0.84208  0.19821  0.08509  Biso   1.000  C
  C147     1.0000 0.72352  0.28610  0.21282  Biso   1.000  C
  C148     1.0000 0.84217  0.19821  0.08509  Biso   1.000  C
  C149     1.0000 0.70999  0.44736  0.45431  Biso   1.000  C
  C150     1.0000 0.92083  0.36834  0.52392  Biso   1.000  C
  C151     1.0000 0.92080  0.36842  0.52392  Biso   1.000  C
  C152     1.0000 0.61651  0.42195  0.30616  Biso   1.000  C
  C153     1.0000 0.61660  0.42195  0.30616  Biso   1.000  C
  H138     1.0000 0.70281  0.61104  0.15563  Biso   1.000  H
  H139     1.0000 0.70289  0.61104  0.15563  Biso   1.000  H
  N82      1.0000 0.26027  0.92976  0.21358  Biso   1.000  N
  N83      1.0000 0.26036  0.92976  0.21358  Biso   1.000  N
  O98      1.0000 0.31840  0.06624  0.24992  Biso   1.000  O
  O99      1.0000 0.31846  0.06632  0.24992  Biso   1.000  O
  O100     1.0000 0.31849  0.06624  0.24992  Biso   1.000  O
  O101     1.0000 0.31837  0.06632  0.24992  Biso   1.000  O
  N84      1.0000 0.95587  0.08615  0.13172  Biso   1.000  N
  N85      1.0000 0.95596  0.08615  0.13172  Biso   1.000  N
  C154     1.0000 0.16140  0.93774  0.14798  Biso   1.000  C
  C155     1.0000 0.16137  0.93783  0.14798  Biso   1.000  C
  C156     1.0000 0.16146  0.93783  0.14798  Biso   1.000  C
  O102     1.0000 0.06948  0.14533  0.97362  Biso   1.000  O
  O103     1.0000 0.06957  0.14533  0.97362  Biso   1.000  O
  O104     1.0000 0.65887  0.21721  0.25000  Biso   1.000  O
  O105     1.0000 0.65896  0.21721  0.25000  Biso   1.000  O
  H140     1.0000 0.76994  0.16942  0.09420  Biso   1.000  H
  H141     1.0000 0.84978  0.24737  0.00340  Biso   1.000  H
  H142     1.0000 0.77003  0.16942  0.09420  Biso   1.000  H
  H143     1.0000 0.84975  0.24746  0.00340  Biso   1.000  H
  H144     1.0000 0.84984  0.24746  0.00340  Biso   1.000  H
  C157     1.0000 0.71770  0.37049  0.58867  Biso   1.000  C
  N86      1.0000 0.66107  0.37608  0.42112  Biso   1.000  N
  O106     1.0000 0.62991  0.57302  0.40802  Biso   1.000  O
  O107     1.0000 0.63000  0.57302  0.40802  Biso   1.000  O
  N87      1.0000 0.66116  0.37608  0.42112  Biso   1.000  N
  O108     1.0000 0.03321  0.34899  0.52630  Biso   1.000  O
  N88      1.0000 0.85121  0.32905  0.61820  Biso   1.000  N
  N89      1.0000 0.85130  0.32905  0.61820  Biso   1.000  N
  O109     1.0000 0.03312  0.34899  0.52630  Biso   1.000  O
  H145     1.0000 0.58184  0.51583  0.26949  Biso   1.000  H
  H146     1.0000 0.54774  0.39090  0.30897  Biso   1.000  H
  H147     1.0000 0.54783  0.39090  0.30897  Biso   1.000  H
  H148     1.0000 0.58193  0.51583  0.26949  Biso   1.000  H
  C158     1.0000 0.36159  0.81306  0.27979  Biso   1.000  C
  C159     1.0000 0.36167  0.81306  0.27979  Biso   1.000  C
  C160     1.0000 0.95144  0.96643  0.19997  Biso   1.000  C
  N90      1.0000 0.07091  0.87840  0.21588  Biso   1.000  N
  O110     1.0000 0.21050  0.88695  0.07488  Biso   1.000  O
  O111     1.0000 0.21059  0.88695  0.07488  Biso   1.000  O
  H149     1.0000 0.03460  0.11220  0.95082  Biso   1.000  H
  H150     1.0000 0.03468  0.11220  0.95082  Biso   1.000  H
  N91      1.0000 0.67363  0.26808  0.60952  Biso   1.000  N
  O112     1.0000 0.64363  0.43842  0.64271  Biso   1.000  O
  O113     1.0000 0.64372  0.43842  0.64271  Biso   1.000  O
  C161     1.0000 0.63397  0.27734  0.51183  Biso   1.000  C
  C162     1.0000 0.63406  0.27734  0.51183  Biso   1.000  C
  H151     1.0000 0.57033  0.58175  0.37109  Biso   1.000  H
  H152     1.0000 0.57042  0.58175  0.37109  Biso   1.000  H
  C163     1.0000 0.90579  0.25767  0.73299  Biso   1.000  C
  C164     1.0000 0.90587  0.25767  0.73299  Biso   1.000  C
  H153     1.0000 0.39154  0.76430  0.23664  Biso   1.000  H
  H154     1.0000 0.43195  0.83512  0.29085  Biso   1.000  H
  N92      1.0000 0.32635  0.73199  0.39049  Biso   1.000  N
  H155     1.0000 0.39163  0.76430  0.23664  Biso   1.000  H
  O114     1.0000 0.85772  0.93984  0.24149  Biso   1.000  O
  O115     1.0000 0.85763  0.93984  0.24149  Biso   1.000  O
  C165     1.0000 0.09414  0.74231  0.26702  Biso   1.000  C
  C166     1.0000 0.09423  0.74231  0.26702  Biso   1.000  C
  H156     1.0000 0.15200  0.89355  0.03812  Biso   1.000  H
  H157     1.0000 0.15209  0.89355  0.03812  Biso   1.000  H
  C167     1.0000 0.63834  0.18693  0.72023  Biso   1.000  C
  H158     1.0000 0.56926  0.46872  0.61760  Biso   1.000  H
  H159     1.0000 0.56935  0.46872  0.61760  Biso   1.000  H
  O116     1.0000 0.58359  0.20890  0.50724  Biso   1.000  O
  O117     1.0000 0.58368  0.20890  0.50724  Biso   1.000  O
  H160     1.0000 0.84913  0.29228  0.78013  Biso   1.000  H
  H161     1.0000 0.98598  0.27055  0.73325  Biso   1.000  H
  N93      1.0000 0.92898  0.12167  0.78413  Biso   1.000  N
  H162     1.0000 0.98607  0.27055  0.73325  Biso   1.000  H
  N94      1.0000 0.92907  0.12167  0.78413  Biso   1.000  N
  C168     1.0000 0.36596  0.72264  0.48818  Biso   1.000  C
  C169     1.0000 0.28222  0.62949  0.41134  Biso   1.000  C
  C170     1.0000 0.28231  0.62949  0.41134  Biso   1.000  C
  H163     1.0000 0.15086  0.70779  0.21988  Biso   1.000  H
  H164     1.0000 0.01395  0.72943  0.26677  Biso   1.000  H
  N95      1.0000 0.14872  0.67094  0.38181  Biso   1.000  N
  H165     1.0000 0.01391  0.72952  0.26677  Biso   1.000  H
  N96      1.0000 0.14881  0.67094  0.38181  Biso   1.000  N
  H166     1.0000 0.60839  0.23564  0.76345  Biso   1.000  H
  H167     1.0000 0.56807  0.16483  0.70925  Biso   1.000  H
  N97      1.0000 0.73966  0.07022  0.78643  Biso   1.000  N
  H168     1.0000 0.60848  0.23564  0.76345  Biso   1.000  H
  C171     1.0000 0.04854  0.03364  0.80004  Biso   1.000  C
  C172     1.0000 0.83853  0.06224  0.85203  Biso   1.000  C
  C173     1.0000 0.83861  0.06224  0.85203  Biso   1.000  C
  N98      1.0000 0.33886  0.62390  0.57889  Biso   1.000  N
  O118     1.0000 0.41631  0.79117  0.49277  Biso   1.000  O
  O119     1.0000 0.41639  0.79117  0.49277  Biso   1.000  O
  N99      1.0000 0.33895  0.62390  0.57889  Biso   1.000  N
  C174     1.0000 0.28993  0.55263  0.54570  Biso   1.000  C
  O120     1.0000 0.35626  0.56165  0.35730  Biso   1.000  O
  C175     1.0000 0.29002  0.55263  0.54570  Biso   1.000  C
  C176     1.0000 0.07919  0.63165  0.47609  Biso   1.000  C
  C177     1.0000 0.75284  0.95403  0.79502  Biso   1.000  C
  C178     1.0000 0.75275  0.95403  0.79502  Biso   1.000  C
  O121     1.0000 0.14239  0.06015  0.75852  Biso   1.000  O
  N100     1.0000 0.04405  0.91384  0.86829  Biso   1.000  N
  O122     1.0000 0.14230  0.06015  0.75852  Biso   1.000  O
  C179     1.0000 0.92034  0.91568  0.91024  Biso   1.000  C
  C180     1.0000 0.92025  0.91568  0.91024  Biso   1.000  C
  O123     1.0000 0.78943  0.11304  0.92513  Biso   1.000  O
  O124     1.0000 0.78951  0.11304  0.92513  Biso   1.000  O
  C181     1.0000 0.38338  0.57812  0.69385  Biso   1.000  C
  N101     1.0000 0.15906  0.56432  0.57148  Biso   1.000  N
  O125     1.0000 0.36998  0.42705  0.59199  Biso   1.000  O
  N102     1.0000 0.15915  0.56432  0.57148  Biso   1.000  N
  H169     1.0000 0.43063  0.53135  0.38241  Biso   1.000  H
  H170     1.0000 0.43072  0.53135  0.38241  Biso   1.000  H
  O126     1.0000 0.96680  0.65100  0.47371  Biso   1.000  O
  N103     1.0000 0.85810  0.86269  0.86395  Biso   1.000  N
  O127     1.0000 0.68161  0.93375  0.75009  Biso   1.000  O
  O128     1.0000 0.68153  0.93375  0.75009  Biso   1.000  O
  C182     1.0000 0.15785  0.80177  0.91492  Biso   1.000  C
  C183     1.0000 0.15790  0.80186  0.91492  Biso   1.000  C
  C184     1.0000 0.15794  0.80177  0.91492  Biso   1.000  C
  O129     1.0000 0.93041  0.85474  0.02639  Biso   1.000  O
  O130     1.0000 0.93050  0.85474  0.02639  Biso   1.000  O
  H171     1.0000 0.84793  0.10644  0.96189  Biso   1.000  H
  H172     1.0000 0.84801  0.10644  0.96189  Biso   1.000  H
  N104     1.0000 0.28679  0.61781  0.76294  Biso   1.000  N
  H173     1.0000 0.41806  0.48424  0.73052  Biso   1.000  H
  H174     1.0000 0.45219  0.60908  0.69104  Biso   1.000  H
  H175     1.0000 0.41815  0.48424  0.73052  Biso   1.000  H
  C185     1.0000 0.11814  0.50139  0.68474  Biso   1.000  C
  C186     1.0000 0.11823  0.50139  0.68474  Biso   1.000  C
  H176     1.0000 0.42957  0.41832  0.62892  Biso   1.000  H
  H177     1.0000 0.42965  0.41832  0.62892  Biso   1.000  H
  C187     1.0000 0.88979  0.72780  0.90181  Biso   1.000  C
  C188     1.0000 0.88970  0.72780  0.90181  Biso   1.000  C
  H178     1.0000 0.22995  0.83065  0.90581  Biso   1.000  H
  H179     1.0000 0.15014  0.75261  0.99661  Biso   1.000  H
  N105     1.0000 0.18411  0.71848  0.86361  Biso   1.000  N
  H180     1.0000 0.15023  0.75261  0.99661  Biso   1.000  H
  H181     1.0000 0.96533  0.88778  0.04920  Biso   1.000  H
  C189     1.0000 0.20001  0.54939  0.82378  Biso   1.000  C
  C190     1.0000 0.27649  0.71388  0.78719  Biso   1.000  C
  C191     1.0000 0.27646  0.71397  0.78719  Biso   1.000  C
  N106     1.0000 0.10063  0.56877  0.75111  Biso   1.000  N
  H182     1.0000 0.03825  0.49106  0.67828  Biso   1.000  H
  H183     1.0000 0.18092  0.41567  0.72550  Biso   1.000  H
  H184     1.0000 0.03834  0.49106  0.67828  Biso   1.000  H
  H185     1.0000 0.81618  0.71292  0.88675  Biso   1.000  H
  H186     1.0000 0.90867  0.68177  0.98435  Biso   1.000  H
  N107     1.0000 0.99715  0.67532  0.84718  Biso   1.000  N
  H187     1.0000 0.81609  0.71292  0.88675  Biso   1.000  H
  H188     1.0000 0.90858  0.68177  0.98435  Biso   1.000  H
  N108     1.0000 0.99706  0.67532  0.84718  Biso   1.000  N
  C192     1.0000 0.12574  0.62335  0.89288  Biso   1.000  C
  C193     1.0000 0.12583  0.62335  0.89288  Biso   1.000  C
  O131     1.0000 0.25969  0.41998  0.88709  Biso   1.000  O
  O132     1.0000 0.25978  0.41998  0.88709  Biso   1.000  O
  O133     1.0000 0.34103  0.78286  0.75001  Biso   1.000  O
  O134     1.0000 0.34112  0.78286  0.75001  Biso   1.000  O
  C194     1.0000 0.98468  0.63986  0.76830  Biso   1.000  C
  C195     1.0000 0.98459  0.63986  0.76830  Biso   1.000  C
  O135     1.0000 0.13000  0.54718  0.00920  Biso   1.000  O
  O136     1.0000 0.12991  0.54718  0.00920  Biso   1.000  O
  H189     1.0000 0.29709  0.38903  0.84438  Biso   1.000  H
  H190     1.0000 0.29718  0.38903  0.84438  Biso   1.000  H
  O137     1.0000 0.88484  0.66618  0.72125  Biso   1.000  O
  O138     1.0000 0.88475  0.66618  0.72125  Biso   1.000  O
  H191     1.0000 0.08967  0.59227  0.03992  Biso   1.000  H
  H192     1.0000 0.08958  0.59227  0.03992  Biso   1.000  H
  O139     1.0000 0.11518  0.33381  0.27876  Biso   1.000  O
  C196     1.0000 0.01539  0.36021  0.23171  Biso   1.000  C
  C197     1.0000 0.01530  0.36021  0.23171  Biso   1.000  C
  N109     1.0000 0.89939  0.43121  0.24890  Biso   1.000  N
  N110     1.0000 0.00287  0.32467  0.15283  Biso   1.000  N
  N111     1.0000 0.00296  0.32467  0.15283  Biso   1.000  N
  C198     1.0000 0.88179  0.49859  0.31527  Biso   1.000  C
  C199     1.0000 0.79992  0.45060  0.17623  Biso   1.000  C
  C200     1.0000 0.80001  0.45060  0.17623  Biso   1.000  C
  C201     1.0000 0.87415  0.37672  0.10713  Biso   1.000  C
  C202     1.0000 0.87424  0.37672  0.10713  Biso   1.000  C
  C203     1.0000 0.11032  0.27219  0.09820  Biso   1.000  C
  C204     1.0000 0.11023  0.27219  0.09820  Biso   1.000  C
  H193     1.0000 0.96164  0.50901  0.32174  Biso   1.000  H
  H194     1.0000 0.81901  0.58431  0.27451  Biso   1.000  H
  N112     1.0000 0.84087  0.43567  0.42853  Biso   1.000  N
  H195     1.0000 0.81910  0.58431  0.27451  Biso   1.000  H
  H196     1.0000 0.96173  0.50901  0.32174  Biso   1.000  H
  N113     1.0000 0.84096  0.43567  0.42853  Biso   1.000  N
  N114     1.0000 0.71319  0.38226  0.23707  Biso   1.000  N
  O140     1.0000 0.74024  0.58000  0.11292  Biso   1.000  O
  O141     1.0000 0.74033  0.58000  0.11292  Biso   1.000  O
  O142     1.0000 0.87011  0.45280  0.99081  Biso   1.000  O
  O143     1.0000 0.87002  0.45280  0.99081  Biso   1.000  O
  N115     1.0000 0.81591  0.28150  0.13640  Biso   1.000  N
  H197     1.0000 0.18390  0.28710  0.11334  Biso   1.000  H
  H198     1.0000 0.09135  0.31817  0.01574  Biso   1.000  H
  N116     1.0000 0.14191  0.13729  0.13606  Biso   1.000  N
  H199     1.0000 0.09144  0.31817  0.01574  Biso   1.000  H
  H200     1.0000 0.18381  0.28710  0.11334  Biso   1.000  H
  N117     1.0000 0.14182  0.13729  0.13606  Biso   1.000  N
  C205     1.0000 0.70999  0.44736  0.45431  Biso   1.000  C
  C206     1.0000 0.92083  0.36834  0.52392  Biso   1.000  C
  C207     1.0000 0.92080  0.36842  0.52392  Biso   1.000  C
  C208     1.0000 0.61651  0.42195  0.30616  Biso   1.000  C
  C209     1.0000 0.72344  0.28610  0.21282  Biso   1.000  C
  C210     1.0000 0.61660  0.42195  0.30616  Biso   1.000  C
  C211     1.0000 0.72352  0.28610  0.21282  Biso   1.000  C
  H201     1.0000 0.70281  0.61104  0.15563  Biso   1.000  H
  H202     1.0000 0.70289  0.61104  0.15563  Biso   1.000  H
  H203     1.0000 0.91035  0.40771  0.96009  Biso   1.000  H
  C212     1.0000 0.84208  0.19821  0.08509  Biso   1.000  C
  C213     1.0000 0.84217  0.19821  0.08509  Biso   1.000  C
  C214     1.0000 0.24727  0.04596  0.20499  Biso   1.000  C
  C215     1.0000 0.07967  0.08431  0.08977  Biso   1.000  C
  C216     1.0000 0.24723  0.04604  0.20499  Biso   1.000  C
  C217     1.0000 0.07976  0.08431  0.08977  Biso   1.000  C
  C218     1.0000 0.24715  0.04604  0.20499  Biso   1.000  C
  C219     1.0000 0.71770  0.37049  0.58867  Biso   1.000  C
  N118     1.0000 0.66107  0.37608  0.42112  Biso   1.000  N
  O144     1.0000 0.62991  0.57302  0.40802  Biso   1.000  O
  O145     1.0000 0.63000  0.57302  0.40802  Biso   1.000  O
  N119     1.0000 0.66116  0.37608  0.42112  Biso   1.000  N
  N120     1.0000 0.85121  0.32905  0.61820  Biso   1.000  N
  N121     1.0000 0.85130  0.32905  0.61820  Biso   1.000  N
  O146     1.0000 0.03321  0.34899  0.52630  Biso   1.000  O
  O147     1.0000 0.03312  0.34899  0.52630  Biso   1.000  O
  H204     1.0000 0.58184  0.51583  0.26949  Biso   1.000  H
  H205     1.0000 0.54774  0.39090  0.30897  Biso   1.000  H
  H206     1.0000 0.54783  0.39090  0.30897  Biso   1.000  H
  H207     1.0000 0.58193  0.51583  0.26949  Biso   1.000  H
  O148     1.0000 0.65887  0.21721  0.25000  Biso   1.000  O
  O149     1.0000 0.65896  0.21721  0.25000  Biso   1.000  O
  H208     1.0000 0.76994  0.16942  0.09420  Biso   1.000  H
  H209     1.0000 0.84978  0.24737  0.00340  Biso   1.000  H
  N122     1.0000 0.95587  0.08615  0.13172  Biso   1.000  N
  H210     1.0000 0.77003  0.16942  0.09420  Biso   1.000  H
  H211     1.0000 0.84975  0.24746  0.00340  Biso   1.000  H
  N123     1.0000 0.95596  0.08615  0.13172  Biso   1.000  N
  H212     1.0000 0.84984  0.24746  0.00340  Biso   1.000  H
  N124     1.0000 0.26027  0.92976  0.21358  Biso   1.000  N
  N125     1.0000 0.26036  0.92976  0.21358  Biso   1.000  N
  O150     1.0000 0.31840  0.06624  0.24992  Biso   1.000  O
  O151     1.0000 0.31846  0.06632  0.24992  Biso   1.000  O
  O152     1.0000 0.31849  0.06624  0.24992  Biso   1.000  O
  O153     1.0000 0.31837  0.06632  0.24992  Biso   1.000  O
  C220     1.0000 0.16140  0.93774  0.14798  Biso   1.000  C
  C221     1.0000 0.16137  0.93783  0.14798  Biso   1.000  C
  C222     1.0000 0.16146  0.93783  0.14798  Biso   1.000  C
  O154     1.0000 0.06948  0.14533  0.97362  Biso   1.000  O
  O155     1.0000 0.06957  0.14533  0.97362  Biso   1.000  O
  N126     1.0000 0.67363  0.26808  0.60952  Biso   1.000  N
  O156     1.0000 0.64363  0.43842  0.64271  Biso   1.000  O
  O157     1.0000 0.64372  0.43842  0.64271  Biso   1.000  O
  C223     1.0000 0.63397  0.27734  0.51183  Biso   1.000  C
  C224     1.0000 0.63406  0.27734  0.51183  Biso   1.000  C
  H213     1.0000 0.57033  0.58175  0.37109  Biso   1.000  H
  H214     1.0000 0.57042  0.58175  0.37109  Biso   1.000  H
  C225     1.0000 0.90579  0.25767  0.73299  Biso   1.000  C
  C226     1.0000 0.90587  0.25767  0.73299  Biso   1.000  C
  C227     1.0000 0.95144  0.96643  0.19997  Biso   1.000  C
  C228     1.0000 0.36159  0.81306  0.27979  Biso   1.000  C
  C229     1.0000 0.36167  0.81306  0.27979  Biso   1.000  C
  N127     1.0000 0.07091  0.87840  0.21588  Biso   1.000  N
  O158     1.0000 0.21050  0.88695  0.07488  Biso   1.000  O
  O159     1.0000 0.21059  0.88695  0.07488  Biso   1.000  O
  H215     1.0000 0.03460  0.11220  0.95082  Biso   1.000  H
  H216     1.0000 0.03468  0.11220  0.95082  Biso   1.000  H
  C230     1.0000 0.63834  0.18693  0.72023  Biso   1.000  C
  H217     1.0000 0.56926  0.46872  0.61760  Biso   1.000  H
  H218     1.0000 0.56935  0.46872  0.61760  Biso   1.000  H
  O160     1.0000 0.58359  0.20890  0.50724  Biso   1.000  O
  O161     1.0000 0.58368  0.20890  0.50724  Biso   1.000  O
  H219     1.0000 0.84913  0.29228  0.78013  Biso   1.000  H
  H220     1.0000 0.98598  0.27055  0.73325  Biso   1.000  H
  N128     1.0000 0.92898  0.12167  0.78413  Biso   1.000  N
  H221     1.0000 0.98607  0.27055  0.73325  Biso   1.000  H
  N129     1.0000 0.92907  0.12167  0.78413  Biso   1.000  N
  O162     1.0000 0.85772  0.93984  0.24149  Biso   1.000  O
  O163     1.0000 0.85763  0.93984  0.24149  Biso   1.000  O
  H222     1.0000 0.39154  0.76430  0.23664  Biso   1.000  H
  H223     1.0000 0.43195  0.83512  0.29085  Biso   1.000  H
  N130     1.0000 0.32635  0.73199  0.39049  Biso   1.000  N
  H224     1.0000 0.39163  0.76430  0.23664  Biso   1.000  H
  C231     1.0000 0.09414  0.74231  0.26702  Biso   1.000  C
  C232     1.0000 0.09423  0.74231  0.26702  Biso   1.000  C
  H225     1.0000 0.15200  0.89355  0.03812  Biso   1.000  H
  H226     1.0000 0.15209  0.89355  0.03812  Biso   1.000  H
  H227     1.0000 0.60839  0.23564  0.76345  Biso   1.000  H
  H228     1.0000 0.56807  0.16483  0.70925  Biso   1.000  H
  N131     1.0000 0.73966  0.07022  0.78643  Biso   1.000  N
  H229     1.0000 0.60848  0.23564  0.76345  Biso   1.000  H
  C233     1.0000 0.04854  0.03364  0.80004  Biso   1.000  C
  C234     1.0000 0.83853  0.06224  0.85203  Biso   1.000  C
  C235     1.0000 0.83861  0.06224  0.85203  Biso   1.000  C
  C236     1.0000 0.36596  0.72264  0.48818  Biso   1.000  C
  C237     1.0000 0.28222  0.62949  0.41134  Biso   1.000  C
  C238     1.0000 0.28231  0.62949  0.41134  Biso   1.000  C
  H230     1.0000 0.15086  0.70779  0.21988  Biso   1.000  H
  H231     1.0000 0.01395  0.72943  0.26677  Biso   1.000  H
  N132     1.0000 0.14872  0.67094  0.38181  Biso   1.000  N
  H232     1.0000 0.01391  0.72952  0.26677  Biso   1.000  H
  N133     1.0000 0.14881  0.67094  0.38181  Biso   1.000  N
  C239     1.0000 0.75284  0.95403  0.79502  Biso   1.000  C
  C240     1.0000 0.75275  0.95403  0.79502  Biso   1.000  C
  N134     1.0000 0.04405  0.91384  0.86829  Biso   1.000  N
  O164     1.0000 0.14239  0.06015  0.75852  Biso   1.000  O
  O165     1.0000 0.14230  0.06015  0.75852  Biso   1.000  O
  C241     1.0000 0.92034  0.91568  0.91024  Biso   1.000  C
  C242     1.0000 0.92025  0.91568  0.91024  Biso   1.000  C
  O166     1.0000 0.78943  0.11304  0.92513  Biso   1.000  O
  O167     1.0000 0.78951  0.11304  0.92513  Biso   1.000  O
  N135     1.0000 0.33886  0.62390  0.57889  Biso   1.000  N
  O168     1.0000 0.41631  0.79117  0.49277  Biso   1.000  O
  O169     1.0000 0.41639  0.79117  0.49277  Biso   1.000  O
  N136     1.0000 0.33895  0.62390  0.57889  Biso   1.000  N
  C243     1.0000 0.28993  0.55263  0.54570  Biso   1.000  C
  O170     1.0000 0.35626  0.56165  0.35730  Biso   1.000  O
  C244     1.0000 0.29002  0.55263  0.54570  Biso   1.000  C
  C245     1.0000 0.07919  0.63165  0.47609  Biso   1.000  C
  N137     1.0000 0.85810  0.86269  0.86395  Biso   1.000  N
  O171     1.0000 0.68161  0.93375  0.75009  Biso   1.000  O
  O172     1.0000 0.68153  0.93375  0.75009  Biso   1.000  O
  C246     1.0000 0.15785  0.80177  0.91492  Biso   1.000  C
  C247     1.0000 0.15790  0.80186  0.91492  Biso   1.000  C
  C248     1.0000 0.15794  0.80177  0.91492  Biso   1.000  C
  O173     1.0000 0.93041  0.85474  0.02639  Biso   1.000  O
  O174     1.0000 0.93050  0.85474  0.02639  Biso   1.000  O
  H233     1.0000 0.84793  0.10644  0.96189  Biso   1.000  H
  H234     1.0000 0.84801  0.10644  0.96189  Biso   1.000  H
  C249     1.0000 0.38338  0.57812  0.69385  Biso   1.000  C
  N138     1.0000 0.15906  0.56432  0.57148  Biso   1.000  N
  O175     1.0000 0.36998  0.42705  0.59199  Biso   1.000  O
  N139     1.0000 0.15915  0.56432  0.57148  Biso   1.000  N
  H235     1.0000 0.43063  0.53135  0.38241  Biso   1.000  H
  H236     1.0000 0.43072  0.53135  0.38241  Biso   1.000  H
  O176     1.0000 0.96680  0.65100  0.47371  Biso   1.000  O
  C250     1.0000 0.88979  0.72780  0.90181  Biso   1.000  C
  C251     1.0000 0.88970  0.72780  0.90181  Biso   1.000  C
  H237     1.0000 0.22995  0.83065  0.90581  Biso   1.000  H
  H238     1.0000 0.15014  0.75261  0.99661  Biso   1.000  H
  N140     1.0000 0.18411  0.71848  0.86361  Biso   1.000  N
  H239     1.0000 0.15023  0.75261  0.99661  Biso   1.000  H
  H240     1.0000 0.96533  0.88778  0.04920  Biso   1.000  H
  N141     1.0000 0.28679  0.61781  0.76294  Biso   1.000  N
  H241     1.0000 0.41806  0.48424  0.73052  Biso   1.000  H
  H242     1.0000 0.45219  0.60908  0.69104  Biso   1.000  H
  H243     1.0000 0.41815  0.48424  0.73052  Biso   1.000  H
  C252     1.0000 0.11814  0.50139  0.68474  Biso   1.000  C
  C253     1.0000 0.11823  0.50139  0.68474  Biso   1.000  C
  H244     1.0000 0.42957  0.41832  0.62892  Biso   1.000  H
  H245     1.0000 0.42965  0.41832  0.62892  Biso   1.000  H
  H246     1.0000 0.81618  0.71292  0.88675  Biso   1.000  H
  H247     1.0000 0.90867  0.68177  0.98435  Biso   1.000  H
  N142     1.0000 0.99715  0.67532  0.84718  Biso   1.000  N
  H248     1.0000 0.81609  0.71292  0.88675  Biso   1.000  H
  H249     1.0000 0.90858  0.68177  0.98435  Biso   1.000  H
  N143     1.0000 0.99706  0.67532  0.84718  Biso   1.000  N
  C254     1.0000 0.12574  0.62335  0.89288  Biso   1.000  C
  C255     1.0000 0.27649  0.71388  0.78719  Biso   1.000  C
  C256     1.0000 0.27646  0.71397  0.78719  Biso   1.000  C
  C257     1.0000 0.12583  0.62335  0.89288  Biso   1.000  C
  C258     1.0000 0.20001  0.54939  0.82378  Biso   1.000  C
  N144     1.0000 0.10063  0.56877  0.75111  Biso   1.000  N
  H250     1.0000 0.03825  0.49106  0.67828  Biso   1.000  H
  H251     1.0000 0.18092  0.41567  0.72550  Biso   1.000  H
  H252     1.0000 0.03834  0.49106  0.67828  Biso   1.000  H
  C259     1.0000 0.98468  0.63986  0.76830  Biso   1.000  C
  C260     1.0000 0.98459  0.63986  0.76830  Biso   1.000  C
  O177     1.0000 0.13000  0.54718  0.00920  Biso   1.000  O
  O178     1.0000 0.12991  0.54718  0.00920  Biso   1.000  O
  O179     1.0000 0.34103  0.78286  0.75001  Biso   1.000  O
  O180     1.0000 0.34112  0.78286  0.75001  Biso   1.000  O
  O181     1.0000 0.25969  0.41998  0.88709  Biso   1.000  O
  O182     1.0000 0.25978  0.41998  0.88709  Biso   1.000  O
  O183     1.0000 0.88484  0.66618  0.72125  Biso   1.000  O
  O184     1.0000 0.88475  0.66618  0.72125  Biso   1.000  O
  H253     1.0000 0.08967  0.59227  0.03992  Biso   1.000  H
  H254     1.0000 0.08958  0.59227  0.03992  Biso   1.000  H
  H255     1.0000 0.29709  0.38903  0.84438  Biso   1.000  H
  H256     1.0000 0.29718  0.38903  0.84438  Biso   1.000  H
