data_image0
_cell_length_a       8.451
_cell_length_b       10.722
_cell_length_c       10.054
_cell_angle_alpha    93.05
_cell_angle_beta     102.59
_cell_angle_gamma    95.33

_symmetry_space_group_name_H-M    "P 1"
_symmetry_int_tables_number       1

loop_
  _symmetry_equiv_pos_as_xyz
  'x, y, z'

loop_
  _atom_site_label
  _atom_site_occupancy
  _atom_site_fract_x
  _atom_site_fract_y
  _atom_site_fract_z
  _atom_site_thermal_displace_type
  _atom_site_B_iso_or_equiv
  _atom_site_type_symbol
  C1       1.0000 0.01074  0.11194  0.79547  Biso   1.000  C
  C2       1.0000 0.95797  0.99097  0.70992  Biso   1.000  C
  C3       1.0000 0.95785  0.99097  0.70992  Biso   1.000  C
  H1       1.0000 0.92255  0.13565  0.83339  Biso   1.000  H
  H2       1.0000 0.92243  0.13565  0.83339  Biso   1.000  H
  H3       1.0000 0.92244  0.13574  0.83339  Biso   1.000  H
  O1       1.0000 0.05510  0.20467  0.71176  Biso   1.000  O
  H4       1.0000 0.10083  0.10200  0.86814  Biso   1.000  H
  H5       1.0000 0.10071  0.10200  0.86814  Biso   1.000  H
  O2       1.0000 0.05499  0.20476  0.71176  Biso   1.000  O
  C4       1.0000 0.82681  0.00427  0.58595  Biso   1.000  C
  C5       1.0000 0.82684  0.00428  0.58605  Biso   1.000  C
  C6       1.0000 0.82670  0.00437  0.58595  Biso   1.000  C
  C7       1.0000 0.01421  0.88360  0.74334  Biso   1.000  C
  C8       1.0000 0.01424  0.88361  0.74345  Biso   1.000  C
  C9       1.0000 0.01420  0.88351  0.74334  Biso   1.000  C
  C10      1.0000 0.01075  0.11203  0.79547  Biso   1.000  C
  C11      1.0000 0.01063  0.11203  0.79547  Biso   1.000  C
  C12      1.0000 0.00824  0.32391  0.74150  Biso   1.000  C
  C13      1.0000 0.00812  0.32391  0.74150  Biso   1.000  C
  C14      1.0000 0.00823  0.32382  0.74150  Biso   1.000  C
  O3       1.0000 0.69986  0.06697  0.62141  Biso   1.000  O
  O4       1.0000 0.69997  0.06687  0.62141  Biso   1.000  O
  H6       1.0000 0.87367  0.05194  0.52370  Biso   1.000  H
  O5       1.0000 0.69985  0.06687  0.62141  Biso   1.000  O
  H7       1.0000 0.87357  0.05203  0.52370  Biso   1.000  H
  H8       1.0000 0.78384  0.92377  0.54353  Biso   1.000  H
  H9       1.0000 0.78383  0.92367  0.54353  Biso   1.000  H
  C15      1.0000 0.96038  0.75936  0.66066  Biso   1.000  C
  C16      1.0000 0.96026  0.75936  0.66066  Biso   1.000  C
  C17      1.0000 0.14206  0.86857  0.86947  Biso   1.000  C
  C18      1.0000 0.14194  0.86857  0.86947  Biso   1.000  C
  H10      1.0000 0.90358  0.31257  0.76286  Biso   1.000  H
  H11      1.0000 0.00003  0.36943  0.66178  Biso   1.000  H
  H12      1.0000 0.90349  0.31257  0.76297  Biso   1.000  H
  H13      1.0000 0.90347  0.31266  0.76286  Biso   1.000  H
  H14      1.0000 0.99992  0.36952  0.66178  Biso   1.000  H
  C19      1.0000 0.12431  0.39837  0.85730  Biso   1.000  C
  C20      1.0000 0.12419  0.39837  0.85730  Biso   1.000  C
  C21      1.0000 0.12420  0.39847  0.85730  Biso   1.000  C
  C22      1.0000 0.59644  0.98981  0.68386  Biso   1.000  C
  C23      1.0000 0.59643  0.98972  0.68386  Biso   1.000  C
  O6       1.0000 0.92745  0.66078  0.74365  Biso   1.000  O
  H15      1.0000 0.86597  0.66788  0.59371  Biso   1.000  H
  O7       1.0000 0.92733  0.66078  0.74365  Biso   1.000  O
  H16      1.0000 0.86585  0.66788  0.59371  Biso   1.000  H
  H17      1.0000 0.86596  0.66778  0.59371  Biso   1.000  H
  H18      1.0000 0.04610  0.73904  0.61763  Biso   1.000  H
  H19      1.0000 0.04600  0.73914  0.61763  Biso   1.000  H
  H20      1.0000 0.04599  0.73904  0.61763  Biso   1.000  H
  O8       1.0000 0.27087  0.81226  0.83144  Biso   1.000  O
  H21      1.0000 0.18234  0.94809  0.91658  Biso   1.000  H
  H22      1.0000 0.09654  0.81619  0.92854  Biso   1.000  H
  O9       1.0000 0.27078  0.81226  0.83155  Biso   1.000  O
  H23      1.0000 0.18224  0.94819  0.91658  Biso   1.000  H
  H24      1.0000 0.09643  0.81628  0.92854  Biso   1.000  H
  H25      1.0000 0.18223  0.94809  0.91658  Biso   1.000  H
  H26      1.0000 0.09642  0.81619  0.92854  Biso   1.000  H
  O10      1.0000 0.11169  0.34588  0.97944  Biso   1.000  O
  H27      1.0000 0.09733  0.48241  0.86016  Biso   1.000  H
  H28      1.0000 0.23134  0.39698  0.84402  Biso   1.000  H
  O11      1.0000 0.11172  0.34589  0.97954  Biso   1.000  O
  H29      1.0000 0.09724  0.48241  0.86027  Biso   1.000  H
  O12      1.0000 0.11159  0.34597  0.97944  Biso   1.000  O
  H30      1.0000 0.09722  0.48250  0.86016  Biso   1.000  H
  H31      1.0000 0.23123  0.39707  0.84402  Biso   1.000  H
  C24      1.0000 0.49942  0.06819  0.75367  Biso   1.000  C
  C25      1.0000 0.49930  0.06819  0.75367  Biso   1.000  C
  H32      1.0000 0.52497  0.93387  0.61620  Biso   1.000  H
  H33      1.0000 0.66131  0.94307  0.74856  Biso   1.000  H
  H34      1.0000 0.52498  0.93397  0.61620  Biso   1.000  H
  H35      1.0000 0.66134  0.94308  0.74866  Biso   1.000  H
  C26      1.0000 0.78083  0.66988  0.78831  Biso   1.000  C
  C27      1.0000 0.35146  0.73617  0.92813  Biso   1.000  C
  C28      1.0000 0.35135  0.73617  0.92813  Biso   1.000  C
  C29      1.0000 0.21899  0.40719  0.09473  Biso   1.000  C
  C30      1.0000 0.21887  0.40719  0.09473  Biso   1.000  C
  O13      1.0000 0.60658  0.13108  0.87141  Biso   1.000  O
  H36      1.0000 0.45342  0.12813  0.69551  Biso   1.000  H
  H37      1.0000 0.41636  0.01696  0.78065  Biso   1.000  H
  O14      1.0000 0.60647  0.13108  0.87141  Biso   1.000  O
  H38      1.0000 0.41626  0.01705  0.78065  Biso   1.000  H
  O15      1.0000 0.60648  0.13117  0.87141  Biso   1.000  O
  H39      1.0000 0.45331  0.12822  0.69551  Biso   1.000  H
  H40      1.0000 0.41624  0.01696  0.78065  Biso   1.000  H
  C31      1.0000 0.78112  0.59276  0.90524  Biso   1.000  C
  H41      1.0000 0.69060  0.64005  0.71493  Biso   1.000  H
  H42      1.0000 0.77317  0.75470  0.81468  Biso   1.000  H
  C32      1.0000 0.78114  0.59277  0.90534  Biso   1.000  C
  H43      1.0000 0.69052  0.64015  0.71503  Biso   1.000  H
  H44      1.0000 0.77305  0.75470  0.81468  Biso   1.000  H
  H45      1.0000 0.69051  0.64006  0.71503  Biso   1.000  H
  H46      1.0000 0.27011  0.69037  0.96329  Biso   1.000  H
  H47      1.0000 0.40315  0.67942  0.87989  Biso   1.000  H
  H48      1.0000 0.40314  0.67933  0.87989  Biso   1.000  H
  C33      1.0000 0.47454  0.80706  0.04107  Biso   1.000  C
  C34      1.0000 0.47453  0.80696  0.04107  Biso   1.000  C
  C35      1.0000 0.21927  0.33007  0.21165  Biso   1.000  C
  H49      1.0000 0.18544  0.48735  0.11466  Biso   1.000  H
  H50      1.0000 0.32652  0.41903  0.07919  Biso   1.000  H
  C36      1.0000 0.21915  0.33007  0.21165  Biso   1.000  C
  H51      1.0000 0.18532  0.48735  0.11466  Biso   1.000  H
  H52      1.0000 0.32653  0.41913  0.07919  Biso   1.000  H
  C37      1.0000 0.52546  0.19299  0.95890  Biso   1.000  C
  C38      1.0000 0.52535  0.19308  0.95890  Biso   1.000  C
  H53      1.0000 0.81466  0.51260  0.88531  Biso   1.000  H
  H54      1.0000 0.67358  0.58091  0.92077  Biso   1.000  H
  H55      1.0000 0.81469  0.51260  0.88541  Biso   1.000  H
  H56      1.0000 0.67349  0.58092  0.92087  Biso   1.000  H
  H57      1.0000 0.81465  0.51250  0.88531  Biso   1.000  H
  H58      1.0000 0.67357  0.58082  0.92077  Biso   1.000  H
  O16      1.0000 0.88830  0.65416  0.02053  Biso   1.000  O
  O17      1.0000 0.88829  0.65407  0.02053  Biso   1.000  O
  O18      1.0000 0.88818  0.65416  0.02053  Biso   1.000  O
  O19      1.0000 0.39341  0.86896  0.12856  Biso   1.000  O
  H59      1.0000 0.53910  0.74950  0.09033  Biso   1.000  H
  H60      1.0000 0.54088  0.86624  0.00581  Biso   1.000  H
  O20      1.0000 0.39352  0.86887  0.12856  Biso   1.000  O
  H61      1.0000 0.53909  0.74940  0.09033  Biso   1.000  H
  H62      1.0000 0.54087  0.86615  0.00581  Biso   1.000  H
  H63      1.0000 0.53899  0.74950  0.09033  Biso   1.000  H
  H64      1.0000 0.54076  0.86624  0.00581  Biso   1.000  H
  O21      1.0000 0.07266  0.33917  0.25631  Biso   1.000  O
  H65      1.0000 0.30950  0.35990  0.28503  Biso   1.000  H
  H66      1.0000 0.22693  0.24525  0.18528  Biso   1.000  H
  H67      1.0000 0.30949  0.35980  0.28503  Biso   1.000  H
  H68      1.0000 0.46089  0.25054  0.90963  Biso   1.000  H
  H69      1.0000 0.45911  0.13380  0.99416  Biso   1.000  H
  H70      1.0000 0.45914  0.13381  0.99426  Biso   1.000  H
  H71      1.0000 0.46078  0.25064  0.90963  Biso   1.000  H
  H72      1.0000 0.45899  0.13380  0.99416  Biso   1.000  H
  C39      1.0000 0.64864  0.26378  0.07183  Biso   1.000  C
  C40      1.0000 0.64867  0.26379  0.07194  Biso   1.000  C
  C41      1.0000 0.87568  0.60167  0.14266  Biso   1.000  C
  C42      1.0000 0.87579  0.60157  0.14266  Biso   1.000  C
  C43      1.0000 0.50058  0.93185  0.24630  Biso   1.000  C
  C44      1.0000 0.50046  0.93185  0.24630  Biso   1.000  C
  C45      1.0000 0.03972  0.24059  0.33931  Biso   1.000  C
  O22      1.0000 0.72923  0.18769  0.16852  Biso   1.000  O
  H73      1.0000 0.73000  0.30958  0.03667  Biso   1.000  H
  H74      1.0000 0.59696  0.32052  0.12007  Biso   1.000  H
  H75      1.0000 0.72991  0.30958  0.03678  Biso   1.000  H
  H76      1.0000 0.59688  0.32062  0.12018  Biso   1.000  H
  O23      1.0000 0.72922  0.18760  0.16852  Biso   1.000  O
  H77      1.0000 0.72999  0.30948  0.03667  Biso   1.000  H
  H78      1.0000 0.59687  0.32053  0.12018  Biso   1.000  H
  C46      1.0000 0.99176  0.67613  0.25846  Biso   1.000  C
  H79      1.0000 0.90267  0.51763  0.13980  Biso   1.000  H
  H80      1.0000 0.76866  0.60306  0.15595  Biso   1.000  H
  H81      1.0000 0.90277  0.51754  0.13980  Biso   1.000  H
  H82      1.0000 0.76864  0.60297  0.15595  Biso   1.000  H
  C47      1.0000 0.99164  0.67613  0.25846  Biso   1.000  C
  H83      1.0000 0.76854  0.60306  0.15595  Biso   1.000  H
  H84      1.0000 0.54658  0.87191  0.30445  Biso   1.000  H
  H85      1.0000 0.58363  0.98308  0.21932  Biso   1.000  H
  H86      1.0000 0.54657  0.87182  0.30445  Biso   1.000  H
  H87      1.0000 0.58374  0.98299  0.21932  Biso   1.000  H
  H88      1.0000 0.58362  0.98299  0.21932  Biso   1.000  H
  H89      1.0000 0.54646  0.87191  0.30445  Biso   1.000  H
  C48      1.0000 0.40366  0.01013  0.31610  Biso   1.000  C
  C49      1.0000 0.40355  0.01023  0.31610  Biso   1.000  C
  C50      1.0000 0.40354  0.01013  0.31610  Biso   1.000  C
  C51      1.0000 0.98589  0.11635  0.25662  Biso   1.000  C
  C52      1.0000 0.98578  0.11644  0.25662  Biso   1.000  C
  C53      1.0000 0.98577  0.11635  0.25662  Biso   1.000  C
  H90      1.0000 0.95400  0.26090  0.38233  Biso   1.000  H
  H91      1.0000 0.95399  0.26081  0.38233  Biso   1.000  H
  H92      1.0000 0.13413  0.33207  0.40625  Biso   1.000  H
  H93      1.0000 0.13414  0.33216  0.40625  Biso   1.000  H
  C54      1.0000 0.85804  0.13138  0.13050  Biso   1.000  C
  O24      1.0000 0.94489  0.79537  0.28820  Biso   1.000  O
  O25      1.0000 0.94488  0.79528  0.28820  Biso   1.000  O
  H94      1.0000 0.99998  0.63053  0.33828  Biso   1.000  H
  O26      1.0000 0.94477  0.79537  0.28820  Biso   1.000  O
  H95      1.0000 0.99988  0.63062  0.33828  Biso   1.000  H
  H96      1.0000 0.09642  0.68747  0.23710  Biso   1.000  H
  H97      1.0000 0.99997  0.63061  0.33818  Biso   1.000  H
  H98      1.0000 0.09653  0.68738  0.23710  Biso   1.000  H
  O27      1.0000 0.30003  0.93317  0.37855  Biso   1.000  O
  O28      1.0000 0.30013  0.93307  0.37855  Biso   1.000  O
  H99      1.0000 0.47513  0.06607  0.38377  Biso   1.000  H
  H100     1.0000 0.33879  0.05688  0.25141  Biso   1.000  H
  H101     1.0000 0.47504  0.06608  0.38387  Biso   1.000  H
  H102     1.0000 0.33867  0.05688  0.25141  Biso   1.000  H
  H103     1.0000 0.47512  0.06598  0.38377  Biso   1.000  H
  H104     1.0000 0.47503  0.06599  0.38387  Biso   1.000  H
  C55      1.0000 0.04213  0.00898  0.29004  Biso   1.000  C
  C56      1.0000 0.04216  0.00899  0.29014  Biso   1.000  C
  H105     1.0000 0.81776  0.05185  0.08338  Biso   1.000  H
  H106     1.0000 0.90357  0.18376  0.07142  Biso   1.000  H
  H107     1.0000 0.81775  0.05176  0.08338  Biso   1.000  H
  H108     1.0000 0.90356  0.18366  0.07142  Biso   1.000  H
  C57      1.0000 0.98926  0.88810  0.20450  Biso   1.000  C
  C58      1.0000 0.98924  0.88801  0.20450  Biso   1.000  C
  C59      1.0000 0.98914  0.88810  0.20450  Biso   1.000  C
  C60      1.0000 0.17319  0.99577  0.41402  Biso   1.000  C
  C61      1.0000 0.17318  0.99567  0.41402  Biso   1.000  C
  C62      1.0000 0.17307  0.99577  0.41402  Biso   1.000  C
  H109     1.0000 0.89917  0.89804  0.13183  Biso   1.000  H
  H110     1.0000 0.89930  0.89795  0.13193  Biso   1.000  H
  H111     1.0000 0.89919  0.89805  0.13193  Biso   1.000  H
  H112     1.0000 0.07745  0.86439  0.16658  Biso   1.000  H
  H113     1.0000 0.07755  0.86430  0.16658  Biso   1.000  H
  H114     1.0000 0.12632  0.94810  0.47626  Biso   1.000  H
  H115     1.0000 0.12634  0.94802  0.47636  Biso   1.000  H
  H116     1.0000 0.12623  0.94811  0.47636  Biso   1.000  H
  H117     1.0000 0.21626  0.07618  0.45643  Biso   1.000  H
  H118     1.0000 0.21616  0.07627  0.45643  Biso   1.000  H
  H119     1.0000 0.21615  0.07618  0.45643  Biso   1.000  H
  C63      1.0000 0.01074  0.11194  0.79547  Biso   1.000  C
  C64      1.0000 0.95797  0.99097  0.70992  Biso   1.000  C
  C65      1.0000 0.95785  0.99097  0.70992  Biso   1.000  C
  H120     1.0000 0.92243  0.13565  0.83339  Biso   1.000  H
  H121     1.0000 0.92255  0.13565  0.83339  Biso   1.000  H
  H122     1.0000 0.92244  0.13574  0.83339  Biso   1.000  H
  O29      1.0000 0.05510  0.20467  0.71176  Biso   1.000  O
  H123     1.0000 0.10083  0.10200  0.86814  Biso   1.000  H
  H124     1.0000 0.10071  0.10200  0.86814  Biso   1.000  H
  O30      1.0000 0.05499  0.20476  0.71176  Biso   1.000  O
  C66      1.0000 0.82684  0.00428  0.58605  Biso   1.000  C
  C67      1.0000 0.82681  0.00427  0.58595  Biso   1.000  C
  C68      1.0000 0.82670  0.00437  0.58595  Biso   1.000  C
  C69      1.0000 0.01421  0.88360  0.74334  Biso   1.000  C
  C70      1.0000 0.01424  0.88361  0.74345  Biso   1.000  C
  C71      1.0000 0.01420  0.88351  0.74334  Biso   1.000  C
  C72      1.0000 0.01075  0.11203  0.79547  Biso   1.000  C
  C73      1.0000 0.01063  0.11203  0.79547  Biso   1.000  C
  C74      1.0000 0.00824  0.32391  0.74150  Biso   1.000  C
  C75      1.0000 0.00812  0.32391  0.74150  Biso   1.000  C
  C76      1.0000 0.00823  0.32382  0.74150  Biso   1.000  C
  O31      1.0000 0.69986  0.06697  0.62141  Biso   1.000  O
  H125     1.0000 0.87367  0.05194  0.52370  Biso   1.000  H
  O32      1.0000 0.69985  0.06687  0.62141  Biso   1.000  O
  O33      1.0000 0.69997  0.06687  0.62141  Biso   1.000  O
  H126     1.0000 0.87357  0.05203  0.52370  Biso   1.000  H
  H127     1.0000 0.78384  0.92377  0.54353  Biso   1.000  H
  H128     1.0000 0.78383  0.92367  0.54353  Biso   1.000  H
  C77      1.0000 0.96038  0.75936  0.66066  Biso   1.000  C
  C78      1.0000 0.96026  0.75936  0.66066  Biso   1.000  C
  C79      1.0000 0.14206  0.86857  0.86947  Biso   1.000  C
  C80      1.0000 0.14194  0.86857  0.86947  Biso   1.000  C
  H129     1.0000 0.90349  0.31257  0.76297  Biso   1.000  H
  H130     1.0000 0.90358  0.31257  0.76286  Biso   1.000  H
  H131     1.0000 0.00003  0.36943  0.66178  Biso   1.000  H
  H132     1.0000 0.90347  0.31266  0.76286  Biso   1.000  H
  H133     1.0000 0.99992  0.36952  0.66178  Biso   1.000  H
  C81      1.0000 0.12431  0.39837  0.85730  Biso   1.000  C
  C82      1.0000 0.12419  0.39837  0.85730  Biso   1.000  C
  C83      1.0000 0.12420  0.39847  0.85730  Biso   1.000  C
  C84      1.0000 0.59644  0.98981  0.68386  Biso   1.000  C
  C85      1.0000 0.59643  0.98972  0.68386  Biso   1.000  C
  O34      1.0000 0.92745  0.66078  0.74365  Biso   1.000  O
  H134     1.0000 0.86597  0.66788  0.59371  Biso   1.000  H
  O35      1.0000 0.92733  0.66078  0.74365  Biso   1.000  O
  H135     1.0000 0.86585  0.66788  0.59371  Biso   1.000  H
  H136     1.0000 0.86596  0.66778  0.59371  Biso   1.000  H
  H137     1.0000 0.04610  0.73904  0.61763  Biso   1.000  H
  H138     1.0000 0.04600  0.73914  0.61763  Biso   1.000  H
  H139     1.0000 0.04599  0.73904  0.61763  Biso   1.000  H
  O36      1.0000 0.27087  0.81226  0.83144  Biso   1.000  O
  H140     1.0000 0.18234  0.94809  0.91658  Biso   1.000  H
  H141     1.0000 0.09654  0.81619  0.92854  Biso   1.000  H
  O37      1.0000 0.27078  0.81226  0.83155  Biso   1.000  O
  H142     1.0000 0.18224  0.94819  0.91658  Biso   1.000  H
  H143     1.0000 0.09643  0.81628  0.92854  Biso   1.000  H
  H144     1.0000 0.18223  0.94809  0.91658  Biso   1.000  H
  H145     1.0000 0.09642  0.81619  0.92854  Biso   1.000  H
  O38      1.0000 0.11169  0.34588  0.97944  Biso   1.000  O
  H146     1.0000 0.09733  0.48241  0.86016  Biso   1.000  H
  H147     1.0000 0.23134  0.39698  0.84402  Biso   1.000  H
  O39      1.0000 0.11172  0.34589  0.97954  Biso   1.000  O
  H148     1.0000 0.09724  0.48241  0.86027  Biso   1.000  H
  O40      1.0000 0.11159  0.34597  0.97944  Biso   1.000  O
  H149     1.0000 0.09722  0.48250  0.86016  Biso   1.000  H
  H150     1.0000 0.23123  0.39707  0.84402  Biso   1.000  H
  C86      1.0000 0.49942  0.06819  0.75367  Biso   1.000  C
  C87      1.0000 0.49930  0.06819  0.75367  Biso   1.000  C
  H151     1.0000 0.52497  0.93387  0.61620  Biso   1.000  H
  H152     1.0000 0.66131  0.94307  0.74856  Biso   1.000  H
  H153     1.0000 0.52498  0.93397  0.61620  Biso   1.000  H
  H154     1.0000 0.66134  0.94308  0.74866  Biso   1.000  H
  C88      1.0000 0.78083  0.66988  0.78831  Biso   1.000  C
  C89      1.0000 0.35146  0.73617  0.92813  Biso   1.000  C
  C90      1.0000 0.35135  0.73617  0.92813  Biso   1.000  C
  C91      1.0000 0.21899  0.40719  0.09473  Biso   1.000  C
  C92      1.0000 0.21887  0.40719  0.09473  Biso   1.000  C
  H155     1.0000 0.45342  0.12813  0.69551  Biso   1.000  H
  H156     1.0000 0.41626  0.01705  0.78065  Biso   1.000  H
  O41      1.0000 0.60647  0.13108  0.87141  Biso   1.000  O
  O42      1.0000 0.60658  0.13108  0.87141  Biso   1.000  O
  H157     1.0000 0.41636  0.01696  0.78065  Biso   1.000  H
  O43      1.0000 0.60648  0.13117  0.87141  Biso   1.000  O
  H158     1.0000 0.45331  0.12822  0.69551  Biso   1.000  H
  H159     1.0000 0.41624  0.01696  0.78065  Biso   1.000  H
  C93      1.0000 0.78112  0.59276  0.90524  Biso   1.000  C
  H160     1.0000 0.69060  0.64005  0.71493  Biso   1.000  H
  H161     1.0000 0.77317  0.75470  0.81468  Biso   1.000  H
  C94      1.0000 0.78114  0.59277  0.90534  Biso   1.000  C
  H162     1.0000 0.69052  0.64015  0.71503  Biso   1.000  H
  H163     1.0000 0.77305  0.75470  0.81468  Biso   1.000  H
  H164     1.0000 0.69051  0.64006  0.71503  Biso   1.000  H
  H165     1.0000 0.27011  0.69037  0.96329  Biso   1.000  H
  H166     1.0000 0.40315  0.67942  0.87989  Biso   1.000  H
  H167     1.0000 0.40314  0.67933  0.87989  Biso   1.000  H
  C95      1.0000 0.47454  0.80706  0.04107  Biso   1.000  C
  C96      1.0000 0.47453  0.80696  0.04107  Biso   1.000  C
  C97      1.0000 0.21927  0.33007  0.21165  Biso   1.000  C
  H168     1.0000 0.18544  0.48735  0.11466  Biso   1.000  H
  H169     1.0000 0.32652  0.41903  0.07919  Biso   1.000  H
  C98      1.0000 0.21915  0.33007  0.21165  Biso   1.000  C
  H170     1.0000 0.18532  0.48735  0.11466  Biso   1.000  H
  H171     1.0000 0.32653  0.41913  0.07919  Biso   1.000  H
  C99      1.0000 0.52546  0.19299  0.95890  Biso   1.000  C
  C100     1.0000 0.52535  0.19308  0.95890  Biso   1.000  C
  H172     1.0000 0.81466  0.51260  0.88531  Biso   1.000  H
  H173     1.0000 0.67358  0.58091  0.92077  Biso   1.000  H
  H174     1.0000 0.81469  0.51260  0.88541  Biso   1.000  H
  H175     1.0000 0.67349  0.58092  0.92087  Biso   1.000  H
  H176     1.0000 0.81465  0.51250  0.88531  Biso   1.000  H
  H177     1.0000 0.67357  0.58082  0.92077  Biso   1.000  H
  O44      1.0000 0.88830  0.65416  0.02053  Biso   1.000  O
  O45      1.0000 0.88829  0.65407  0.02053  Biso   1.000  O
  O46      1.0000 0.88818  0.65416  0.02053  Biso   1.000  O
  O47      1.0000 0.39341  0.86896  0.12856  Biso   1.000  O
  H178     1.0000 0.53910  0.74950  0.09033  Biso   1.000  H
  H179     1.0000 0.54088  0.86624  0.00581  Biso   1.000  H
  O48      1.0000 0.39352  0.86887  0.12856  Biso   1.000  O
  H180     1.0000 0.53909  0.74940  0.09033  Biso   1.000  H
  H181     1.0000 0.54087  0.86615  0.00581  Biso   1.000  H
  H182     1.0000 0.53899  0.74950  0.09033  Biso   1.000  H
  H183     1.0000 0.54076  0.86624  0.00581  Biso   1.000  H
  O49      1.0000 0.07266  0.33917  0.25631  Biso   1.000  O
  H184     1.0000 0.30950  0.35990  0.28503  Biso   1.000  H
  H185     1.0000 0.22693  0.24525  0.18528  Biso   1.000  H
  H186     1.0000 0.30949  0.35980  0.28503  Biso   1.000  H
  H187     1.0000 0.46089  0.25054  0.90963  Biso   1.000  H
  H188     1.0000 0.45914  0.13381  0.99426  Biso   1.000  H
  H189     1.0000 0.45911  0.13380  0.99416  Biso   1.000  H
  H190     1.0000 0.46078  0.25064  0.90963  Biso   1.000  H
  H191     1.0000 0.45899  0.13380  0.99416  Biso   1.000  H
  C101     1.0000 0.64864  0.26378  0.07183  Biso   1.000  C
  C102     1.0000 0.64867  0.26379  0.07194  Biso   1.000  C
  C103     1.0000 0.87568  0.60167  0.14266  Biso   1.000  C
  C104     1.0000 0.87579  0.60157  0.14266  Biso   1.000  C
  C105     1.0000 0.50058  0.93185  0.24630  Biso   1.000  C
  C106     1.0000 0.50046  0.93185  0.24630  Biso   1.000  C
  C107     1.0000 0.03972  0.24059  0.33931  Biso   1.000  C
  O50      1.0000 0.72923  0.18769  0.16852  Biso   1.000  O
  H192     1.0000 0.73000  0.30958  0.03667  Biso   1.000  H
  H193     1.0000 0.59696  0.32052  0.12007  Biso   1.000  H
  H194     1.0000 0.72991  0.30958  0.03678  Biso   1.000  H
  H195     1.0000 0.59688  0.32062  0.12018  Biso   1.000  H
  O51      1.0000 0.72922  0.18760  0.16852  Biso   1.000  O
  H196     1.0000 0.72999  0.30948  0.03667  Biso   1.000  H
  H197     1.0000 0.59687  0.32053  0.12018  Biso   1.000  H
  C108     1.0000 0.99176  0.67613  0.25846  Biso   1.000  C
  H198     1.0000 0.90267  0.51763  0.13980  Biso   1.000  H
  H199     1.0000 0.76866  0.60306  0.15595  Biso   1.000  H
  H200     1.0000 0.90277  0.51754  0.13980  Biso   1.000  H
  H201     1.0000 0.76864  0.60297  0.15595  Biso   1.000  H
  C109     1.0000 0.99164  0.67613  0.25846  Biso   1.000  C
  H202     1.0000 0.76854  0.60306  0.15595  Biso   1.000  H
  H203     1.0000 0.54658  0.87191  0.30445  Biso   1.000  H
  H204     1.0000 0.58363  0.98308  0.21932  Biso   1.000  H
  H205     1.0000 0.54657  0.87182  0.30445  Biso   1.000  H
  H206     1.0000 0.58374  0.98299  0.21932  Biso   1.000  H
  H207     1.0000 0.58362  0.98299  0.21932  Biso   1.000  H
  H208     1.0000 0.54646  0.87191  0.30445  Biso   1.000  H
  C110     1.0000 0.40366  0.01013  0.31610  Biso   1.000  C
  C111     1.0000 0.40355  0.01023  0.31610  Biso   1.000  C
  C112     1.0000 0.40354  0.01013  0.31610  Biso   1.000  C
  C113     1.0000 0.98589  0.11635  0.25662  Biso   1.000  C
  C114     1.0000 0.98578  0.11644  0.25662  Biso   1.000  C
  C115     1.0000 0.98577  0.11635  0.25662  Biso   1.000  C
  H209     1.0000 0.95400  0.26090  0.38233  Biso   1.000  H
  H210     1.0000 0.95399  0.26081  0.38233  Biso   1.000  H
  H211     1.0000 0.13413  0.33207  0.40625  Biso   1.000  H
  H212     1.0000 0.13414  0.33216  0.40625  Biso   1.000  H
  C116     1.0000 0.85804  0.13138  0.13050  Biso   1.000  C
  O52      1.0000 0.94489  0.79537  0.28820  Biso   1.000  O
  O53      1.0000 0.94488  0.79528  0.28820  Biso   1.000  O
  H213     1.0000 0.99998  0.63053  0.33828  Biso   1.000  H
  O54      1.0000 0.94477  0.79537  0.28820  Biso   1.000  O
  H214     1.0000 0.99988  0.63062  0.33828  Biso   1.000  H
  H215     1.0000 0.09642  0.68747  0.23710  Biso   1.000  H
  H216     1.0000 0.99997  0.63061  0.33818  Biso   1.000  H
  H217     1.0000 0.09653  0.68738  0.23710  Biso   1.000  H
  O55      1.0000 0.30003  0.93317  0.37855  Biso   1.000  O
  O56      1.0000 0.30013  0.93307  0.37855  Biso   1.000  O
  H218     1.0000 0.47513  0.06607  0.38377  Biso   1.000  H
  H219     1.0000 0.33879  0.05688  0.25141  Biso   1.000  H
  H220     1.0000 0.47504  0.06608  0.38387  Biso   1.000  H
  H221     1.0000 0.33867  0.05688  0.25141  Biso   1.000  H
  H222     1.0000 0.47512  0.06598  0.38377  Biso   1.000  H
  H223     1.0000 0.47503  0.06599  0.38387  Biso   1.000  H
  C117     1.0000 0.04213  0.00898  0.29004  Biso   1.000  C
  C118     1.0000 0.04216  0.00899  0.29014  Biso   1.000  C
  H224     1.0000 0.81776  0.05185  0.08338  Biso   1.000  H
  H225     1.0000 0.90357  0.18376  0.07142  Biso   1.000  H
  H226     1.0000 0.81775  0.05176  0.08338  Biso   1.000  H
  H227     1.0000 0.90356  0.18366  0.07142  Biso   1.000  H
  C119     1.0000 0.98926  0.88810  0.20450  Biso   1.000  C
  C120     1.0000 0.98924  0.88801  0.20450  Biso   1.000  C
  C121     1.0000 0.98914  0.88810  0.20450  Biso   1.000  C
  C122     1.0000 0.17319  0.99577  0.41402  Biso   1.000  C
  C123     1.0000 0.17318  0.99567  0.41402  Biso   1.000  C
  C124     1.0000 0.17307  0.99577  0.41402  Biso   1.000  C
  H228     1.0000 0.89917  0.89804  0.13183  Biso   1.000  H
  H229     1.0000 0.89930  0.89795  0.13193  Biso   1.000  H
  H230     1.0000 0.89919  0.89805  0.13193  Biso   1.000  H
  H231     1.0000 0.07745  0.86439  0.16658  Biso   1.000  H
  H232     1.0000 0.07755  0.86430  0.16658  Biso   1.000  H
  H233     1.0000 0.12632  0.94810  0.47626  Biso   1.000  H
  H234     1.0000 0.12634  0.94802  0.47636  Biso   1.000  H
  H235     1.0000 0.12623  0.94811  0.47636  Biso   1.000  H
  H236     1.0000 0.21626  0.07618  0.45643  Biso   1.000  H
  H237     1.0000 0.21616  0.07627  0.45643  Biso   1.000  H
  H238     1.0000 0.21615  0.07618  0.45643  Biso   1.000  H
  C125     1.0000 0.01074  0.11194  0.79547  Biso   1.000  C
  C126     1.0000 0.95797  0.99097  0.70992  Biso   1.000  C
  C127     1.0000 0.95785  0.99097  0.70992  Biso   1.000  C
  H239     1.0000 0.92243  0.13565  0.83339  Biso   1.000  H
  H240     1.0000 0.92255  0.13565  0.83339  Biso   1.000  H
  H241     1.0000 0.92244  0.13574  0.83339  Biso   1.000  H
  O57      1.0000 0.05510  0.20467  0.71176  Biso   1.000  O
  H242     1.0000 0.10083  0.10200  0.86814  Biso   1.000  H
  H243     1.0000 0.10071  0.10200  0.86814  Biso   1.000  H
  O58      1.0000 0.05499  0.20476  0.71176  Biso   1.000  O
  C128     1.0000 0.82684  0.00428  0.58605  Biso   1.000  C
  C129     1.0000 0.82681  0.00427  0.58595  Biso   1.000  C
  C130     1.0000 0.82670  0.00437  0.58595  Biso   1.000  C
  C131     1.0000 0.01421  0.88360  0.74334  Biso   1.000  C
  C132     1.0000 0.01424  0.88361  0.74345  Biso   1.000  C
  C133     1.0000 0.01420  0.88351  0.74334  Biso   1.000  C
  C134     1.0000 0.01075  0.11203  0.79547  Biso   1.000  C
  C135     1.0000 0.01063  0.11203  0.79547  Biso   1.000  C
  C136     1.0000 0.00824  0.32391  0.74150  Biso   1.000  C
  C137     1.0000 0.00812  0.32391  0.74150  Biso   1.000  C
  C138     1.0000 0.00823  0.32382  0.74150  Biso   1.000  C
  O59      1.0000 0.69985  0.06687  0.62141  Biso   1.000  O
  H244     1.0000 0.87367  0.05194  0.52370  Biso   1.000  H
  H245     1.0000 0.78384  0.92377  0.54353  Biso   1.000  H
  H246     1.0000 0.78383  0.92367  0.54353  Biso   1.000  H
  O60      1.0000 0.69997  0.06687  0.62141  Biso   1.000  O
  O61      1.0000 0.69986  0.06697  0.62141  Biso   1.000  O
  H247     1.0000 0.87357  0.05203  0.52370  Biso   1.000  H
  C139     1.0000 0.96038  0.75936  0.66066  Biso   1.000  C
  C140     1.0000 0.96026  0.75936  0.66066  Biso   1.000  C
  C141     1.0000 0.14206  0.86857  0.86947  Biso   1.000  C
  C142     1.0000 0.14194  0.86857  0.86947  Biso   1.000  C
  H248     1.0000 0.90349  0.31257  0.76297  Biso   1.000  H
  H249     1.0000 0.90358  0.31257  0.76286  Biso   1.000  H
  H250     1.0000 0.00003  0.36943  0.66178  Biso   1.000  H
  H251     1.0000 0.90347  0.31266  0.76286  Biso   1.000  H
  H252     1.0000 0.99992  0.36952  0.66178  Biso   1.000  H
  C143     1.0000 0.12431  0.39837  0.85730  Biso   1.000  C
  C144     1.0000 0.12419  0.39837  0.85730  Biso   1.000  C
  C145     1.0000 0.12420  0.39847  0.85730  Biso   1.000  C
  C146     1.0000 0.59644  0.98981  0.68386  Biso   1.000  C
  C147     1.0000 0.59643  0.98972  0.68386  Biso   1.000  C
  O62      1.0000 0.92745  0.66078  0.74365  Biso   1.000  O
  H253     1.0000 0.86597  0.66788  0.59371  Biso   1.000  H
  O63      1.0000 0.92733  0.66078  0.74365  Biso   1.000  O
  H254     1.0000 0.86585  0.66788  0.59371  Biso   1.000  H
  H255     1.0000 0.86596  0.66778  0.59371  Biso   1.000  H
  H256     1.0000 0.04610  0.73904  0.61763  Biso   1.000  H
  H257     1.0000 0.04600  0.73914  0.61763  Biso   1.000  H
  H258     1.0000 0.04599  0.73904  0.61763  Biso   1.000  H
  O64      1.0000 0.27087  0.81226  0.83144  Biso   1.000  O
  H259     1.0000 0.18234  0.94809  0.91658  Biso   1.000  H
  H260     1.0000 0.09654  0.81619  0.92854  Biso   1.000  H
  O65      1.0000 0.27078  0.81226  0.83155  Biso   1.000  O
  H261     1.0000 0.18224  0.94819  0.91658  Biso   1.000  H
  H262     1.0000 0.09643  0.81628  0.92854  Biso   1.000  H
  H263     1.0000 0.18223  0.94809  0.91658  Biso   1.000  H
  H264     1.0000 0.09642  0.81619  0.92854  Biso   1.000  H
  O66      1.0000 0.11169  0.34588  0.97944  Biso   1.000  O
  H265     1.0000 0.09733  0.48241  0.86016  Biso   1.000  H
  H266     1.0000 0.23134  0.39698  0.84402  Biso   1.000  H
  O67      1.0000 0.11172  0.34589  0.97954  Biso   1.000  O
  H267     1.0000 0.09724  0.48241  0.86027  Biso   1.000  H
  O68      1.0000 0.11159  0.34597  0.97944  Biso   1.000  O
  H268     1.0000 0.09722  0.48250  0.86016  Biso   1.000  H
  H269     1.0000 0.23123  0.39707  0.84402  Biso   1.000  H
  C148     1.0000 0.49942  0.06819  0.75367  Biso   1.000  C
  H270     1.0000 0.52497  0.93387  0.61620  Biso   1.000  H
  H271     1.0000 0.66131  0.94307  0.74856  Biso   1.000  H
  H272     1.0000 0.52498  0.93397  0.61620  Biso   1.000  H
  H273     1.0000 0.66134  0.94308  0.74866  Biso   1.000  H
  C149     1.0000 0.49930  0.06819  0.75367  Biso   1.000  C
  C150     1.0000 0.78083  0.66988  0.78831  Biso   1.000  C
  C151     1.0000 0.35146  0.73617  0.92813  Biso   1.000  C
  C152     1.0000 0.35135  0.73617  0.92813  Biso   1.000  C
  C153     1.0000 0.21899  0.40719  0.09473  Biso   1.000  C
  C154     1.0000 0.21887  0.40719  0.09473  Biso   1.000  C
  H274     1.0000 0.45342  0.12813  0.69551  Biso   1.000  H
  O69      1.0000 0.60647  0.13108  0.87141  Biso   1.000  O
  H275     1.0000 0.41626  0.01705  0.78065  Biso   1.000  H
  O70      1.0000 0.60658  0.13108  0.87141  Biso   1.000  O
  H276     1.0000 0.41636  0.01696  0.78065  Biso   1.000  H
  O71      1.0000 0.60648  0.13117  0.87141  Biso   1.000  O
  H277     1.0000 0.45331  0.12822  0.69551  Biso   1.000  H
  H278     1.0000 0.41624  0.01696  0.78065  Biso   1.000  H
  C155     1.0000 0.78112  0.59276  0.90524  Biso   1.000  C
  H279     1.0000 0.69060  0.64005  0.71493  Biso   1.000  H
  H280     1.0000 0.77317  0.75470  0.81468  Biso   1.000  H
  C156     1.0000 0.78114  0.59277  0.90534  Biso   1.000  C
  H281     1.0000 0.69052  0.64015  0.71503  Biso   1.000  H
  H282     1.0000 0.77305  0.75470  0.81468  Biso   1.000  H
  H283     1.0000 0.69051  0.64006  0.71503  Biso   1.000  H
  H284     1.0000 0.27011  0.69037  0.96329  Biso   1.000  H
  H285     1.0000 0.40315  0.67942  0.87989  Biso   1.000  H
  H286     1.0000 0.40314  0.67933  0.87989  Biso   1.000  H
  C157     1.0000 0.47454  0.80706  0.04107  Biso   1.000  C
  C158     1.0000 0.47453  0.80696  0.04107  Biso   1.000  C
  C159     1.0000 0.21927  0.33007  0.21165  Biso   1.000  C
  H287     1.0000 0.18544  0.48735  0.11466  Biso   1.000  H
  H288     1.0000 0.32652  0.41903  0.07919  Biso   1.000  H
  C160     1.0000 0.21915  0.33007  0.21165  Biso   1.000  C
  H289     1.0000 0.18532  0.48735  0.11466  Biso   1.000  H
  H290     1.0000 0.32653  0.41913  0.07919  Biso   1.000  H
  C161     1.0000 0.52546  0.19299  0.95890  Biso   1.000  C
  C162     1.0000 0.52535  0.19308  0.95890  Biso   1.000  C
  H291     1.0000 0.81466  0.51260  0.88531  Biso   1.000  H
  H292     1.0000 0.67358  0.58091  0.92077  Biso   1.000  H
  H293     1.0000 0.81469  0.51260  0.88541  Biso   1.000  H
  H294     1.0000 0.67349  0.58092  0.92087  Biso   1.000  H
  H295     1.0000 0.81465  0.51250  0.88531  Biso   1.000  H
  H296     1.0000 0.67357  0.58082  0.92077  Biso   1.000  H
  O72      1.0000 0.88830  0.65416  0.02053  Biso   1.000  O
  O73      1.0000 0.88829  0.65407  0.02053  Biso   1.000  O
  O74      1.0000 0.88818  0.65416  0.02053  Biso   1.000  O
  O75      1.0000 0.39341  0.86896  0.12856  Biso   1.000  O
  H297     1.0000 0.53910  0.74950  0.09033  Biso   1.000  H
  H298     1.0000 0.54088  0.86624  0.00581  Biso   1.000  H
  O76      1.0000 0.39352  0.86887  0.12856  Biso   1.000  O
  H299     1.0000 0.53909  0.74940  0.09033  Biso   1.000  H
  H300     1.0000 0.54087  0.86615  0.00581  Biso   1.000  H
  H301     1.0000 0.53899  0.74950  0.09033  Biso   1.000  H
  H302     1.0000 0.54076  0.86624  0.00581  Biso   1.000  H
  O77      1.0000 0.07266  0.33917  0.25631  Biso   1.000  O
  H303     1.0000 0.30950  0.35990  0.28503  Biso   1.000  H
  H304     1.0000 0.22693  0.24525  0.18528  Biso   1.000  H
  H305     1.0000 0.30949  0.35980  0.28503  Biso   1.000  H
  H306     1.0000 0.46089  0.25054  0.90963  Biso   1.000  H
  H307     1.0000 0.45914  0.13381  0.99426  Biso   1.000  H
  H308     1.0000 0.45911  0.13380  0.99416  Biso   1.000  H
  H309     1.0000 0.46078  0.25064  0.90963  Biso   1.000  H
  H310     1.0000 0.45899  0.13380  0.99416  Biso   1.000  H
  C163     1.0000 0.64864  0.26378  0.07183  Biso   1.000  C
  C164     1.0000 0.64867  0.26379  0.07194  Biso   1.000  C
  C165     1.0000 0.87568  0.60167  0.14266  Biso   1.000  C
  C166     1.0000 0.87579  0.60157  0.14266  Biso   1.000  C
  C167     1.0000 0.50058  0.93185  0.24630  Biso   1.000  C
  C168     1.0000 0.50046  0.93185  0.24630  Biso   1.000  C
  C169     1.0000 0.03972  0.24059  0.33931  Biso   1.000  C
  O78      1.0000 0.72923  0.18769  0.16852  Biso   1.000  O
  H311     1.0000 0.73000  0.30958  0.03667  Biso   1.000  H
  H312     1.0000 0.59696  0.32052  0.12007  Biso   1.000  H
  H313     1.0000 0.72991  0.30958  0.03678  Biso   1.000  H
  H314     1.0000 0.59688  0.32062  0.12018  Biso   1.000  H
  O79      1.0000 0.72922  0.18760  0.16852  Biso   1.000  O
  H315     1.0000 0.72999  0.30948  0.03667  Biso   1.000  H
  H316     1.0000 0.59687  0.32053  0.12018  Biso   1.000  H
  C170     1.0000 0.99176  0.67613  0.25846  Biso   1.000  C
  H317     1.0000 0.90267  0.51763  0.13980  Biso   1.000  H
  H318     1.0000 0.76866  0.60306  0.15595  Biso   1.000  H
  H319     1.0000 0.90277  0.51754  0.13980  Biso   1.000  H
  H320     1.0000 0.76864  0.60297  0.15595  Biso   1.000  H
  C171     1.0000 0.99164  0.67613  0.25846  Biso   1.000  C
  H321     1.0000 0.76854  0.60306  0.15595  Biso   1.000  H
  H322     1.0000 0.54658  0.87191  0.30445  Biso   1.000  H
  H323     1.0000 0.58363  0.98308  0.21932  Biso   1.000  H
  H324     1.0000 0.54657  0.87182  0.30445  Biso   1.000  H
  H325     1.0000 0.58374  0.98299  0.21932  Biso   1.000  H
  H326     1.0000 0.58362  0.98299  0.21932  Biso   1.000  H
  H327     1.0000 0.54646  0.87191  0.30445  Biso   1.000  H
  C172     1.0000 0.40366  0.01013  0.31610  Biso   1.000  C
  C173     1.0000 0.40355  0.01023  0.31610  Biso   1.000  C
  C174     1.0000 0.40354  0.01013  0.31610  Biso   1.000  C
  C175     1.0000 0.98589  0.11635  0.25662  Biso   1.000  C
  C176     1.0000 0.98578  0.11644  0.25662  Biso   1.000  C
  C177     1.0000 0.98577  0.11635  0.25662  Biso   1.000  C
  H328     1.0000 0.95400  0.26090  0.38233  Biso   1.000  H
  H329     1.0000 0.95399  0.26081  0.38233  Biso   1.000  H
  H330     1.0000 0.13413  0.33207  0.40625  Biso   1.000  H
  H331     1.0000 0.13414  0.33216  0.40625  Biso   1.000  H
  C178     1.0000 0.85804  0.13138  0.13050  Biso   1.000  C
  O80      1.0000 0.94489  0.79537  0.28820  Biso   1.000  O
  O81      1.0000 0.94488  0.79528  0.28820  Biso   1.000  O
  H332     1.0000 0.99998  0.63053  0.33828  Biso   1.000  H
  O82      1.0000 0.94477  0.79537  0.28820  Biso   1.000  O
  H333     1.0000 0.99988  0.63062  0.33828  Biso   1.000  H
  H334     1.0000 0.09642  0.68747  0.23710  Biso   1.000  H
  H335     1.0000 0.99997  0.63061  0.33818  Biso   1.000  H
  H336     1.0000 0.09653  0.68738  0.23710  Biso   1.000  H
  O83      1.0000 0.30003  0.93317  0.37855  Biso   1.000  O
  O84      1.0000 0.30013  0.93307  0.37855  Biso   1.000  O
  H337     1.0000 0.47513  0.06607  0.38377  Biso   1.000  H
  H338     1.0000 0.33879  0.05688  0.25141  Biso   1.000  H
  H339     1.0000 0.47504  0.06608  0.38387  Biso   1.000  H
  H340     1.0000 0.33867  0.05688  0.25141  Biso   1.000  H
  H341     1.0000 0.47512  0.06598  0.38377  Biso   1.000  H
  H342     1.0000 0.47503  0.06599  0.38387  Biso   1.000  H
  C179     1.0000 0.04213  0.00898  0.29004  Biso   1.000  C
  C180     1.0000 0.04216  0.00899  0.29014  Biso   1.000  C
  H343     1.0000 0.81776  0.05185  0.08338  Biso   1.000  H
  H344     1.0000 0.90357  0.18376  0.07142  Biso   1.000  H
  H345     1.0000 0.81775  0.05176  0.08338  Biso   1.000  H
  H346     1.0000 0.90356  0.18366  0.07142  Biso   1.000  H
  C181     1.0000 0.98926  0.88810  0.20450  Biso   1.000  C
  C182     1.0000 0.98924  0.88801  0.20450  Biso   1.000  C
  C183     1.0000 0.98914  0.88810  0.20450  Biso   1.000  C
  C184     1.0000 0.17319  0.99577  0.41402  Biso   1.000  C
  C185     1.0000 0.17318  0.99567  0.41402  Biso   1.000  C
  C186     1.0000 0.17307  0.99577  0.41402  Biso   1.000  C
  H347     1.0000 0.89917  0.89804  0.13183  Biso   1.000  H
  H348     1.0000 0.89930  0.89795  0.13193  Biso   1.000  H
  H349     1.0000 0.89919  0.89805  0.13193  Biso   1.000  H
  H350     1.0000 0.07745  0.86439  0.16658  Biso   1.000  H
  H351     1.0000 0.07755  0.86430  0.16658  Biso   1.000  H
  H352     1.0000 0.12632  0.94810  0.47626  Biso   1.000  H
  H353     1.0000 0.12634  0.94802  0.47636  Biso   1.000  H
  H354     1.0000 0.12623  0.94811  0.47636  Biso   1.000  H
  H355     1.0000 0.21626  0.07618  0.45643  Biso   1.000  H
  H356     1.0000 0.21616  0.07627  0.45643  Biso   1.000  H
  H357     1.0000 0.21615  0.07618  0.45643  Biso   1.000  H
  C187     1.0000 0.01074  0.11194  0.79547  Biso   1.000  C
  C188     1.0000 0.95797  0.99097  0.70992  Biso   1.000  C
  C189     1.0000 0.95785  0.99097  0.70992  Biso   1.000  C
  H358     1.0000 0.92243  0.13565  0.83339  Biso   1.000  H
  H359     1.0000 0.92255  0.13565  0.83339  Biso   1.000  H
  H360     1.0000 0.92244  0.13574  0.83339  Biso   1.000  H
  O85      1.0000 0.05510  0.20467  0.71176  Biso   1.000  O
  H361     1.0000 0.10083  0.10200  0.86814  Biso   1.000  H
  H362     1.0000 0.10071  0.10200  0.86814  Biso   1.000  H
  O86      1.0000 0.05499  0.20476  0.71176  Biso   1.000  O
  C190     1.0000 0.82684  0.00428  0.58605  Biso   1.000  C
  C191     1.0000 0.82681  0.00427  0.58595  Biso   1.000  C
  C192     1.0000 0.82670  0.00437  0.58595  Biso   1.000  C
  C193     1.0000 0.01421  0.88360  0.74334  Biso   1.000  C
  C194     1.0000 0.01424  0.88361  0.74345  Biso   1.000  C
  C195     1.0000 0.01420  0.88351  0.74334  Biso   1.000  C
  C196     1.0000 0.01075  0.11203  0.79547  Biso   1.000  C
  C197     1.0000 0.01063  0.11203  0.79547  Biso   1.000  C
  C198     1.0000 0.00824  0.32391  0.74150  Biso   1.000  C
  C199     1.0000 0.00812  0.32391  0.74150  Biso   1.000  C
  C200     1.0000 0.00823  0.32382  0.74150  Biso   1.000  C
  O87      1.0000 0.69985  0.06687  0.62141  Biso   1.000  O
  H363     1.0000 0.87367  0.05194  0.52370  Biso   1.000  H
  H364     1.0000 0.78384  0.92377  0.54353  Biso   1.000  H
  H365     1.0000 0.78383  0.92367  0.54353  Biso   1.000  H
  O88      1.0000 0.69997  0.06687  0.62141  Biso   1.000  O
  O89      1.0000 0.69986  0.06697  0.62141  Biso   1.000  O
  H366     1.0000 0.87357  0.05203  0.52370  Biso   1.000  H
  C201     1.0000 0.96038  0.75936  0.66066  Biso   1.000  C
  C202     1.0000 0.96026  0.75936  0.66066  Biso   1.000  C
  C203     1.0000 0.14206  0.86857  0.86947  Biso   1.000  C
  C204     1.0000 0.14194  0.86857  0.86947  Biso   1.000  C
  H367     1.0000 0.90349  0.31257  0.76297  Biso   1.000  H
  H368     1.0000 0.90358  0.31257  0.76286  Biso   1.000  H
  H369     1.0000 0.00003  0.36943  0.66178  Biso   1.000  H
  H370     1.0000 0.90347  0.31266  0.76286  Biso   1.000  H
  H371     1.0000 0.99992  0.36952  0.66178  Biso   1.000  H
  C205     1.0000 0.12431  0.39837  0.85730  Biso   1.000  C
  C206     1.0000 0.12419  0.39837  0.85730  Biso   1.000  C
  C207     1.0000 0.12420  0.39847  0.85730  Biso   1.000  C
  C208     1.0000 0.59644  0.98981  0.68386  Biso   1.000  C
  C209     1.0000 0.59643  0.98972  0.68386  Biso   1.000  C
  O90      1.0000 0.92745  0.66078  0.74365  Biso   1.000  O
  H372     1.0000 0.86597  0.66788  0.59371  Biso   1.000  H
  O91      1.0000 0.92733  0.66078  0.74365  Biso   1.000  O
  H373     1.0000 0.86585  0.66788  0.59371  Biso   1.000  H
  H374     1.0000 0.86596  0.66778  0.59371  Biso   1.000  H
  H375     1.0000 0.04610  0.73904  0.61763  Biso   1.000  H
  H376     1.0000 0.04600  0.73914  0.61763  Biso   1.000  H
  H377     1.0000 0.04599  0.73904  0.61763  Biso   1.000  H
  O92      1.0000 0.27087  0.81226  0.83144  Biso   1.000  O
  H378     1.0000 0.18234  0.94809  0.91658  Biso   1.000  H
  H379     1.0000 0.09654  0.81619  0.92854  Biso   1.000  H
  O93      1.0000 0.27078  0.81226  0.83155  Biso   1.000  O
  H380     1.0000 0.18224  0.94819  0.91658  Biso   1.000  H
  H381     1.0000 0.09643  0.81628  0.92854  Biso   1.000  H
  H382     1.0000 0.18223  0.94809  0.91658  Biso   1.000  H
  H383     1.0000 0.09642  0.81619  0.92854  Biso   1.000  H
  O94      1.0000 0.11169  0.34588  0.97944  Biso   1.000  O
  H384     1.0000 0.09733  0.48241  0.86016  Biso   1.000  H
  H385     1.0000 0.23134  0.39698  0.84402  Biso   1.000  H
  O95      1.0000 0.11172  0.34589  0.97954  Biso   1.000  O
  H386     1.0000 0.09724  0.48241  0.86027  Biso   1.000  H
  O96      1.0000 0.11159  0.34597  0.97944  Biso   1.000  O
  H387     1.0000 0.09722  0.48250  0.86016  Biso   1.000  H
  H388     1.0000 0.23123  0.39707  0.84402  Biso   1.000  H
  C210     1.0000 0.49942  0.06819  0.75367  Biso   1.000  C
  H389     1.0000 0.52497  0.93387  0.61620  Biso   1.000  H
  H390     1.0000 0.66131  0.94307  0.74856  Biso   1.000  H
  H391     1.0000 0.52498  0.93397  0.61620  Biso   1.000  H
  H392     1.0000 0.66134  0.94308  0.74866  Biso   1.000  H
  C211     1.0000 0.49930  0.06819  0.75367  Biso   1.000  C
  C212     1.0000 0.78083  0.66988  0.78831  Biso   1.000  C
  C213     1.0000 0.35146  0.73617  0.92813  Biso   1.000  C
  C214     1.0000 0.35135  0.73617  0.92813  Biso   1.000  C
  C215     1.0000 0.21899  0.40719  0.09473  Biso   1.000  C
  C216     1.0000 0.21887  0.40719  0.09473  Biso   1.000  C
  H393     1.0000 0.45342  0.12813  0.69551  Biso   1.000  H
  H394     1.0000 0.41626  0.01705  0.78065  Biso   1.000  H
  O97      1.0000 0.60647  0.13108  0.87141  Biso   1.000  O
  O98      1.0000 0.60658  0.13108  0.87141  Biso   1.000  O
  H395     1.0000 0.41636  0.01696  0.78065  Biso   1.000  H
  O99      1.0000 0.60648  0.13117  0.87141  Biso   1.000  O
  H396     1.0000 0.45331  0.12822  0.69551  Biso   1.000  H
  H397     1.0000 0.41624  0.01696  0.78065  Biso   1.000  H
  C217     1.0000 0.78112  0.59276  0.90524  Biso   1.000  C
  H398     1.0000 0.69060  0.64005  0.71493  Biso   1.000  H
  H399     1.0000 0.77317  0.75470  0.81468  Biso   1.000  H
  C218     1.0000 0.78114  0.59277  0.90534  Biso   1.000  C
  H400     1.0000 0.69052  0.64015  0.71503  Biso   1.000  H
  H401     1.0000 0.77305  0.75470  0.81468  Biso   1.000  H
  H402     1.0000 0.69051  0.64006  0.71503  Biso   1.000  H
  H403     1.0000 0.27011  0.69037  0.96329  Biso   1.000  H
  H404     1.0000 0.40315  0.67942  0.87989  Biso   1.000  H
  H405     1.0000 0.40314  0.67933  0.87989  Biso   1.000  H
  C219     1.0000 0.47454  0.80706  0.04107  Biso   1.000  C
  C220     1.0000 0.47453  0.80696  0.04107  Biso   1.000  C
  C221     1.0000 0.21927  0.33007  0.21165  Biso   1.000  C
  H406     1.0000 0.18544  0.48735  0.11466  Biso   1.000  H
  H407     1.0000 0.32652  0.41903  0.07919  Biso   1.000  H
  C222     1.0000 0.21915  0.33007  0.21165  Biso   1.000  C
  H408     1.0000 0.18532  0.48735  0.11466  Biso   1.000  H
  H409     1.0000 0.32653  0.41913  0.07919  Biso   1.000  H
  C223     1.0000 0.52546  0.19299  0.95890  Biso   1.000  C
  C224     1.0000 0.52535  0.19308  0.95890  Biso   1.000  C
  H410     1.0000 0.81466  0.51260  0.88531  Biso   1.000  H
  H411     1.0000 0.67358  0.58091  0.92077  Biso   1.000  H
  H412     1.0000 0.81469  0.51260  0.88541  Biso   1.000  H
  H413     1.0000 0.67349  0.58092  0.92087  Biso   1.000  H
  H414     1.0000 0.81465  0.51250  0.88531  Biso   1.000  H
  H415     1.0000 0.67357  0.58082  0.92077  Biso   1.000  H
  O100     1.0000 0.88830  0.65416  0.02053  Biso   1.000  O
  O101     1.0000 0.88829  0.65407  0.02053  Biso   1.000  O
  O102     1.0000 0.88818  0.65416  0.02053  Biso   1.000  O
  O103     1.0000 0.39341  0.86896  0.12856  Biso   1.000  O
  H416     1.0000 0.53910  0.74950  0.09033  Biso   1.000  H
  H417     1.0000 0.54088  0.86624  0.00581  Biso   1.000  H
  O104     1.0000 0.39352  0.86887  0.12856  Biso   1.000  O
  H418     1.0000 0.53909  0.74940  0.09033  Biso   1.000  H
  H419     1.0000 0.54087  0.86615  0.00581  Biso   1.000  H
  H420     1.0000 0.53899  0.74950  0.09033  Biso   1.000  H
  H421     1.0000 0.54076  0.86624  0.00581  Biso   1.000  H
  O105     1.0000 0.07266  0.33917  0.25631  Biso   1.000  O
  H422     1.0000 0.30950  0.35990  0.28503  Biso   1.000  H
  H423     1.0000 0.22693  0.24525  0.18528  Biso   1.000  H
  H424     1.0000 0.30949  0.35980  0.28503  Biso   1.000  H
  H425     1.0000 0.46089  0.25054  0.90963  Biso   1.000  H
  H426     1.0000 0.45914  0.13381  0.99426  Biso   1.000  H
  H427     1.0000 0.45911  0.13380  0.99416  Biso   1.000  H
  H428     1.0000 0.46078  0.25064  0.90963  Biso   1.000  H
  H429     1.0000 0.45899  0.13380  0.99416  Biso   1.000  H
  C225     1.0000 0.64864  0.26378  0.07183  Biso   1.000  C
  C226     1.0000 0.64867  0.26379  0.07194  Biso   1.000  C
  C227     1.0000 0.87568  0.60167  0.14266  Biso   1.000  C
  C228     1.0000 0.87579  0.60157  0.14266  Biso   1.000  C
  C229     1.0000 0.50058  0.93185  0.24630  Biso   1.000  C
  C230     1.0000 0.50046  0.93185  0.24630  Biso   1.000  C
  C231     1.0000 0.03972  0.24059  0.33931  Biso   1.000  C
  O106     1.0000 0.72923  0.18769  0.16852  Biso   1.000  O
  H430     1.0000 0.73000  0.30958  0.03667  Biso   1.000  H
  H431     1.0000 0.59696  0.32052  0.12007  Biso   1.000  H
  H432     1.0000 0.72991  0.30958  0.03678  Biso   1.000  H
  H433     1.0000 0.59688  0.32062  0.12018  Biso   1.000  H
  O107     1.0000 0.72922  0.18760  0.16852  Biso   1.000  O
  H434     1.0000 0.72999  0.30948  0.03667  Biso   1.000  H
  H435     1.0000 0.59687  0.32053  0.12018  Biso   1.000  H
  C232     1.0000 0.99176  0.67613  0.25846  Biso   1.000  C
  H436     1.0000 0.90267  0.51763  0.13980  Biso   1.000  H
  H437     1.0000 0.76866  0.60306  0.15595  Biso   1.000  H
  H438     1.0000 0.90277  0.51754  0.13980  Biso   1.000  H
  H439     1.0000 0.76864  0.60297  0.15595  Biso   1.000  H
  C233     1.0000 0.99164  0.67613  0.25846  Biso   1.000  C
  H440     1.0000 0.76854  0.60306  0.15595  Biso   1.000  H
  H441     1.0000 0.54658  0.87191  0.30445  Biso   1.000  H
  H442     1.0000 0.58363  0.98308  0.21932  Biso   1.000  H
  H443     1.0000 0.54657  0.87182  0.30445  Biso   1.000  H
  H444     1.0000 0.58374  0.98299  0.21932  Biso   1.000  H
  H445     1.0000 0.58362  0.98299  0.21932  Biso   1.000  H
  H446     1.0000 0.54646  0.87191  0.30445  Biso   1.000  H
  C234     1.0000 0.40366  0.01013  0.31610  Biso   1.000  C
  C235     1.0000 0.40355  0.01023  0.31610  Biso   1.000  C
  C236     1.0000 0.40354  0.01013  0.31610  Biso   1.000  C
  C237     1.0000 0.98589  0.11635  0.25662  Biso   1.000  C
  C238     1.0000 0.98578  0.11644  0.25662  Biso   1.000  C
  C239     1.0000 0.98577  0.11635  0.25662  Biso   1.000  C
  H447     1.0000 0.95400  0.26090  0.38233  Biso   1.000  H
  H448     1.0000 0.95399  0.26081  0.38233  Biso   1.000  H
  H449     1.0000 0.13413  0.33207  0.40625  Biso   1.000  H
  H450     1.0000 0.13414  0.33216  0.40625  Biso   1.000  H
  C240     1.0000 0.85804  0.13138  0.13050  Biso   1.000  C
  O108     1.0000 0.94489  0.79537  0.28820  Biso   1.000  O
  O109     1.0000 0.94488  0.79528  0.28820  Biso   1.000  O
  H451     1.0000 0.99998  0.63053  0.33828  Biso   1.000  H
  O110     1.0000 0.94477  0.79537  0.28820  Biso   1.000  O
  H452     1.0000 0.99988  0.63062  0.33828  Biso   1.000  H
  H453     1.0000 0.09642  0.68747  0.23710  Biso   1.000  H
  H454     1.0000 0.99997  0.63061  0.33818  Biso   1.000  H
  H455     1.0000 0.09653  0.68738  0.23710  Biso   1.000  H
  O111     1.0000 0.30003  0.93317  0.37855  Biso   1.000  O
  O112     1.0000 0.30013  0.93307  0.37855  Biso   1.000  O
  H456     1.0000 0.47513  0.06607  0.38377  Biso   1.000  H
  H457     1.0000 0.33879  0.05688  0.25141  Biso   1.000  H
  H458     1.0000 0.47504  0.06608  0.38387  Biso   1.000  H
  H459     1.0000 0.33867  0.05688  0.25141  Biso   1.000  H
  H460     1.0000 0.47512  0.06598  0.38377  Biso   1.000  H
  H461     1.0000 0.47503  0.06599  0.38387  Biso   1.000  H
  C241     1.0000 0.04213  0.00898  0.29004  Biso   1.000  C
  C242     1.0000 0.04216  0.00899  0.29014  Biso   1.000  C
  H462     1.0000 0.81776  0.05185  0.08338  Biso   1.000  H
  H463     1.0000 0.90357  0.18376  0.07142  Biso   1.000  H
  H464     1.0000 0.81775  0.05176  0.08338  Biso   1.000  H
  H465     1.0000 0.90356  0.18366  0.07142  Biso   1.000  H
  C243     1.0000 0.98926  0.88810  0.20450  Biso   1.000  C
  C244     1.0000 0.98924  0.88801  0.20450  Biso   1.000  C
  C245     1.0000 0.98914  0.88810  0.20450  Biso   1.000  C
  C246     1.0000 0.17319  0.99577  0.41402  Biso   1.000  C
  C247     1.0000 0.17318  0.99567  0.41402  Biso   1.000  C
  C248     1.0000 0.17307  0.99577  0.41402  Biso   1.000  C
  H466     1.0000 0.89917  0.89804  0.13183  Biso   1.000  H
  H467     1.0000 0.89930  0.89795  0.13193  Biso   1.000  H
  H468     1.0000 0.89919  0.89805  0.13193  Biso   1.000  H
  H469     1.0000 0.07745  0.86439  0.16658  Biso   1.000  H
  H470     1.0000 0.07755  0.86430  0.16658  Biso   1.000  H
  H471     1.0000 0.12632  0.94810  0.47626  Biso   1.000  H
  H472     1.0000 0.12634  0.94802  0.47636  Biso   1.000  H
  H473     1.0000 0.12623  0.94811  0.47636  Biso   1.000  H
  H474     1.0000 0.21626  0.07618  0.45643  Biso   1.000  H
  H475     1.0000 0.21616  0.07627  0.45643  Biso   1.000  H
  H476     1.0000 0.21615  0.07618  0.45643  Biso   1.000  H
  C249     1.0000 0.01074  0.11194  0.79547  Biso   1.000  C
  C250     1.0000 0.95797  0.99097  0.70992  Biso   1.000  C
  C251     1.0000 0.95785  0.99097  0.70992  Biso   1.000  C
  H477     1.0000 0.92255  0.13565  0.83339  Biso   1.000  H
  H478     1.0000 0.92243  0.13565  0.83339  Biso   1.000  H
  H479     1.0000 0.92244  0.13574  0.83339  Biso   1.000  H
  O113     1.0000 0.05510  0.20467  0.71176  Biso   1.000  O
  H480     1.0000 0.10083  0.10200  0.86814  Biso   1.000  H
  H481     1.0000 0.10071  0.10200  0.86814  Biso   1.000  H
  O114     1.0000 0.05499  0.20476  0.71176  Biso   1.000  O
  C252     1.0000 0.82681  0.00427  0.58595  Biso   1.000  C
  C253     1.0000 0.82684  0.00428  0.58605  Biso   1.000  C
  C254     1.0000 0.82670  0.00437  0.58595  Biso   1.000  C
  C255     1.0000 0.01421  0.88360  0.74334  Biso   1.000  C
  C256     1.0000 0.01424  0.88361  0.74345  Biso   1.000  C
  C257     1.0000 0.01420  0.88351  0.74334  Biso   1.000  C
  C258     1.0000 0.01075  0.11203  0.79547  Biso   1.000  C
  C259     1.0000 0.01063  0.11203  0.79547  Biso   1.000  C
  C260     1.0000 0.00824  0.32391  0.74150  Biso   1.000  C
  C261     1.0000 0.00812  0.32391  0.74150  Biso   1.000  C
  C262     1.0000 0.00823  0.32382  0.74150  Biso   1.000  C
  O115     1.0000 0.69997  0.06687  0.62141  Biso   1.000  O
  O116     1.0000 0.69985  0.06687  0.62141  Biso   1.000  O
  O117     1.0000 0.69986  0.06697  0.62141  Biso   1.000  O
  H482     1.0000 0.87367  0.05194  0.52370  Biso   1.000  H
  H483     1.0000 0.78384  0.92377  0.54353  Biso   1.000  H
  H484     1.0000 0.78383  0.92367  0.54353  Biso   1.000  H
  H485     1.0000 0.87357  0.05203  0.52370  Biso   1.000  H
  C263     1.0000 0.96038  0.75936  0.66066  Biso   1.000  C
  C264     1.0000 0.96026  0.75936  0.66066  Biso   1.000  C
  C265     1.0000 0.14206  0.86857  0.86947  Biso   1.000  C
  C266     1.0000 0.14194  0.86857  0.86947  Biso   1.000  C
  H486     1.0000 0.90358  0.31257  0.76286  Biso   1.000  H
  H487     1.0000 0.00003  0.36943  0.66178  Biso   1.000  H
  H488     1.0000 0.90349  0.31257  0.76297  Biso   1.000  H
  H489     1.0000 0.90347  0.31266  0.76286  Biso   1.000  H
  H490     1.0000 0.99992  0.36952  0.66178  Biso   1.000  H
  C267     1.0000 0.12431  0.39837  0.85730  Biso   1.000  C
  C268     1.0000 0.12419  0.39837  0.85730  Biso   1.000  C
  C269     1.0000 0.12420  0.39847  0.85730  Biso   1.000  C
  C270     1.0000 0.59644  0.98981  0.68386  Biso   1.000  C
  C271     1.0000 0.59643  0.98972  0.68386  Biso   1.000  C
  O118     1.0000 0.92745  0.66078  0.74365  Biso   1.000  O
  H491     1.0000 0.86597  0.66788  0.59371  Biso   1.000  H
  O119     1.0000 0.92733  0.66078  0.74365  Biso   1.000  O
  H492     1.0000 0.86585  0.66788  0.59371  Biso   1.000  H
  H493     1.0000 0.86596  0.66778  0.59371  Biso   1.000  H
  H494     1.0000 0.04610  0.73904  0.61763  Biso   1.000  H
  H495     1.0000 0.04600  0.73914  0.61763  Biso   1.000  H
  H496     1.0000 0.04599  0.73904  0.61763  Biso   1.000  H
  O120     1.0000 0.27087  0.81226  0.83144  Biso   1.000  O
  H497     1.0000 0.18234  0.94809  0.91658  Biso   1.000  H
  H498     1.0000 0.09654  0.81619  0.92854  Biso   1.000  H
  O121     1.0000 0.27078  0.81226  0.83155  Biso   1.000  O
  H499     1.0000 0.18224  0.94819  0.91658  Biso   1.000  H
  H500     1.0000 0.09643  0.81628  0.92854  Biso   1.000  H
  H501     1.0000 0.18223  0.94809  0.91658  Biso   1.000  H
  H502     1.0000 0.09642  0.81619  0.92854  Biso   1.000  H
  O122     1.0000 0.11169  0.34588  0.97944  Biso   1.000  O
  H503     1.0000 0.09733  0.48241  0.86016  Biso   1.000  H
  H504     1.0000 0.23134  0.39698  0.84402  Biso   1.000  H
  O123     1.0000 0.11172  0.34589  0.97954  Biso   1.000  O
  H505     1.0000 0.09724  0.48241  0.86027  Biso   1.000  H
  O124     1.0000 0.11159  0.34597  0.97944  Biso   1.000  O
  H506     1.0000 0.09722  0.48250  0.86016  Biso   1.000  H
  H507     1.0000 0.23123  0.39707  0.84402  Biso   1.000  H
  C272     1.0000 0.49942  0.06819  0.75367  Biso   1.000  C
  H508     1.0000 0.52497  0.93387  0.61620  Biso   1.000  H
  H509     1.0000 0.66131  0.94307  0.74856  Biso   1.000  H
  H510     1.0000 0.52498  0.93397  0.61620  Biso   1.000  H
  H511     1.0000 0.66134  0.94308  0.74866  Biso   1.000  H
  C273     1.0000 0.49930  0.06819  0.75367  Biso   1.000  C
  C274     1.0000 0.78083  0.66988  0.78831  Biso   1.000  C
  C275     1.0000 0.35146  0.73617  0.92813  Biso   1.000  C
  C276     1.0000 0.35135  0.73617  0.92813  Biso   1.000  C
  C277     1.0000 0.21899  0.40719  0.09473  Biso   1.000  C
  C278     1.0000 0.21887  0.40719  0.09473  Biso   1.000  C
  H512     1.0000 0.45342  0.12813  0.69551  Biso   1.000  H
  O125     1.0000 0.60658  0.13108  0.87141  Biso   1.000  O
  H513     1.0000 0.41636  0.01696  0.78065  Biso   1.000  H
  O126     1.0000 0.60647  0.13108  0.87141  Biso   1.000  O
  H514     1.0000 0.41626  0.01705  0.78065  Biso   1.000  H
  O127     1.0000 0.60648  0.13117  0.87141  Biso   1.000  O
  H515     1.0000 0.45331  0.12822  0.69551  Biso   1.000  H
  H516     1.0000 0.41624  0.01696  0.78065  Biso   1.000  H
  C279     1.0000 0.78112  0.59276  0.90524  Biso   1.000  C
  H517     1.0000 0.69060  0.64005  0.71493  Biso   1.000  H
  H518     1.0000 0.77317  0.75470  0.81468  Biso   1.000  H
  C280     1.0000 0.78114  0.59277  0.90534  Biso   1.000  C
  H519     1.0000 0.69052  0.64015  0.71503  Biso   1.000  H
  H520     1.0000 0.77305  0.75470  0.81468  Biso   1.000  H
  H521     1.0000 0.69051  0.64006  0.71503  Biso   1.000  H
  H522     1.0000 0.27011  0.69037  0.96329  Biso   1.000  H
  H523     1.0000 0.40315  0.67942  0.87989  Biso   1.000  H
  H524     1.0000 0.40314  0.67933  0.87989  Biso   1.000  H
  C281     1.0000 0.47454  0.80706  0.04107  Biso   1.000  C
  C282     1.0000 0.47453  0.80696  0.04107  Biso   1.000  C
  C283     1.0000 0.21927  0.33007  0.21165  Biso   1.000  C
  C284     1.0000 0.21915  0.33007  0.21165  Biso   1.000  C
  H525     1.0000 0.18544  0.48735  0.11466  Biso   1.000  H
  H526     1.0000 0.32652  0.41903  0.07919  Biso   1.000  H
  H527     1.0000 0.18532  0.48735  0.11466  Biso   1.000  H
  H528     1.0000 0.32653  0.41913  0.07919  Biso   1.000  H
  C285     1.0000 0.52546  0.19299  0.95890  Biso   1.000  C
  C286     1.0000 0.52535  0.19308  0.95890  Biso   1.000  C
  H529     1.0000 0.81466  0.51260  0.88531  Biso   1.000  H
  H530     1.0000 0.67358  0.58091  0.92077  Biso   1.000  H
  H531     1.0000 0.81469  0.51260  0.88541  Biso   1.000  H
  H532     1.0000 0.67349  0.58092  0.92087  Biso   1.000  H
  H533     1.0000 0.81465  0.51250  0.88531  Biso   1.000  H
  H534     1.0000 0.67357  0.58082  0.92077  Biso   1.000  H
  O128     1.0000 0.88830  0.65416  0.02053  Biso   1.000  O
  O129     1.0000 0.88829  0.65407  0.02053  Biso   1.000  O
  O130     1.0000 0.88818  0.65416  0.02053  Biso   1.000  O
  O131     1.0000 0.39341  0.86896  0.12856  Biso   1.000  O
  H535     1.0000 0.53910  0.74950  0.09033  Biso   1.000  H
  H536     1.0000 0.54088  0.86624  0.00581  Biso   1.000  H
  O132     1.0000 0.39352  0.86887  0.12856  Biso   1.000  O
  H537     1.0000 0.53909  0.74940  0.09033  Biso   1.000  H
  H538     1.0000 0.54087  0.86615  0.00581  Biso   1.000  H
  H539     1.0000 0.53899  0.74950  0.09033  Biso   1.000  H
  H540     1.0000 0.54076  0.86624  0.00581  Biso   1.000  H
  O133     1.0000 0.07266  0.33917  0.25631  Biso   1.000  O
  H541     1.0000 0.30950  0.35990  0.28503  Biso   1.000  H
  H542     1.0000 0.22693  0.24525  0.18528  Biso   1.000  H
  H543     1.0000 0.30949  0.35980  0.28503  Biso   1.000  H
  H544     1.0000 0.46089  0.25054  0.90963  Biso   1.000  H
  H545     1.0000 0.45911  0.13380  0.99416  Biso   1.000  H
  H546     1.0000 0.45914  0.13381  0.99426  Biso   1.000  H
  H547     1.0000 0.46078  0.25064  0.90963  Biso   1.000  H
  H548     1.0000 0.45899  0.13380  0.99416  Biso   1.000  H
  C287     1.0000 0.64864  0.26378  0.07183  Biso   1.000  C
  C288     1.0000 0.64867  0.26379  0.07194  Biso   1.000  C
  C289     1.0000 0.87568  0.60167  0.14266  Biso   1.000  C
  C290     1.0000 0.87579  0.60157  0.14266  Biso   1.000  C
  C291     1.0000 0.50058  0.93185  0.24630  Biso   1.000  C
  C292     1.0000 0.50046  0.93185  0.24630  Biso   1.000  C
  C293     1.0000 0.03972  0.24059  0.33931  Biso   1.000  C
  O134     1.0000 0.72923  0.18769  0.16852  Biso   1.000  O
  H549     1.0000 0.73000  0.30958  0.03667  Biso   1.000  H
  H550     1.0000 0.59696  0.32052  0.12007  Biso   1.000  H
  H551     1.0000 0.72991  0.30958  0.03678  Biso   1.000  H
  H552     1.0000 0.59688  0.32062  0.12018  Biso   1.000  H
  O135     1.0000 0.72922  0.18760  0.16852  Biso   1.000  O
  H553     1.0000 0.72999  0.30948  0.03667  Biso   1.000  H
  H554     1.0000 0.59687  0.32053  0.12018  Biso   1.000  H
  C294     1.0000 0.99176  0.67613  0.25846  Biso   1.000  C
  C295     1.0000 0.99164  0.67613  0.25846  Biso   1.000  C
  H555     1.0000 0.90267  0.51763  0.13980  Biso   1.000  H
  H556     1.0000 0.76866  0.60306  0.15595  Biso   1.000  H
  H557     1.0000 0.90277  0.51754  0.13980  Biso   1.000  H
  H558     1.0000 0.76864  0.60297  0.15595  Biso   1.000  H
  H559     1.0000 0.76854  0.60306  0.15595  Biso   1.000  H
  C296     1.0000 0.40366  0.01013  0.31610  Biso   1.000  C
  C297     1.0000 0.40355  0.01023  0.31610  Biso   1.000  C
  C298     1.0000 0.40354  0.01013  0.31610  Biso   1.000  C
  H560     1.0000 0.54658  0.87191  0.30445  Biso   1.000  H
  H561     1.0000 0.58363  0.98308  0.21932  Biso   1.000  H
  H562     1.0000 0.54657  0.87182  0.30445  Biso   1.000  H
  H563     1.0000 0.58374  0.98299  0.21932  Biso   1.000  H
  H564     1.0000 0.58362  0.98299  0.21932  Biso   1.000  H
  H565     1.0000 0.54646  0.87191  0.30445  Biso   1.000  H
  C299     1.0000 0.98589  0.11635  0.25662  Biso   1.000  C
  C300     1.0000 0.98578  0.11644  0.25662  Biso   1.000  C
  C301     1.0000 0.98577  0.11635  0.25662  Biso   1.000  C
  H566     1.0000 0.95400  0.26090  0.38233  Biso   1.000  H
  H567     1.0000 0.95399  0.26081  0.38233  Biso   1.000  H
  H568     1.0000 0.13413  0.33207  0.40625  Biso   1.000  H
  H569     1.0000 0.13414  0.33216  0.40625  Biso   1.000  H
  C302     1.0000 0.85804  0.13138  0.13050  Biso   1.000  C
  O136     1.0000 0.94489  0.79537  0.28820  Biso   1.000  O
  O137     1.0000 0.94488  0.79528  0.28820  Biso   1.000  O
  O138     1.0000 0.94477  0.79537  0.28820  Biso   1.000  O
  H570     1.0000 0.99998  0.63053  0.33828  Biso   1.000  H
  H571     1.0000 0.99988  0.63062  0.33828  Biso   1.000  H
  H572     1.0000 0.09642  0.68747  0.23710  Biso   1.000  H
  H573     1.0000 0.99997  0.63061  0.33818  Biso   1.000  H
  H574     1.0000 0.09653  0.68738  0.23710  Biso   1.000  H
  O139     1.0000 0.30003  0.93317  0.37855  Biso   1.000  O
  O140     1.0000 0.30013  0.93307  0.37855  Biso   1.000  O
  H575     1.0000 0.47513  0.06607  0.38377  Biso   1.000  H
  H576     1.0000 0.33879  0.05688  0.25141  Biso   1.000  H
  H577     1.0000 0.47504  0.06608  0.38387  Biso   1.000  H
  H578     1.0000 0.33867  0.05688  0.25141  Biso   1.000  H
  H579     1.0000 0.47512  0.06598  0.38377  Biso   1.000  H
  H580     1.0000 0.47503  0.06599  0.38387  Biso   1.000  H
  C303     1.0000 0.04213  0.00898  0.29004  Biso   1.000  C
  C304     1.0000 0.04216  0.00899  0.29014  Biso   1.000  C
  H581     1.0000 0.81776  0.05185  0.08338  Biso   1.000  H
  H582     1.0000 0.90357  0.18376  0.07142  Biso   1.000  H
  H583     1.0000 0.81775  0.05176  0.08338  Biso   1.000  H
  H584     1.0000 0.90356  0.18366  0.07142  Biso   1.000  H
  C305     1.0000 0.98926  0.88810  0.20450  Biso   1.000  C
  C306     1.0000 0.98924  0.88801  0.20450  Biso   1.000  C
  C307     1.0000 0.98914  0.88810  0.20450  Biso   1.000  C
  C308     1.0000 0.17319  0.99577  0.41402  Biso   1.000  C
  C309     1.0000 0.17318  0.99567  0.41402  Biso   1.000  C
  C310     1.0000 0.17307  0.99577  0.41402  Biso   1.000  C
  H585     1.0000 0.89917  0.89804  0.13183  Biso   1.000  H
  H586     1.0000 0.89930  0.89795  0.13193  Biso   1.000  H
  H587     1.0000 0.89919  0.89805  0.13193  Biso   1.000  H
  H588     1.0000 0.07745  0.86439  0.16658  Biso   1.000  H
  H589     1.0000 0.07755  0.86430  0.16658  Biso   1.000  H
  H590     1.0000 0.12632  0.94810  0.47626  Biso   1.000  H
  H591     1.0000 0.12634  0.94802  0.47636  Biso   1.000  H
  H592     1.0000 0.12623  0.94811  0.47636  Biso   1.000  H
  H593     1.0000 0.21626  0.07618  0.45643  Biso   1.000  H
  H594     1.0000 0.21616  0.07627  0.45643  Biso   1.000  H
  H595     1.0000 0.21615  0.07618  0.45643  Biso   1.000  H
  C311     1.0000 0.01074  0.11194  0.79547  Biso   1.000  C
  C312     1.0000 0.95797  0.99097  0.70992  Biso   1.000  C
  C313     1.0000 0.95785  0.99097  0.70992  Biso   1.000  C
  H596     1.0000 0.92255  0.13565  0.83339  Biso   1.000  H
  H597     1.0000 0.92243  0.13565  0.83339  Biso   1.000  H
  H598     1.0000 0.92244  0.13574  0.83339  Biso   1.000  H
  O141     1.0000 0.05510  0.20467  0.71176  Biso   1.000  O
  H599     1.0000 0.10083  0.10200  0.86814  Biso   1.000  H
  H600     1.0000 0.10071  0.10200  0.86814  Biso   1.000  H
  O142     1.0000 0.05499  0.20476  0.71176  Biso   1.000  O
  C314     1.0000 0.82681  0.00427  0.58595  Biso   1.000  C
  C315     1.0000 0.82684  0.00428  0.58605  Biso   1.000  C
  C316     1.0000 0.82670  0.00437  0.58595  Biso   1.000  C
  C317     1.0000 0.01421  0.88360  0.74334  Biso   1.000  C
  C318     1.0000 0.01424  0.88361  0.74345  Biso   1.000  C
  C319     1.0000 0.01420  0.88351  0.74334  Biso   1.000  C
  C320     1.0000 0.01075  0.11203  0.79547  Biso   1.000  C
  C321     1.0000 0.01063  0.11203  0.79547  Biso   1.000  C
  C322     1.0000 0.00824  0.32391  0.74150  Biso   1.000  C
  C323     1.0000 0.00812  0.32391  0.74150  Biso   1.000  C
  C324     1.0000 0.00823  0.32382  0.74150  Biso   1.000  C
  O143     1.0000 0.69997  0.06687  0.62141  Biso   1.000  O
  O144     1.0000 0.69985  0.06687  0.62141  Biso   1.000  O
  O145     1.0000 0.69986  0.06697  0.62141  Biso   1.000  O
  H601     1.0000 0.87367  0.05194  0.52370  Biso   1.000  H
  H602     1.0000 0.78384  0.92377  0.54353  Biso   1.000  H
  H603     1.0000 0.78383  0.92367  0.54353  Biso   1.000  H
  H604     1.0000 0.87357  0.05203  0.52370  Biso   1.000  H
  C325     1.0000 0.96038  0.75936  0.66066  Biso   1.000  C
  C326     1.0000 0.96026  0.75936  0.66066  Biso   1.000  C
  C327     1.0000 0.14206  0.86857  0.86947  Biso   1.000  C
  C328     1.0000 0.14194  0.86857  0.86947  Biso   1.000  C
  H605     1.0000 0.90358  0.31257  0.76286  Biso   1.000  H
  H606     1.0000 0.00003  0.36943  0.66178  Biso   1.000  H
  H607     1.0000 0.90349  0.31257  0.76297  Biso   1.000  H
  H608     1.0000 0.90347  0.31266  0.76286  Biso   1.000  H
  H609     1.0000 0.99992  0.36952  0.66178  Biso   1.000  H
  C329     1.0000 0.12431  0.39837  0.85730  Biso   1.000  C
  C330     1.0000 0.12419  0.39837  0.85730  Biso   1.000  C
  C331     1.0000 0.12420  0.39847  0.85730  Biso   1.000  C
  C332     1.0000 0.59644  0.98981  0.68386  Biso   1.000  C
  C333     1.0000 0.59643  0.98972  0.68386  Biso   1.000  C
  O146     1.0000 0.92745  0.66078  0.74365  Biso   1.000  O
  H610     1.0000 0.86597  0.66788  0.59371  Biso   1.000  H
  O147     1.0000 0.92733  0.66078  0.74365  Biso   1.000  O
  H611     1.0000 0.86585  0.66788  0.59371  Biso   1.000  H
  H612     1.0000 0.86596  0.66778  0.59371  Biso   1.000  H
  H613     1.0000 0.04610  0.73904  0.61763  Biso   1.000  H
  H614     1.0000 0.04600  0.73914  0.61763  Biso   1.000  H
  H615     1.0000 0.04599  0.73904  0.61763  Biso   1.000  H
  O148     1.0000 0.27087  0.81226  0.83144  Biso   1.000  O
  H616     1.0000 0.18234  0.94809  0.91658  Biso   1.000  H
  H617     1.0000 0.09654  0.81619  0.92854  Biso   1.000  H
  O149     1.0000 0.27078  0.81226  0.83155  Biso   1.000  O
  H618     1.0000 0.18224  0.94819  0.91658  Biso   1.000  H
  H619     1.0000 0.09643  0.81628  0.92854  Biso   1.000  H
  H620     1.0000 0.18223  0.94809  0.91658  Biso   1.000  H
  H621     1.0000 0.09642  0.81619  0.92854  Biso   1.000  H
  O150     1.0000 0.11169  0.34588  0.97944  Biso   1.000  O
  H622     1.0000 0.09733  0.48241  0.86016  Biso   1.000  H
  H623     1.0000 0.23134  0.39698  0.84402  Biso   1.000  H
  O151     1.0000 0.11172  0.34589  0.97954  Biso   1.000  O
  H624     1.0000 0.09724  0.48241  0.86027  Biso   1.000  H
  O152     1.0000 0.11159  0.34597  0.97944  Biso   1.000  O
  H625     1.0000 0.09722  0.48250  0.86016  Biso   1.000  H
  H626     1.0000 0.23123  0.39707  0.84402  Biso   1.000  H
  C334     1.0000 0.49942  0.06819  0.75367  Biso   1.000  C
  H627     1.0000 0.52497  0.93387  0.61620  Biso   1.000  H
  H628     1.0000 0.66131  0.94307  0.74856  Biso   1.000  H
  H629     1.0000 0.52498  0.93397  0.61620  Biso   1.000  H
  H630     1.0000 0.66134  0.94308  0.74866  Biso   1.000  H
  C335     1.0000 0.49930  0.06819  0.75367  Biso   1.000  C
  C336     1.0000 0.78083  0.66988  0.78831  Biso   1.000  C
  C337     1.0000 0.35146  0.73617  0.92813  Biso   1.000  C
  C338     1.0000 0.35135  0.73617  0.92813  Biso   1.000  C
  C339     1.0000 0.21899  0.40719  0.09473  Biso   1.000  C
  C340     1.0000 0.21887  0.40719  0.09473  Biso   1.000  C
  H631     1.0000 0.45342  0.12813  0.69551  Biso   1.000  H
  O153     1.0000 0.60658  0.13108  0.87141  Biso   1.000  O
  H632     1.0000 0.41636  0.01696  0.78065  Biso   1.000  H
  O154     1.0000 0.60647  0.13108  0.87141  Biso   1.000  O
  H633     1.0000 0.41626  0.01705  0.78065  Biso   1.000  H
  O155     1.0000 0.60648  0.13117  0.87141  Biso   1.000  O
  H634     1.0000 0.45331  0.12822  0.69551  Biso   1.000  H
  H635     1.0000 0.41624  0.01696  0.78065  Biso   1.000  H
  C341     1.0000 0.78112  0.59276  0.90524  Biso   1.000  C
  H636     1.0000 0.69060  0.64005  0.71493  Biso   1.000  H
  H637     1.0000 0.77317  0.75470  0.81468  Biso   1.000  H
  C342     1.0000 0.78114  0.59277  0.90534  Biso   1.000  C
  H638     1.0000 0.69052  0.64015  0.71503  Biso   1.000  H
  H639     1.0000 0.77305  0.75470  0.81468  Biso   1.000  H
  H640     1.0000 0.69051  0.64006  0.71503  Biso   1.000  H
  H641     1.0000 0.27011  0.69037  0.96329  Biso   1.000  H
  H642     1.0000 0.40315  0.67942  0.87989  Biso   1.000  H
  H643     1.0000 0.40314  0.67933  0.87989  Biso   1.000  H
  C343     1.0000 0.47454  0.80706  0.04107  Biso   1.000  C
  C344     1.0000 0.47453  0.80696  0.04107  Biso   1.000  C
  C345     1.0000 0.21927  0.33007  0.21165  Biso   1.000  C
  C346     1.0000 0.21915  0.33007  0.21165  Biso   1.000  C
  H644     1.0000 0.18544  0.48735  0.11466  Biso   1.000  H
  H645     1.0000 0.32652  0.41903  0.07919  Biso   1.000  H
  H646     1.0000 0.18532  0.48735  0.11466  Biso   1.000  H
  H647     1.0000 0.32653  0.41913  0.07919  Biso   1.000  H
  C347     1.0000 0.52546  0.19299  0.95890  Biso   1.000  C
  C348     1.0000 0.52535  0.19308  0.95890  Biso   1.000  C
  H648     1.0000 0.81466  0.51260  0.88531  Biso   1.000  H
  H649     1.0000 0.67358  0.58091  0.92077  Biso   1.000  H
  H650     1.0000 0.81469  0.51260  0.88541  Biso   1.000  H
  H651     1.0000 0.67349  0.58092  0.92087  Biso   1.000  H
  H652     1.0000 0.81465  0.51250  0.88531  Biso   1.000  H
  H653     1.0000 0.67357  0.58082  0.92077  Biso   1.000  H
  O156     1.0000 0.88830  0.65416  0.02053  Biso   1.000  O
  O157     1.0000 0.88829  0.65407  0.02053  Biso   1.000  O
  O158     1.0000 0.88818  0.65416  0.02053  Biso   1.000  O
  O159     1.0000 0.39341  0.86896  0.12856  Biso   1.000  O
  H654     1.0000 0.53910  0.74950  0.09033  Biso   1.000  H
  H655     1.0000 0.54088  0.86624  0.00581  Biso   1.000  H
  O160     1.0000 0.39352  0.86887  0.12856  Biso   1.000  O
  H656     1.0000 0.53909  0.74940  0.09033  Biso   1.000  H
  H657     1.0000 0.54087  0.86615  0.00581  Biso   1.000  H
  H658     1.0000 0.53899  0.74950  0.09033  Biso   1.000  H
  H659     1.0000 0.54076  0.86624  0.00581  Biso   1.000  H
  O161     1.0000 0.07266  0.33917  0.25631  Biso   1.000  O
  H660     1.0000 0.30950  0.35990  0.28503  Biso   1.000  H
  H661     1.0000 0.22693  0.24525  0.18528  Biso   1.000  H
  H662     1.0000 0.30949  0.35980  0.28503  Biso   1.000  H
  H663     1.0000 0.46089  0.25054  0.90963  Biso   1.000  H
  H664     1.0000 0.45911  0.13380  0.99416  Biso   1.000  H
  H665     1.0000 0.45914  0.13381  0.99426  Biso   1.000  H
  H666     1.0000 0.46078  0.25064  0.90963  Biso   1.000  H
  H667     1.0000 0.45899  0.13380  0.99416  Biso   1.000  H
  C349     1.0000 0.64864  0.26378  0.07183  Biso   1.000  C
  C350     1.0000 0.64867  0.26379  0.07194  Biso   1.000  C
  C351     1.0000 0.87568  0.60167  0.14266  Biso   1.000  C
  C352     1.0000 0.87579  0.60157  0.14266  Biso   1.000  C
  C353     1.0000 0.50058  0.93185  0.24630  Biso   1.000  C
  C354     1.0000 0.50046  0.93185  0.24630  Biso   1.000  C
  C355     1.0000 0.03972  0.24059  0.33931  Biso   1.000  C
  O162     1.0000 0.72923  0.18769  0.16852  Biso   1.000  O
  H668     1.0000 0.73000  0.30958  0.03667  Biso   1.000  H
  H669     1.0000 0.59696  0.32052  0.12007  Biso   1.000  H
  H670     1.0000 0.72991  0.30958  0.03678  Biso   1.000  H
  H671     1.0000 0.59688  0.32062  0.12018  Biso   1.000  H
  O163     1.0000 0.72922  0.18760  0.16852  Biso   1.000  O
  H672     1.0000 0.72999  0.30948  0.03667  Biso   1.000  H
  H673     1.0000 0.59687  0.32053  0.12018  Biso   1.000  H
  C356     1.0000 0.99176  0.67613  0.25846  Biso   1.000  C
  C357     1.0000 0.99164  0.67613  0.25846  Biso   1.000  C
  H674     1.0000 0.90267  0.51763  0.13980  Biso   1.000  H
  H675     1.0000 0.76866  0.60306  0.15595  Biso   1.000  H
  H676     1.0000 0.90277  0.51754  0.13980  Biso   1.000  H
  H677     1.0000 0.76864  0.60297  0.15595  Biso   1.000  H
  H678     1.0000 0.76854  0.60306  0.15595  Biso   1.000  H
  C358     1.0000 0.40366  0.01013  0.31610  Biso   1.000  C
  C359     1.0000 0.40355  0.01023  0.31610  Biso   1.000  C
  C360     1.0000 0.40354  0.01013  0.31610  Biso   1.000  C
  H679     1.0000 0.54658  0.87191  0.30445  Biso   1.000  H
  H680     1.0000 0.58363  0.98308  0.21932  Biso   1.000  H
  H681     1.0000 0.54657  0.87182  0.30445  Biso   1.000  H
  H682     1.0000 0.58374  0.98299  0.21932  Biso   1.000  H
  H683     1.0000 0.58362  0.98299  0.21932  Biso   1.000  H
  H684     1.0000 0.54646  0.87191  0.30445  Biso   1.000  H
  C361     1.0000 0.98589  0.11635  0.25662  Biso   1.000  C
  C362     1.0000 0.98578  0.11644  0.25662  Biso   1.000  C
  C363     1.0000 0.98577  0.11635  0.25662  Biso   1.000  C
  H685     1.0000 0.95400  0.26090  0.38233  Biso   1.000  H
  H686     1.0000 0.95399  0.26081  0.38233  Biso   1.000  H
  H687     1.0000 0.13413  0.33207  0.40625  Biso   1.000  H
  H688     1.0000 0.13414  0.33216  0.40625  Biso   1.000  H
  C364     1.0000 0.85804  0.13138  0.13050  Biso   1.000  C
  O164     1.0000 0.94489  0.79537  0.28820  Biso   1.000  O
  O165     1.0000 0.94488  0.79528  0.28820  Biso   1.000  O
  O166     1.0000 0.94477  0.79537  0.28820  Biso   1.000  O
  H689     1.0000 0.99998  0.63053  0.33828  Biso   1.000  H
  H690     1.0000 0.99988  0.63062  0.33828  Biso   1.000  H
  H691     1.0000 0.09642  0.68747  0.23710  Biso   1.000  H
  H692     1.0000 0.99997  0.63061  0.33818  Biso   1.000  H
  H693     1.0000 0.09653  0.68738  0.23710  Biso   1.000  H
  O167     1.0000 0.30003  0.93317  0.37855  Biso   1.000  O
  O168     1.0000 0.30013  0.93307  0.37855  Biso   1.000  O
  H694     1.0000 0.47513  0.06607  0.38377  Biso   1.000  H
  H695     1.0000 0.33879  0.05688  0.25141  Biso   1.000  H
  H696     1.0000 0.47504  0.06608  0.38387  Biso   1.000  H
  H697     1.0000 0.33867  0.05688  0.25141  Biso   1.000  H
  H698     1.0000 0.47512  0.06598  0.38377  Biso   1.000  H
  H699     1.0000 0.47503  0.06599  0.38387  Biso   1.000  H
  C365     1.0000 0.04213  0.00898  0.29004  Biso   1.000  C
  C366     1.0000 0.04216  0.00899  0.29014  Biso   1.000  C
  H700     1.0000 0.81776  0.05185  0.08338  Biso   1.000  H
  H701     1.0000 0.90357  0.18376  0.07142  Biso   1.000  H
  H702     1.0000 0.81775  0.05176  0.08338  Biso   1.000  H
  H703     1.0000 0.90356  0.18366  0.07142  Biso   1.000  H
  C367     1.0000 0.98926  0.88810  0.20450  Biso   1.000  C
  C368     1.0000 0.98924  0.88801  0.20450  Biso   1.000  C
  C369     1.0000 0.98914  0.88810  0.20450  Biso   1.000  C
  C370     1.0000 0.17319  0.99577  0.41402  Biso   1.000  C
  C371     1.0000 0.17318  0.99567  0.41402  Biso   1.000  C
  C372     1.0000 0.17307  0.99577  0.41402  Biso   1.000  C
  H704     1.0000 0.89917  0.89804  0.13183  Biso   1.000  H
  H705     1.0000 0.89930  0.89795  0.13193  Biso   1.000  H
  H706     1.0000 0.89919  0.89805  0.13193  Biso   1.000  H
  H707     1.0000 0.07745  0.86439  0.16658  Biso   1.000  H
  H708     1.0000 0.07755  0.86430  0.16658  Biso   1.000  H
  H709     1.0000 0.12632  0.94810  0.47626  Biso   1.000  H
  H710     1.0000 0.12634  0.94802  0.47636  Biso   1.000  H
  H711     1.0000 0.12623  0.94811  0.47636  Biso   1.000  H
  H712     1.0000 0.21626  0.07618  0.45643  Biso   1.000  H
  H713     1.0000 0.21616  0.07627  0.45643  Biso   1.000  H
  H714     1.0000 0.21615  0.07618  0.45643  Biso   1.000  H
