data_image0
_cell_length_a       12.475
_cell_length_b       14.775
_cell_length_c       19.732
_cell_angle_alpha    72.71
_cell_angle_beta     88.5
_cell_angle_gamma    65.98

_symmetry_space_group_name_H-M    "P 1"
_symmetry_int_tables_number       1

loop_
  _symmetry_equiv_pos_as_xyz
  'x, y, z'

loop_
  _atom_site_label
  _atom_site_occupancy
  _atom_site_fract_x
  _atom_site_fract_y
  _atom_site_fract_z
  _atom_site_thermal_displace_type
  _atom_site_B_iso_or_equiv
  _atom_site_type_symbol
  O1       1.0000 0.57671  0.33455  0.90513  Biso   1.000  O
  C1       1.0000 0.46665  0.34506  0.88917  Biso   1.000  C
  C2       1.0000 0.61386  0.31853  0.97657  Biso   1.000  C
  C3       1.0000 0.61382  0.31860  0.97657  Biso   1.000  C
  C4       1.0000 0.61390  0.31860  0.97657  Biso   1.000  C
  N1       1.0000 0.44978  0.34152  0.82467  Biso   1.000  N
  N2       1.0000 0.44976  0.34157  0.82472  Biso   1.000  N
  N3       1.0000 0.44975  0.34160  0.82467  Biso   1.000  N
  O2       1.0000 0.57663  0.33455  0.90513  Biso   1.000  O
  N4       1.0000 0.39067  0.35831  0.93781  Biso   1.000  N
  O3       1.0000 0.57672  0.33453  0.90519  Biso   1.000  O
  N5       1.0000 0.39063  0.35839  0.93781  Biso   1.000  N
  O4       1.0000 0.57668  0.33460  0.90519  Biso   1.000  O
  N6       1.0000 0.39071  0.35839  0.93781  Biso   1.000  N
  C5       1.0000 0.62325  0.40012  0.99238  Biso   1.000  C
  C6       1.0000 0.62329  0.40020  0.99238  Biso   1.000  C
  C7       1.0000 0.62333  0.40012  0.99238  Biso   1.000  C
  C8       1.0000 0.64852  0.22199  0.02532  Biso   1.000  C
  C9       1.0000 0.64860  0.22199  0.02532  Biso   1.000  C
  C10      1.0000 0.33845  0.35784  0.80865  Biso   1.000  C
  C11      1.0000 0.33846  0.35781  0.80870  Biso   1.000  C
  C12      1.0000 0.33851  0.35789  0.80870  Biso   1.000  C
  C13      1.0000 0.28439  0.37254  0.91325  Biso   1.000  C
  C14      1.0000 0.28440  0.37252  0.91330  Biso   1.000  C
  C15      1.0000 0.28436  0.37259  0.91330  Biso   1.000  C
  H1       1.0000 0.60080  0.46633  0.95709  Biso   1.000  H
  H2       1.0000 0.60088  0.46633  0.95709  Biso   1.000  H
  C16      1.0000 0.66667  0.38226  0.06152  Biso   1.000  C
  C17      1.0000 0.66675  0.38226  0.06152  Biso   1.000  C
  C18      1.0000 0.69096  0.20724  0.09351  Biso   1.000  C
  H3       1.0000 0.64361  0.16642  0.01272  Biso   1.000  H
  C19      1.0000 0.69093  0.20732  0.09351  Biso   1.000  C
  H4       1.0000 0.64362  0.16640  0.01278  Biso   1.000  H
  C20      1.0000 0.69101  0.20732  0.09351  Biso   1.000  C
  O5       1.0000 0.32124  0.35516  0.74244  Biso   1.000  O
  O6       1.0000 0.32132  0.35516  0.74244  Biso   1.000  O
  N7       1.0000 0.25087  0.37578  0.84870  Biso   1.000  N
  N8       1.0000 0.25088  0.37575  0.84875  Biso   1.000  N
  O7       1.0000 0.19780  0.39052  0.95596  Biso   1.000  O
  O8       1.0000 0.19776  0.39059  0.95596  Biso   1.000  O
  C21      1.0000 0.69947  0.28608  0.11241  Biso   1.000  C
  H5       1.0000 0.67371  0.43727  0.07375  Biso   1.000  H
  H6       1.0000 0.67372  0.43724  0.07381  Biso   1.000  H
  H7       1.0000 0.67369  0.43732  0.07381  Biso   1.000  H
  O9       1.0000 0.73524  0.10599  0.14300  Biso   1.000  O
  C22      1.0000 0.21529  0.34940  0.72189  Biso   1.000  C
  C23      1.0000 0.21526  0.34947  0.72189  Biso   1.000  C
  C24      1.0000 0.22947  0.36655  0.02970  Biso   1.000  C
  C25      1.0000 0.22944  0.36660  0.02976  Biso   1.000  C
  C26      1.0000 0.22952  0.36660  0.02976  Biso   1.000  C
  H8       1.0000 0.72753  0.27468  0.15988  Biso   1.000  H
  H9       1.0000 0.72761  0.27468  0.15988  Biso   1.000  H
  C27      1.0000 0.65835  0.06698  0.17184  Biso   1.000  C
  C28      1.0000 0.22338  0.24123  0.75205  Biso   1.000  C
  C29      1.0000 0.22336  0.24128  0.75211  Biso   1.000  C
  H10      1.0000 0.14730  0.39768  0.73908  Biso   1.000  H
  H11      1.0000 0.20161  0.37167  0.66913  Biso   1.000  H
  H12      1.0000 0.14726  0.39775  0.73908  Biso   1.000  H
  H13      1.0000 0.20162  0.37164  0.66919  Biso   1.000  H
  H14      1.0000 0.20170  0.37164  0.66919  Biso   1.000  H
  C30      1.0000 0.28520  0.26367  0.07130  Biso   1.000  C
  C31      1.0000 0.19699  0.44713  0.05789  Biso   1.000  C
  C32      1.0000 0.28521  0.26364  0.07135  Biso   1.000  C
  C33      1.0000 0.19696  0.44718  0.05795  Biso   1.000  C
  C34      1.0000 0.19695  0.44721  0.05789  Biso   1.000  C
  C35      1.0000 0.28518  0.26372  0.07135  Biso   1.000  C
  C36      1.0000 0.19704  0.44718  0.05795  Biso   1.000  C
  N9       1.0000 0.70839  0.96680  0.20900  Biso   1.000  N
  N10      1.0000 0.70848  0.96677  0.20905  Biso   1.000  N
  N11      1.0000 0.70847  0.96680  0.20900  Biso   1.000  N
  N12      1.0000 0.54438  0.13089  0.16094  Biso   1.000  N
  N13      1.0000 0.54439  0.13086  0.16100  Biso   1.000  N
  O10      1.0000 0.33160  0.17243  0.73032  Biso   1.000  O
  O11      1.0000 0.33157  0.17248  0.73038  Biso   1.000  O
  H15      1.0000 0.22684  0.22106  0.80475  Biso   1.000  H
  H16      1.0000 0.15364  0.23654  0.73321  Biso   1.000  H
  H17      1.0000 0.22680  0.22113  0.80475  Biso   1.000  H
  H18      1.0000 0.22688  0.22113  0.80475  Biso   1.000  H
  H19      1.0000 0.30611  0.20856  0.05122  Biso   1.000  H
  C37      1.0000 0.30936  0.24379  0.14322  Biso   1.000  C
  C38      1.0000 0.22119  0.42395  0.13040  Biso   1.000  C
  H20      1.0000 0.15858  0.51756  0.02810  Biso   1.000  H
  C39      1.0000 0.22117  0.42400  0.13046  Biso   1.000  C
  H21      1.0000 0.15855  0.51761  0.02815  Biso   1.000  H
  H22      1.0000 0.15854  0.51763  0.02810  Biso   1.000  H
  C40      1.0000 0.63056  0.92997  0.23500  Biso   1.000  C
  C41      1.0000 0.63054  0.93002  0.23506  Biso   1.000  C
  C42      1.0000 0.47802  0.08341  0.19271  Biso   1.000  C
  C43      1.0000 0.47810  0.08341  0.19271  Biso   1.000  C
  C44      1.0000 0.36942  0.07006  0.76497  Biso   1.000  C
  C45      1.0000 0.36950  0.07006  0.76497  Biso   1.000  C
  O12      1.0000 0.35973  0.13818  0.18753  Biso   1.000  O
  C46      1.0000 0.27758  0.32105  0.17381  Biso   1.000  C
  O13      1.0000 0.35978  0.13823  0.18759  Biso   1.000  O
  C47      1.0000 0.27755  0.32112  0.17381  Biso   1.000  C
  O14      1.0000 0.35981  0.13818  0.18753  Biso   1.000  O
  H23      1.0000 0.19910  0.47884  0.15080  Biso   1.000  H
  H24      1.0000 0.19915  0.47889  0.15085  Biso   1.000  H
  H25      1.0000 0.19918  0.47884  0.15080  Biso   1.000  H
  N14      1.0000 0.51340  0.98318  0.23030  Biso   1.000  N
  N15      1.0000 0.51348  0.98318  0.23030  Biso   1.000  N
  O15      1.0000 0.66838  0.82760  0.26965  Biso   1.000  O
  O16      1.0000 0.66846  0.82760  0.26965  Biso   1.000  O
  N16      1.0000 0.48658  0.01686  0.76967  Biso   1.000  N
  N17      1.0000 0.29159  0.03324  0.79098  Biso   1.000  N
  N18      1.0000 0.48659  0.01683  0.76973  Biso   1.000  N
  N19      1.0000 0.29155  0.03331  0.79098  Biso   1.000  N
  H26      1.0000 0.29363  0.30492  0.22384  Biso   1.000  H
  H27      1.0000 0.29359  0.30499  0.22384  Biso   1.000  H
  C48      1.0000 0.77659  0.75881  0.24792  Biso   1.000  C
  C49      1.0000 0.77667  0.75881  0.24792  Biso   1.000  C
  C50      1.0000 0.52208  0.91655  0.80726  Biso   1.000  C
  C51      1.0000 0.52204  0.91662  0.80726  Biso   1.000  C
  C52      1.0000 0.34175  0.93298  0.82814  Biso   1.000  C
  C53      1.0000 0.34172  0.93303  0.82819  Biso   1.000  C
  C54      1.0000 0.78469  0.65064  0.27809  Biso   1.000  C
  C55      1.0000 0.78470  0.65062  0.27814  Biso   1.000  C
  H28      1.0000 0.77314  0.77898  0.19522  Biso   1.000  H
  H29      1.0000 0.84634  0.76350  0.26677  Biso   1.000  H
  H30      1.0000 0.77315  0.77895  0.19528  Biso   1.000  H
  H31      1.0000 0.84631  0.76355  0.26682  Biso   1.000  H
  O17      1.0000 0.64037  0.86179  0.81244  Biso   1.000  O
  N20      1.0000 0.45571  0.86908  0.83903  Biso   1.000  N
  N21      1.0000 0.45579  0.86908  0.83903  Biso   1.000  N
  N22      1.0000 0.45576  0.86915  0.83903  Biso   1.000  N
  O18      1.0000 0.26485  0.89397  0.85697  Biso   1.000  O
  O19      1.0000 0.26483  0.89402  0.85703  Biso   1.000  O
  O20      1.0000 0.67874  0.64488  0.25753  Biso   1.000  O
  O21      1.0000 0.67871  0.64493  0.25759  Biso   1.000  O
  O22      1.0000 0.67870  0.64495  0.25753  Biso   1.000  O
  H32      1.0000 0.85268  0.60236  0.26090  Biso   1.000  H
  H33      1.0000 0.79837  0.62837  0.33084  Biso   1.000  H
  H34      1.0000 0.85277  0.60234  0.26095  Biso   1.000  H
  H35      1.0000 0.79833  0.62844  0.33084  Biso   1.000  H
  H36      1.0000 0.85276  0.60236  0.26090  Biso   1.000  H
  C56      1.0000 0.69073  0.75617  0.85676  Biso   1.000  C
  C57      1.0000 0.69070  0.75624  0.85676  Biso   1.000  C
  C58      1.0000 0.30913  0.79272  0.90647  Biso   1.000  C
  C59      1.0000 0.66153  0.64220  0.19133  Biso   1.000  C
  C60      1.0000 0.71489  0.73630  0.92868  Biso   1.000  C
  C61      1.0000 0.72251  0.67891  0.82616  Biso   1.000  C
  C62      1.0000 0.71497  0.73630  0.92868  Biso   1.000  C
  C63      1.0000 0.30063  0.71388  0.88757  Biso   1.000  C
  C64      1.0000 0.35158  0.77797  0.97465  Biso   1.000  C
  C65      1.0000 0.35155  0.77802  0.97471  Biso   1.000  C
  C66      1.0000 0.35154  0.77804  0.97465  Biso   1.000  C
  C67      1.0000 0.30059  0.71396  0.88757  Biso   1.000  C
  N23      1.0000 0.74911  0.62426  0.15128  Biso   1.000  N
  N24      1.0000 0.74907  0.62434  0.15128  Biso   1.000  N
  N25      1.0000 0.74915  0.62434  0.15128  Biso   1.000  N
  N26      1.0000 0.55020  0.65851  0.17531  Biso   1.000  N
  C68      1.0000 0.77063  0.63341  0.97027  Biso   1.000  C
  H37      1.0000 0.69399  0.79140  0.94876  Biso   1.000  H
  H38      1.0000 0.70647  0.69505  0.77613  Biso   1.000  H
  C69      1.0000 0.77890  0.57601  0.86957  Biso   1.000  C
  H39      1.0000 0.70655  0.69505  0.77613  Biso   1.000  H
  H40      1.0000 0.27257  0.72528  0.84010  Biso   1.000  H
  C70      1.0000 0.33343  0.61770  0.93845  Biso   1.000  C
  H41      1.0000 0.27258  0.72526  0.84015  Biso   1.000  H
  C71      1.0000 0.33344  0.61768  0.93851  Biso   1.000  C
  C72      1.0000 0.33340  0.61775  0.93851  Biso   1.000  C
  H42      1.0000 0.35649  0.83354  0.98725  Biso   1.000  H
  H43      1.0000 0.35645  0.83362  0.98725  Biso   1.000  H
  H44      1.0000 0.35653  0.83362  0.98725  Biso   1.000  H
  C73      1.0000 0.38612  0.68151  0.02340  Biso   1.000  C
  C74      1.0000 0.38613  0.68149  0.02345  Biso   1.000  C
  C75      1.0000 0.71559  0.62749  0.08673  Biso   1.000  C
  C76      1.0000 0.71567  0.62749  0.08673  Biso   1.000  C
  C77      1.0000 0.53333  0.65498  0.11081  Biso   1.000  C
  C78      1.0000 0.53329  0.65505  0.11081  Biso   1.000  C
  C79      1.0000 0.80311  0.55283  0.94208  Biso   1.000  C
  O23      1.0000 0.80218  0.60952  0.04401  Biso   1.000  O
  O24      1.0000 0.80226  0.60952  0.04401  Biso   1.000  O
  H45      1.0000 0.80100  0.52112  0.84918  Biso   1.000  H
  H46      1.0000 0.32638  0.56270  0.92622  Biso   1.000  H
  C80      1.0000 0.37673  0.59992  0.00760  Biso   1.000  C
  C81      1.0000 0.37674  0.59989  0.00765  Biso   1.000  C
  O25      1.0000 0.42335  0.66549  0.09484  Biso   1.000  O
  N27      1.0000 0.60931  0.64172  0.06217  Biso   1.000  N
  N28      1.0000 0.60932  0.64170  0.06222  Biso   1.000  N
  H47      1.0000 0.84152  0.48240  0.97188  Biso   1.000  H
  H48      1.0000 0.84160  0.48240  0.97188  Biso   1.000  H
  H49      1.0000 0.39917  0.53371  0.04289  Biso   1.000  H
  H50      1.0000 0.39918  0.53369  0.04294  Biso   1.000  H
  H51      1.0000 0.39915  0.53376  0.04294  Biso   1.000  H
  O26      1.0000 0.57671  0.33455  0.90513  Biso   1.000  O
  C82      1.0000 0.46665  0.34506  0.88917  Biso   1.000  C
  C83      1.0000 0.61386  0.31853  0.97657  Biso   1.000  C
  C84      1.0000 0.61382  0.31860  0.97657  Biso   1.000  C
  C85      1.0000 0.61390  0.31860  0.97657  Biso   1.000  C
  N29      1.0000 0.44976  0.34157  0.82472  Biso   1.000  N
  N30      1.0000 0.44978  0.34152  0.82467  Biso   1.000  N
  N31      1.0000 0.44975  0.34160  0.82467  Biso   1.000  N
  N32      1.0000 0.39063  0.35839  0.93781  Biso   1.000  N
  N33      1.0000 0.39067  0.35831  0.93781  Biso   1.000  N
  N34      1.0000 0.39071  0.35839  0.93781  Biso   1.000  N
  O27      1.0000 0.57663  0.33455  0.90513  Biso   1.000  O
  O28      1.0000 0.57672  0.33453  0.90519  Biso   1.000  O
  O29      1.0000 0.57668  0.33460  0.90519  Biso   1.000  O
  C86      1.0000 0.62329  0.40020  0.99238  Biso   1.000  C
  C87      1.0000 0.62325  0.40012  0.99238  Biso   1.000  C
  C88      1.0000 0.62333  0.40012  0.99238  Biso   1.000  C
  C89      1.0000 0.64852  0.22199  0.02532  Biso   1.000  C
  C90      1.0000 0.64860  0.22199  0.02532  Biso   1.000  C
  C91      1.0000 0.33845  0.35784  0.80865  Biso   1.000  C
  C92      1.0000 0.33846  0.35781  0.80870  Biso   1.000  C
  C93      1.0000 0.33851  0.35789  0.80870  Biso   1.000  C
  C94      1.0000 0.28439  0.37254  0.91325  Biso   1.000  C
  C95      1.0000 0.28440  0.37252  0.91330  Biso   1.000  C
  C96      1.0000 0.28436  0.37259  0.91330  Biso   1.000  C
  H52      1.0000 0.60080  0.46633  0.95709  Biso   1.000  H
  H53      1.0000 0.60088  0.46633  0.95709  Biso   1.000  H
  C97      1.0000 0.66667  0.38226  0.06152  Biso   1.000  C
  C98      1.0000 0.66675  0.38226  0.06152  Biso   1.000  C
  C99      1.0000 0.69096  0.20724  0.09351  Biso   1.000  C
  H54      1.0000 0.64361  0.16642  0.01272  Biso   1.000  H
  C100     1.0000 0.69093  0.20732  0.09351  Biso   1.000  C
  H55      1.0000 0.64362  0.16640  0.01278  Biso   1.000  H
  C101     1.0000 0.69101  0.20732  0.09351  Biso   1.000  C
  O30      1.0000 0.32124  0.35516  0.74244  Biso   1.000  O
  O31      1.0000 0.32132  0.35516  0.74244  Biso   1.000  O
  N35      1.0000 0.25087  0.37578  0.84870  Biso   1.000  N
  N36      1.0000 0.25088  0.37575  0.84875  Biso   1.000  N
  O32      1.0000 0.19776  0.39059  0.95596  Biso   1.000  O
  O33      1.0000 0.19780  0.39052  0.95596  Biso   1.000  O
  C102     1.0000 0.69947  0.28608  0.11241  Biso   1.000  C
  H56      1.0000 0.67371  0.43727  0.07375  Biso   1.000  H
  H57      1.0000 0.67372  0.43724  0.07381  Biso   1.000  H
  H58      1.0000 0.67369  0.43732  0.07381  Biso   1.000  H
  O34      1.0000 0.73524  0.10599  0.14300  Biso   1.000  O
  C103     1.0000 0.21529  0.34940  0.72189  Biso   1.000  C
  C104     1.0000 0.21526  0.34947  0.72189  Biso   1.000  C
  C105     1.0000 0.22947  0.36655  0.02970  Biso   1.000  C
  C106     1.0000 0.22944  0.36660  0.02976  Biso   1.000  C
  C107     1.0000 0.22952  0.36660  0.02976  Biso   1.000  C
  H59      1.0000 0.72753  0.27468  0.15988  Biso   1.000  H
  H60      1.0000 0.72761  0.27468  0.15988  Biso   1.000  H
  C108     1.0000 0.65835  0.06698  0.17184  Biso   1.000  C
  C109     1.0000 0.22338  0.24123  0.75205  Biso   1.000  C
  C110     1.0000 0.22336  0.24128  0.75211  Biso   1.000  C
  H61      1.0000 0.14730  0.39768  0.73908  Biso   1.000  H
  H62      1.0000 0.20161  0.37167  0.66913  Biso   1.000  H
  H63      1.0000 0.14726  0.39775  0.73908  Biso   1.000  H
  H64      1.0000 0.20162  0.37164  0.66919  Biso   1.000  H
  H65      1.0000 0.20170  0.37164  0.66919  Biso   1.000  H
  C111     1.0000 0.28520  0.26367  0.07130  Biso   1.000  C
  C112     1.0000 0.19699  0.44713  0.05789  Biso   1.000  C
  C113     1.0000 0.28521  0.26364  0.07135  Biso   1.000  C
  C114     1.0000 0.19696  0.44718  0.05795  Biso   1.000  C
  C115     1.0000 0.19695  0.44721  0.05789  Biso   1.000  C
  C116     1.0000 0.28518  0.26372  0.07135  Biso   1.000  C
  C117     1.0000 0.19704  0.44718  0.05795  Biso   1.000  C
  N37      1.0000 0.54438  0.13089  0.16094  Biso   1.000  N
  N38      1.0000 0.54439  0.13086  0.16100  Biso   1.000  N
  N39      1.0000 0.70839  0.96680  0.20900  Biso   1.000  N
  N40      1.0000 0.70848  0.96677  0.20905  Biso   1.000  N
  N41      1.0000 0.70847  0.96680  0.20900  Biso   1.000  N
  O35      1.0000 0.33160  0.17243  0.73032  Biso   1.000  O
  O36      1.0000 0.33157  0.17248  0.73038  Biso   1.000  O
  H66      1.0000 0.15364  0.23654  0.73321  Biso   1.000  H
  H67      1.0000 0.22680  0.22113  0.80475  Biso   1.000  H
  H68      1.0000 0.22684  0.22106  0.80475  Biso   1.000  H
  H69      1.0000 0.22688  0.22113  0.80475  Biso   1.000  H
  H70      1.0000 0.30611  0.20856  0.05122  Biso   1.000  H
  C118     1.0000 0.30936  0.24379  0.14322  Biso   1.000  C
  C119     1.0000 0.22119  0.42395  0.13040  Biso   1.000  C
  H71      1.0000 0.15858  0.51756  0.02810  Biso   1.000  H
  C120     1.0000 0.22117  0.42400  0.13046  Biso   1.000  C
  H72      1.0000 0.15855  0.51761  0.02815  Biso   1.000  H
  H73      1.0000 0.15854  0.51763  0.02810  Biso   1.000  H
  C121     1.0000 0.47802  0.08341  0.19271  Biso   1.000  C
  C122     1.0000 0.47810  0.08341  0.19271  Biso   1.000  C
  C123     1.0000 0.63056  0.92997  0.23500  Biso   1.000  C
  C124     1.0000 0.63054  0.93002  0.23506  Biso   1.000  C
  C125     1.0000 0.36942  0.07006  0.76497  Biso   1.000  C
  C126     1.0000 0.36950  0.07006  0.76497  Biso   1.000  C
  O37      1.0000 0.35973  0.13818  0.18753  Biso   1.000  O
  C127     1.0000 0.27758  0.32105  0.17381  Biso   1.000  C
  O38      1.0000 0.35978  0.13823  0.18759  Biso   1.000  O
  C128     1.0000 0.27755  0.32112  0.17381  Biso   1.000  C
  O39      1.0000 0.35981  0.13818  0.18753  Biso   1.000  O
  H74      1.0000 0.19910  0.47884  0.15080  Biso   1.000  H
  H75      1.0000 0.19915  0.47889  0.15085  Biso   1.000  H
  H76      1.0000 0.19918  0.47884  0.15080  Biso   1.000  H
  N42      1.0000 0.51340  0.98318  0.23030  Biso   1.000  N
  N43      1.0000 0.51348  0.98318  0.23030  Biso   1.000  N
  O40      1.0000 0.66838  0.82760  0.26965  Biso   1.000  O
  O41      1.0000 0.66846  0.82760  0.26965  Biso   1.000  O
  N44      1.0000 0.29159  0.03324  0.79098  Biso   1.000  N
  N45      1.0000 0.48658  0.01686  0.76967  Biso   1.000  N
  N46      1.0000 0.48659  0.01683  0.76973  Biso   1.000  N
  N47      1.0000 0.29155  0.03331  0.79098  Biso   1.000  N
  H77      1.0000 0.29363  0.30492  0.22384  Biso   1.000  H
  H78      1.0000 0.29359  0.30499  0.22384  Biso   1.000  H
  C129     1.0000 0.77659  0.75881  0.24792  Biso   1.000  C
  C130     1.0000 0.77667  0.75881  0.24792  Biso   1.000  C
  C131     1.0000 0.34175  0.93298  0.82814  Biso   1.000  C
  C132     1.0000 0.34172  0.93303  0.82819  Biso   1.000  C
  C133     1.0000 0.52208  0.91655  0.80726  Biso   1.000  C
  C134     1.0000 0.52204  0.91662  0.80726  Biso   1.000  C
  C135     1.0000 0.78469  0.65064  0.27809  Biso   1.000  C
  C136     1.0000 0.78470  0.65062  0.27814  Biso   1.000  C
  H79      1.0000 0.77314  0.77898  0.19522  Biso   1.000  H
  H80      1.0000 0.84634  0.76350  0.26677  Biso   1.000  H
  H81      1.0000 0.77315  0.77895  0.19528  Biso   1.000  H
  H82      1.0000 0.84631  0.76355  0.26682  Biso   1.000  H
  O42      1.0000 0.26485  0.89397  0.85697  Biso   1.000  O
  N48      1.0000 0.45571  0.86908  0.83903  Biso   1.000  N
  O43      1.0000 0.26483  0.89402  0.85703  Biso   1.000  O
  N49      1.0000 0.45579  0.86908  0.83903  Biso   1.000  N
  N50      1.0000 0.45576  0.86915  0.83903  Biso   1.000  N
  O44      1.0000 0.64037  0.86179  0.81244  Biso   1.000  O
  O45      1.0000 0.67874  0.64488  0.25753  Biso   1.000  O
  O46      1.0000 0.67871  0.64493  0.25759  Biso   1.000  O
  O47      1.0000 0.67870  0.64495  0.25753  Biso   1.000  O
  H83      1.0000 0.85268  0.60236  0.26090  Biso   1.000  H
  H84      1.0000 0.79837  0.62837  0.33084  Biso   1.000  H
  H85      1.0000 0.85277  0.60234  0.26095  Biso   1.000  H
  H86      1.0000 0.79833  0.62844  0.33084  Biso   1.000  H
  H87      1.0000 0.85276  0.60236  0.26090  Biso   1.000  H
  C137     1.0000 0.30913  0.79272  0.90647  Biso   1.000  C
  C138     1.0000 0.69073  0.75617  0.85676  Biso   1.000  C
  C139     1.0000 0.69070  0.75624  0.85676  Biso   1.000  C
  C140     1.0000 0.66153  0.64220  0.19133  Biso   1.000  C
  C141     1.0000 0.30063  0.71388  0.88757  Biso   1.000  C
  C142     1.0000 0.35158  0.77797  0.97465  Biso   1.000  C
  C143     1.0000 0.35155  0.77802  0.97471  Biso   1.000  C
  C144     1.0000 0.35154  0.77804  0.97465  Biso   1.000  C
  C145     1.0000 0.30059  0.71396  0.88757  Biso   1.000  C
  C146     1.0000 0.71489  0.73630  0.92868  Biso   1.000  C
  C147     1.0000 0.72251  0.67891  0.82616  Biso   1.000  C
  C148     1.0000 0.71497  0.73630  0.92868  Biso   1.000  C
  N51      1.0000 0.55020  0.65851  0.17531  Biso   1.000  N
  N52      1.0000 0.74911  0.62426  0.15128  Biso   1.000  N
  N53      1.0000 0.74907  0.62434  0.15128  Biso   1.000  N
  N54      1.0000 0.74915  0.62434  0.15128  Biso   1.000  N
  H88      1.0000 0.27257  0.72528  0.84010  Biso   1.000  H
  C149     1.0000 0.33343  0.61770  0.93845  Biso   1.000  C
  H89      1.0000 0.27258  0.72526  0.84015  Biso   1.000  H
  C150     1.0000 0.33344  0.61768  0.93851  Biso   1.000  C
  C151     1.0000 0.33340  0.61775  0.93851  Biso   1.000  C
  H90      1.0000 0.35649  0.83354  0.98725  Biso   1.000  H
  H91      1.0000 0.35645  0.83362  0.98725  Biso   1.000  H
  H92      1.0000 0.35653  0.83362  0.98725  Biso   1.000  H
  C152     1.0000 0.38612  0.68151  0.02340  Biso   1.000  C
  C153     1.0000 0.38613  0.68149  0.02345  Biso   1.000  C
  C154     1.0000 0.77063  0.63341  0.97027  Biso   1.000  C
  H93      1.0000 0.69399  0.79140  0.94876  Biso   1.000  H
  H94      1.0000 0.70647  0.69505  0.77613  Biso   1.000  H
  C155     1.0000 0.77890  0.57601  0.86957  Biso   1.000  C
  H95      1.0000 0.70655  0.69505  0.77613  Biso   1.000  H
  C156     1.0000 0.53333  0.65498  0.11081  Biso   1.000  C
  C157     1.0000 0.53329  0.65505  0.11081  Biso   1.000  C
  C158     1.0000 0.71559  0.62749  0.08673  Biso   1.000  C
  C159     1.0000 0.71567  0.62749  0.08673  Biso   1.000  C
  H96      1.0000 0.32638  0.56270  0.92622  Biso   1.000  H
  C160     1.0000 0.37673  0.59992  0.00760  Biso   1.000  C
  C161     1.0000 0.37674  0.59989  0.00765  Biso   1.000  C
  O48      1.0000 0.42335  0.66549  0.09484  Biso   1.000  O
  C162     1.0000 0.80311  0.55283  0.94208  Biso   1.000  C
  O49      1.0000 0.80218  0.60952  0.04401  Biso   1.000  O
  O50      1.0000 0.80226  0.60952  0.04401  Biso   1.000  O
  H97      1.0000 0.80100  0.52112  0.84918  Biso   1.000  H
  N55      1.0000 0.60931  0.64172  0.06217  Biso   1.000  N
  N56      1.0000 0.60932  0.64170  0.06222  Biso   1.000  N
  H98      1.0000 0.39917  0.53371  0.04289  Biso   1.000  H
  H99      1.0000 0.39918  0.53369  0.04294  Biso   1.000  H
  H100     1.0000 0.39915  0.53376  0.04294  Biso   1.000  H
  H101     1.0000 0.84152  0.48240  0.97188  Biso   1.000  H
  H102     1.0000 0.84160  0.48240  0.97188  Biso   1.000  H
  O51      1.0000 0.57671  0.33455  0.90513  Biso   1.000  O
  C163     1.0000 0.46665  0.34506  0.88917  Biso   1.000  C
  C164     1.0000 0.61386  0.31853  0.97657  Biso   1.000  C
  C165     1.0000 0.61382  0.31860  0.97657  Biso   1.000  C
  C166     1.0000 0.61390  0.31860  0.97657  Biso   1.000  C
  N57      1.0000 0.44978  0.34152  0.82467  Biso   1.000  N
  N58      1.0000 0.44976  0.34157  0.82472  Biso   1.000  N
  N59      1.0000 0.44975  0.34160  0.82467  Biso   1.000  N
  O52      1.0000 0.57663  0.33455  0.90513  Biso   1.000  O
  N60      1.0000 0.39067  0.35831  0.93781  Biso   1.000  N
  O53      1.0000 0.57672  0.33453  0.90519  Biso   1.000  O
  N61      1.0000 0.39063  0.35839  0.93781  Biso   1.000  N
  O54      1.0000 0.57668  0.33460  0.90519  Biso   1.000  O
  N62      1.0000 0.39071  0.35839  0.93781  Biso   1.000  N
  C167     1.0000 0.62325  0.40012  0.99238  Biso   1.000  C
  C168     1.0000 0.62329  0.40020  0.99238  Biso   1.000  C
  C169     1.0000 0.62333  0.40012  0.99238  Biso   1.000  C
  C170     1.0000 0.64852  0.22199  0.02532  Biso   1.000  C
  C171     1.0000 0.64860  0.22199  0.02532  Biso   1.000  C
  C172     1.0000 0.33845  0.35784  0.80865  Biso   1.000  C
  C173     1.0000 0.33846  0.35781  0.80870  Biso   1.000  C
  C174     1.0000 0.33851  0.35789  0.80870  Biso   1.000  C
  C175     1.0000 0.28439  0.37254  0.91325  Biso   1.000  C
  C176     1.0000 0.28440  0.37252  0.91330  Biso   1.000  C
  C177     1.0000 0.28436  0.37259  0.91330  Biso   1.000  C
  H103     1.0000 0.60080  0.46633  0.95709  Biso   1.000  H
  H104     1.0000 0.60088  0.46633  0.95709  Biso   1.000  H
  C178     1.0000 0.66667  0.38226  0.06152  Biso   1.000  C
  C179     1.0000 0.66675  0.38226  0.06152  Biso   1.000  C
  C180     1.0000 0.69096  0.20724  0.09351  Biso   1.000  C
  H105     1.0000 0.64361  0.16642  0.01272  Biso   1.000  H
  C181     1.0000 0.69093  0.20732  0.09351  Biso   1.000  C
  H106     1.0000 0.64362  0.16640  0.01278  Biso   1.000  H
  C182     1.0000 0.69101  0.20732  0.09351  Biso   1.000  C
  O55      1.0000 0.32124  0.35516  0.74244  Biso   1.000  O
  O56      1.0000 0.32132  0.35516  0.74244  Biso   1.000  O
  N63      1.0000 0.25087  0.37578  0.84870  Biso   1.000  N
  N64      1.0000 0.25088  0.37575  0.84875  Biso   1.000  N
  O57      1.0000 0.19776  0.39059  0.95596  Biso   1.000  O
  O58      1.0000 0.19780  0.39052  0.95596  Biso   1.000  O
  C183     1.0000 0.69947  0.28608  0.11241  Biso   1.000  C
  H107     1.0000 0.67371  0.43727  0.07375  Biso   1.000  H
  H108     1.0000 0.67372  0.43724  0.07381  Biso   1.000  H
  H109     1.0000 0.67369  0.43732  0.07381  Biso   1.000  H
  O59      1.0000 0.73524  0.10599  0.14300  Biso   1.000  O
  C184     1.0000 0.21529  0.34940  0.72189  Biso   1.000  C
  C185     1.0000 0.21526  0.34947  0.72189  Biso   1.000  C
  C186     1.0000 0.22947  0.36655  0.02970  Biso   1.000  C
  C187     1.0000 0.22944  0.36660  0.02976  Biso   1.000  C
  C188     1.0000 0.22952  0.36660  0.02976  Biso   1.000  C
  H110     1.0000 0.72753  0.27468  0.15988  Biso   1.000  H
  H111     1.0000 0.72761  0.27468  0.15988  Biso   1.000  H
  C189     1.0000 0.65835  0.06698  0.17184  Biso   1.000  C
  C190     1.0000 0.22338  0.24123  0.75205  Biso   1.000  C
  C191     1.0000 0.22336  0.24128  0.75211  Biso   1.000  C
  H112     1.0000 0.14730  0.39768  0.73908  Biso   1.000  H
  H113     1.0000 0.20161  0.37167  0.66913  Biso   1.000  H
  H114     1.0000 0.14726  0.39775  0.73908  Biso   1.000  H
  H115     1.0000 0.20162  0.37164  0.66919  Biso   1.000  H
  H116     1.0000 0.20170  0.37164  0.66919  Biso   1.000  H
  C192     1.0000 0.28520  0.26367  0.07130  Biso   1.000  C
  C193     1.0000 0.19699  0.44713  0.05789  Biso   1.000  C
  C194     1.0000 0.28521  0.26364  0.07135  Biso   1.000  C
  C195     1.0000 0.19696  0.44718  0.05795  Biso   1.000  C
  C196     1.0000 0.19695  0.44721  0.05789  Biso   1.000  C
  C197     1.0000 0.28518  0.26372  0.07135  Biso   1.000  C
  C198     1.0000 0.19704  0.44718  0.05795  Biso   1.000  C
  N65      1.0000 0.70839  0.96680  0.20900  Biso   1.000  N
  N66      1.0000 0.70848  0.96677  0.20905  Biso   1.000  N
  N67      1.0000 0.70847  0.96680  0.20900  Biso   1.000  N
  N68      1.0000 0.54438  0.13089  0.16094  Biso   1.000  N
  N69      1.0000 0.54439  0.13086  0.16100  Biso   1.000  N
  O60      1.0000 0.33160  0.17243  0.73032  Biso   1.000  O
  O61      1.0000 0.33157  0.17248  0.73038  Biso   1.000  O
  H117     1.0000 0.15364  0.23654  0.73321  Biso   1.000  H
  H118     1.0000 0.22684  0.22106  0.80475  Biso   1.000  H
  H119     1.0000 0.22680  0.22113  0.80475  Biso   1.000  H
  H120     1.0000 0.22688  0.22113  0.80475  Biso   1.000  H
  H121     1.0000 0.30611  0.20856  0.05122  Biso   1.000  H
  C199     1.0000 0.30936  0.24379  0.14322  Biso   1.000  C
  C200     1.0000 0.22119  0.42395  0.13040  Biso   1.000  C
  H122     1.0000 0.15858  0.51756  0.02810  Biso   1.000  H
  C201     1.0000 0.22117  0.42400  0.13046  Biso   1.000  C
  H123     1.0000 0.15855  0.51761  0.02815  Biso   1.000  H
  H124     1.0000 0.15854  0.51763  0.02810  Biso   1.000  H
  C202     1.0000 0.63056  0.92997  0.23500  Biso   1.000  C
  C203     1.0000 0.63054  0.93002  0.23506  Biso   1.000  C
  C204     1.0000 0.47802  0.08341  0.19271  Biso   1.000  C
  C205     1.0000 0.47810  0.08341  0.19271  Biso   1.000  C
  C206     1.0000 0.36942  0.07006  0.76497  Biso   1.000  C
  C207     1.0000 0.36950  0.07006  0.76497  Biso   1.000  C
  O62      1.0000 0.35973  0.13818  0.18753  Biso   1.000  O
  C208     1.0000 0.27758  0.32105  0.17381  Biso   1.000  C
  O63      1.0000 0.35978  0.13823  0.18759  Biso   1.000  O
  C209     1.0000 0.27755  0.32112  0.17381  Biso   1.000  C
  O64      1.0000 0.35981  0.13818  0.18753  Biso   1.000  O
  H125     1.0000 0.19910  0.47884  0.15080  Biso   1.000  H
  H126     1.0000 0.19915  0.47889  0.15085  Biso   1.000  H
  H127     1.0000 0.19918  0.47884  0.15080  Biso   1.000  H
  O65      1.0000 0.66838  0.82760  0.26965  Biso   1.000  O
  O66      1.0000 0.66846  0.82760  0.26965  Biso   1.000  O
  N70      1.0000 0.51340  0.98318  0.23030  Biso   1.000  N
  N71      1.0000 0.51348  0.98318  0.23030  Biso   1.000  N
  N72      1.0000 0.29159  0.03324  0.79098  Biso   1.000  N
  N73      1.0000 0.48658  0.01686  0.76967  Biso   1.000  N
  N74      1.0000 0.48659  0.01683  0.76973  Biso   1.000  N
  N75      1.0000 0.29155  0.03331  0.79098  Biso   1.000  N
  H128     1.0000 0.29363  0.30492  0.22384  Biso   1.000  H
  H129     1.0000 0.29359  0.30499  0.22384  Biso   1.000  H
  C210     1.0000 0.77659  0.75881  0.24792  Biso   1.000  C
  C211     1.0000 0.77667  0.75881  0.24792  Biso   1.000  C
  C212     1.0000 0.34175  0.93298  0.82814  Biso   1.000  C
  C213     1.0000 0.34172  0.93303  0.82819  Biso   1.000  C
  C214     1.0000 0.52208  0.91655  0.80726  Biso   1.000  C
  C215     1.0000 0.52204  0.91662  0.80726  Biso   1.000  C
  C216     1.0000 0.78469  0.65064  0.27809  Biso   1.000  C
  C217     1.0000 0.78470  0.65062  0.27814  Biso   1.000  C
  H130     1.0000 0.77314  0.77898  0.19522  Biso   1.000  H
  H131     1.0000 0.84634  0.76350  0.26677  Biso   1.000  H
  H132     1.0000 0.77315  0.77895  0.19528  Biso   1.000  H
  H133     1.0000 0.84631  0.76355  0.26682  Biso   1.000  H
  O67      1.0000 0.26485  0.89397  0.85697  Biso   1.000  O
  N76      1.0000 0.45571  0.86908  0.83903  Biso   1.000  N
  O68      1.0000 0.26483  0.89402  0.85703  Biso   1.000  O
  N77      1.0000 0.45579  0.86908  0.83903  Biso   1.000  N
  N78      1.0000 0.45576  0.86915  0.83903  Biso   1.000  N
  O69      1.0000 0.64037  0.86179  0.81244  Biso   1.000  O
  O70      1.0000 0.67874  0.64488  0.25753  Biso   1.000  O
  O71      1.0000 0.67871  0.64493  0.25759  Biso   1.000  O
  O72      1.0000 0.67870  0.64495  0.25753  Biso   1.000  O
  H134     1.0000 0.85268  0.60236  0.26090  Biso   1.000  H
  H135     1.0000 0.79837  0.62837  0.33084  Biso   1.000  H
  H136     1.0000 0.85277  0.60234  0.26095  Biso   1.000  H
  H137     1.0000 0.79833  0.62844  0.33084  Biso   1.000  H
  H138     1.0000 0.85276  0.60236  0.26090  Biso   1.000  H
  C218     1.0000 0.30913  0.79272  0.90647  Biso   1.000  C
  C219     1.0000 0.69073  0.75617  0.85676  Biso   1.000  C
  C220     1.0000 0.69070  0.75624  0.85676  Biso   1.000  C
  C221     1.0000 0.66153  0.64220  0.19133  Biso   1.000  C
  C222     1.0000 0.30063  0.71388  0.88757  Biso   1.000  C
  C223     1.0000 0.35158  0.77797  0.97465  Biso   1.000  C
  C224     1.0000 0.35155  0.77802  0.97471  Biso   1.000  C
  C225     1.0000 0.35154  0.77804  0.97465  Biso   1.000  C
  C226     1.0000 0.30059  0.71396  0.88757  Biso   1.000  C
  C227     1.0000 0.71489  0.73630  0.92868  Biso   1.000  C
  C228     1.0000 0.72251  0.67891  0.82616  Biso   1.000  C
  C229     1.0000 0.71497  0.73630  0.92868  Biso   1.000  C
  N79      1.0000 0.55020  0.65851  0.17531  Biso   1.000  N
  N80      1.0000 0.74911  0.62426  0.15128  Biso   1.000  N
  N81      1.0000 0.74907  0.62434  0.15128  Biso   1.000  N
  N82      1.0000 0.74915  0.62434  0.15128  Biso   1.000  N
  H139     1.0000 0.27257  0.72528  0.84010  Biso   1.000  H
  C230     1.0000 0.33343  0.61770  0.93845  Biso   1.000  C
  H140     1.0000 0.27258  0.72526  0.84015  Biso   1.000  H
  C231     1.0000 0.33344  0.61768  0.93851  Biso   1.000  C
  C232     1.0000 0.33340  0.61775  0.93851  Biso   1.000  C
  H141     1.0000 0.35649  0.83354  0.98725  Biso   1.000  H
  H142     1.0000 0.35645  0.83362  0.98725  Biso   1.000  H
  H143     1.0000 0.35653  0.83362  0.98725  Biso   1.000  H
  C233     1.0000 0.38612  0.68151  0.02340  Biso   1.000  C
  C234     1.0000 0.38613  0.68149  0.02345  Biso   1.000  C
  C235     1.0000 0.77063  0.63341  0.97027  Biso   1.000  C
  H144     1.0000 0.69399  0.79140  0.94876  Biso   1.000  H
  H145     1.0000 0.70647  0.69505  0.77613  Biso   1.000  H
  C236     1.0000 0.77890  0.57601  0.86957  Biso   1.000  C
  H146     1.0000 0.70655  0.69505  0.77613  Biso   1.000  H
  C237     1.0000 0.53333  0.65498  0.11081  Biso   1.000  C
  C238     1.0000 0.53329  0.65505  0.11081  Biso   1.000  C
  C239     1.0000 0.71559  0.62749  0.08673  Biso   1.000  C
  C240     1.0000 0.71567  0.62749  0.08673  Biso   1.000  C
  H147     1.0000 0.32638  0.56270  0.92622  Biso   1.000  H
  C241     1.0000 0.37673  0.59992  0.00760  Biso   1.000  C
  C242     1.0000 0.37674  0.59989  0.00765  Biso   1.000  C
  O73      1.0000 0.42335  0.66549  0.09484  Biso   1.000  O
  C243     1.0000 0.80311  0.55283  0.94208  Biso   1.000  C
  O74      1.0000 0.80218  0.60952  0.04401  Biso   1.000  O
  O75      1.0000 0.80226  0.60952  0.04401  Biso   1.000  O
  H148     1.0000 0.80100  0.52112  0.84918  Biso   1.000  H
  N83      1.0000 0.60931  0.64172  0.06217  Biso   1.000  N
  N84      1.0000 0.60932  0.64170  0.06222  Biso   1.000  N
  H149     1.0000 0.39917  0.53371  0.04289  Biso   1.000  H
  H150     1.0000 0.39918  0.53369  0.04294  Biso   1.000  H
  H151     1.0000 0.39915  0.53376  0.04294  Biso   1.000  H
  H152     1.0000 0.84152  0.48240  0.97188  Biso   1.000  H
  H153     1.0000 0.84160  0.48240  0.97188  Biso   1.000  H
  O76      1.0000 0.57671  0.33455  0.90513  Biso   1.000  O
  C244     1.0000 0.46665  0.34506  0.88917  Biso   1.000  C
  C245     1.0000 0.61386  0.31853  0.97657  Biso   1.000  C
  C246     1.0000 0.61382  0.31860  0.97657  Biso   1.000  C
  C247     1.0000 0.61390  0.31860  0.97657  Biso   1.000  C
  O77      1.0000 0.57663  0.33455  0.90513  Biso   1.000  O
  N85      1.0000 0.39067  0.35831  0.93781  Biso   1.000  N
  N86      1.0000 0.44978  0.34152  0.82467  Biso   1.000  N
  O78      1.0000 0.57672  0.33453  0.90519  Biso   1.000  O
  N87      1.0000 0.39063  0.35839  0.93781  Biso   1.000  N
  N88      1.0000 0.44976  0.34157  0.82472  Biso   1.000  N
  N89      1.0000 0.44975  0.34160  0.82467  Biso   1.000  N
  O79      1.0000 0.57668  0.33460  0.90519  Biso   1.000  O
  N90      1.0000 0.39071  0.35839  0.93781  Biso   1.000  N
  C248     1.0000 0.62325  0.40012  0.99238  Biso   1.000  C
  C249     1.0000 0.62329  0.40020  0.99238  Biso   1.000  C
  C250     1.0000 0.62333  0.40012  0.99238  Biso   1.000  C
  C251     1.0000 0.64852  0.22199  0.02532  Biso   1.000  C
  C252     1.0000 0.64860  0.22199  0.02532  Biso   1.000  C
  C253     1.0000 0.28439  0.37254  0.91325  Biso   1.000  C
  C254     1.0000 0.28440  0.37252  0.91330  Biso   1.000  C
  C255     1.0000 0.28436  0.37259  0.91330  Biso   1.000  C
  C256     1.0000 0.33845  0.35784  0.80865  Biso   1.000  C
  C257     1.0000 0.33846  0.35781  0.80870  Biso   1.000  C
  C258     1.0000 0.33851  0.35789  0.80870  Biso   1.000  C
  H154     1.0000 0.60080  0.46633  0.95709  Biso   1.000  H
  H155     1.0000 0.60088  0.46633  0.95709  Biso   1.000  H
  C259     1.0000 0.66667  0.38226  0.06152  Biso   1.000  C
  C260     1.0000 0.66675  0.38226  0.06152  Biso   1.000  C
  C261     1.0000 0.69096  0.20724  0.09351  Biso   1.000  C
  H156     1.0000 0.64361  0.16642  0.01272  Biso   1.000  H
  C262     1.0000 0.69093  0.20732  0.09351  Biso   1.000  C
  H157     1.0000 0.64362  0.16640  0.01278  Biso   1.000  H
  C263     1.0000 0.69101  0.20732  0.09351  Biso   1.000  C
  O80      1.0000 0.19780  0.39052  0.95596  Biso   1.000  O
  N91      1.0000 0.25087  0.37578  0.84870  Biso   1.000  N
  O81      1.0000 0.19776  0.39059  0.95596  Biso   1.000  O
  N92      1.0000 0.25088  0.37575  0.84875  Biso   1.000  N
  O82      1.0000 0.32124  0.35516  0.74244  Biso   1.000  O
  O83      1.0000 0.32132  0.35516  0.74244  Biso   1.000  O
  C264     1.0000 0.69947  0.28608  0.11241  Biso   1.000  C
  H158     1.0000 0.67371  0.43727  0.07375  Biso   1.000  H
  H159     1.0000 0.67372  0.43724  0.07381  Biso   1.000  H
  H160     1.0000 0.67369  0.43732  0.07381  Biso   1.000  H
  O84      1.0000 0.73524  0.10599  0.14300  Biso   1.000  O
  C265     1.0000 0.22947  0.36655  0.02970  Biso   1.000  C
  C266     1.0000 0.22944  0.36660  0.02976  Biso   1.000  C
  C267     1.0000 0.22952  0.36660  0.02976  Biso   1.000  C
  C268     1.0000 0.21529  0.34940  0.72189  Biso   1.000  C
  C269     1.0000 0.21526  0.34947  0.72189  Biso   1.000  C
  H161     1.0000 0.72753  0.27468  0.15988  Biso   1.000  H
  H162     1.0000 0.72761  0.27468  0.15988  Biso   1.000  H
  C270     1.0000 0.65835  0.06698  0.17184  Biso   1.000  C
  C271     1.0000 0.28520  0.26367  0.07130  Biso   1.000  C
  C272     1.0000 0.19699  0.44713  0.05789  Biso   1.000  C
  C273     1.0000 0.28521  0.26364  0.07135  Biso   1.000  C
  C274     1.0000 0.19696  0.44718  0.05795  Biso   1.000  C
  C275     1.0000 0.19695  0.44721  0.05789  Biso   1.000  C
  C276     1.0000 0.28518  0.26372  0.07135  Biso   1.000  C
  C277     1.0000 0.19704  0.44718  0.05795  Biso   1.000  C
  C278     1.0000 0.22338  0.24123  0.75205  Biso   1.000  C
  H163     1.0000 0.14730  0.39768  0.73908  Biso   1.000  H
  H164     1.0000 0.20161  0.37167  0.66913  Biso   1.000  H
  C279     1.0000 0.22336  0.24128  0.75211  Biso   1.000  C
  H165     1.0000 0.14726  0.39775  0.73908  Biso   1.000  H
  H166     1.0000 0.20162  0.37164  0.66919  Biso   1.000  H
  H167     1.0000 0.20170  0.37164  0.66919  Biso   1.000  H
  N93      1.0000 0.70839  0.96680  0.20900  Biso   1.000  N
  N94      1.0000 0.70848  0.96677  0.20905  Biso   1.000  N
  N95      1.0000 0.70847  0.96680  0.20900  Biso   1.000  N
  N96      1.0000 0.54438  0.13089  0.16094  Biso   1.000  N
  N97      1.0000 0.54439  0.13086  0.16100  Biso   1.000  N
  H168     1.0000 0.30611  0.20856  0.05122  Biso   1.000  H
  C280     1.0000 0.30936  0.24379  0.14322  Biso   1.000  C
  C281     1.0000 0.22119  0.42395  0.13040  Biso   1.000  C
  H169     1.0000 0.15858  0.51756  0.02810  Biso   1.000  H
  C282     1.0000 0.22117  0.42400  0.13046  Biso   1.000  C
  H170     1.0000 0.15855  0.51761  0.02815  Biso   1.000  H
  H171     1.0000 0.15854  0.51763  0.02810  Biso   1.000  H
  H172     1.0000 0.15364  0.23654  0.73321  Biso   1.000  H
  O85      1.0000 0.33160  0.17243  0.73032  Biso   1.000  O
  H173     1.0000 0.22684  0.22106  0.80475  Biso   1.000  H
  O86      1.0000 0.33157  0.17248  0.73038  Biso   1.000  O
  H174     1.0000 0.22680  0.22113  0.80475  Biso   1.000  H
  H175     1.0000 0.22688  0.22113  0.80475  Biso   1.000  H
  C283     1.0000 0.63056  0.92997  0.23500  Biso   1.000  C
  C284     1.0000 0.63054  0.93002  0.23506  Biso   1.000  C
  C285     1.0000 0.47802  0.08341  0.19271  Biso   1.000  C
  C286     1.0000 0.47810  0.08341  0.19271  Biso   1.000  C
  O87      1.0000 0.35973  0.13818  0.18753  Biso   1.000  O
  C287     1.0000 0.27758  0.32105  0.17381  Biso   1.000  C
  O88      1.0000 0.35978  0.13823  0.18759  Biso   1.000  O
  C288     1.0000 0.27755  0.32112  0.17381  Biso   1.000  C
  O89      1.0000 0.35981  0.13818  0.18753  Biso   1.000  O
  H176     1.0000 0.19910  0.47884  0.15080  Biso   1.000  H
  H177     1.0000 0.19915  0.47889  0.15085  Biso   1.000  H
  H178     1.0000 0.19918  0.47884  0.15080  Biso   1.000  H
  C289     1.0000 0.36942  0.07006  0.76497  Biso   1.000  C
  C290     1.0000 0.36950  0.07006  0.76497  Biso   1.000  C
  O90      1.0000 0.66838  0.82760  0.26965  Biso   1.000  O
  N98      1.0000 0.51340  0.98318  0.23030  Biso   1.000  N
  O91      1.0000 0.66846  0.82760  0.26965  Biso   1.000  O
  N99      1.0000 0.51348  0.98318  0.23030  Biso   1.000  N
  H179     1.0000 0.29363  0.30492  0.22384  Biso   1.000  H
  H180     1.0000 0.29359  0.30499  0.22384  Biso   1.000  H
  N100     1.0000 0.48658  0.01686  0.76967  Biso   1.000  N
  N101     1.0000 0.29159  0.03324  0.79098  Biso   1.000  N
  N102     1.0000 0.48659  0.01683  0.76973  Biso   1.000  N
  N103     1.0000 0.29155  0.03331  0.79098  Biso   1.000  N
  C291     1.0000 0.77659  0.75881  0.24792  Biso   1.000  C
  C292     1.0000 0.77667  0.75881  0.24792  Biso   1.000  C
  C293     1.0000 0.52208  0.91655  0.80726  Biso   1.000  C
  C294     1.0000 0.52204  0.91662  0.80726  Biso   1.000  C
  C295     1.0000 0.34175  0.93298  0.82814  Biso   1.000  C
  C296     1.0000 0.34172  0.93303  0.82819  Biso   1.000  C
  C297     1.0000 0.78469  0.65064  0.27809  Biso   1.000  C
  H181     1.0000 0.77314  0.77898  0.19522  Biso   1.000  H
  H182     1.0000 0.84634  0.76350  0.26677  Biso   1.000  H
  C298     1.0000 0.78470  0.65062  0.27814  Biso   1.000  C
  H183     1.0000 0.77315  0.77895  0.19528  Biso   1.000  H
  H184     1.0000 0.84631  0.76355  0.26682  Biso   1.000  H
  O92      1.0000 0.64037  0.86179  0.81244  Biso   1.000  O
  N104     1.0000 0.45571  0.86908  0.83903  Biso   1.000  N
  N105     1.0000 0.45579  0.86908  0.83903  Biso   1.000  N
  N106     1.0000 0.45576  0.86915  0.83903  Biso   1.000  N
  O93      1.0000 0.26485  0.89397  0.85697  Biso   1.000  O
  O94      1.0000 0.26483  0.89402  0.85703  Biso   1.000  O
  O95      1.0000 0.67874  0.64488  0.25753  Biso   1.000  O
  H185     1.0000 0.85268  0.60236  0.26090  Biso   1.000  H
  H186     1.0000 0.79837  0.62837  0.33084  Biso   1.000  H
  O96      1.0000 0.67871  0.64493  0.25759  Biso   1.000  O
  H187     1.0000 0.85277  0.60234  0.26095  Biso   1.000  H
  H188     1.0000 0.79833  0.62844  0.33084  Biso   1.000  H
  O97      1.0000 0.67870  0.64495  0.25753  Biso   1.000  O
  H189     1.0000 0.85276  0.60236  0.26090  Biso   1.000  H
  C299     1.0000 0.69073  0.75617  0.85676  Biso   1.000  C
  C300     1.0000 0.69070  0.75624  0.85676  Biso   1.000  C
  C301     1.0000 0.30913  0.79272  0.90647  Biso   1.000  C
  C302     1.0000 0.66153  0.64220  0.19133  Biso   1.000  C
  C303     1.0000 0.71489  0.73630  0.92868  Biso   1.000  C
  C304     1.0000 0.72251  0.67891  0.82616  Biso   1.000  C
  C305     1.0000 0.71497  0.73630  0.92868  Biso   1.000  C
  C306     1.0000 0.30063  0.71388  0.88757  Biso   1.000  C
  C307     1.0000 0.35158  0.77797  0.97465  Biso   1.000  C
  C308     1.0000 0.35155  0.77802  0.97471  Biso   1.000  C
  C309     1.0000 0.35154  0.77804  0.97465  Biso   1.000  C
  C310     1.0000 0.30059  0.71396  0.88757  Biso   1.000  C
  N107     1.0000 0.55020  0.65851  0.17531  Biso   1.000  N
  N108     1.0000 0.74911  0.62426  0.15128  Biso   1.000  N
  N109     1.0000 0.74907  0.62434  0.15128  Biso   1.000  N
  N110     1.0000 0.74915  0.62434  0.15128  Biso   1.000  N
  C311     1.0000 0.77063  0.63341  0.97027  Biso   1.000  C
  H190     1.0000 0.69399  0.79140  0.94876  Biso   1.000  H
  H191     1.0000 0.70647  0.69505  0.77613  Biso   1.000  H
  C312     1.0000 0.77890  0.57601  0.86957  Biso   1.000  C
  H192     1.0000 0.70655  0.69505  0.77613  Biso   1.000  H
  H193     1.0000 0.27257  0.72528  0.84010  Biso   1.000  H
  C313     1.0000 0.33343  0.61770  0.93845  Biso   1.000  C
  H194     1.0000 0.27258  0.72526  0.84015  Biso   1.000  H
  C314     1.0000 0.33344  0.61768  0.93851  Biso   1.000  C
  C315     1.0000 0.33340  0.61775  0.93851  Biso   1.000  C
  H195     1.0000 0.35649  0.83354  0.98725  Biso   1.000  H
  H196     1.0000 0.35645  0.83362  0.98725  Biso   1.000  H
  H197     1.0000 0.35653  0.83362  0.98725  Biso   1.000  H
  C316     1.0000 0.38612  0.68151  0.02340  Biso   1.000  C
  C317     1.0000 0.38613  0.68149  0.02345  Biso   1.000  C
  C318     1.0000 0.53333  0.65498  0.11081  Biso   1.000  C
  C319     1.0000 0.53329  0.65505  0.11081  Biso   1.000  C
  C320     1.0000 0.71559  0.62749  0.08673  Biso   1.000  C
  C321     1.0000 0.71567  0.62749  0.08673  Biso   1.000  C
  C322     1.0000 0.80311  0.55283  0.94208  Biso   1.000  C
  O98      1.0000 0.80218  0.60952  0.04401  Biso   1.000  O
  O99      1.0000 0.80226  0.60952  0.04401  Biso   1.000  O
  H198     1.0000 0.80100  0.52112  0.84918  Biso   1.000  H
  H199     1.0000 0.32638  0.56270  0.92622  Biso   1.000  H
  C323     1.0000 0.37673  0.59992  0.00760  Biso   1.000  C
  C324     1.0000 0.37674  0.59989  0.00765  Biso   1.000  C
  O100     1.0000 0.42335  0.66549  0.09484  Biso   1.000  O
  N111     1.0000 0.60931  0.64172  0.06217  Biso   1.000  N
  N112     1.0000 0.60932  0.64170  0.06222  Biso   1.000  N
  H200     1.0000 0.84152  0.48240  0.97188  Biso   1.000  H
  H201     1.0000 0.84160  0.48240  0.97188  Biso   1.000  H
  H202     1.0000 0.39917  0.53371  0.04289  Biso   1.000  H
  H203     1.0000 0.39918  0.53369  0.04294  Biso   1.000  H
  H204     1.0000 0.39915  0.53376  0.04294  Biso   1.000  H
  O101     1.0000 0.97393  0.65831  0.69508  Biso   1.000  O
  C325     1.0000 0.05078  0.63404  0.64719  Biso   1.000  C
  C326     1.0000 0.99948  0.69990  0.74559  Biso   1.000  C
  C327     1.0000 0.99952  0.69998  0.74559  Biso   1.000  C
  N113     1.0000 0.00383  0.62653  0.59070  Biso   1.000  N
  N114     1.0000 0.16138  0.61886  0.66187  Biso   1.000  N
  C328     1.0000 0.99751  0.79745  0.72210  Biso   1.000  C
  C329     1.0000 0.01285  0.64465  0.81629  Biso   1.000  C
  C330     1.0000 0.01293  0.64465  0.81629  Biso   1.000  C
  C331     1.0000 0.08261  0.59931  0.54601  Biso   1.000  C
  C332     1.0000 0.22879  0.58833  0.61259  Biso   1.000  C
  H205     1.0000 0.98873  0.83388  0.67255  Biso   1.000  H
  C333     1.0000 0.00862  0.84094  0.77218  Biso   1.000  C
  C334     1.0000 0.02160  0.69148  0.86509  Biso   1.000  C
  H206     1.0000 0.01608  0.57614  0.83108  Biso   1.000  H
  O102     1.0000 0.04657  0.59662  0.48354  Biso   1.000  O
  O103     1.0000 0.04665  0.59662  0.48354  Biso   1.000  O
  N115     1.0000 0.19754  0.57472  0.55407  Biso   1.000  N
  O104     1.0000 0.34511  0.56641  0.62193  Biso   1.000  O
  O105     1.0000 0.99472  0.94556  0.75136  Biso   1.000  O
  C335     1.0000 0.01840  0.79002  0.84426  Biso   1.000  C
  H207     1.0000 0.03000  0.65484  0.91458  Biso   1.000  H
  C336     1.0000 0.92126  0.63974  0.46207  Biso   1.000  C
  C337     1.0000 0.92134  0.63974  0.46207  Biso   1.000  C
  C338     1.0000 0.37791  0.61536  0.66337  Biso   1.000  C
  C339     1.0000 0.07161  0.97393  0.71099  Biso   1.000  C
  H208     1.0000 0.02274  0.82231  0.87854  Biso   1.000  H
  C340     1.0000 0.86392  0.75668  0.44087  Biso   1.000  C
  H209     1.0000 0.90879  0.61772  0.42138  Biso   1.000  H
  H210     1.0000 0.88289  0.61115  0.50212  Biso   1.000  H
  C341     1.0000 0.86388  0.75676  0.44087  Biso   1.000  C
  C342     1.0000 0.45776  0.55485  0.72290  Biso   1.000  C
  C343     1.0000 0.33708  0.72253  0.63971  Biso   1.000  C
  N116     1.0000 0.17239  0.89995  0.70266  Biso   1.000  N
  N117     1.0000 0.03383  0.07631  0.68488  Biso   1.000  N
  O106     1.0000 0.92713  0.79322  0.38417  Biso   1.000  O
  H211     1.0000 0.77956  0.78366  0.42373  Biso   1.000  H
  H212     1.0000 0.86989  0.78051  0.48199  Biso   1.000  H
  H213     1.0000 0.86997  0.78051  0.48199  Biso   1.000  H
  H214     1.0000 0.48597  0.48108  0.73785  Biso   1.000  H
  C344     1.0000 0.49657  0.60245  0.76081  Biso   1.000  C
  H215     1.0000 0.48605  0.48108  0.73785  Biso   1.000  H
  C345     1.0000 0.37854  0.76709  0.67810  Biso   1.000  C
  H216     1.0000 0.28231  0.76389  0.59817  Biso   1.000  H
  C346     1.0000 0.23824  0.94044  0.66187  Biso   1.000  C
  C347     1.0000 0.10893  0.10398  0.64377  Biso   1.000  C
  C348     1.0000 0.89104  0.89608  0.35619  Biso   1.000  C
  H217     1.0000 0.55054  0.56141  0.80262  Biso   1.000  H
  C349     1.0000 0.45716  0.70975  0.73817  Biso   1.000  C
  H218     1.0000 0.55062  0.56141  0.80262  Biso   1.000  H
  C350     1.0000 0.45724  0.70975  0.73817  Biso   1.000  C
  O107     1.0000 0.34636  0.87601  0.65178  Biso   1.000  O
  N118     1.0000 0.21370  0.04100  0.62989  Biso   1.000  N
  N119     1.0000 0.21378  0.04100  0.62989  Biso   1.000  N
  O108     1.0000 0.07280  0.20692  0.61579  Biso   1.000  O
  N120     1.0000 0.78628  0.95907  0.37007  Biso   1.000  N
  N121     1.0000 0.96610  0.92383  0.31508  Biso   1.000  N
  N122     1.0000 0.78624  0.95914  0.37007  Biso   1.000  N
  N123     1.0000 0.96618  0.92383  0.31508  Biso   1.000  N
  H219     1.0000 0.48418  0.74295  0.76385  Biso   1.000  H
  H220     1.0000 0.48426  0.74295  0.76385  Biso   1.000  H
  C351     1.0000 0.13605  0.24338  0.55909  Biso   1.000  C
  C352     1.0000 0.76169  0.05969  0.33809  Biso   1.000  C
  C353     1.0000 0.76177  0.05969  0.33809  Biso   1.000  C
  C354     1.0000 0.92834  0.02618  0.28902  Biso   1.000  C
  C355     1.0000 0.07867  0.36040  0.53789  Biso   1.000  C
  H221     1.0000 0.22050  0.21638  0.57628  Biso   1.000  H
  H222     1.0000 0.13009  0.21953  0.51803  Biso   1.000  H
  H223     1.0000 0.22047  0.21645  0.57628  Biso   1.000  H
  O109     1.0000 0.65370  0.12402  0.34824  Biso   1.000  O
  N124     1.0000 0.82755  0.10019  0.29730  Biso   1.000  N
  O110     1.0000 0.00522  0.05458  0.24860  Biso   1.000  O
  O111     1.0000 0.95337  0.40349  0.51648  Biso   1.000  O
  H224     1.0000 0.09127  0.38232  0.57863  Biso   1.000  H
  H225     1.0000 0.11712  0.38899  0.49785  Biso   1.000  H
  C356     1.0000 0.62144  0.23295  0.32191  Biso   1.000  C
  C357     1.0000 0.99135  0.15912  0.22778  Biso   1.000  C
  C358     1.0000 0.99140  0.15920  0.22778  Biso   1.000  C
  C359     1.0000 0.91737  0.40073  0.45401  Biso   1.000  C
  C360     1.0000 0.54277  0.29038  0.26179  Biso   1.000  C
  C361     1.0000 0.66286  0.27758  0.36030  Biso   1.000  C
  C362     1.0000 0.98157  0.21004  0.15570  Biso   1.000  C
  C363     1.0000 0.00243  0.20267  0.27792  Biso   1.000  C
  N125     1.0000 0.80251  0.42534  0.44589  Biso   1.000  N
  N126     1.0000 0.99620  0.37358  0.40932  Biso   1.000  N
  C364     1.0000 0.50337  0.39767  0.23920  Biso   1.000  C
  H226     1.0000 0.51579  0.25711  0.23611  Biso   1.000  H
  H227     1.0000 0.51575  0.25719  0.23611  Biso   1.000  H
  C365     1.0000 0.62202  0.38478  0.33660  Biso   1.000  C
  H228     1.0000 0.71766  0.23617  0.40179  Biso   1.000  H
  C366     1.0000 0.62210  0.38478  0.33660  Biso   1.000  C
  H229     1.0000 0.71774  0.23617  0.40179  Biso   1.000  H
  H230     1.0000 0.97720  0.17783  0.12142  Biso   1.000  H
  C367     1.0000 0.97833  0.30866  0.13487  Biso   1.000  C
  C368     1.0000 0.97841  0.30866  0.13487  Biso   1.000  C
  C369     1.0000 0.00050  0.30014  0.25442  Biso   1.000  C
  H231     1.0000 0.01125  0.16616  0.32746  Biso   1.000  H
  C370     1.0000 0.77118  0.41173  0.38737  Biso   1.000  C
  C371     1.0000 0.77114  0.41180  0.38737  Biso   1.000  C
  C372     1.0000 0.94916  0.36610  0.35277  Biso   1.000  C
  C373     1.0000 0.54218  0.44526  0.27711  Biso   1.000  C
  H232     1.0000 0.44940  0.43873  0.19734  Biso   1.000  H
  O112     1.0000 0.65486  0.43365  0.37803  Biso   1.000  O
  H233     1.0000 0.96998  0.34520  0.08543  Biso   1.000  H
  C374     1.0000 0.98709  0.35548  0.18368  Biso   1.000  C
  H234     1.0000 0.97003  0.34527  0.08543  Biso   1.000  H
  O113     1.0000 0.02604  0.34175  0.30488  Biso   1.000  O
  O114     1.0000 0.02612  0.34175  0.30488  Biso   1.000  O
  N127     1.0000 0.83856  0.38128  0.33809  Biso   1.000  N
  H235     1.0000 0.51397  0.51903  0.26216  Biso   1.000  H
  H236     1.0000 0.98389  0.42392  0.16889  Biso   1.000  H
  H237     1.0000 0.98397  0.42392  0.16889  Biso   1.000  H
  O115     1.0000 0.97393  0.65831  0.69508  Biso   1.000  O
  C375     1.0000 0.05078  0.63404  0.64719  Biso   1.000  C
  C376     1.0000 0.99948  0.69990  0.74559  Biso   1.000  C
  C377     1.0000 0.99952  0.69998  0.74559  Biso   1.000  C
  N128     1.0000 0.00383  0.62653  0.59070  Biso   1.000  N
  N129     1.0000 0.16138  0.61886  0.66187  Biso   1.000  N
  C378     1.0000 0.99751  0.79745  0.72210  Biso   1.000  C
  C379     1.0000 0.01285  0.64465  0.81629  Biso   1.000  C
  C380     1.0000 0.01293  0.64465  0.81629  Biso   1.000  C
  C381     1.0000 0.08261  0.59931  0.54601  Biso   1.000  C
  C382     1.0000 0.22879  0.58833  0.61259  Biso   1.000  C
  H238     1.0000 0.98873  0.83388  0.67255  Biso   1.000  H
  C383     1.0000 0.00862  0.84094  0.77218  Biso   1.000  C
  C384     1.0000 0.02160  0.69148  0.86509  Biso   1.000  C
  H239     1.0000 0.01608  0.57614  0.83108  Biso   1.000  H
  O116     1.0000 0.04657  0.59662  0.48354  Biso   1.000  O
  O117     1.0000 0.04665  0.59662  0.48354  Biso   1.000  O
  N130     1.0000 0.19754  0.57472  0.55407  Biso   1.000  N
  O118     1.0000 0.34511  0.56641  0.62193  Biso   1.000  O
  O119     1.0000 0.99472  0.94556  0.75136  Biso   1.000  O
  C385     1.0000 0.01840  0.79002  0.84426  Biso   1.000  C
  H240     1.0000 0.03000  0.65484  0.91458  Biso   1.000  H
  C386     1.0000 0.92126  0.63974  0.46207  Biso   1.000  C
  C387     1.0000 0.92134  0.63974  0.46207  Biso   1.000  C
  C388     1.0000 0.37791  0.61536  0.66337  Biso   1.000  C
  C389     1.0000 0.07161  0.97393  0.71099  Biso   1.000  C
  H241     1.0000 0.02274  0.82231  0.87854  Biso   1.000  H
  H242     1.0000 0.90879  0.61772  0.42138  Biso   1.000  H
  H243     1.0000 0.88289  0.61115  0.50212  Biso   1.000  H
  C390     1.0000 0.86392  0.75668  0.44087  Biso   1.000  C
  C391     1.0000 0.86388  0.75676  0.44087  Biso   1.000  C
  C392     1.0000 0.45776  0.55485  0.72290  Biso   1.000  C
  C393     1.0000 0.33708  0.72253  0.63971  Biso   1.000  C
  N131     1.0000 0.17239  0.89995  0.70266  Biso   1.000  N
  N132     1.0000 0.03383  0.07631  0.68488  Biso   1.000  N
  O120     1.0000 0.92713  0.79322  0.38417  Biso   1.000  O
  H244     1.0000 0.77956  0.78366  0.42373  Biso   1.000  H
  H245     1.0000 0.86989  0.78051  0.48199  Biso   1.000  H
  H246     1.0000 0.86997  0.78051  0.48199  Biso   1.000  H
  H247     1.0000 0.48597  0.48108  0.73785  Biso   1.000  H
  C394     1.0000 0.49657  0.60245  0.76081  Biso   1.000  C
  H248     1.0000 0.48605  0.48108  0.73785  Biso   1.000  H
  C395     1.0000 0.37854  0.76709  0.67810  Biso   1.000  C
  H249     1.0000 0.28231  0.76389  0.59817  Biso   1.000  H
  C396     1.0000 0.23824  0.94044  0.66187  Biso   1.000  C
  C397     1.0000 0.10893  0.10398  0.64377  Biso   1.000  C
  C398     1.0000 0.89104  0.89608  0.35619  Biso   1.000  C
  H250     1.0000 0.55054  0.56141  0.80262  Biso   1.000  H
  C399     1.0000 0.45716  0.70975  0.73817  Biso   1.000  C
  H251     1.0000 0.55062  0.56141  0.80262  Biso   1.000  H
  C400     1.0000 0.45724  0.70975  0.73817  Biso   1.000  C
  O121     1.0000 0.34636  0.87601  0.65178  Biso   1.000  O
  N133     1.0000 0.21370  0.04100  0.62989  Biso   1.000  N
  N134     1.0000 0.21378  0.04100  0.62989  Biso   1.000  N
  O122     1.0000 0.07280  0.20692  0.61579  Biso   1.000  O
  N135     1.0000 0.78628  0.95907  0.37007  Biso   1.000  N
  N136     1.0000 0.96610  0.92383  0.31508  Biso   1.000  N
  N137     1.0000 0.78624  0.95914  0.37007  Biso   1.000  N
  N138     1.0000 0.96618  0.92383  0.31508  Biso   1.000  N
  H252     1.0000 0.48418  0.74295  0.76385  Biso   1.000  H
  H253     1.0000 0.48426  0.74295  0.76385  Biso   1.000  H
  C401     1.0000 0.13605  0.24338  0.55909  Biso   1.000  C
  C402     1.0000 0.76169  0.05969  0.33809  Biso   1.000  C
  C403     1.0000 0.76177  0.05969  0.33809  Biso   1.000  C
  C404     1.0000 0.92834  0.02618  0.28902  Biso   1.000  C
  C405     1.0000 0.07867  0.36040  0.53789  Biso   1.000  C
  H254     1.0000 0.22050  0.21638  0.57628  Biso   1.000  H
  H255     1.0000 0.13009  0.21953  0.51803  Biso   1.000  H
  H256     1.0000 0.22047  0.21645  0.57628  Biso   1.000  H
  O123     1.0000 0.65370  0.12402  0.34824  Biso   1.000  O
  N139     1.0000 0.82755  0.10019  0.29730  Biso   1.000  N
  O124     1.0000 0.00522  0.05458  0.24860  Biso   1.000  O
  O125     1.0000 0.95337  0.40349  0.51648  Biso   1.000  O
  H257     1.0000 0.09127  0.38232  0.57863  Biso   1.000  H
  H258     1.0000 0.11712  0.38899  0.49785  Biso   1.000  H
  C406     1.0000 0.62144  0.23295  0.32191  Biso   1.000  C
  C407     1.0000 0.99135  0.15912  0.22778  Biso   1.000  C
  C408     1.0000 0.99140  0.15920  0.22778  Biso   1.000  C
  C409     1.0000 0.91737  0.40073  0.45401  Biso   1.000  C
  C410     1.0000 0.54277  0.29038  0.26179  Biso   1.000  C
  C411     1.0000 0.66286  0.27758  0.36030  Biso   1.000  C
  C412     1.0000 0.98157  0.21004  0.15570  Biso   1.000  C
  C413     1.0000 0.00243  0.20267  0.27792  Biso   1.000  C
  N140     1.0000 0.80251  0.42534  0.44589  Biso   1.000  N
  N141     1.0000 0.99620  0.37358  0.40932  Biso   1.000  N
  C414     1.0000 0.50337  0.39767  0.23920  Biso   1.000  C
  H259     1.0000 0.51579  0.25711  0.23611  Biso   1.000  H
  H260     1.0000 0.51575  0.25719  0.23611  Biso   1.000  H
  C415     1.0000 0.62202  0.38478  0.33660  Biso   1.000  C
  H261     1.0000 0.71766  0.23617  0.40179  Biso   1.000  H
  C416     1.0000 0.62210  0.38478  0.33660  Biso   1.000  C
  H262     1.0000 0.71774  0.23617  0.40179  Biso   1.000  H
  H263     1.0000 0.97720  0.17783  0.12142  Biso   1.000  H
  C417     1.0000 0.97833  0.30866  0.13487  Biso   1.000  C
  C418     1.0000 0.97841  0.30866  0.13487  Biso   1.000  C
  C419     1.0000 0.00050  0.30014  0.25442  Biso   1.000  C
  H264     1.0000 0.01125  0.16616  0.32746  Biso   1.000  H
  C420     1.0000 0.77118  0.41173  0.38737  Biso   1.000  C
  C421     1.0000 0.77114  0.41180  0.38737  Biso   1.000  C
  C422     1.0000 0.94916  0.36610  0.35277  Biso   1.000  C
  C423     1.0000 0.54218  0.44526  0.27711  Biso   1.000  C
  H265     1.0000 0.44940  0.43873  0.19734  Biso   1.000  H
  O126     1.0000 0.65486  0.43365  0.37803  Biso   1.000  O
  H266     1.0000 0.96998  0.34520  0.08543  Biso   1.000  H
  C424     1.0000 0.98709  0.35548  0.18368  Biso   1.000  C
  H267     1.0000 0.97003  0.34527  0.08543  Biso   1.000  H
  O127     1.0000 0.02604  0.34175  0.30488  Biso   1.000  O
  O128     1.0000 0.02612  0.34175  0.30488  Biso   1.000  O
  N142     1.0000 0.83856  0.38128  0.33809  Biso   1.000  N
  H268     1.0000 0.51397  0.51903  0.26216  Biso   1.000  H
  H269     1.0000 0.98389  0.42392  0.16889  Biso   1.000  H
  H270     1.0000 0.98397  0.42392  0.16889  Biso   1.000  H
  O129     1.0000 0.97393  0.65831  0.69508  Biso   1.000  O
  C425     1.0000 0.05078  0.63404  0.64719  Biso   1.000  C
  C426     1.0000 0.99948  0.69990  0.74559  Biso   1.000  C
  C427     1.0000 0.99952  0.69998  0.74559  Biso   1.000  C
  N143     1.0000 0.00383  0.62653  0.59070  Biso   1.000  N
  N144     1.0000 0.16138  0.61886  0.66187  Biso   1.000  N
  C428     1.0000 0.99751  0.79745  0.72210  Biso   1.000  C
  C429     1.0000 0.01285  0.64465  0.81629  Biso   1.000  C
  C430     1.0000 0.01293  0.64465  0.81629  Biso   1.000  C
  C431     1.0000 0.08261  0.59931  0.54601  Biso   1.000  C
  C432     1.0000 0.22879  0.58833  0.61259  Biso   1.000  C
  H271     1.0000 0.98873  0.83388  0.67255  Biso   1.000  H
  C433     1.0000 0.00862  0.84094  0.77218  Biso   1.000  C
  C434     1.0000 0.02160  0.69148  0.86509  Biso   1.000  C
  H272     1.0000 0.01608  0.57614  0.83108  Biso   1.000  H
  O130     1.0000 0.04657  0.59662  0.48354  Biso   1.000  O
  O131     1.0000 0.04665  0.59662  0.48354  Biso   1.000  O
  N145     1.0000 0.19754  0.57472  0.55407  Biso   1.000  N
  O132     1.0000 0.34511  0.56641  0.62193  Biso   1.000  O
  O133     1.0000 0.99472  0.94556  0.75136  Biso   1.000  O
  C435     1.0000 0.01840  0.79002  0.84426  Biso   1.000  C
  H273     1.0000 0.03000  0.65484  0.91458  Biso   1.000  H
  C436     1.0000 0.92126  0.63974  0.46207  Biso   1.000  C
  C437     1.0000 0.92134  0.63974  0.46207  Biso   1.000  C
  C438     1.0000 0.37791  0.61536  0.66337  Biso   1.000  C
  C439     1.0000 0.07161  0.97393  0.71099  Biso   1.000  C
  H274     1.0000 0.02274  0.82231  0.87854  Biso   1.000  H
  C440     1.0000 0.86392  0.75668  0.44087  Biso   1.000  C
  C441     1.0000 0.86388  0.75676  0.44087  Biso   1.000  C
  H275     1.0000 0.90879  0.61772  0.42138  Biso   1.000  H
  H276     1.0000 0.88289  0.61115  0.50212  Biso   1.000  H
  C442     1.0000 0.45776  0.55485  0.72290  Biso   1.000  C
  C443     1.0000 0.33708  0.72253  0.63971  Biso   1.000  C
  N146     1.0000 0.17239  0.89995  0.70266  Biso   1.000  N
  N147     1.0000 0.03383  0.07631  0.68488  Biso   1.000  N
  O134     1.0000 0.92713  0.79322  0.38417  Biso   1.000  O
  H277     1.0000 0.77956  0.78366  0.42373  Biso   1.000  H
  H278     1.0000 0.86989  0.78051  0.48199  Biso   1.000  H
  H279     1.0000 0.86997  0.78051  0.48199  Biso   1.000  H
  H280     1.0000 0.48597  0.48108  0.73785  Biso   1.000  H
  C444     1.0000 0.49657  0.60245  0.76081  Biso   1.000  C
  H281     1.0000 0.48605  0.48108  0.73785  Biso   1.000  H
  C445     1.0000 0.37854  0.76709  0.67810  Biso   1.000  C
  H282     1.0000 0.28231  0.76389  0.59817  Biso   1.000  H
  C446     1.0000 0.23824  0.94044  0.66187  Biso   1.000  C
  C447     1.0000 0.10893  0.10398  0.64377  Biso   1.000  C
  C448     1.0000 0.89104  0.89608  0.35619  Biso   1.000  C
  H283     1.0000 0.55054  0.56141  0.80262  Biso   1.000  H
  C449     1.0000 0.45716  0.70975  0.73817  Biso   1.000  C
  H284     1.0000 0.55062  0.56141  0.80262  Biso   1.000  H
  C450     1.0000 0.45724  0.70975  0.73817  Biso   1.000  C
  O135     1.0000 0.34636  0.87601  0.65178  Biso   1.000  O
  N148     1.0000 0.21370  0.04100  0.62989  Biso   1.000  N
  N149     1.0000 0.21378  0.04100  0.62989  Biso   1.000  N
  O136     1.0000 0.07280  0.20692  0.61579  Biso   1.000  O
  N150     1.0000 0.78628  0.95907  0.37007  Biso   1.000  N
  N151     1.0000 0.96610  0.92383  0.31508  Biso   1.000  N
  N152     1.0000 0.78624  0.95914  0.37007  Biso   1.000  N
  N153     1.0000 0.96618  0.92383  0.31508  Biso   1.000  N
  H285     1.0000 0.48418  0.74295  0.76385  Biso   1.000  H
  H286     1.0000 0.48426  0.74295  0.76385  Biso   1.000  H
  C451     1.0000 0.13605  0.24338  0.55909  Biso   1.000  C
  C452     1.0000 0.76169  0.05969  0.33809  Biso   1.000  C
  C453     1.0000 0.76177  0.05969  0.33809  Biso   1.000  C
  C454     1.0000 0.92834  0.02618  0.28902  Biso   1.000  C
  C455     1.0000 0.07867  0.36040  0.53789  Biso   1.000  C
  H287     1.0000 0.22050  0.21638  0.57628  Biso   1.000  H
  H288     1.0000 0.13009  0.21953  0.51803  Biso   1.000  H
  H289     1.0000 0.22047  0.21645  0.57628  Biso   1.000  H
  O137     1.0000 0.65370  0.12402  0.34824  Biso   1.000  O
  N154     1.0000 0.82755  0.10019  0.29730  Biso   1.000  N
  O138     1.0000 0.00522  0.05458  0.24860  Biso   1.000  O
  O139     1.0000 0.95337  0.40349  0.51648  Biso   1.000  O
  H290     1.0000 0.09127  0.38232  0.57863  Biso   1.000  H
  H291     1.0000 0.11712  0.38899  0.49785  Biso   1.000  H
  C456     1.0000 0.62144  0.23295  0.32191  Biso   1.000  C
  C457     1.0000 0.99135  0.15912  0.22778  Biso   1.000  C
  C458     1.0000 0.99140  0.15920  0.22778  Biso   1.000  C
  C459     1.0000 0.91737  0.40073  0.45401  Biso   1.000  C
  C460     1.0000 0.54277  0.29038  0.26179  Biso   1.000  C
  C461     1.0000 0.66286  0.27758  0.36030  Biso   1.000  C
  C462     1.0000 0.98157  0.21004  0.15570  Biso   1.000  C
  C463     1.0000 0.00243  0.20267  0.27792  Biso   1.000  C
  N155     1.0000 0.80251  0.42534  0.44589  Biso   1.000  N
  N156     1.0000 0.99620  0.37358  0.40932  Biso   1.000  N
  C464     1.0000 0.50337  0.39767  0.23920  Biso   1.000  C
  H292     1.0000 0.51579  0.25711  0.23611  Biso   1.000  H
  H293     1.0000 0.51575  0.25719  0.23611  Biso   1.000  H
  C465     1.0000 0.62202  0.38478  0.33660  Biso   1.000  C
  H294     1.0000 0.71766  0.23617  0.40179  Biso   1.000  H
  C466     1.0000 0.62210  0.38478  0.33660  Biso   1.000  C
  H295     1.0000 0.71774  0.23617  0.40179  Biso   1.000  H
  H296     1.0000 0.97720  0.17783  0.12142  Biso   1.000  H
  C467     1.0000 0.97833  0.30866  0.13487  Biso   1.000  C
  C468     1.0000 0.97841  0.30866  0.13487  Biso   1.000  C
  C469     1.0000 0.00050  0.30014  0.25442  Biso   1.000  C
  H297     1.0000 0.01125  0.16616  0.32746  Biso   1.000  H
  C470     1.0000 0.77118  0.41173  0.38737  Biso   1.000  C
  C471     1.0000 0.77114  0.41180  0.38737  Biso   1.000  C
  C472     1.0000 0.94916  0.36610  0.35277  Biso   1.000  C
  C473     1.0000 0.54218  0.44526  0.27711  Biso   1.000  C
  H298     1.0000 0.44940  0.43873  0.19734  Biso   1.000  H
  O140     1.0000 0.65486  0.43365  0.37803  Biso   1.000  O
  H299     1.0000 0.96998  0.34520  0.08543  Biso   1.000  H
  C474     1.0000 0.98709  0.35548  0.18368  Biso   1.000  C
  H300     1.0000 0.97003  0.34527  0.08543  Biso   1.000  H
  O141     1.0000 0.02604  0.34175  0.30488  Biso   1.000  O
  O142     1.0000 0.02612  0.34175  0.30488  Biso   1.000  O
  N157     1.0000 0.83856  0.38128  0.33809  Biso   1.000  N
  H301     1.0000 0.51397  0.51903  0.26216  Biso   1.000  H
  H302     1.0000 0.98389  0.42392  0.16889  Biso   1.000  H
  H303     1.0000 0.98397  0.42392  0.16889  Biso   1.000  H
  O143     1.0000 0.97393  0.65831  0.69508  Biso   1.000  O
  C475     1.0000 0.05078  0.63404  0.64719  Biso   1.000  C
  C476     1.0000 0.99948  0.69990  0.74559  Biso   1.000  C
  C477     1.0000 0.99952  0.69998  0.74559  Biso   1.000  C
  N158     1.0000 0.00383  0.62653  0.59070  Biso   1.000  N
  N159     1.0000 0.16138  0.61886  0.66187  Biso   1.000  N
  C478     1.0000 0.99751  0.79745  0.72210  Biso   1.000  C
  C479     1.0000 0.01285  0.64465  0.81629  Biso   1.000  C
  C480     1.0000 0.01293  0.64465  0.81629  Biso   1.000  C
  C481     1.0000 0.08261  0.59931  0.54601  Biso   1.000  C
  C482     1.0000 0.22879  0.58833  0.61259  Biso   1.000  C
  H304     1.0000 0.98873  0.83388  0.67255  Biso   1.000  H
  C483     1.0000 0.00862  0.84094  0.77218  Biso   1.000  C
  C484     1.0000 0.02160  0.69148  0.86509  Biso   1.000  C
  H305     1.0000 0.01608  0.57614  0.83108  Biso   1.000  H
  O144     1.0000 0.04657  0.59662  0.48354  Biso   1.000  O
  O145     1.0000 0.04665  0.59662  0.48354  Biso   1.000  O
  N160     1.0000 0.19754  0.57472  0.55407  Biso   1.000  N
  O146     1.0000 0.34511  0.56641  0.62193  Biso   1.000  O
  O147     1.0000 0.99472  0.94556  0.75136  Biso   1.000  O
  C485     1.0000 0.01840  0.79002  0.84426  Biso   1.000  C
  H306     1.0000 0.03000  0.65484  0.91458  Biso   1.000  H
  C486     1.0000 0.92126  0.63974  0.46207  Biso   1.000  C
  C487     1.0000 0.92134  0.63974  0.46207  Biso   1.000  C
  C488     1.0000 0.37791  0.61536  0.66337  Biso   1.000  C
  C489     1.0000 0.07161  0.97393  0.71099  Biso   1.000  C
  H307     1.0000 0.02274  0.82231  0.87854  Biso   1.000  H
  C490     1.0000 0.86392  0.75668  0.44087  Biso   1.000  C
  C491     1.0000 0.86388  0.75676  0.44087  Biso   1.000  C
  H308     1.0000 0.90879  0.61772  0.42138  Biso   1.000  H
  H309     1.0000 0.88289  0.61115  0.50212  Biso   1.000  H
  C492     1.0000 0.45776  0.55485  0.72290  Biso   1.000  C
  C493     1.0000 0.33708  0.72253  0.63971  Biso   1.000  C
  N161     1.0000 0.17239  0.89995  0.70266  Biso   1.000  N
  N162     1.0000 0.03383  0.07631  0.68488  Biso   1.000  N
  O148     1.0000 0.92713  0.79322  0.38417  Biso   1.000  O
  H310     1.0000 0.77956  0.78366  0.42373  Biso   1.000  H
  H311     1.0000 0.86989  0.78051  0.48199  Biso   1.000  H
  H312     1.0000 0.86997  0.78051  0.48199  Biso   1.000  H
  H313     1.0000 0.48597  0.48108  0.73785  Biso   1.000  H
  C494     1.0000 0.49657  0.60245  0.76081  Biso   1.000  C
  H314     1.0000 0.48605  0.48108  0.73785  Biso   1.000  H
  C495     1.0000 0.37854  0.76709  0.67810  Biso   1.000  C
  H315     1.0000 0.28231  0.76389  0.59817  Biso   1.000  H
  C496     1.0000 0.23824  0.94044  0.66187  Biso   1.000  C
  C497     1.0000 0.10893  0.10398  0.64377  Biso   1.000  C
  C498     1.0000 0.89104  0.89608  0.35619  Biso   1.000  C
  H316     1.0000 0.55054  0.56141  0.80262  Biso   1.000  H
  C499     1.0000 0.45716  0.70975  0.73817  Biso   1.000  C
  H317     1.0000 0.55062  0.56141  0.80262  Biso   1.000  H
  C500     1.0000 0.45724  0.70975  0.73817  Biso   1.000  C
  O149     1.0000 0.34636  0.87601  0.65178  Biso   1.000  O
  N163     1.0000 0.21370  0.04100  0.62989  Biso   1.000  N
  N164     1.0000 0.21378  0.04100  0.62989  Biso   1.000  N
  O150     1.0000 0.07280  0.20692  0.61579  Biso   1.000  O
  N165     1.0000 0.78628  0.95907  0.37007  Biso   1.000  N
  N166     1.0000 0.96610  0.92383  0.31508  Biso   1.000  N
  N167     1.0000 0.78624  0.95914  0.37007  Biso   1.000  N
  N168     1.0000 0.96618  0.92383  0.31508  Biso   1.000  N
  H318     1.0000 0.48418  0.74295  0.76385  Biso   1.000  H
  H319     1.0000 0.48426  0.74295  0.76385  Biso   1.000  H
  C501     1.0000 0.13605  0.24338  0.55909  Biso   1.000  C
  C502     1.0000 0.76169  0.05969  0.33809  Biso   1.000  C
  C503     1.0000 0.76177  0.05969  0.33809  Biso   1.000  C
  C504     1.0000 0.92834  0.02618  0.28902  Biso   1.000  C
  C505     1.0000 0.07867  0.36040  0.53789  Biso   1.000  C
  H320     1.0000 0.22050  0.21638  0.57628  Biso   1.000  H
  H321     1.0000 0.13009  0.21953  0.51803  Biso   1.000  H
  H322     1.0000 0.22047  0.21645  0.57628  Biso   1.000  H
  O151     1.0000 0.65370  0.12402  0.34824  Biso   1.000  O
  N169     1.0000 0.82755  0.10019  0.29730  Biso   1.000  N
  O152     1.0000 0.00522  0.05458  0.24860  Biso   1.000  O
  O153     1.0000 0.95337  0.40349  0.51648  Biso   1.000  O
  H323     1.0000 0.09127  0.38232  0.57863  Biso   1.000  H
  H324     1.0000 0.11712  0.38899  0.49785  Biso   1.000  H
  C506     1.0000 0.62144  0.23295  0.32191  Biso   1.000  C
  C507     1.0000 0.99135  0.15912  0.22778  Biso   1.000  C
  C508     1.0000 0.99140  0.15920  0.22778  Biso   1.000  C
  C509     1.0000 0.91737  0.40073  0.45401  Biso   1.000  C
  C510     1.0000 0.54277  0.29038  0.26179  Biso   1.000  C
  C511     1.0000 0.66286  0.27758  0.36030  Biso   1.000  C
  C512     1.0000 0.98157  0.21004  0.15570  Biso   1.000  C
  C513     1.0000 0.00243  0.20267  0.27792  Biso   1.000  C
  N170     1.0000 0.80251  0.42534  0.44589  Biso   1.000  N
  N171     1.0000 0.99620  0.37358  0.40932  Biso   1.000  N
  C514     1.0000 0.50337  0.39767  0.23920  Biso   1.000  C
  H325     1.0000 0.51579  0.25711  0.23611  Biso   1.000  H
  H326     1.0000 0.51575  0.25719  0.23611  Biso   1.000  H
  C515     1.0000 0.62202  0.38478  0.33660  Biso   1.000  C
  H327     1.0000 0.71766  0.23617  0.40179  Biso   1.000  H
  C516     1.0000 0.62210  0.38478  0.33660  Biso   1.000  C
  H328     1.0000 0.71774  0.23617  0.40179  Biso   1.000  H
  H329     1.0000 0.97720  0.17783  0.12142  Biso   1.000  H
  C517     1.0000 0.97833  0.30866  0.13487  Biso   1.000  C
  C518     1.0000 0.97841  0.30866  0.13487  Biso   1.000  C
  C519     1.0000 0.00050  0.30014  0.25442  Biso   1.000  C
  H330     1.0000 0.01125  0.16616  0.32746  Biso   1.000  H
  C520     1.0000 0.77118  0.41173  0.38737  Biso   1.000  C
  C521     1.0000 0.77114  0.41180  0.38737  Biso   1.000  C
  C522     1.0000 0.94916  0.36610  0.35277  Biso   1.000  C
  C523     1.0000 0.54218  0.44526  0.27711  Biso   1.000  C
  H331     1.0000 0.44940  0.43873  0.19734  Biso   1.000  H
  O154     1.0000 0.65486  0.43365  0.37803  Biso   1.000  O
  H332     1.0000 0.96998  0.34520  0.08543  Biso   1.000  H
  C524     1.0000 0.98709  0.35548  0.18368  Biso   1.000  C
  H333     1.0000 0.97003  0.34527  0.08543  Biso   1.000  H
  O155     1.0000 0.02604  0.34175  0.30488  Biso   1.000  O
  O156     1.0000 0.02612  0.34175  0.30488  Biso   1.000  O
  N172     1.0000 0.83856  0.38128  0.33809  Biso   1.000  N
  H334     1.0000 0.51397  0.51903  0.26216  Biso   1.000  H
  H335     1.0000 0.98389  0.42392  0.16889  Biso   1.000  H
  H336     1.0000 0.98397  0.42392  0.16889  Biso   1.000  H
