data_image0
_cell_length_a       16.774
_cell_length_b       20.491
_cell_length_c       20.355
_cell_angle_alpha    90
_cell_angle_beta     98.68
_cell_angle_gamma    90

_symmetry_space_group_name_H-M    "P 1"
_symmetry_int_tables_number       1

loop_
  _symmetry_equiv_pos_as_xyz
  'x, y, z'

loop_
  _atom_site_label
  _atom_site_occupancy
  _atom_site_fract_x
  _atom_site_fract_y
  _atom_site_fract_z
  _atom_site_thermal_displace_type
  _atom_site_B_iso_or_equiv
  _atom_site_type_symbol
  C1       1.0000 0.25328  0.17471  0.08091  Biso   1.000  C
  C2       1.0000 0.29019  0.15690  0.14412  Biso   1.000  C
  C3       1.0000 0.29019  0.15690  0.14407  Biso   1.000  C
  O1       1.0000 0.20810  0.22888  0.07151  Biso   1.000  O
  C4       1.0000 0.26841  0.13938  0.02579  Biso   1.000  C
  C5       1.0000 0.26701  0.19330  0.20570  Biso   1.000  C
  C6       1.0000 0.34211  0.10361  0.15222  Biso   1.000  C
  C7       1.0000 0.34210  0.10361  0.15217  Biso   1.000  C
  C8       1.0000 0.12799  0.22712  0.07778  Biso   1.000  C
  C9       1.0000 0.32032  0.08609  0.03389  Biso   1.000  C
  O2       1.0000 0.22172  0.14958  0.96392  Biso   1.000  O
  O3       1.0000 0.22171  0.14958  0.96387  Biso   1.000  O
  C10      1.0000 0.19099  0.16671  0.22289  Biso   1.000  C
  H1       1.0000 0.25492  0.23830  0.19109  Biso   1.000  H
  C11      1.0000 0.33183  0.19828  0.26762  Biso   1.000  C
  C12      1.0000 0.33182  0.19828  0.26757  Biso   1.000  C
  H2       1.0000 0.36679  0.09170  0.19451  Biso   1.000  H
  C13      1.0000 0.35718  0.06832  0.09711  Biso   1.000  C
  C14      1.0000 0.35724  0.06832  0.09711  Biso   1.000  C
  O4       1.0000 0.11418  0.23879  0.14561  Biso   1.000  O
  H3       1.0000 0.10610  0.18481  0.06341  Biso   1.000  H
  H4       1.0000 0.09941  0.25992  0.04900  Biso   1.000  H
  O5       1.0000 0.33358  0.05280  0.97868  Biso   1.000  O
  C15      1.0000 0.21867  0.20868  0.92868  Biso   1.000  C
  C16      1.0000 0.21873  0.20868  0.92868  Biso   1.000  C
  C17      1.0000 0.23299  0.21161  0.93659  Biso   1.000  C
  C18      1.0000 0.11827  0.18852  0.18781  Biso   1.000  C
  C19      1.0000 0.19132  0.11839  0.27090  Biso   1.000  C
  C20      1.0000 0.11833  0.18852  0.18781  Biso   1.000  C
  H5       1.0000 0.30802  0.21609  0.30430  Biso   1.000  H
  H6       1.0000 0.35231  0.15509  0.28019  Biso   1.000  H
  C21      1.0000 0.39300  0.23688  0.25559  Biso   1.000  C
  C22      1.0000 0.40191  0.00571  0.10342  Biso   1.000  C
  C23      1.0000 0.40190  0.00571  0.10337  Biso   1.000  C
  C24      1.0000 0.29252  0.99639  0.96278  Biso   1.000  C
  C25      1.0000 0.15271  0.21351  0.87029  Biso   1.000  C
  C26      1.0000 0.22133  0.21102  0.86219  Biso   1.000  C
  C27      1.0000 0.04601  0.16212  0.20078  Biso   1.000  C
  H7       1.0000 0.23992  0.10390  0.29441  Biso   1.000  H
  C28      1.0000 0.11900  0.09199  0.28392  Biso   1.000  C
  C29      1.0000 0.11899  0.09199  0.28387  Biso   1.000  C
  H8       1.0000 0.37189  0.27441  0.22950  Biso   1.000  H
  H9       1.0000 0.42809  0.21292  0.23040  Biso   1.000  H
  C30      1.0000 0.44448  0.26129  0.32641  Biso   1.000  C
  H10      1.0000 0.42359  0.00098  0.06162  Biso   1.000  H
  C31      1.0000 0.47617  0.00390  0.15829  Biso   1.000  C
  H11      1.0000 0.42358  0.00098  0.06157  Biso   1.000  H
  C32      1.0000 0.47623  0.00390  0.15829  Biso   1.000  C
  C33      1.0000 0.35079  0.94651  0.10779  Biso   1.000  C
  O6       1.0000 0.32917  0.93910  0.98648  Biso   1.000  O
  H12      1.0000 0.28111  0.99341  0.91482  Biso   1.000  H
  H13      1.0000 0.24111  0.99951  0.97898  Biso   1.000  H
  O7       1.0000 0.32923  0.93910  0.98648  Biso   1.000  O
  H14      1.0000 0.28110  0.99341  0.91477  Biso   1.000  H
  C34      1.0000 0.16712  0.17198  0.81259  Biso   1.000  C
  C35      1.0000 0.17710  0.15221  0.83128  Biso   1.000  C
  C36      1.0000 0.04629  0.11381  0.24888  Biso   1.000  C
  O8       1.0000 0.97419  0.17578  0.15759  Biso   1.000  O
  C37      1.0000 0.11662  0.03792  0.33342  Biso   1.000  C
  C38      1.0000 0.11661  0.03792  0.33337  Biso   1.000  C
  C39      1.0000 0.51227  0.22268  0.34470  Biso   1.000  C
  C40      1.0000 0.43058  0.31511  0.36478  Biso   1.000  C
  C41      1.0000 0.51233  0.22268  0.34470  Biso   1.000  C
  H15      1.0000 0.45898  0.01440  0.20048  Biso   1.000  H
  C42      1.0000 0.54377  0.05100  0.14690  Biso   1.000  C
  C43      1.0000 0.54383  0.05100  0.14690  Biso   1.000  C
  H16      1.0000 0.49762  0.95988  0.16152  Biso   1.000  H
  C44      1.0000 0.33602  0.92450  0.16942  Biso   1.000  C
  C45      1.0000 0.31302  0.91670  0.05000  Biso   1.000  C
  C46      1.0000 0.08910  0.15480  0.76941  Biso   1.000  C
  C47      1.0000 0.09598  0.16861  0.79232  Biso   1.000  C
  O9       1.0000 0.97178  0.09170  0.26031  Biso   1.000  O
  C48      1.0000 0.97119  0.24240  0.17280  Biso   1.000  C
  C49      1.0000 0.91020  0.21819  0.16559  Biso   1.000  C
  H17      1.0000 0.06523  0.04168  0.35032  Biso   1.000  H
  C50      1.0000 0.18379  0.03831  0.39450  Biso   1.000  C
  C51      1.0000 0.11512  0.97072  0.29590  Biso   1.000  C
  H18      1.0000 0.52160  0.18672  0.31911  Biso   1.000  H
  C52      1.0000 0.56630  0.23791  0.40140  Biso   1.000  C
  C53      1.0000 0.48459  0.33029  0.42138  Biso   1.000  C
  H19      1.0000 0.38529  0.34098  0.35250  Biso   1.000  H
  H20      1.0000 0.56008  0.04060  0.10441  Biso   1.000  H
  H21      1.0000 0.52191  0.09492  0.14372  Biso   1.000  H
  C54      1.0000 0.61878  0.05100  0.19939  Biso   1.000  C
  H22      1.0000 0.56014  0.04060  0.10441  Biso   1.000  H
  H23      1.0000 0.52190  0.09492  0.14367  Biso   1.000  H
  C55      1.0000 0.28338  0.87268  0.17329  Biso   1.000  C
  H24      1.0000 0.36127  0.94451  0.20798  Biso   1.000  H
  C56      1.0000 0.28344  0.87268  0.17329  Biso   1.000  C
  H25      1.0000 0.36133  0.94451  0.20798  Biso   1.000  H
  C57      1.0000 0.26038  0.86492  0.05392  Biso   1.000  C
  C58      1.0000 0.26037  0.86492  0.05387  Biso   1.000  C
  O10      1.0000 0.03562  0.12640  0.80812  Biso   1.000  O
  O11      1.0000 0.03562  0.12640  0.80807  Biso   1.000  O
  C59      1.0000 0.94750  0.03192  0.23288  Biso   1.000  C
  C60      1.0000 0.88719  0.26641  0.17538  Biso   1.000  C
  C61      1.0000 0.83058  0.24342  0.11560  Biso   1.000  C
  C62      1.0000 0.87019  0.24279  0.09880  Biso   1.000  C
  H26      1.0000 0.23627  0.03719  0.37998  Biso   1.000  H
  H27      1.0000 0.17887  0.00000  0.42168  Biso   1.000  H
  C63      1.0000 0.17612  0.10161  0.43629  Biso   1.000  C
  H28      1.0000 0.17893  0.00000  0.42168  Biso   1.000  H
  C64      1.0000 0.04191  0.94568  0.26499  Biso   1.000  C
  C65      1.0000 0.18661  0.93861  0.28978  Biso   1.000  C
  H29      1.0000 0.61171  0.21200  0.41368  Biso   1.000  H
  C66      1.0000 0.55253  0.29159  0.43982  Biso   1.000  C
  C67      1.0000 0.55252  0.29159  0.43977  Biso   1.000  C
  H30      1.0000 0.47540  0.36621  0.44708  Biso   1.000  H
  C68      1.0000 0.64642  0.10941  0.22920  Biso   1.000  C
  C69      1.0000 0.65962  0.99322  0.21762  Biso   1.000  C
  C70      1.0000 0.65961  0.99322  0.21757  Biso   1.000  C
  C71      1.0000 0.25888  0.84769  0.23780  Biso   1.000  C
  C72      1.0000 0.24561  0.84291  0.11550  Biso   1.000  C
  O12      1.0000 0.21440  0.84310  0.99359  Biso   1.000  O
  C73      1.0000 0.95979  0.11151  0.77199  Biso   1.000  C
  O13      1.0000 0.96860  0.97760  0.27160  Biso   1.000  O
  H31      1.0000 0.88918  0.03250  0.22140  Biso   1.000  H
  H32      1.0000 0.96972  0.02699  0.19178  Biso   1.000  H
  C74      1.0000 0.80298  0.17510  0.12509  Biso   1.000  C
  C75      1.0000 0.78012  0.23820  0.08911  Biso   1.000  C
  H33      1.0000 0.22450  0.10590  0.46869  Biso   1.000  H
  H34      1.0000 0.17382  0.13889  0.40682  Biso   1.000  H
  C76      1.0000 0.10670  0.10429  0.47128  Biso   1.000  C
  H35      1.0000 0.17381  0.13889  0.40677  Biso   1.000  H
  C77      1.0000 0.04021  0.88849  0.22801  Biso   1.000  C
  H36      1.0000 0.23547  0.95540  0.31051  Biso   1.000  H
  C78      1.0000 0.18491  0.88141  0.25281  Biso   1.000  C
  H37      1.0000 0.23553  0.95540  0.31051  Biso   1.000  H
  H38      1.0000 0.58861  0.30179  0.47769  Biso   1.000  H
  C79      1.0000 0.71471  0.11010  0.27721  Biso   1.000  C
  H39      1.0000 0.61903  0.14811  0.21698  Biso   1.000  H
  H40      1.0000 0.64117  0.95408  0.19760  Biso   1.000  H
  C80      1.0000 0.72802  0.99380  0.26558  Biso   1.000  C
  H41      1.0000 0.64123  0.95408  0.19760  Biso   1.000  H
  H42      1.0000 0.24547  0.80128  0.23129  Biso   1.000  H
  C81      1.0000 0.33001  0.85262  0.29709  Biso   1.000  C
  H43      1.0000 0.24553  0.80128  0.23129  Biso   1.000  H
  O14      1.0000 0.19432  0.78918  0.11510  Biso   1.000  O
  C82      1.0000 0.25212  0.84749  0.93619  Biso   1.000  C
  C83      1.0000 0.25113  0.78381  0.98027  Biso   1.000  C
  C84      1.0000 0.88828  0.14362  0.77800  Biso   1.000  C
  C85      1.0000 0.95809  0.05432  0.73501  Biso   1.000  C
  C86      1.0000 0.74788  0.15251  0.06381  Biso   1.000  C
  C87      1.0000 0.74892  0.21619  0.01968  Biso   1.000  C
  C88      1.0000 0.11349  0.07691  0.53439  Biso   1.000  C
  C89      1.0000 0.03342  0.13020  0.44161  Biso   1.000  C
  O15      1.0000 0.96438  0.87360  0.19188  Biso   1.000  O
  C90      1.0000 0.11172  0.85638  0.22200  Biso   1.000  C
  C91      1.0000 0.75560  0.05232  0.29540  Biso   1.000  C
  H44      1.0000 0.73320  0.14919  0.29709  Biso   1.000  H
  H45      1.0000 0.75528  0.95520  0.27771  Biso   1.000  H
  H46      1.0000 0.34973  0.89708  0.30121  Biso   1.000  H
  H47      1.0000 0.31089  0.84081  0.33819  Biso   1.000  H
  C92      1.0000 0.39733  0.80748  0.28541  Biso   1.000  C
  C93      1.0000 0.11432  0.79869  0.11868  Biso   1.000  C
  C94      1.0000 0.19702  0.82490  0.87491  Biso   1.000  C
  C95      1.0000 0.21988  0.76180  0.91089  Biso   1.000  C
  O16      1.0000 0.89698  0.19940  0.81249  Biso   1.000  O
  C96      1.0000 0.81509  0.11859  0.74719  Biso   1.000  C
  C97      1.0000 0.88488  0.02928  0.70410  Biso   1.000  C
  O17      1.0000 0.03140  0.02240  0.72840  Biso   1.000  O
  O18      1.0000 0.78560  0.15690  0.00641  Biso   1.000  O
  H48      1.0000 0.16248  0.05959  0.55422  Biso   1.000  H
  C98      1.0000 0.04723  0.07550  0.56779  Biso   1.000  C
  H49      1.0000 0.16248  0.05959  0.55417  Biso   1.000  H
  H50      1.0000 0.02879  0.14850  0.39942  Biso   1.000  H
  C99      1.0000 0.96700  0.12879  0.47511  Biso   1.000  C
  C100     1.0000 0.91090  0.84520  0.23059  Biso   1.000  C
  C101     1.0000 0.90402  0.83139  0.20768  Biso   1.000  C
  O19      1.0000 0.10302  0.80060  0.18751  Biso   1.000  O
  H51      1.0000 0.80130  0.05271  0.32750  Biso   1.000  H
  H52      1.0000 0.37698  0.76312  0.28402  Biso   1.000  H
  H53      1.0000 0.41161  0.81719  0.24198  Biso   1.000  H
  C102     1.0000 0.47261  0.81031  0.33551  Biso   1.000  C
  H54      1.0000 0.37697  0.76312  0.28397  Biso   1.000  H
  H55      1.0000 0.08270  0.76341  0.09611  Biso   1.000  H
  H56      1.0000 0.09618  0.83930  0.09711  Biso   1.000  H
  C103     1.0000 0.16942  0.75658  0.88440  Biso   1.000  C
  C104     1.0000 0.12981  0.75721  0.90120  Biso   1.000  C
  C105     1.0000 0.88568  0.20131  0.88132  Biso   1.000  C
  C106     1.0000 0.88567  0.20131  0.88127  Biso   1.000  C
  C107     1.0000 0.74112  0.15231  0.76220  Biso   1.000  C
  C108     1.0000 0.81339  0.06139  0.71022  Biso   1.000  C
  C109     1.0000 0.88338  0.96208  0.66658  Biso   1.000  C
  C110     1.0000 0.05250  0.96808  0.76712  Biso   1.000  C
  C111     1.0000 0.05249  0.96808  0.76707  Biso   1.000  C
  C112     1.0000 0.73962  0.13508  0.94608  Biso   1.000  C
  H57      1.0000 0.05179  0.05720  0.60998  Biso   1.000  H
  C113     1.0000 0.97389  0.10141  0.53812  Biso   1.000  C
  C114     1.0000 0.97388  0.10141  0.53807  Biso   1.000  C
  H58      1.0000 0.91798  0.14611  0.45518  Biso   1.000  H
  C115     1.0000 0.83288  0.82802  0.18741  Biso   1.000  C
  C116     1.0000 0.83294  0.82802  0.18741  Biso   1.000  C
  C117     1.0000 0.82290  0.84779  0.16872  Biso   1.000  C
  C118     1.0000 0.52628  0.86018  0.32711  Biso   1.000  C
  C119     1.0000 0.49151  0.76541  0.38659  Biso   1.000  C
  C120     1.0000 0.11281  0.73359  0.82462  Biso   1.000  C
  C121     1.0000 0.11280  0.73359  0.82457  Biso   1.000  C
  C122     1.0000 0.08980  0.78181  0.83441  Biso   1.000  C
  O20      1.0000 0.80568  0.21082  0.88490  Biso   1.000  O
  H59      1.0000 0.91730  0.23659  0.90389  Biso   1.000  H
  H60      1.0000 0.90382  0.16070  0.90289  Biso   1.000  H
  C123     1.0000 0.71662  0.12732  0.82671  Biso   1.000  C
  H61      1.0000 0.75453  0.19872  0.76871  Biso   1.000  H
  C124     1.0000 0.66999  0.14738  0.70291  Biso   1.000  C
  H62      1.0000 0.76453  0.04460  0.68949  Biso   1.000  H
  C125     1.0000 0.88100  0.90801  0.71608  Biso   1.000  C
  H63      1.0000 0.93477  0.95832  0.64968  Biso   1.000  H
  C126     1.0000 0.81621  0.96169  0.60550  Biso   1.000  C
  H64      1.0000 0.93483  0.95832  0.64968  Biso   1.000  H
  O21      1.0000 0.02822  0.90830  0.73969  Biso   1.000  O
  H65      1.0000 0.11082  0.96750  0.77860  Biso   1.000  H
  H66      1.0000 0.03028  0.97301  0.80822  Biso   1.000  H
  H67      1.0000 0.03033  0.97301  0.80817  Biso   1.000  H
  C127     1.0000 0.75439  0.15709  0.88450  Biso   1.000  C
  C128     1.0000 0.68698  0.08330  0.95000  Biso   1.000  C
  H68      1.0000 0.92952  0.10039  0.56048  Biso   1.000  H
  C129     1.0000 0.84729  0.78649  0.12971  Biso   1.000  C
  C130     1.0000 0.77873  0.78898  0.13781  Biso   1.000  C
  H69      1.0000 0.51358  0.89029  0.29292  Biso   1.000  H
  C131     1.0000 0.59890  0.86521  0.36980  Biso   1.000  C
  C132     1.0000 0.56421  0.77039  0.42938  Biso   1.000  C
  H70      1.0000 0.45558  0.73198  0.39221  Biso   1.000  H
  H71      1.0000 0.45564  0.73198  0.39221  Biso   1.000  H
  C133     1.0000 0.02881  0.75760  0.82720  Biso   1.000  C
  O22      1.0000 0.02581  0.82422  0.84241  Biso   1.000  O
  C134     1.0000 0.66398  0.07550  0.83058  Biso   1.000  C
  H72      1.0000 0.65027  0.10292  0.69879  Biso   1.000  H
  H73      1.0000 0.68911  0.15919  0.66181  Biso   1.000  H
  C135     1.0000 0.60267  0.19252  0.71459  Biso   1.000  C
  C136     1.0000 0.60273  0.19252  0.71459  Biso   1.000  C
  C137     1.0000 0.80868  0.88161  0.72910  Biso   1.000  C
  C138     1.0000 0.95371  0.88619  0.75112  Biso   1.000  C
  H74      1.0000 0.76373  0.96281  0.62002  Biso   1.000  H
  C139     1.0000 0.82388  0.89839  0.56371  Biso   1.000  C
  H75      1.0000 0.82113  0.00000  0.57832  Biso   1.000  H
  H76      1.0000 0.82112  0.00000  0.57827  Biso   1.000  H
  C140     1.0000 0.64921  0.05349  0.89221  Biso   1.000  C
  O23      1.0000 0.67083  0.06090  0.01352  Biso   1.000  O
  C141     1.0000 0.78133  0.79132  0.07132  Biso   1.000  C
  C142     1.0000 0.76701  0.78839  0.06341  Biso   1.000  C
  H77      1.0000 0.63489  0.89859  0.36418  Biso   1.000  H
  C143     1.0000 0.61787  0.82021  0.42098  Biso   1.000  C
  H78      1.0000 0.57679  0.74028  0.46358  Biso   1.000  H
  C144     1.0000 0.95399  0.83788  0.79922  Biso   1.000  C
  C145     1.0000 0.95398  0.83788  0.79917  Biso   1.000  C
  H79      1.0000 0.63873  0.05549  0.79202  Biso   1.000  H
  H80      1.0000 0.62302  0.23688  0.71598  Biso   1.000  H
  H81      1.0000 0.58839  0.18281  0.75802  Biso   1.000  H
  C146     1.0000 0.52739  0.18969  0.66449  Biso   1.000  C
  H82      1.0000 0.58838  0.18281  0.75797  Biso   1.000  H
  C147     1.0000 0.80901  0.83329  0.77711  Biso   1.000  C
  H83      1.0000 0.76008  0.89610  0.70559  Biso   1.000  H
  H84      1.0000 0.77550  0.89410  0.53131  Biso   1.000  H
  H85      1.0000 0.82618  0.86111  0.59318  Biso   1.000  H
  C148     1.0000 0.89330  0.89571  0.52872  Biso   1.000  C
  C149     1.0000 0.89330  0.89571  0.52867  Biso   1.000  C
  C150     1.0000 0.59809  0.99429  0.89658  Biso   1.000  C
  C151     1.0000 0.70748  0.00361  0.03722  Biso   1.000  C
  C152     1.0000 0.70748  0.00361  0.03717  Biso   1.000  C
  O24      1.0000 0.77828  0.85042  0.03608  Biso   1.000  O
  H86      1.0000 0.66652  0.82358  0.44961  Biso   1.000  H
  C153     1.0000 0.88173  0.81148  0.81219  Biso   1.000  C
  C154     1.0000 0.47372  0.13982  0.67289  Biso   1.000  C
  C155     1.0000 0.50849  0.23459  0.61341  Biso   1.000  C
  C156     1.0000 0.73299  0.80670  0.79430  Biso   1.000  C
  C157     1.0000 0.88651  0.92309  0.46561  Biso   1.000  C
  C158     1.0000 0.96658  0.86980  0.55839  Biso   1.000  C
  C159     1.0000 0.64282  0.93168  0.90289  Biso   1.000  C
  H87      1.0000 0.57641  0.99902  0.93838  Biso   1.000  H
  C160     1.0000 0.52383  0.99610  0.84171  Biso   1.000  C
  O25      1.0000 0.66642  0.94720  0.02132  Biso   1.000  O
  O26      1.0000 0.66641  0.94720  0.02127  Biso   1.000  O
  H88      1.0000 0.71889  0.00659  0.08518  Biso   1.000  H
  H89      1.0000 0.75889  0.00049  0.02102  Biso   1.000  H
  H90      1.0000 0.75888  0.00049  0.02097  Biso   1.000  H
  C161     1.0000 0.73159  0.86062  0.97421  Biso   1.000  C
  O27      1.0000 0.88582  0.76121  0.85439  Biso   1.000  O
  H91      1.0000 0.48642  0.10971  0.70708  Biso   1.000  H
  C162     1.0000 0.40110  0.13479  0.63020  Biso   1.000  C
  C163     1.0000 0.43579  0.22961  0.57062  Biso   1.000  C
  H92      1.0000 0.54442  0.26802  0.60779  Biso   1.000  H
  C164     1.0000 0.70981  0.84310  0.85588  Biso   1.000  C
  H93      1.0000 0.74508  0.76170  0.80891  Biso   1.000  H
  C165     1.0000 0.66817  0.80172  0.73238  Biso   1.000  C
  C166     1.0000 0.66823  0.80172  0.73238  Biso   1.000  C
  H94      1.0000 0.83752  0.94041  0.44578  Biso   1.000  H
  C167     1.0000 0.95277  0.92450  0.43221  Biso   1.000  C
  C168     1.0000 0.95283  0.92450  0.43221  Biso   1.000  C
  H95      1.0000 0.97121  0.85150  0.60058  Biso   1.000  H
  C169     1.0000 0.03300  0.87121  0.52489  Biso   1.000  C
  C170     1.0000 0.67968  0.91391  0.96611  Biso   1.000  C
  C171     1.0000 0.65789  0.89639  0.84778  Biso   1.000  C
  C172     1.0000 0.67974  0.91391  0.96611  Biso   1.000  C
  H96      1.0000 0.54102  0.98560  0.79952  Biso   1.000  H
  C173     1.0000 0.45623  0.94900  0.85310  Biso   1.000  C
  H97      1.0000 0.54102  0.98560  0.79947  Biso   1.000  H
  H98      1.0000 0.50238  0.04012  0.83848  Biso   1.000  H
  C174     1.0000 0.74672  0.82529  0.91909  Biso   1.000  C
  C175     1.0000 0.87201  0.77288  0.92222  Biso   1.000  C
  C176     1.0000 0.87200  0.77288  0.92217  Biso   1.000  C
  H99      1.0000 0.36511  0.10141  0.63582  Biso   1.000  H
  C177     1.0000 0.38213  0.17979  0.57902  Biso   1.000  C
  H100     1.0000 0.36510  0.10141  0.63577  Biso   1.000  H
  H101     1.0000 0.42321  0.25972  0.53642  Biso   1.000  H
  H102     1.0000 0.42320  0.25972  0.53638  Biso   1.000  H
  H103     1.0000 0.69198  0.78391  0.69570  Biso   1.000  H
  H104     1.0000 0.64769  0.84491  0.71981  Biso   1.000  H
  C178     1.0000 0.60700  0.76312  0.74441  Biso   1.000  C
  H105     1.0000 0.94821  0.94280  0.39002  Biso   1.000  H
  C179     1.0000 0.02611  0.89859  0.46188  Biso   1.000  C
  H106     1.0000 0.08202  0.85389  0.54482  Biso   1.000  H
  H107     1.0000 0.08201  0.85389  0.54477  Biso   1.000  H
  H108     1.0000 0.63321  0.90830  0.80549  Biso   1.000  H
  H109     1.0000 0.43992  0.95940  0.89559  Biso   1.000  H
  H110     1.0000 0.47809  0.90508  0.85628  Biso   1.000  H
  C180     1.0000 0.38122  0.94900  0.80061  Biso   1.000  C
  O28      1.0000 0.79190  0.77112  0.92849  Biso   1.000  O
  H111     1.0000 0.89390  0.81519  0.93659  Biso   1.000  H
  H112     1.0000 0.90059  0.74008  0.95100  Biso   1.000  H
  H113     1.0000 0.33348  0.17642  0.55039  Biso   1.000  H
  H114     1.0000 0.62811  0.72559  0.77050  Biso   1.000  H
  H115     1.0000 0.57191  0.78708  0.76960  Biso   1.000  H
  C181     1.0000 0.55552  0.73871  0.67359  Biso   1.000  C
  H116     1.0000 0.07048  0.89961  0.43952  Biso   1.000  H
  C182     1.0000 0.35358  0.89059  0.77080  Biso   1.000  C
  C183     1.0000 0.34038  0.00678  0.78238  Biso   1.000  C
  C184     1.0000 0.48773  0.77732  0.65530  Biso   1.000  C
  C185     1.0000 0.56942  0.68489  0.63522  Biso   1.000  C
  C186     1.0000 0.56941  0.68489  0.63517  Biso   1.000  C
  C187     1.0000 0.28529  0.88990  0.72279  Biso   1.000  C
  H117     1.0000 0.38097  0.85189  0.78302  Biso   1.000  H
  H118     1.0000 0.38103  0.85189  0.78297  Biso   1.000  H
  H119     1.0000 0.35883  0.04592  0.80240  Biso   1.000  H
  C188     1.0000 0.27198  0.00620  0.73442  Biso   1.000  C
  C189     1.0000 0.27203  0.00620  0.73437  Biso   1.000  C
  H120     1.0000 0.47840  0.81328  0.68089  Biso   1.000  H
  C190     1.0000 0.43370  0.76209  0.59860  Biso   1.000  C
  C191     1.0000 0.51541  0.66971  0.57862  Biso   1.000  C
  H121     1.0000 0.61471  0.65902  0.64750  Biso   1.000  H
  C192     1.0000 0.24440  0.94768  0.70460  Biso   1.000  C
  H122     1.0000 0.26680  0.85081  0.70291  Biso   1.000  H
  H123     1.0000 0.24472  0.04480  0.72229  Biso   1.000  H
  H124     1.0000 0.38829  0.78800  0.58632  Biso   1.000  H
  C193     1.0000 0.44747  0.70841  0.56018  Biso   1.000  C
  H125     1.0000 0.38828  0.78800  0.58627  Biso   1.000  H
  H126     1.0000 0.52460  0.63379  0.55292  Biso   1.000  H
  H127     1.0000 0.52459  0.63379  0.55287  Biso   1.000  H
  H128     1.0000 0.19870  0.94729  0.67250  Biso   1.000  H
  H129     1.0000 0.41139  0.69821  0.52231  Biso   1.000  H
  C194     1.0000 0.25328  0.17471  0.08091  Biso   1.000  C
  C195     1.0000 0.29019  0.15690  0.14412  Biso   1.000  C
  C196     1.0000 0.29019  0.15690  0.14407  Biso   1.000  C
  O29      1.0000 0.20810  0.22888  0.07151  Biso   1.000  O
  C197     1.0000 0.26841  0.13938  0.02579  Biso   1.000  C
  C198     1.0000 0.26701  0.19330  0.20570  Biso   1.000  C
  C199     1.0000 0.34211  0.10361  0.15222  Biso   1.000  C
  C200     1.0000 0.34210  0.10361  0.15217  Biso   1.000  C
  C201     1.0000 0.12799  0.22712  0.07778  Biso   1.000  C
  C202     1.0000 0.32032  0.08609  0.03389  Biso   1.000  C
  O30      1.0000 0.22172  0.14958  0.96392  Biso   1.000  O
  O31      1.0000 0.22171  0.14958  0.96387  Biso   1.000  O
  C203     1.0000 0.19099  0.16671  0.22289  Biso   1.000  C
  H130     1.0000 0.25492  0.23830  0.19109  Biso   1.000  H
  C204     1.0000 0.33183  0.19828  0.26762  Biso   1.000  C
  C205     1.0000 0.33182  0.19828  0.26757  Biso   1.000  C
  H131     1.0000 0.36679  0.09170  0.19451  Biso   1.000  H
  C206     1.0000 0.35718  0.06832  0.09711  Biso   1.000  C
  C207     1.0000 0.35724  0.06832  0.09711  Biso   1.000  C
  O32      1.0000 0.11418  0.23879  0.14561  Biso   1.000  O
  H132     1.0000 0.10610  0.18481  0.06341  Biso   1.000  H
  H133     1.0000 0.09941  0.25992  0.04900  Biso   1.000  H
  O33      1.0000 0.33358  0.05280  0.97868  Biso   1.000  O
  C208     1.0000 0.21867  0.20868  0.92868  Biso   1.000  C
  C209     1.0000 0.21873  0.20868  0.92868  Biso   1.000  C
  C210     1.0000 0.23299  0.21161  0.93659  Biso   1.000  C
  C211     1.0000 0.19132  0.11839  0.27090  Biso   1.000  C
  C212     1.0000 0.11827  0.18852  0.18781  Biso   1.000  C
  C213     1.0000 0.11833  0.18852  0.18781  Biso   1.000  C
  H134     1.0000 0.30802  0.21609  0.30430  Biso   1.000  H
  H135     1.0000 0.35231  0.15509  0.28019  Biso   1.000  H
  C214     1.0000 0.39300  0.23688  0.25559  Biso   1.000  C
  C215     1.0000 0.40191  0.00571  0.10342  Biso   1.000  C
  C216     1.0000 0.40190  0.00571  0.10337  Biso   1.000  C
  C217     1.0000 0.29252  0.99639  0.96278  Biso   1.000  C
  C218     1.0000 0.15271  0.21351  0.87029  Biso   1.000  C
  C219     1.0000 0.22133  0.21102  0.86219  Biso   1.000  C
  H136     1.0000 0.23992  0.10390  0.29441  Biso   1.000  H
  C220     1.0000 0.11900  0.09199  0.28392  Biso   1.000  C
  C221     1.0000 0.11899  0.09199  0.28387  Biso   1.000  C
  C222     1.0000 0.04601  0.16212  0.20078  Biso   1.000  C
  H137     1.0000 0.37189  0.27441  0.22950  Biso   1.000  H
  H138     1.0000 0.42809  0.21292  0.23040  Biso   1.000  H
  C223     1.0000 0.44448  0.26129  0.32641  Biso   1.000  C
  H139     1.0000 0.42359  0.00098  0.06162  Biso   1.000  H
  C224     1.0000 0.47617  0.00390  0.15829  Biso   1.000  C
  H140     1.0000 0.42358  0.00098  0.06157  Biso   1.000  H
  C225     1.0000 0.47623  0.00390  0.15829  Biso   1.000  C
  C226     1.0000 0.35079  0.94651  0.10779  Biso   1.000  C
  O34      1.0000 0.32917  0.93910  0.98648  Biso   1.000  O
  H141     1.0000 0.28111  0.99341  0.91482  Biso   1.000  H
  H142     1.0000 0.24111  0.99951  0.97898  Biso   1.000  H
  O35      1.0000 0.32923  0.93910  0.98648  Biso   1.000  O
  H143     1.0000 0.28110  0.99341  0.91477  Biso   1.000  H
  C227     1.0000 0.16712  0.17198  0.81259  Biso   1.000  C
  C228     1.0000 0.17710  0.15221  0.83128  Biso   1.000  C
  C229     1.0000 0.04629  0.11381  0.24888  Biso   1.000  C
  C230     1.0000 0.11662  0.03792  0.33342  Biso   1.000  C
  C231     1.0000 0.11661  0.03792  0.33337  Biso   1.000  C
  O36      1.0000 0.97419  0.17578  0.15759  Biso   1.000  O
  C232     1.0000 0.43058  0.31511  0.36478  Biso   1.000  C
  C233     1.0000 0.51227  0.22268  0.34470  Biso   1.000  C
  C234     1.0000 0.51233  0.22268  0.34470  Biso   1.000  C
  H144     1.0000 0.45898  0.01440  0.20048  Biso   1.000  H
  C235     1.0000 0.54377  0.05100  0.14690  Biso   1.000  C
  C236     1.0000 0.54383  0.05100  0.14690  Biso   1.000  C
  H145     1.0000 0.49762  0.95988  0.16152  Biso   1.000  H
  C237     1.0000 0.33602  0.92450  0.16942  Biso   1.000  C
  C238     1.0000 0.31302  0.91670  0.05000  Biso   1.000  C
  C239     1.0000 0.08910  0.15480  0.76941  Biso   1.000  C
  C240     1.0000 0.09598  0.16861  0.79232  Biso   1.000  C
  O37      1.0000 0.97178  0.09170  0.26031  Biso   1.000  O
  H146     1.0000 0.06523  0.04168  0.35032  Biso   1.000  H
  C241     1.0000 0.18379  0.03831  0.39450  Biso   1.000  C
  C242     1.0000 0.11512  0.97072  0.29590  Biso   1.000  C
  C243     1.0000 0.97119  0.24240  0.17280  Biso   1.000  C
  C244     1.0000 0.91020  0.21819  0.16559  Biso   1.000  C
  C245     1.0000 0.48459  0.33029  0.42138  Biso   1.000  C
  H147     1.0000 0.38529  0.34098  0.35250  Biso   1.000  H
  H148     1.0000 0.52160  0.18672  0.31911  Biso   1.000  H
  C246     1.0000 0.56630  0.23791  0.40140  Biso   1.000  C
  C247     1.0000 0.61878  0.05100  0.19939  Biso   1.000  C
  H149     1.0000 0.56008  0.04060  0.10441  Biso   1.000  H
  H150     1.0000 0.52191  0.09492  0.14372  Biso   1.000  H
  H151     1.0000 0.56014  0.04060  0.10441  Biso   1.000  H
  H152     1.0000 0.52190  0.09492  0.14367  Biso   1.000  H
  C248     1.0000 0.28338  0.87268  0.17329  Biso   1.000  C
  H153     1.0000 0.36127  0.94451  0.20798  Biso   1.000  H
  C249     1.0000 0.28344  0.87268  0.17329  Biso   1.000  C
  H154     1.0000 0.36133  0.94451  0.20798  Biso   1.000  H
  C250     1.0000 0.26038  0.86492  0.05392  Biso   1.000  C
  C251     1.0000 0.26037  0.86492  0.05387  Biso   1.000  C
  O38      1.0000 0.03562  0.12640  0.80812  Biso   1.000  O
  O39      1.0000 0.03562  0.12640  0.80807  Biso   1.000  O
  C252     1.0000 0.94750  0.03192  0.23288  Biso   1.000  C
  H155     1.0000 0.23627  0.03719  0.37998  Biso   1.000  H
  C253     1.0000 0.17612  0.10161  0.43629  Biso   1.000  C
  H156     1.0000 0.17887  0.00000  0.42168  Biso   1.000  H
  H157     1.0000 0.17893  0.00000  0.42168  Biso   1.000  H
  C254     1.0000 0.04191  0.94568  0.26499  Biso   1.000  C
  C255     1.0000 0.18661  0.93861  0.28978  Biso   1.000  C
  C256     1.0000 0.88719  0.26641  0.17538  Biso   1.000  C
  C257     1.0000 0.83058  0.24342  0.11560  Biso   1.000  C
  C258     1.0000 0.87019  0.24279  0.09880  Biso   1.000  C
  H158     1.0000 0.47540  0.36621  0.44708  Biso   1.000  H
  C259     1.0000 0.55253  0.29159  0.43982  Biso   1.000  C
  C260     1.0000 0.55252  0.29159  0.43977  Biso   1.000  C
  H159     1.0000 0.61171  0.21200  0.41368  Biso   1.000  H
  C261     1.0000 0.64642  0.10941  0.22920  Biso   1.000  C
  C262     1.0000 0.65962  0.99322  0.21762  Biso   1.000  C
  C263     1.0000 0.65961  0.99322  0.21757  Biso   1.000  C
  C264     1.0000 0.25888  0.84769  0.23780  Biso   1.000  C
  C265     1.0000 0.24561  0.84291  0.11550  Biso   1.000  C
  O40      1.0000 0.21440  0.84310  0.99359  Biso   1.000  O
  C266     1.0000 0.95979  0.11151  0.77199  Biso   1.000  C
  O41      1.0000 0.96860  0.97760  0.27160  Biso   1.000  O
  H160     1.0000 0.88918  0.03250  0.22140  Biso   1.000  H
  H161     1.0000 0.96972  0.02699  0.19178  Biso   1.000  H
  H162     1.0000 0.22450  0.10590  0.46869  Biso   1.000  H
  C267     1.0000 0.10670  0.10429  0.47128  Biso   1.000  C
  H163     1.0000 0.17382  0.13889  0.40682  Biso   1.000  H
  H164     1.0000 0.17381  0.13889  0.40677  Biso   1.000  H
  C268     1.0000 0.04021  0.88849  0.22801  Biso   1.000  C
  H165     1.0000 0.23547  0.95540  0.31051  Biso   1.000  H
  C269     1.0000 0.18491  0.88141  0.25281  Biso   1.000  C
  H166     1.0000 0.23553  0.95540  0.31051  Biso   1.000  H
  C270     1.0000 0.80298  0.17510  0.12509  Biso   1.000  C
  C271     1.0000 0.78012  0.23820  0.08911  Biso   1.000  C
  H167     1.0000 0.58861  0.30179  0.47769  Biso   1.000  H
  C272     1.0000 0.71471  0.11010  0.27721  Biso   1.000  C
  H168     1.0000 0.61903  0.14811  0.21698  Biso   1.000  H
  H169     1.0000 0.64117  0.95408  0.19760  Biso   1.000  H
  C273     1.0000 0.72802  0.99380  0.26558  Biso   1.000  C
  H170     1.0000 0.64123  0.95408  0.19760  Biso   1.000  H
  H171     1.0000 0.24547  0.80128  0.23129  Biso   1.000  H
  C274     1.0000 0.33001  0.85262  0.29709  Biso   1.000  C
  H172     1.0000 0.24553  0.80128  0.23129  Biso   1.000  H
  O42      1.0000 0.19432  0.78918  0.11510  Biso   1.000  O
  C275     1.0000 0.25212  0.84749  0.93619  Biso   1.000  C
  C276     1.0000 0.25113  0.78381  0.98027  Biso   1.000  C
  C277     1.0000 0.88828  0.14362  0.77800  Biso   1.000  C
  C278     1.0000 0.95809  0.05432  0.73501  Biso   1.000  C
  C279     1.0000 0.11349  0.07691  0.53439  Biso   1.000  C
  C280     1.0000 0.03342  0.13020  0.44161  Biso   1.000  C
  O43      1.0000 0.96438  0.87360  0.19188  Biso   1.000  O
  C281     1.0000 0.11172  0.85638  0.22200  Biso   1.000  C
  C282     1.0000 0.74788  0.15251  0.06381  Biso   1.000  C
  C283     1.0000 0.74892  0.21619  0.01968  Biso   1.000  C
  C284     1.0000 0.75560  0.05232  0.29540  Biso   1.000  C
  H173     1.0000 0.73320  0.14919  0.29709  Biso   1.000  H
  H174     1.0000 0.75528  0.95520  0.27771  Biso   1.000  H
  H175     1.0000 0.34973  0.89708  0.30121  Biso   1.000  H
  H176     1.0000 0.31089  0.84081  0.33819  Biso   1.000  H
  C285     1.0000 0.39733  0.80748  0.28541  Biso   1.000  C
  C286     1.0000 0.11432  0.79869  0.11868  Biso   1.000  C
  C287     1.0000 0.19702  0.82490  0.87491  Biso   1.000  C
  C288     1.0000 0.21988  0.76180  0.91089  Biso   1.000  C
  O44      1.0000 0.89698  0.19940  0.81249  Biso   1.000  O
  C289     1.0000 0.81509  0.11859  0.74719  Biso   1.000  C
  C290     1.0000 0.88488  0.02928  0.70410  Biso   1.000  C
  O45      1.0000 0.03140  0.02240  0.72840  Biso   1.000  O
  C291     1.0000 0.04723  0.07550  0.56779  Biso   1.000  C
  H177     1.0000 0.16248  0.05959  0.55422  Biso   1.000  H
  H178     1.0000 0.16248  0.05959  0.55417  Biso   1.000  H
  H179     1.0000 0.02879  0.14850  0.39942  Biso   1.000  H
  C292     1.0000 0.96700  0.12879  0.47511  Biso   1.000  C
  C293     1.0000 0.91090  0.84520  0.23059  Biso   1.000  C
  C294     1.0000 0.90402  0.83139  0.20768  Biso   1.000  C
  O46      1.0000 0.10302  0.80060  0.18751  Biso   1.000  O
  O47      1.0000 0.78560  0.15690  0.00641  Biso   1.000  O
  H180     1.0000 0.80130  0.05271  0.32750  Biso   1.000  H
  H181     1.0000 0.37698  0.76312  0.28402  Biso   1.000  H
  H182     1.0000 0.41161  0.81719  0.24198  Biso   1.000  H
  C295     1.0000 0.47261  0.81031  0.33551  Biso   1.000  C
  H183     1.0000 0.37697  0.76312  0.28397  Biso   1.000  H
  H184     1.0000 0.08270  0.76341  0.09611  Biso   1.000  H
  H185     1.0000 0.09618  0.83930  0.09711  Biso   1.000  H
  C296     1.0000 0.16942  0.75658  0.88440  Biso   1.000  C
  C297     1.0000 0.12981  0.75721  0.90120  Biso   1.000  C
  C298     1.0000 0.88568  0.20131  0.88132  Biso   1.000  C
  C299     1.0000 0.88567  0.20131  0.88127  Biso   1.000  C
  C300     1.0000 0.74112  0.15231  0.76220  Biso   1.000  C
  C301     1.0000 0.81339  0.06139  0.71022  Biso   1.000  C
  C302     1.0000 0.88338  0.96208  0.66658  Biso   1.000  C
  C303     1.0000 0.05250  0.96808  0.76712  Biso   1.000  C
  C304     1.0000 0.05249  0.96808  0.76707  Biso   1.000  C
  H186     1.0000 0.05179  0.05720  0.60998  Biso   1.000  H
  C305     1.0000 0.97389  0.10141  0.53812  Biso   1.000  C
  C306     1.0000 0.97388  0.10141  0.53807  Biso   1.000  C
  H187     1.0000 0.91798  0.14611  0.45518  Biso   1.000  H
  C307     1.0000 0.83288  0.82802  0.18741  Biso   1.000  C
  C308     1.0000 0.83294  0.82802  0.18741  Biso   1.000  C
  C309     1.0000 0.82290  0.84779  0.16872  Biso   1.000  C
  C310     1.0000 0.73962  0.13508  0.94608  Biso   1.000  C
  C311     1.0000 0.52628  0.86018  0.32711  Biso   1.000  C
  C312     1.0000 0.49151  0.76541  0.38659  Biso   1.000  C
  C313     1.0000 0.11281  0.73359  0.82462  Biso   1.000  C
  C314     1.0000 0.11280  0.73359  0.82457  Biso   1.000  C
  C315     1.0000 0.08980  0.78181  0.83441  Biso   1.000  C
  O48      1.0000 0.80568  0.21082  0.88490  Biso   1.000  O
  H188     1.0000 0.91730  0.23659  0.90389  Biso   1.000  H
  H189     1.0000 0.90382  0.16070  0.90289  Biso   1.000  H
  C316     1.0000 0.71662  0.12732  0.82671  Biso   1.000  C
  H190     1.0000 0.75453  0.19872  0.76871  Biso   1.000  H
  C317     1.0000 0.66999  0.14738  0.70291  Biso   1.000  C
  H191     1.0000 0.76453  0.04460  0.68949  Biso   1.000  H
  C318     1.0000 0.88100  0.90801  0.71608  Biso   1.000  C
  H192     1.0000 0.93477  0.95832  0.64968  Biso   1.000  H
  C319     1.0000 0.81621  0.96169  0.60550  Biso   1.000  C
  H193     1.0000 0.93483  0.95832  0.64968  Biso   1.000  H
  O49      1.0000 0.02822  0.90830  0.73969  Biso   1.000  O
  H194     1.0000 0.11082  0.96750  0.77860  Biso   1.000  H
  H195     1.0000 0.03028  0.97301  0.80822  Biso   1.000  H
  H196     1.0000 0.03033  0.97301  0.80817  Biso   1.000  H
  H197     1.0000 0.92952  0.10039  0.56048  Biso   1.000  H
  C320     1.0000 0.84729  0.78649  0.12971  Biso   1.000  C
  C321     1.0000 0.77873  0.78898  0.13781  Biso   1.000  C
  C322     1.0000 0.75439  0.15709  0.88450  Biso   1.000  C
  C323     1.0000 0.68698  0.08330  0.95000  Biso   1.000  C
  H198     1.0000 0.51358  0.89029  0.29292  Biso   1.000  H
  C324     1.0000 0.59890  0.86521  0.36980  Biso   1.000  C
  C325     1.0000 0.56421  0.77039  0.42938  Biso   1.000  C
  H199     1.0000 0.45558  0.73198  0.39221  Biso   1.000  H
  H200     1.0000 0.45564  0.73198  0.39221  Biso   1.000  H
  C326     1.0000 0.02881  0.75760  0.82720  Biso   1.000  C
  O50      1.0000 0.02581  0.82422  0.84241  Biso   1.000  O
  C327     1.0000 0.66398  0.07550  0.83058  Biso   1.000  C
  H201     1.0000 0.65027  0.10292  0.69879  Biso   1.000  H
  H202     1.0000 0.68911  0.15919  0.66181  Biso   1.000  H
  C328     1.0000 0.60267  0.19252  0.71459  Biso   1.000  C
  C329     1.0000 0.60273  0.19252  0.71459  Biso   1.000  C
  C330     1.0000 0.80868  0.88161  0.72910  Biso   1.000  C
  C331     1.0000 0.95371  0.88619  0.75112  Biso   1.000  C
  H203     1.0000 0.76373  0.96281  0.62002  Biso   1.000  H
  C332     1.0000 0.82388  0.89839  0.56371  Biso   1.000  C
  H204     1.0000 0.82113  0.00000  0.57832  Biso   1.000  H
  H205     1.0000 0.82112  0.00000  0.57827  Biso   1.000  H
  C333     1.0000 0.78133  0.79132  0.07132  Biso   1.000  C
  C334     1.0000 0.76701  0.78839  0.06341  Biso   1.000  C
  C335     1.0000 0.64921  0.05349  0.89221  Biso   1.000  C
  O51      1.0000 0.67083  0.06090  0.01352  Biso   1.000  O
  H206     1.0000 0.63489  0.89859  0.36418  Biso   1.000  H
  C336     1.0000 0.61787  0.82021  0.42098  Biso   1.000  C
  H207     1.0000 0.57679  0.74028  0.46358  Biso   1.000  H
  C337     1.0000 0.95399  0.83788  0.79922  Biso   1.000  C
  C338     1.0000 0.95398  0.83788  0.79917  Biso   1.000  C
  H208     1.0000 0.63873  0.05549  0.79202  Biso   1.000  H
  H209     1.0000 0.62302  0.23688  0.71598  Biso   1.000  H
  H210     1.0000 0.58839  0.18281  0.75802  Biso   1.000  H
  C339     1.0000 0.52739  0.18969  0.66449  Biso   1.000  C
  H211     1.0000 0.58838  0.18281  0.75797  Biso   1.000  H
  C340     1.0000 0.80901  0.83329  0.77711  Biso   1.000  C
  H212     1.0000 0.76008  0.89610  0.70559  Biso   1.000  H
  H213     1.0000 0.77550  0.89410  0.53131  Biso   1.000  H
  H214     1.0000 0.82618  0.86111  0.59318  Biso   1.000  H
  C341     1.0000 0.89330  0.89571  0.52872  Biso   1.000  C
  C342     1.0000 0.89330  0.89571  0.52867  Biso   1.000  C
  O52      1.0000 0.77828  0.85042  0.03608  Biso   1.000  O
  C343     1.0000 0.59809  0.99429  0.89658  Biso   1.000  C
  C344     1.0000 0.70748  0.00361  0.03722  Biso   1.000  C
  C345     1.0000 0.70748  0.00361  0.03717  Biso   1.000  C
  H215     1.0000 0.66652  0.82358  0.44961  Biso   1.000  H
  C346     1.0000 0.88173  0.81148  0.81219  Biso   1.000  C
  C347     1.0000 0.47372  0.13982  0.67289  Biso   1.000  C
  C348     1.0000 0.50849  0.23459  0.61341  Biso   1.000  C
  C349     1.0000 0.73299  0.80670  0.79430  Biso   1.000  C
  C350     1.0000 0.88651  0.92309  0.46561  Biso   1.000  C
  C351     1.0000 0.96658  0.86980  0.55839  Biso   1.000  C
  C352     1.0000 0.73159  0.86062  0.97421  Biso   1.000  C
  C353     1.0000 0.64282  0.93168  0.90289  Biso   1.000  C
  H216     1.0000 0.57641  0.99902  0.93838  Biso   1.000  H
  C354     1.0000 0.52383  0.99610  0.84171  Biso   1.000  C
  O53      1.0000 0.66642  0.94720  0.02132  Biso   1.000  O
  O54      1.0000 0.66641  0.94720  0.02127  Biso   1.000  O
  H217     1.0000 0.71889  0.00659  0.08518  Biso   1.000  H
  H218     1.0000 0.75889  0.00049  0.02102  Biso   1.000  H
  H219     1.0000 0.75888  0.00049  0.02097  Biso   1.000  H
  O55      1.0000 0.88582  0.76121  0.85439  Biso   1.000  O
  H220     1.0000 0.48642  0.10971  0.70708  Biso   1.000  H
  C355     1.0000 0.40110  0.13479  0.63020  Biso   1.000  C
  C356     1.0000 0.43579  0.22961  0.57062  Biso   1.000  C
  H221     1.0000 0.54442  0.26802  0.60779  Biso   1.000  H
  C357     1.0000 0.70981  0.84310  0.85588  Biso   1.000  C
  H222     1.0000 0.74508  0.76170  0.80891  Biso   1.000  H
  C358     1.0000 0.66817  0.80172  0.73238  Biso   1.000  C
  C359     1.0000 0.66823  0.80172  0.73238  Biso   1.000  C
  H223     1.0000 0.83752  0.94041  0.44578  Biso   1.000  H
  C360     1.0000 0.95277  0.92450  0.43221  Biso   1.000  C
  C361     1.0000 0.95283  0.92450  0.43221  Biso   1.000  C
  H224     1.0000 0.97121  0.85150  0.60058  Biso   1.000  H
  C362     1.0000 0.03300  0.87121  0.52489  Biso   1.000  C
  C363     1.0000 0.74672  0.82529  0.91909  Biso   1.000  C
  C364     1.0000 0.67968  0.91391  0.96611  Biso   1.000  C
  C365     1.0000 0.67974  0.91391  0.96611  Biso   1.000  C
  C366     1.0000 0.65789  0.89639  0.84778  Biso   1.000  C
  H225     1.0000 0.54102  0.98560  0.79952  Biso   1.000  H
  C367     1.0000 0.45623  0.94900  0.85310  Biso   1.000  C
  H226     1.0000 0.54102  0.98560  0.79947  Biso   1.000  H
  H227     1.0000 0.50238  0.04012  0.83848  Biso   1.000  H
  C368     1.0000 0.87201  0.77288  0.92222  Biso   1.000  C
  C369     1.0000 0.87200  0.77288  0.92217  Biso   1.000  C
  H228     1.0000 0.36511  0.10141  0.63582  Biso   1.000  H
  C370     1.0000 0.38213  0.17979  0.57902  Biso   1.000  C
  H229     1.0000 0.36510  0.10141  0.63577  Biso   1.000  H
  H230     1.0000 0.42321  0.25972  0.53642  Biso   1.000  H
  H231     1.0000 0.42320  0.25972  0.53638  Biso   1.000  H
  H232     1.0000 0.69198  0.78391  0.69570  Biso   1.000  H
  H233     1.0000 0.64769  0.84491  0.71981  Biso   1.000  H
  C371     1.0000 0.60700  0.76312  0.74441  Biso   1.000  C
  H234     1.0000 0.94821  0.94280  0.39002  Biso   1.000  H
  C372     1.0000 0.02611  0.89859  0.46188  Biso   1.000  C
  H235     1.0000 0.08202  0.85389  0.54482  Biso   1.000  H
  H236     1.0000 0.08201  0.85389  0.54477  Biso   1.000  H
  O56      1.0000 0.79190  0.77112  0.92849  Biso   1.000  O
  H237     1.0000 0.63321  0.90830  0.80549  Biso   1.000  H
  H238     1.0000 0.43992  0.95940  0.89559  Biso   1.000  H
  H239     1.0000 0.47809  0.90508  0.85628  Biso   1.000  H
  C373     1.0000 0.38122  0.94900  0.80061  Biso   1.000  C
  H240     1.0000 0.89390  0.81519  0.93659  Biso   1.000  H
  H241     1.0000 0.90059  0.74008  0.95100  Biso   1.000  H
  H242     1.0000 0.33348  0.17642  0.55039  Biso   1.000  H
  H243     1.0000 0.62811  0.72559  0.77050  Biso   1.000  H
  H244     1.0000 0.57191  0.78708  0.76960  Biso   1.000  H
  C374     1.0000 0.55552  0.73871  0.67359  Biso   1.000  C
  H245     1.0000 0.07048  0.89961  0.43952  Biso   1.000  H
  C375     1.0000 0.35358  0.89059  0.77080  Biso   1.000  C
  C376     1.0000 0.34038  0.00678  0.78238  Biso   1.000  C
  C377     1.0000 0.48773  0.77732  0.65530  Biso   1.000  C
  C378     1.0000 0.56942  0.68489  0.63522  Biso   1.000  C
  C379     1.0000 0.56941  0.68489  0.63517  Biso   1.000  C
  C380     1.0000 0.28529  0.88990  0.72279  Biso   1.000  C
  H246     1.0000 0.38097  0.85189  0.78302  Biso   1.000  H
  H247     1.0000 0.38103  0.85189  0.78297  Biso   1.000  H
  H248     1.0000 0.35883  0.04592  0.80240  Biso   1.000  H
  C381     1.0000 0.27198  0.00620  0.73442  Biso   1.000  C
  C382     1.0000 0.27203  0.00620  0.73437  Biso   1.000  C
  H249     1.0000 0.47840  0.81328  0.68089  Biso   1.000  H
  C383     1.0000 0.43370  0.76209  0.59860  Biso   1.000  C
  C384     1.0000 0.51541  0.66971  0.57862  Biso   1.000  C
  H250     1.0000 0.61471  0.65902  0.64750  Biso   1.000  H
  C385     1.0000 0.24440  0.94768  0.70460  Biso   1.000  C
  H251     1.0000 0.26680  0.85081  0.70291  Biso   1.000  H
  H252     1.0000 0.24472  0.04480  0.72229  Biso   1.000  H
  H253     1.0000 0.38829  0.78800  0.58632  Biso   1.000  H
  C386     1.0000 0.44747  0.70841  0.56018  Biso   1.000  C
  H254     1.0000 0.38828  0.78800  0.58627  Biso   1.000  H
  H255     1.0000 0.52460  0.63379  0.55292  Biso   1.000  H
  H256     1.0000 0.52459  0.63379  0.55287  Biso   1.000  H
  H257     1.0000 0.19870  0.94729  0.67250  Biso   1.000  H
  H258     1.0000 0.41139  0.69821  0.52231  Biso   1.000  H
  C387     1.0000 0.25328  0.17471  0.08091  Biso   1.000  C
  C388     1.0000 0.29019  0.15690  0.14412  Biso   1.000  C
  C389     1.0000 0.29019  0.15690  0.14407  Biso   1.000  C
  O57      1.0000 0.20810  0.22888  0.07151  Biso   1.000  O
  C390     1.0000 0.26841  0.13938  0.02579  Biso   1.000  C
  C391     1.0000 0.26701  0.19330  0.20570  Biso   1.000  C
  C392     1.0000 0.34211  0.10361  0.15222  Biso   1.000  C
  C393     1.0000 0.34210  0.10361  0.15217  Biso   1.000  C
  C394     1.0000 0.12799  0.22712  0.07778  Biso   1.000  C
  C395     1.0000 0.32032  0.08609  0.03389  Biso   1.000  C
  O58      1.0000 0.22172  0.14958  0.96392  Biso   1.000  O
  O59      1.0000 0.22171  0.14958  0.96387  Biso   1.000  O
  C396     1.0000 0.19099  0.16671  0.22289  Biso   1.000  C
  H259     1.0000 0.25492  0.23830  0.19109  Biso   1.000  H
  C397     1.0000 0.33183  0.19828  0.26762  Biso   1.000  C
  C398     1.0000 0.33182  0.19828  0.26757  Biso   1.000  C
  H260     1.0000 0.36679  0.09170  0.19451  Biso   1.000  H
  C399     1.0000 0.35718  0.06832  0.09711  Biso   1.000  C
  C400     1.0000 0.35724  0.06832  0.09711  Biso   1.000  C
  O60      1.0000 0.11418  0.23879  0.14561  Biso   1.000  O
  H261     1.0000 0.10610  0.18481  0.06341  Biso   1.000  H
  H262     1.0000 0.09941  0.25992  0.04900  Biso   1.000  H
  O61      1.0000 0.33358  0.05280  0.97868  Biso   1.000  O
  C401     1.0000 0.21867  0.20868  0.92868  Biso   1.000  C
  C402     1.0000 0.21873  0.20868  0.92868  Biso   1.000  C
  C403     1.0000 0.23299  0.21161  0.93659  Biso   1.000  C
  C404     1.0000 0.19132  0.11839  0.27090  Biso   1.000  C
  C405     1.0000 0.11827  0.18852  0.18781  Biso   1.000  C
  C406     1.0000 0.11833  0.18852  0.18781  Biso   1.000  C
  H263     1.0000 0.30802  0.21609  0.30430  Biso   1.000  H
  H264     1.0000 0.35231  0.15509  0.28019  Biso   1.000  H
  C407     1.0000 0.39300  0.23688  0.25559  Biso   1.000  C
  C408     1.0000 0.40191  0.00571  0.10342  Biso   1.000  C
  C409     1.0000 0.40190  0.00571  0.10337  Biso   1.000  C
  C410     1.0000 0.29252  0.99639  0.96278  Biso   1.000  C
  C411     1.0000 0.15271  0.21351  0.87029  Biso   1.000  C
  C412     1.0000 0.22133  0.21102  0.86219  Biso   1.000  C
  H265     1.0000 0.23992  0.10390  0.29441  Biso   1.000  H
  C413     1.0000 0.11900  0.09199  0.28392  Biso   1.000  C
  C414     1.0000 0.11899  0.09199  0.28387  Biso   1.000  C
  C415     1.0000 0.04601  0.16212  0.20078  Biso   1.000  C
  H266     1.0000 0.37189  0.27441  0.22950  Biso   1.000  H
  H267     1.0000 0.42809  0.21292  0.23040  Biso   1.000  H
  C416     1.0000 0.44448  0.26129  0.32641  Biso   1.000  C
  H268     1.0000 0.42359  0.00098  0.06162  Biso   1.000  H
  C417     1.0000 0.47617  0.00390  0.15829  Biso   1.000  C
  H269     1.0000 0.42358  0.00098  0.06157  Biso   1.000  H
  C418     1.0000 0.47623  0.00390  0.15829  Biso   1.000  C
  C419     1.0000 0.35079  0.94651  0.10779  Biso   1.000  C
  O62      1.0000 0.32917  0.93910  0.98648  Biso   1.000  O
  H270     1.0000 0.28111  0.99341  0.91482  Biso   1.000  H
  H271     1.0000 0.24111  0.99951  0.97898  Biso   1.000  H
  O63      1.0000 0.32923  0.93910  0.98648  Biso   1.000  O
  H272     1.0000 0.28110  0.99341  0.91477  Biso   1.000  H
  C420     1.0000 0.16712  0.17198  0.81259  Biso   1.000  C
  C421     1.0000 0.17710  0.15221  0.83128  Biso   1.000  C
  C422     1.0000 0.04629  0.11381  0.24888  Biso   1.000  C
  C423     1.0000 0.11662  0.03792  0.33342  Biso   1.000  C
  C424     1.0000 0.11661  0.03792  0.33337  Biso   1.000  C
  O64      1.0000 0.97419  0.17578  0.15759  Biso   1.000  O
  C425     1.0000 0.43058  0.31511  0.36478  Biso   1.000  C
  C426     1.0000 0.51227  0.22268  0.34470  Biso   1.000  C
  C427     1.0000 0.51233  0.22268  0.34470  Biso   1.000  C
  H273     1.0000 0.45898  0.01440  0.20048  Biso   1.000  H
  C428     1.0000 0.54377  0.05100  0.14690  Biso   1.000  C
  C429     1.0000 0.54383  0.05100  0.14690  Biso   1.000  C
  H274     1.0000 0.49762  0.95988  0.16152  Biso   1.000  H
  C430     1.0000 0.33602  0.92450  0.16942  Biso   1.000  C
  C431     1.0000 0.31302  0.91670  0.05000  Biso   1.000  C
  C432     1.0000 0.08910  0.15480  0.76941  Biso   1.000  C
  C433     1.0000 0.09598  0.16861  0.79232  Biso   1.000  C
  O65      1.0000 0.97178  0.09170  0.26031  Biso   1.000  O
  H275     1.0000 0.06523  0.04168  0.35032  Biso   1.000  H
  C434     1.0000 0.18379  0.03831  0.39450  Biso   1.000  C
  C435     1.0000 0.11512  0.97072  0.29590  Biso   1.000  C
  C436     1.0000 0.97119  0.24240  0.17280  Biso   1.000  C
  C437     1.0000 0.91020  0.21819  0.16559  Biso   1.000  C
  C438     1.0000 0.48459  0.33029  0.42138  Biso   1.000  C
  H276     1.0000 0.38529  0.34098  0.35250  Biso   1.000  H
  H277     1.0000 0.52160  0.18672  0.31911  Biso   1.000  H
  C439     1.0000 0.56630  0.23791  0.40140  Biso   1.000  C
  C440     1.0000 0.61878  0.05100  0.19939  Biso   1.000  C
  H278     1.0000 0.56008  0.04060  0.10441  Biso   1.000  H
  H279     1.0000 0.52191  0.09492  0.14372  Biso   1.000  H
  H280     1.0000 0.56014  0.04060  0.10441  Biso   1.000  H
  H281     1.0000 0.52190  0.09492  0.14367  Biso   1.000  H
  C441     1.0000 0.28338  0.87268  0.17329  Biso   1.000  C
  H282     1.0000 0.36127  0.94451  0.20798  Biso   1.000  H
  C442     1.0000 0.28344  0.87268  0.17329  Biso   1.000  C
  H283     1.0000 0.36133  0.94451  0.20798  Biso   1.000  H
  C443     1.0000 0.26038  0.86492  0.05392  Biso   1.000  C
  C444     1.0000 0.26037  0.86492  0.05387  Biso   1.000  C
  O66      1.0000 0.03562  0.12640  0.80812  Biso   1.000  O
  O67      1.0000 0.03562  0.12640  0.80807  Biso   1.000  O
  C445     1.0000 0.94750  0.03192  0.23288  Biso   1.000  C
  H284     1.0000 0.23627  0.03719  0.37998  Biso   1.000  H
  C446     1.0000 0.17612  0.10161  0.43629  Biso   1.000  C
  H285     1.0000 0.17887  0.00000  0.42168  Biso   1.000  H
  H286     1.0000 0.17893  0.00000  0.42168  Biso   1.000  H
  C447     1.0000 0.04191  0.94568  0.26499  Biso   1.000  C
  C448     1.0000 0.18661  0.93861  0.28978  Biso   1.000  C
  C449     1.0000 0.88719  0.26641  0.17538  Biso   1.000  C
  C450     1.0000 0.83058  0.24342  0.11560  Biso   1.000  C
  C451     1.0000 0.87019  0.24279  0.09880  Biso   1.000  C
  H287     1.0000 0.47540  0.36621  0.44708  Biso   1.000  H
  C452     1.0000 0.55253  0.29159  0.43982  Biso   1.000  C
  C453     1.0000 0.55252  0.29159  0.43977  Biso   1.000  C
  H288     1.0000 0.61171  0.21200  0.41368  Biso   1.000  H
  C454     1.0000 0.64642  0.10941  0.22920  Biso   1.000  C
  C455     1.0000 0.65962  0.99322  0.21762  Biso   1.000  C
  C456     1.0000 0.65961  0.99322  0.21757  Biso   1.000  C
  C457     1.0000 0.25888  0.84769  0.23780  Biso   1.000  C
  C458     1.0000 0.24561  0.84291  0.11550  Biso   1.000  C
  O68      1.0000 0.21440  0.84310  0.99359  Biso   1.000  O
  C459     1.0000 0.95979  0.11151  0.77199  Biso   1.000  C
  O69      1.0000 0.96860  0.97760  0.27160  Biso   1.000  O
  H289     1.0000 0.88918  0.03250  0.22140  Biso   1.000  H
  H290     1.0000 0.96972  0.02699  0.19178  Biso   1.000  H
  H291     1.0000 0.22450  0.10590  0.46869  Biso   1.000  H
  C460     1.0000 0.10670  0.10429  0.47128  Biso   1.000  C
  H292     1.0000 0.17382  0.13889  0.40682  Biso   1.000  H
  H293     1.0000 0.17381  0.13889  0.40677  Biso   1.000  H
  C461     1.0000 0.04021  0.88849  0.22801  Biso   1.000  C
  H294     1.0000 0.23547  0.95540  0.31051  Biso   1.000  H
  C462     1.0000 0.18491  0.88141  0.25281  Biso   1.000  C
  H295     1.0000 0.23553  0.95540  0.31051  Biso   1.000  H
  C463     1.0000 0.80298  0.17510  0.12509  Biso   1.000  C
  C464     1.0000 0.78012  0.23820  0.08911  Biso   1.000  C
  H296     1.0000 0.58861  0.30179  0.47769  Biso   1.000  H
  C465     1.0000 0.71471  0.11010  0.27721  Biso   1.000  C
  H297     1.0000 0.61903  0.14811  0.21698  Biso   1.000  H
  H298     1.0000 0.64117  0.95408  0.19760  Biso   1.000  H
  C466     1.0000 0.72802  0.99380  0.26558  Biso   1.000  C
  H299     1.0000 0.64123  0.95408  0.19760  Biso   1.000  H
  H300     1.0000 0.24547  0.80128  0.23129  Biso   1.000  H
  C467     1.0000 0.33001  0.85262  0.29709  Biso   1.000  C
  H301     1.0000 0.24553  0.80128  0.23129  Biso   1.000  H
  O70      1.0000 0.19432  0.78918  0.11510  Biso   1.000  O
  C468     1.0000 0.25212  0.84749  0.93619  Biso   1.000  C
  C469     1.0000 0.25113  0.78381  0.98027  Biso   1.000  C
  C470     1.0000 0.88828  0.14362  0.77800  Biso   1.000  C
  C471     1.0000 0.95809  0.05432  0.73501  Biso   1.000  C
  C472     1.0000 0.11349  0.07691  0.53439  Biso   1.000  C
  C473     1.0000 0.03342  0.13020  0.44161  Biso   1.000  C
  O71      1.0000 0.96438  0.87360  0.19188  Biso   1.000  O
  C474     1.0000 0.11172  0.85638  0.22200  Biso   1.000  C
  C475     1.0000 0.74788  0.15251  0.06381  Biso   1.000  C
  C476     1.0000 0.74892  0.21619  0.01968  Biso   1.000  C
  C477     1.0000 0.75560  0.05232  0.29540  Biso   1.000  C
  H302     1.0000 0.73320  0.14919  0.29709  Biso   1.000  H
  H303     1.0000 0.75528  0.95520  0.27771  Biso   1.000  H
  H304     1.0000 0.34973  0.89708  0.30121  Biso   1.000  H
  H305     1.0000 0.31089  0.84081  0.33819  Biso   1.000  H
  C478     1.0000 0.39733  0.80748  0.28541  Biso   1.000  C
  C479     1.0000 0.11432  0.79869  0.11868  Biso   1.000  C
  C480     1.0000 0.19702  0.82490  0.87491  Biso   1.000  C
  C481     1.0000 0.21988  0.76180  0.91089  Biso   1.000  C
  O72      1.0000 0.89698  0.19940  0.81249  Biso   1.000  O
  C482     1.0000 0.81509  0.11859  0.74719  Biso   1.000  C
  C483     1.0000 0.88488  0.02928  0.70410  Biso   1.000  C
  O73      1.0000 0.03140  0.02240  0.72840  Biso   1.000  O
  C484     1.0000 0.04723  0.07550  0.56779  Biso   1.000  C
  H306     1.0000 0.16248  0.05959  0.55422  Biso   1.000  H
  H307     1.0000 0.16248  0.05959  0.55417  Biso   1.000  H
  H308     1.0000 0.02879  0.14850  0.39942  Biso   1.000  H
  C485     1.0000 0.96700  0.12879  0.47511  Biso   1.000  C
  C486     1.0000 0.91090  0.84520  0.23059  Biso   1.000  C
  C487     1.0000 0.90402  0.83139  0.20768  Biso   1.000  C
  O74      1.0000 0.10302  0.80060  0.18751  Biso   1.000  O
  O75      1.0000 0.78560  0.15690  0.00641  Biso   1.000  O
  H309     1.0000 0.80130  0.05271  0.32750  Biso   1.000  H
  H310     1.0000 0.37698  0.76312  0.28402  Biso   1.000  H
  H311     1.0000 0.41161  0.81719  0.24198  Biso   1.000  H
  C488     1.0000 0.47261  0.81031  0.33551  Biso   1.000  C
  H312     1.0000 0.37697  0.76312  0.28397  Biso   1.000  H
  H313     1.0000 0.08270  0.76341  0.09611  Biso   1.000  H
  H314     1.0000 0.09618  0.83930  0.09711  Biso   1.000  H
  C489     1.0000 0.16942  0.75658  0.88440  Biso   1.000  C
  C490     1.0000 0.12981  0.75721  0.90120  Biso   1.000  C
  C491     1.0000 0.88568  0.20131  0.88132  Biso   1.000  C
  C492     1.0000 0.88567  0.20131  0.88127  Biso   1.000  C
  C493     1.0000 0.74112  0.15231  0.76220  Biso   1.000  C
  C494     1.0000 0.81339  0.06139  0.71022  Biso   1.000  C
  C495     1.0000 0.88338  0.96208  0.66658  Biso   1.000  C
  C496     1.0000 0.05250  0.96808  0.76712  Biso   1.000  C
  C497     1.0000 0.05249  0.96808  0.76707  Biso   1.000  C
  H315     1.0000 0.05179  0.05720  0.60998  Biso   1.000  H
  C498     1.0000 0.97389  0.10141  0.53812  Biso   1.000  C
  C499     1.0000 0.97388  0.10141  0.53807  Biso   1.000  C
  H316     1.0000 0.91798  0.14611  0.45518  Biso   1.000  H
  C500     1.0000 0.83288  0.82802  0.18741  Biso   1.000  C
  C501     1.0000 0.83294  0.82802  0.18741  Biso   1.000  C
  C502     1.0000 0.82290  0.84779  0.16872  Biso   1.000  C
  C503     1.0000 0.73962  0.13508  0.94608  Biso   1.000  C
  C504     1.0000 0.52628  0.86018  0.32711  Biso   1.000  C
  C505     1.0000 0.49151  0.76541  0.38659  Biso   1.000  C
  C506     1.0000 0.11281  0.73359  0.82462  Biso   1.000  C
  C507     1.0000 0.11280  0.73359  0.82457  Biso   1.000  C
  C508     1.0000 0.08980  0.78181  0.83441  Biso   1.000  C
  O76      1.0000 0.80568  0.21082  0.88490  Biso   1.000  O
  H317     1.0000 0.91730  0.23659  0.90389  Biso   1.000  H
  H318     1.0000 0.90382  0.16070  0.90289  Biso   1.000  H
  C509     1.0000 0.71662  0.12732  0.82671  Biso   1.000  C
  H319     1.0000 0.75453  0.19872  0.76871  Biso   1.000  H
  C510     1.0000 0.66999  0.14738  0.70291  Biso   1.000  C
  H320     1.0000 0.76453  0.04460  0.68949  Biso   1.000  H
  C511     1.0000 0.88100  0.90801  0.71608  Biso   1.000  C
  H321     1.0000 0.93477  0.95832  0.64968  Biso   1.000  H
  C512     1.0000 0.81621  0.96169  0.60550  Biso   1.000  C
  H322     1.0000 0.93483  0.95832  0.64968  Biso   1.000  H
  O77      1.0000 0.02822  0.90830  0.73969  Biso   1.000  O
  H323     1.0000 0.11082  0.96750  0.77860  Biso   1.000  H
  H324     1.0000 0.03028  0.97301  0.80822  Biso   1.000  H
  H325     1.0000 0.03033  0.97301  0.80817  Biso   1.000  H
  H326     1.0000 0.92952  0.10039  0.56048  Biso   1.000  H
  C513     1.0000 0.84729  0.78649  0.12971  Biso   1.000  C
  C514     1.0000 0.77873  0.78898  0.13781  Biso   1.000  C
  C515     1.0000 0.75439  0.15709  0.88450  Biso   1.000  C
  C516     1.0000 0.68698  0.08330  0.95000  Biso   1.000  C
  H327     1.0000 0.51358  0.89029  0.29292  Biso   1.000  H
  C517     1.0000 0.59890  0.86521  0.36980  Biso   1.000  C
  C518     1.0000 0.56421  0.77039  0.42938  Biso   1.000  C
  H328     1.0000 0.45558  0.73198  0.39221  Biso   1.000  H
  H329     1.0000 0.45564  0.73198  0.39221  Biso   1.000  H
  C519     1.0000 0.02881  0.75760  0.82720  Biso   1.000  C
  O78      1.0000 0.02581  0.82422  0.84241  Biso   1.000  O
  C520     1.0000 0.66398  0.07550  0.83058  Biso   1.000  C
  H330     1.0000 0.65027  0.10292  0.69879  Biso   1.000  H
  H331     1.0000 0.68911  0.15919  0.66181  Biso   1.000  H
  C521     1.0000 0.60267  0.19252  0.71459  Biso   1.000  C
  C522     1.0000 0.60273  0.19252  0.71459  Biso   1.000  C
  C523     1.0000 0.80868  0.88161  0.72910  Biso   1.000  C
  C524     1.0000 0.95371  0.88619  0.75112  Biso   1.000  C
  H332     1.0000 0.76373  0.96281  0.62002  Biso   1.000  H
  C525     1.0000 0.82388  0.89839  0.56371  Biso   1.000  C
  H333     1.0000 0.82113  0.00000  0.57832  Biso   1.000  H
  H334     1.0000 0.82112  0.00000  0.57827  Biso   1.000  H
  C526     1.0000 0.78133  0.79132  0.07132  Biso   1.000  C
  C527     1.0000 0.76701  0.78839  0.06341  Biso   1.000  C
  C528     1.0000 0.64921  0.05349  0.89221  Biso   1.000  C
  O79      1.0000 0.67083  0.06090  0.01352  Biso   1.000  O
  H335     1.0000 0.63489  0.89859  0.36418  Biso   1.000  H
  C529     1.0000 0.61787  0.82021  0.42098  Biso   1.000  C
  H336     1.0000 0.57679  0.74028  0.46358  Biso   1.000  H
  C530     1.0000 0.95399  0.83788  0.79922  Biso   1.000  C
  C531     1.0000 0.95398  0.83788  0.79917  Biso   1.000  C
  H337     1.0000 0.63873  0.05549  0.79202  Biso   1.000  H
  H338     1.0000 0.62302  0.23688  0.71598  Biso   1.000  H
  H339     1.0000 0.58839  0.18281  0.75802  Biso   1.000  H
  C532     1.0000 0.52739  0.18969  0.66449  Biso   1.000  C
  H340     1.0000 0.58838  0.18281  0.75797  Biso   1.000  H
  C533     1.0000 0.80901  0.83329  0.77711  Biso   1.000  C
  H341     1.0000 0.76008  0.89610  0.70559  Biso   1.000  H
  H342     1.0000 0.77550  0.89410  0.53131  Biso   1.000  H
  H343     1.0000 0.82618  0.86111  0.59318  Biso   1.000  H
  C534     1.0000 0.89330  0.89571  0.52872  Biso   1.000  C
  C535     1.0000 0.89330  0.89571  0.52867  Biso   1.000  C
  O80      1.0000 0.77828  0.85042  0.03608  Biso   1.000  O
  C536     1.0000 0.59809  0.99429  0.89658  Biso   1.000  C
  C537     1.0000 0.70748  0.00361  0.03722  Biso   1.000  C
  C538     1.0000 0.70748  0.00361  0.03717  Biso   1.000  C
  H344     1.0000 0.66652  0.82358  0.44961  Biso   1.000  H
  C539     1.0000 0.88173  0.81148  0.81219  Biso   1.000  C
  C540     1.0000 0.47372  0.13982  0.67289  Biso   1.000  C
  C541     1.0000 0.50849  0.23459  0.61341  Biso   1.000  C
  C542     1.0000 0.73299  0.80670  0.79430  Biso   1.000  C
  C543     1.0000 0.88651  0.92309  0.46561  Biso   1.000  C
  C544     1.0000 0.96658  0.86980  0.55839  Biso   1.000  C
  C545     1.0000 0.73159  0.86062  0.97421  Biso   1.000  C
  C546     1.0000 0.64282  0.93168  0.90289  Biso   1.000  C
  H345     1.0000 0.57641  0.99902  0.93838  Biso   1.000  H
  C547     1.0000 0.52383  0.99610  0.84171  Biso   1.000  C
  O81      1.0000 0.66642  0.94720  0.02132  Biso   1.000  O
  O82      1.0000 0.66641  0.94720  0.02127  Biso   1.000  O
  H346     1.0000 0.71889  0.00659  0.08518  Biso   1.000  H
  H347     1.0000 0.75889  0.00049  0.02102  Biso   1.000  H
  H348     1.0000 0.75888  0.00049  0.02097  Biso   1.000  H
  O83      1.0000 0.88582  0.76121  0.85439  Biso   1.000  O
  H349     1.0000 0.48642  0.10971  0.70708  Biso   1.000  H
  C548     1.0000 0.40110  0.13479  0.63020  Biso   1.000  C
  C549     1.0000 0.43579  0.22961  0.57062  Biso   1.000  C
  H350     1.0000 0.54442  0.26802  0.60779  Biso   1.000  H
  C550     1.0000 0.70981  0.84310  0.85588  Biso   1.000  C
  H351     1.0000 0.74508  0.76170  0.80891  Biso   1.000  H
  C551     1.0000 0.66817  0.80172  0.73238  Biso   1.000  C
  C552     1.0000 0.66823  0.80172  0.73238  Biso   1.000  C
  H352     1.0000 0.83752  0.94041  0.44578  Biso   1.000  H
  C553     1.0000 0.95277  0.92450  0.43221  Biso   1.000  C
  C554     1.0000 0.95283  0.92450  0.43221  Biso   1.000  C
  H353     1.0000 0.97121  0.85150  0.60058  Biso   1.000  H
  C555     1.0000 0.03300  0.87121  0.52489  Biso   1.000  C
  C556     1.0000 0.74672  0.82529  0.91909  Biso   1.000  C
  C557     1.0000 0.67968  0.91391  0.96611  Biso   1.000  C
  C558     1.0000 0.67974  0.91391  0.96611  Biso   1.000  C
  C559     1.0000 0.65789  0.89639  0.84778  Biso   1.000  C
  H354     1.0000 0.54102  0.98560  0.79952  Biso   1.000  H
  C560     1.0000 0.45623  0.94900  0.85310  Biso   1.000  C
  H355     1.0000 0.54102  0.98560  0.79947  Biso   1.000  H
  H356     1.0000 0.50238  0.04012  0.83848  Biso   1.000  H
  C561     1.0000 0.87201  0.77288  0.92222  Biso   1.000  C
  C562     1.0000 0.87200  0.77288  0.92217  Biso   1.000  C
  H357     1.0000 0.36511  0.10141  0.63582  Biso   1.000  H
  C563     1.0000 0.38213  0.17979  0.57902  Biso   1.000  C
  H358     1.0000 0.36510  0.10141  0.63577  Biso   1.000  H
  H359     1.0000 0.42321  0.25972  0.53642  Biso   1.000  H
  H360     1.0000 0.42320  0.25972  0.53638  Biso   1.000  H
  H361     1.0000 0.69198  0.78391  0.69570  Biso   1.000  H
  H362     1.0000 0.64769  0.84491  0.71981  Biso   1.000  H
  C564     1.0000 0.60700  0.76312  0.74441  Biso   1.000  C
  H363     1.0000 0.94821  0.94280  0.39002  Biso   1.000  H
  C565     1.0000 0.02611  0.89859  0.46188  Biso   1.000  C
  H364     1.0000 0.08202  0.85389  0.54482  Biso   1.000  H
  H365     1.0000 0.08201  0.85389  0.54477  Biso   1.000  H
  O84      1.0000 0.79190  0.77112  0.92849  Biso   1.000  O
  H366     1.0000 0.63321  0.90830  0.80549  Biso   1.000  H
  H367     1.0000 0.43992  0.95940  0.89559  Biso   1.000  H
  H368     1.0000 0.47809  0.90508  0.85628  Biso   1.000  H
  C566     1.0000 0.38122  0.94900  0.80061  Biso   1.000  C
  H369     1.0000 0.89390  0.81519  0.93659  Biso   1.000  H
  H370     1.0000 0.90059  0.74008  0.95100  Biso   1.000  H
  H371     1.0000 0.33348  0.17642  0.55039  Biso   1.000  H
  H372     1.0000 0.62811  0.72559  0.77050  Biso   1.000  H
  H373     1.0000 0.57191  0.78708  0.76960  Biso   1.000  H
  C567     1.0000 0.55552  0.73871  0.67359  Biso   1.000  C
  H374     1.0000 0.07048  0.89961  0.43952  Biso   1.000  H
  C568     1.0000 0.35358  0.89059  0.77080  Biso   1.000  C
  C569     1.0000 0.34038  0.00678  0.78238  Biso   1.000  C
  C570     1.0000 0.48773  0.77732  0.65530  Biso   1.000  C
  C571     1.0000 0.56942  0.68489  0.63522  Biso   1.000  C
  C572     1.0000 0.56941  0.68489  0.63517  Biso   1.000  C
  C573     1.0000 0.28529  0.88990  0.72279  Biso   1.000  C
  H375     1.0000 0.38097  0.85189  0.78302  Biso   1.000  H
  H376     1.0000 0.38103  0.85189  0.78297  Biso   1.000  H
  H377     1.0000 0.35883  0.04592  0.80240  Biso   1.000  H
  C574     1.0000 0.27198  0.00620  0.73442  Biso   1.000  C
  C575     1.0000 0.27203  0.00620  0.73437  Biso   1.000  C
  H378     1.0000 0.47840  0.81328  0.68089  Biso   1.000  H
  C576     1.0000 0.43370  0.76209  0.59860  Biso   1.000  C
  C577     1.0000 0.51541  0.66971  0.57862  Biso   1.000  C
  H379     1.0000 0.61471  0.65902  0.64750  Biso   1.000  H
  C578     1.0000 0.24440  0.94768  0.70460  Biso   1.000  C
  H380     1.0000 0.26680  0.85081  0.70291  Biso   1.000  H
  H381     1.0000 0.24472  0.04480  0.72229  Biso   1.000  H
  H382     1.0000 0.38829  0.78800  0.58632  Biso   1.000  H
  C579     1.0000 0.44747  0.70841  0.56018  Biso   1.000  C
  H383     1.0000 0.38828  0.78800  0.58627  Biso   1.000  H
  H384     1.0000 0.52460  0.63379  0.55292  Biso   1.000  H
  H385     1.0000 0.52459  0.63379  0.55287  Biso   1.000  H
  H386     1.0000 0.19870  0.94729  0.67250  Biso   1.000  H
  H387     1.0000 0.41139  0.69821  0.52231  Biso   1.000  H
  C580     1.0000 0.25328  0.17471  0.08091  Biso   1.000  C
  C581     1.0000 0.29019  0.15690  0.14412  Biso   1.000  C
  C582     1.0000 0.29019  0.15690  0.14407  Biso   1.000  C
  O85      1.0000 0.20810  0.22888  0.07151  Biso   1.000  O
  C583     1.0000 0.26841  0.13938  0.02579  Biso   1.000  C
  C584     1.0000 0.26701  0.19330  0.20570  Biso   1.000  C
  C585     1.0000 0.34211  0.10361  0.15222  Biso   1.000  C
  C586     1.0000 0.34210  0.10361  0.15217  Biso   1.000  C
  C587     1.0000 0.12799  0.22712  0.07778  Biso   1.000  C
  C588     1.0000 0.32032  0.08609  0.03389  Biso   1.000  C
  O86      1.0000 0.22172  0.14958  0.96392  Biso   1.000  O
  O87      1.0000 0.22171  0.14958  0.96387  Biso   1.000  O
  C589     1.0000 0.19099  0.16671  0.22289  Biso   1.000  C
  H388     1.0000 0.25492  0.23830  0.19109  Biso   1.000  H
  C590     1.0000 0.33183  0.19828  0.26762  Biso   1.000  C
  C591     1.0000 0.33182  0.19828  0.26757  Biso   1.000  C
  H389     1.0000 0.36679  0.09170  0.19451  Biso   1.000  H
  C592     1.0000 0.35718  0.06832  0.09711  Biso   1.000  C
  C593     1.0000 0.35724  0.06832  0.09711  Biso   1.000  C
  O88      1.0000 0.11418  0.23879  0.14561  Biso   1.000  O
  H390     1.0000 0.10610  0.18481  0.06341  Biso   1.000  H
  H391     1.0000 0.09941  0.25992  0.04900  Biso   1.000  H
  O89      1.0000 0.33358  0.05280  0.97868  Biso   1.000  O
  C594     1.0000 0.21867  0.20868  0.92868  Biso   1.000  C
  C595     1.0000 0.21873  0.20868  0.92868  Biso   1.000  C
  C596     1.0000 0.23299  0.21161  0.93659  Biso   1.000  C
  C597     1.0000 0.19132  0.11839  0.27090  Biso   1.000  C
  C598     1.0000 0.11827  0.18852  0.18781  Biso   1.000  C
  C599     1.0000 0.11833  0.18852  0.18781  Biso   1.000  C
  H392     1.0000 0.30802  0.21609  0.30430  Biso   1.000  H
  H393     1.0000 0.35231  0.15509  0.28019  Biso   1.000  H
  C600     1.0000 0.39300  0.23688  0.25559  Biso   1.000  C
  C601     1.0000 0.40191  0.00571  0.10342  Biso   1.000  C
  C602     1.0000 0.40190  0.00571  0.10337  Biso   1.000  C
  C603     1.0000 0.29252  0.99639  0.96278  Biso   1.000  C
  C604     1.0000 0.15271  0.21351  0.87029  Biso   1.000  C
  C605     1.0000 0.22133  0.21102  0.86219  Biso   1.000  C
  H394     1.0000 0.23992  0.10390  0.29441  Biso   1.000  H
  C606     1.0000 0.11900  0.09199  0.28392  Biso   1.000  C
  C607     1.0000 0.11899  0.09199  0.28387  Biso   1.000  C
  C608     1.0000 0.04601  0.16212  0.20078  Biso   1.000  C
  H395     1.0000 0.37189  0.27441  0.22950  Biso   1.000  H
  H396     1.0000 0.42809  0.21292  0.23040  Biso   1.000  H
  C609     1.0000 0.44448  0.26129  0.32641  Biso   1.000  C
  H397     1.0000 0.42359  0.00098  0.06162  Biso   1.000  H
  C610     1.0000 0.47617  0.00390  0.15829  Biso   1.000  C
  H398     1.0000 0.42358  0.00098  0.06157  Biso   1.000  H
  C611     1.0000 0.47623  0.00390  0.15829  Biso   1.000  C
  C612     1.0000 0.35079  0.94651  0.10779  Biso   1.000  C
  O90      1.0000 0.32917  0.93910  0.98648  Biso   1.000  O
  H399     1.0000 0.28111  0.99341  0.91482  Biso   1.000  H
  H400     1.0000 0.24111  0.99951  0.97898  Biso   1.000  H
  O91      1.0000 0.32923  0.93910  0.98648  Biso   1.000  O
  H401     1.0000 0.28110  0.99341  0.91477  Biso   1.000  H
  C613     1.0000 0.16712  0.17198  0.81259  Biso   1.000  C
  C614     1.0000 0.17710  0.15221  0.83128  Biso   1.000  C
  C615     1.0000 0.04629  0.11381  0.24888  Biso   1.000  C
  C616     1.0000 0.11662  0.03792  0.33342  Biso   1.000  C
  C617     1.0000 0.11661  0.03792  0.33337  Biso   1.000  C
  O92      1.0000 0.97419  0.17578  0.15759  Biso   1.000  O
  C618     1.0000 0.43058  0.31511  0.36478  Biso   1.000  C
  C619     1.0000 0.51227  0.22268  0.34470  Biso   1.000  C
  C620     1.0000 0.51233  0.22268  0.34470  Biso   1.000  C
  H402     1.0000 0.45898  0.01440  0.20048  Biso   1.000  H
  C621     1.0000 0.54377  0.05100  0.14690  Biso   1.000  C
  C622     1.0000 0.54383  0.05100  0.14690  Biso   1.000  C
  H403     1.0000 0.49762  0.95988  0.16152  Biso   1.000  H
  C623     1.0000 0.33602  0.92450  0.16942  Biso   1.000  C
  C624     1.0000 0.31302  0.91670  0.05000  Biso   1.000  C
  C625     1.0000 0.08910  0.15480  0.76941  Biso   1.000  C
  C626     1.0000 0.09598  0.16861  0.79232  Biso   1.000  C
  O93      1.0000 0.97178  0.09170  0.26031  Biso   1.000  O
  H404     1.0000 0.06523  0.04168  0.35032  Biso   1.000  H
  C627     1.0000 0.18379  0.03831  0.39450  Biso   1.000  C
  C628     1.0000 0.11512  0.97072  0.29590  Biso   1.000  C
  C629     1.0000 0.97119  0.24240  0.17280  Biso   1.000  C
  C630     1.0000 0.91020  0.21819  0.16559  Biso   1.000  C
  C631     1.0000 0.48459  0.33029  0.42138  Biso   1.000  C
  H405     1.0000 0.38529  0.34098  0.35250  Biso   1.000  H
  H406     1.0000 0.52160  0.18672  0.31911  Biso   1.000  H
  C632     1.0000 0.56630  0.23791  0.40140  Biso   1.000  C
  C633     1.0000 0.61878  0.05100  0.19939  Biso   1.000  C
  H407     1.0000 0.56008  0.04060  0.10441  Biso   1.000  H
  H408     1.0000 0.52191  0.09492  0.14372  Biso   1.000  H
  H409     1.0000 0.56014  0.04060  0.10441  Biso   1.000  H
  H410     1.0000 0.52190  0.09492  0.14367  Biso   1.000  H
  C634     1.0000 0.28338  0.87268  0.17329  Biso   1.000  C
  H411     1.0000 0.36127  0.94451  0.20798  Biso   1.000  H
  C635     1.0000 0.28344  0.87268  0.17329  Biso   1.000  C
  H412     1.0000 0.36133  0.94451  0.20798  Biso   1.000  H
  C636     1.0000 0.26038  0.86492  0.05392  Biso   1.000  C
  C637     1.0000 0.26037  0.86492  0.05387  Biso   1.000  C
  O94      1.0000 0.03562  0.12640  0.80812  Biso   1.000  O
  O95      1.0000 0.03562  0.12640  0.80807  Biso   1.000  O
  C638     1.0000 0.94750  0.03192  0.23288  Biso   1.000  C
  H413     1.0000 0.23627  0.03719  0.37998  Biso   1.000  H
  C639     1.0000 0.17612  0.10161  0.43629  Biso   1.000  C
  H414     1.0000 0.17887  0.00000  0.42168  Biso   1.000  H
  H415     1.0000 0.17893  0.00000  0.42168  Biso   1.000  H
  C640     1.0000 0.04191  0.94568  0.26499  Biso   1.000  C
  C641     1.0000 0.18661  0.93861  0.28978  Biso   1.000  C
  C642     1.0000 0.88719  0.26641  0.17538  Biso   1.000  C
  C643     1.0000 0.83058  0.24342  0.11560  Biso   1.000  C
  C644     1.0000 0.87019  0.24279  0.09880  Biso   1.000  C
  H416     1.0000 0.47540  0.36621  0.44708  Biso   1.000  H
  C645     1.0000 0.55253  0.29159  0.43982  Biso   1.000  C
  C646     1.0000 0.55252  0.29159  0.43977  Biso   1.000  C
  H417     1.0000 0.61171  0.21200  0.41368  Biso   1.000  H
  C647     1.0000 0.64642  0.10941  0.22920  Biso   1.000  C
  C648     1.0000 0.65962  0.99322  0.21762  Biso   1.000  C
  C649     1.0000 0.65961  0.99322  0.21757  Biso   1.000  C
  C650     1.0000 0.25888  0.84769  0.23780  Biso   1.000  C
  C651     1.0000 0.24561  0.84291  0.11550  Biso   1.000  C
  O96      1.0000 0.21440  0.84310  0.99359  Biso   1.000  O
  C652     1.0000 0.95979  0.11151  0.77199  Biso   1.000  C
  O97      1.0000 0.96860  0.97760  0.27160  Biso   1.000  O
  H418     1.0000 0.88918  0.03250  0.22140  Biso   1.000  H
  H419     1.0000 0.96972  0.02699  0.19178  Biso   1.000  H
  H420     1.0000 0.22450  0.10590  0.46869  Biso   1.000  H
  C653     1.0000 0.10670  0.10429  0.47128  Biso   1.000  C
  H421     1.0000 0.17382  0.13889  0.40682  Biso   1.000  H
  H422     1.0000 0.17381  0.13889  0.40677  Biso   1.000  H
  C654     1.0000 0.04021  0.88849  0.22801  Biso   1.000  C
  H423     1.0000 0.23547  0.95540  0.31051  Biso   1.000  H
  C655     1.0000 0.18491  0.88141  0.25281  Biso   1.000  C
  H424     1.0000 0.23553  0.95540  0.31051  Biso   1.000  H
  C656     1.0000 0.80298  0.17510  0.12509  Biso   1.000  C
  C657     1.0000 0.78012  0.23820  0.08911  Biso   1.000  C
  H425     1.0000 0.58861  0.30179  0.47769  Biso   1.000  H
  C658     1.0000 0.71471  0.11010  0.27721  Biso   1.000  C
  H426     1.0000 0.61903  0.14811  0.21698  Biso   1.000  H
  H427     1.0000 0.64117  0.95408  0.19760  Biso   1.000  H
  C659     1.0000 0.72802  0.99380  0.26558  Biso   1.000  C
  H428     1.0000 0.64123  0.95408  0.19760  Biso   1.000  H
  H429     1.0000 0.24547  0.80128  0.23129  Biso   1.000  H
  C660     1.0000 0.33001  0.85262  0.29709  Biso   1.000  C
  H430     1.0000 0.24553  0.80128  0.23129  Biso   1.000  H
  O98      1.0000 0.19432  0.78918  0.11510  Biso   1.000  O
  C661     1.0000 0.25212  0.84749  0.93619  Biso   1.000  C
  C662     1.0000 0.25113  0.78381  0.98027  Biso   1.000  C
  C663     1.0000 0.88828  0.14362  0.77800  Biso   1.000  C
  C664     1.0000 0.95809  0.05432  0.73501  Biso   1.000  C
  C665     1.0000 0.11349  0.07691  0.53439  Biso   1.000  C
  C666     1.0000 0.03342  0.13020  0.44161  Biso   1.000  C
  O99      1.0000 0.96438  0.87360  0.19188  Biso   1.000  O
  C667     1.0000 0.11172  0.85638  0.22200  Biso   1.000  C
  C668     1.0000 0.74788  0.15251  0.06381  Biso   1.000  C
  C669     1.0000 0.74892  0.21619  0.01968  Biso   1.000  C
  C670     1.0000 0.75560  0.05232  0.29540  Biso   1.000  C
  H431     1.0000 0.73320  0.14919  0.29709  Biso   1.000  H
  H432     1.0000 0.75528  0.95520  0.27771  Biso   1.000  H
  H433     1.0000 0.34973  0.89708  0.30121  Biso   1.000  H
  H434     1.0000 0.31089  0.84081  0.33819  Biso   1.000  H
  C671     1.0000 0.39733  0.80748  0.28541  Biso   1.000  C
  C672     1.0000 0.11432  0.79869  0.11868  Biso   1.000  C
  C673     1.0000 0.19702  0.82490  0.87491  Biso   1.000  C
  C674     1.0000 0.21988  0.76180  0.91089  Biso   1.000  C
  O100     1.0000 0.89698  0.19940  0.81249  Biso   1.000  O
  C675     1.0000 0.81509  0.11859  0.74719  Biso   1.000  C
  C676     1.0000 0.88488  0.02928  0.70410  Biso   1.000  C
  O101     1.0000 0.03140  0.02240  0.72840  Biso   1.000  O
  C677     1.0000 0.04723  0.07550  0.56779  Biso   1.000  C
  H435     1.0000 0.16248  0.05959  0.55422  Biso   1.000  H
  H436     1.0000 0.16248  0.05959  0.55417  Biso   1.000  H
  H437     1.0000 0.02879  0.14850  0.39942  Biso   1.000  H
  C678     1.0000 0.96700  0.12879  0.47511  Biso   1.000  C
  C679     1.0000 0.91090  0.84520  0.23059  Biso   1.000  C
  C680     1.0000 0.90402  0.83139  0.20768  Biso   1.000  C
  O102     1.0000 0.10302  0.80060  0.18751  Biso   1.000  O
  O103     1.0000 0.78560  0.15690  0.00641  Biso   1.000  O
  H438     1.0000 0.80130  0.05271  0.32750  Biso   1.000  H
  H439     1.0000 0.37698  0.76312  0.28402  Biso   1.000  H
  H440     1.0000 0.41161  0.81719  0.24198  Biso   1.000  H
  C681     1.0000 0.47261  0.81031  0.33551  Biso   1.000  C
  H441     1.0000 0.37697  0.76312  0.28397  Biso   1.000  H
  H442     1.0000 0.08270  0.76341  0.09611  Biso   1.000  H
  H443     1.0000 0.09618  0.83930  0.09711  Biso   1.000  H
  C682     1.0000 0.16942  0.75658  0.88440  Biso   1.000  C
  C683     1.0000 0.12981  0.75721  0.90120  Biso   1.000  C
  C684     1.0000 0.88568  0.20131  0.88132  Biso   1.000  C
  C685     1.0000 0.88567  0.20131  0.88127  Biso   1.000  C
  C686     1.0000 0.74112  0.15231  0.76220  Biso   1.000  C
  C687     1.0000 0.81339  0.06139  0.71022  Biso   1.000  C
  C688     1.0000 0.88338  0.96208  0.66658  Biso   1.000  C
  C689     1.0000 0.05250  0.96808  0.76712  Biso   1.000  C
  C690     1.0000 0.05249  0.96808  0.76707  Biso   1.000  C
  H444     1.0000 0.05179  0.05720  0.60998  Biso   1.000  H
  C691     1.0000 0.97389  0.10141  0.53812  Biso   1.000  C
  C692     1.0000 0.97388  0.10141  0.53807  Biso   1.000  C
  H445     1.0000 0.91798  0.14611  0.45518  Biso   1.000  H
  C693     1.0000 0.83288  0.82802  0.18741  Biso   1.000  C
  C694     1.0000 0.83294  0.82802  0.18741  Biso   1.000  C
  C695     1.0000 0.82290  0.84779  0.16872  Biso   1.000  C
  C696     1.0000 0.73962  0.13508  0.94608  Biso   1.000  C
  C697     1.0000 0.52628  0.86018  0.32711  Biso   1.000  C
  C698     1.0000 0.49151  0.76541  0.38659  Biso   1.000  C
  C699     1.0000 0.11281  0.73359  0.82462  Biso   1.000  C
  C700     1.0000 0.11280  0.73359  0.82457  Biso   1.000  C
  C701     1.0000 0.08980  0.78181  0.83441  Biso   1.000  C
  O104     1.0000 0.80568  0.21082  0.88490  Biso   1.000  O
  H446     1.0000 0.91730  0.23659  0.90389  Biso   1.000  H
  H447     1.0000 0.90382  0.16070  0.90289  Biso   1.000  H
  C702     1.0000 0.71662  0.12732  0.82671  Biso   1.000  C
  H448     1.0000 0.75453  0.19872  0.76871  Biso   1.000  H
  C703     1.0000 0.66999  0.14738  0.70291  Biso   1.000  C
  H449     1.0000 0.76453  0.04460  0.68949  Biso   1.000  H
  C704     1.0000 0.88100  0.90801  0.71608  Biso   1.000  C
  H450     1.0000 0.93477  0.95832  0.64968  Biso   1.000  H
  C705     1.0000 0.81621  0.96169  0.60550  Biso   1.000  C
  H451     1.0000 0.93483  0.95832  0.64968  Biso   1.000  H
  O105     1.0000 0.02822  0.90830  0.73969  Biso   1.000  O
  H452     1.0000 0.11082  0.96750  0.77860  Biso   1.000  H
  H453     1.0000 0.03028  0.97301  0.80822  Biso   1.000  H
  H454     1.0000 0.03033  0.97301  0.80817  Biso   1.000  H
  H455     1.0000 0.92952  0.10039  0.56048  Biso   1.000  H
  C706     1.0000 0.84729  0.78649  0.12971  Biso   1.000  C
  C707     1.0000 0.77873  0.78898  0.13781  Biso   1.000  C
  C708     1.0000 0.75439  0.15709  0.88450  Biso   1.000  C
  C709     1.0000 0.68698  0.08330  0.95000  Biso   1.000  C
  H456     1.0000 0.51358  0.89029  0.29292  Biso   1.000  H
  C710     1.0000 0.59890  0.86521  0.36980  Biso   1.000  C
  C711     1.0000 0.56421  0.77039  0.42938  Biso   1.000  C
  H457     1.0000 0.45558  0.73198  0.39221  Biso   1.000  H
  H458     1.0000 0.45564  0.73198  0.39221  Biso   1.000  H
  C712     1.0000 0.02881  0.75760  0.82720  Biso   1.000  C
  O106     1.0000 0.02581  0.82422  0.84241  Biso   1.000  O
  C713     1.0000 0.66398  0.07550  0.83058  Biso   1.000  C
  H459     1.0000 0.65027  0.10292  0.69879  Biso   1.000  H
  H460     1.0000 0.68911  0.15919  0.66181  Biso   1.000  H
  C714     1.0000 0.60267  0.19252  0.71459  Biso   1.000  C
  C715     1.0000 0.60273  0.19252  0.71459  Biso   1.000  C
  C716     1.0000 0.80868  0.88161  0.72910  Biso   1.000  C
  C717     1.0000 0.95371  0.88619  0.75112  Biso   1.000  C
  H461     1.0000 0.76373  0.96281  0.62002  Biso   1.000  H
  C718     1.0000 0.82388  0.89839  0.56371  Biso   1.000  C
  H462     1.0000 0.82113  0.00000  0.57832  Biso   1.000  H
  H463     1.0000 0.82112  0.00000  0.57827  Biso   1.000  H
  C719     1.0000 0.78133  0.79132  0.07132  Biso   1.000  C
  C720     1.0000 0.76701  0.78839  0.06341  Biso   1.000  C
  C721     1.0000 0.64921  0.05349  0.89221  Biso   1.000  C
  O107     1.0000 0.67083  0.06090  0.01352  Biso   1.000  O
  H464     1.0000 0.63489  0.89859  0.36418  Biso   1.000  H
  C722     1.0000 0.61787  0.82021  0.42098  Biso   1.000  C
  H465     1.0000 0.57679  0.74028  0.46358  Biso   1.000  H
  C723     1.0000 0.95399  0.83788  0.79922  Biso   1.000  C
  C724     1.0000 0.95398  0.83788  0.79917  Biso   1.000  C
  H466     1.0000 0.63873  0.05549  0.79202  Biso   1.000  H
  H467     1.0000 0.62302  0.23688  0.71598  Biso   1.000  H
  H468     1.0000 0.58839  0.18281  0.75802  Biso   1.000  H
  C725     1.0000 0.52739  0.18969  0.66449  Biso   1.000  C
  H469     1.0000 0.58838  0.18281  0.75797  Biso   1.000  H
  C726     1.0000 0.80901  0.83329  0.77711  Biso   1.000  C
  H470     1.0000 0.76008  0.89610  0.70559  Biso   1.000  H
  H471     1.0000 0.77550  0.89410  0.53131  Biso   1.000  H
  H472     1.0000 0.82618  0.86111  0.59318  Biso   1.000  H
  C727     1.0000 0.89330  0.89571  0.52872  Biso   1.000  C
  C728     1.0000 0.89330  0.89571  0.52867  Biso   1.000  C
  O108     1.0000 0.77828  0.85042  0.03608  Biso   1.000  O
  C729     1.0000 0.59809  0.99429  0.89658  Biso   1.000  C
  C730     1.0000 0.70748  0.00361  0.03722  Biso   1.000  C
  C731     1.0000 0.70748  0.00361  0.03717  Biso   1.000  C
  H473     1.0000 0.66652  0.82358  0.44961  Biso   1.000  H
  C732     1.0000 0.88173  0.81148  0.81219  Biso   1.000  C
  C733     1.0000 0.47372  0.13982  0.67289  Biso   1.000  C
  C734     1.0000 0.50849  0.23459  0.61341  Biso   1.000  C
  C735     1.0000 0.73299  0.80670  0.79430  Biso   1.000  C
  C736     1.0000 0.88651  0.92309  0.46561  Biso   1.000  C
  C737     1.0000 0.96658  0.86980  0.55839  Biso   1.000  C
  C738     1.0000 0.73159  0.86062  0.97421  Biso   1.000  C
  C739     1.0000 0.64282  0.93168  0.90289  Biso   1.000  C
  H474     1.0000 0.57641  0.99902  0.93838  Biso   1.000  H
  C740     1.0000 0.52383  0.99610  0.84171  Biso   1.000  C
  O109     1.0000 0.66642  0.94720  0.02132  Biso   1.000  O
  O110     1.0000 0.66641  0.94720  0.02127  Biso   1.000  O
  H475     1.0000 0.71889  0.00659  0.08518  Biso   1.000  H
  H476     1.0000 0.75889  0.00049  0.02102  Biso   1.000  H
  H477     1.0000 0.75888  0.00049  0.02097  Biso   1.000  H
  O111     1.0000 0.88582  0.76121  0.85439  Biso   1.000  O
  H478     1.0000 0.48642  0.10971  0.70708  Biso   1.000  H
  C741     1.0000 0.40110  0.13479  0.63020  Biso   1.000  C
  C742     1.0000 0.43579  0.22961  0.57062  Biso   1.000  C
  H479     1.0000 0.54442  0.26802  0.60779  Biso   1.000  H
  C743     1.0000 0.70981  0.84310  0.85588  Biso   1.000  C
  H480     1.0000 0.74508  0.76170  0.80891  Biso   1.000  H
  C744     1.0000 0.66817  0.80172  0.73238  Biso   1.000  C
  C745     1.0000 0.66823  0.80172  0.73238  Biso   1.000  C
  H481     1.0000 0.83752  0.94041  0.44578  Biso   1.000  H
  C746     1.0000 0.95277  0.92450  0.43221  Biso   1.000  C
  C747     1.0000 0.95283  0.92450  0.43221  Biso   1.000  C
  H482     1.0000 0.97121  0.85150  0.60058  Biso   1.000  H
  C748     1.0000 0.03300  0.87121  0.52489  Biso   1.000  C
  C749     1.0000 0.74672  0.82529  0.91909  Biso   1.000  C
  C750     1.0000 0.67968  0.91391  0.96611  Biso   1.000  C
  C751     1.0000 0.67974  0.91391  0.96611  Biso   1.000  C
  C752     1.0000 0.65789  0.89639  0.84778  Biso   1.000  C
  H483     1.0000 0.54102  0.98560  0.79952  Biso   1.000  H
  C753     1.0000 0.45623  0.94900  0.85310  Biso   1.000  C
  H484     1.0000 0.54102  0.98560  0.79947  Biso   1.000  H
  H485     1.0000 0.50238  0.04012  0.83848  Biso   1.000  H
  C754     1.0000 0.87201  0.77288  0.92222  Biso   1.000  C
  C755     1.0000 0.87200  0.77288  0.92217  Biso   1.000  C
  H486     1.0000 0.36511  0.10141  0.63582  Biso   1.000  H
  C756     1.0000 0.38213  0.17979  0.57902  Biso   1.000  C
  H487     1.0000 0.36510  0.10141  0.63577  Biso   1.000  H
  H488     1.0000 0.42321  0.25972  0.53642  Biso   1.000  H
  H489     1.0000 0.42320  0.25972  0.53638  Biso   1.000  H
  H490     1.0000 0.69198  0.78391  0.69570  Biso   1.000  H
  H491     1.0000 0.64769  0.84491  0.71981  Biso   1.000  H
  C757     1.0000 0.60700  0.76312  0.74441  Biso   1.000  C
  H492     1.0000 0.94821  0.94280  0.39002  Biso   1.000  H
  C758     1.0000 0.02611  0.89859  0.46188  Biso   1.000  C
  H493     1.0000 0.08202  0.85389  0.54482  Biso   1.000  H
  H494     1.0000 0.08201  0.85389  0.54477  Biso   1.000  H
  O112     1.0000 0.79190  0.77112  0.92849  Biso   1.000  O
  H495     1.0000 0.63321  0.90830  0.80549  Biso   1.000  H
  H496     1.0000 0.43992  0.95940  0.89559  Biso   1.000  H
  H497     1.0000 0.47809  0.90508  0.85628  Biso   1.000  H
  C759     1.0000 0.38122  0.94900  0.80061  Biso   1.000  C
  H498     1.0000 0.89390  0.81519  0.93659  Biso   1.000  H
  H499     1.0000 0.90059  0.74008  0.95100  Biso   1.000  H
  H500     1.0000 0.33348  0.17642  0.55039  Biso   1.000  H
  H501     1.0000 0.62811  0.72559  0.77050  Biso   1.000  H
  H502     1.0000 0.57191  0.78708  0.76960  Biso   1.000  H
  C760     1.0000 0.55552  0.73871  0.67359  Biso   1.000  C
  H503     1.0000 0.07048  0.89961  0.43952  Biso   1.000  H
  C761     1.0000 0.35358  0.89059  0.77080  Biso   1.000  C
  C762     1.0000 0.34038  0.00678  0.78238  Biso   1.000  C
  C763     1.0000 0.48773  0.77732  0.65530  Biso   1.000  C
  C764     1.0000 0.56942  0.68489  0.63522  Biso   1.000  C
  C765     1.0000 0.56941  0.68489  0.63517  Biso   1.000  C
  C766     1.0000 0.28529  0.88990  0.72279  Biso   1.000  C
  H504     1.0000 0.38097  0.85189  0.78302  Biso   1.000  H
  H505     1.0000 0.38103  0.85189  0.78297  Biso   1.000  H
  H506     1.0000 0.35883  0.04592  0.80240  Biso   1.000  H
  C767     1.0000 0.27198  0.00620  0.73442  Biso   1.000  C
  C768     1.0000 0.27203  0.00620  0.73437  Biso   1.000  C
  H507     1.0000 0.47840  0.81328  0.68089  Biso   1.000  H
  C769     1.0000 0.43370  0.76209  0.59860  Biso   1.000  C
  C770     1.0000 0.51541  0.66971  0.57862  Biso   1.000  C
  H508     1.0000 0.61471  0.65902  0.64750  Biso   1.000  H
  C771     1.0000 0.24440  0.94768  0.70460  Biso   1.000  C
  H509     1.0000 0.26680  0.85081  0.70291  Biso   1.000  H
  H510     1.0000 0.24472  0.04480  0.72229  Biso   1.000  H
  H511     1.0000 0.38829  0.78800  0.58632  Biso   1.000  H
  C772     1.0000 0.44747  0.70841  0.56018  Biso   1.000  C
  H512     1.0000 0.38828  0.78800  0.58627  Biso   1.000  H
  H513     1.0000 0.52460  0.63379  0.55292  Biso   1.000  H
  H514     1.0000 0.52459  0.63379  0.55287  Biso   1.000  H
  H515     1.0000 0.19870  0.94729  0.67250  Biso   1.000  H
  H516     1.0000 0.41139  0.69821  0.52231  Biso   1.000  H
  C773     1.0000 0.25328  0.17471  0.08091  Biso   1.000  C
  C774     1.0000 0.29019  0.15690  0.14412  Biso   1.000  C
  C775     1.0000 0.29019  0.15690  0.14407  Biso   1.000  C
  O113     1.0000 0.20810  0.22888  0.07151  Biso   1.000  O
  C776     1.0000 0.26841  0.13938  0.02579  Biso   1.000  C
  C777     1.0000 0.26701  0.19330  0.20570  Biso   1.000  C
  C778     1.0000 0.34211  0.10361  0.15222  Biso   1.000  C
  C779     1.0000 0.34210  0.10361  0.15217  Biso   1.000  C
  C780     1.0000 0.12799  0.22712  0.07778  Biso   1.000  C
  C781     1.0000 0.32032  0.08609  0.03389  Biso   1.000  C
  O114     1.0000 0.22172  0.14958  0.96392  Biso   1.000  O
  O115     1.0000 0.22171  0.14958  0.96387  Biso   1.000  O
  C782     1.0000 0.19099  0.16671  0.22289  Biso   1.000  C
  H517     1.0000 0.25492  0.23830  0.19109  Biso   1.000  H
  C783     1.0000 0.33183  0.19828  0.26762  Biso   1.000  C
  C784     1.0000 0.33182  0.19828  0.26757  Biso   1.000  C
  H518     1.0000 0.36679  0.09170  0.19451  Biso   1.000  H
  C785     1.0000 0.35718  0.06832  0.09711  Biso   1.000  C
  C786     1.0000 0.35724  0.06832  0.09711  Biso   1.000  C
  O116     1.0000 0.11418  0.23879  0.14561  Biso   1.000  O
  H519     1.0000 0.10610  0.18481  0.06341  Biso   1.000  H
  H520     1.0000 0.09941  0.25992  0.04900  Biso   1.000  H
  O117     1.0000 0.33358  0.05280  0.97868  Biso   1.000  O
  C787     1.0000 0.21867  0.20868  0.92868  Biso   1.000  C
  C788     1.0000 0.21873  0.20868  0.92868  Biso   1.000  C
  C789     1.0000 0.23299  0.21161  0.93659  Biso   1.000  C
  C790     1.0000 0.19132  0.11839  0.27090  Biso   1.000  C
  C791     1.0000 0.11827  0.18852  0.18781  Biso   1.000  C
  C792     1.0000 0.11833  0.18852  0.18781  Biso   1.000  C
  H521     1.0000 0.30802  0.21609  0.30430  Biso   1.000  H
  H522     1.0000 0.35231  0.15509  0.28019  Biso   1.000  H
  C793     1.0000 0.39300  0.23688  0.25559  Biso   1.000  C
  C794     1.0000 0.40191  0.00571  0.10342  Biso   1.000  C
  C795     1.0000 0.40190  0.00571  0.10337  Biso   1.000  C
  C796     1.0000 0.29252  0.99639  0.96278  Biso   1.000  C
  C797     1.0000 0.15271  0.21351  0.87029  Biso   1.000  C
  C798     1.0000 0.22133  0.21102  0.86219  Biso   1.000  C
  H523     1.0000 0.23992  0.10390  0.29441  Biso   1.000  H
  C799     1.0000 0.11900  0.09199  0.28392  Biso   1.000  C
  C800     1.0000 0.11899  0.09199  0.28387  Biso   1.000  C
  C801     1.0000 0.04601  0.16212  0.20078  Biso   1.000  C
  H524     1.0000 0.37189  0.27441  0.22950  Biso   1.000  H
  H525     1.0000 0.42809  0.21292  0.23040  Biso   1.000  H
  C802     1.0000 0.44448  0.26129  0.32641  Biso   1.000  C
  C803     1.0000 0.35079  0.94651  0.10779  Biso   1.000  C
  H526     1.0000 0.42359  0.00098  0.06162  Biso   1.000  H
  C804     1.0000 0.47617  0.00390  0.15829  Biso   1.000  C
  H527     1.0000 0.42358  0.00098  0.06157  Biso   1.000  H
  C805     1.0000 0.47623  0.00390  0.15829  Biso   1.000  C
  O118     1.0000 0.32917  0.93910  0.98648  Biso   1.000  O
  H528     1.0000 0.28111  0.99341  0.91482  Biso   1.000  H
  H529     1.0000 0.24111  0.99951  0.97898  Biso   1.000  H
  O119     1.0000 0.32923  0.93910  0.98648  Biso   1.000  O
  H530     1.0000 0.28110  0.99341  0.91477  Biso   1.000  H
  C806     1.0000 0.16712  0.17198  0.81259  Biso   1.000  C
  C807     1.0000 0.17710  0.15221  0.83128  Biso   1.000  C
  C808     1.0000 0.04629  0.11381  0.24888  Biso   1.000  C
  C809     1.0000 0.11662  0.03792  0.33342  Biso   1.000  C
  C810     1.0000 0.11661  0.03792  0.33337  Biso   1.000  C
  O120     1.0000 0.97419  0.17578  0.15759  Biso   1.000  O
  C811     1.0000 0.43058  0.31511  0.36478  Biso   1.000  C
  C812     1.0000 0.51227  0.22268  0.34470  Biso   1.000  C
  C813     1.0000 0.51233  0.22268  0.34470  Biso   1.000  C
  C814     1.0000 0.33602  0.92450  0.16942  Biso   1.000  C
  C815     1.0000 0.31302  0.91670  0.05000  Biso   1.000  C
  H531     1.0000 0.45898  0.01440  0.20048  Biso   1.000  H
  H532     1.0000 0.49762  0.95988  0.16152  Biso   1.000  H
  C816     1.0000 0.54377  0.05100  0.14690  Biso   1.000  C
  C817     1.0000 0.54383  0.05100  0.14690  Biso   1.000  C
  C818     1.0000 0.08910  0.15480  0.76941  Biso   1.000  C
  C819     1.0000 0.09598  0.16861  0.79232  Biso   1.000  C
  O121     1.0000 0.97178  0.09170  0.26031  Biso   1.000  O
  H533     1.0000 0.06523  0.04168  0.35032  Biso   1.000  H
  C820     1.0000 0.18379  0.03831  0.39450  Biso   1.000  C
  C821     1.0000 0.11512  0.97072  0.29590  Biso   1.000  C
  C822     1.0000 0.97119  0.24240  0.17280  Biso   1.000  C
  C823     1.0000 0.91020  0.21819  0.16559  Biso   1.000  C
  C824     1.0000 0.48459  0.33029  0.42138  Biso   1.000  C
  H534     1.0000 0.38529  0.34098  0.35250  Biso   1.000  H
  H535     1.0000 0.52160  0.18672  0.31911  Biso   1.000  H
  C825     1.0000 0.56630  0.23791  0.40140  Biso   1.000  C
  C826     1.0000 0.28338  0.87268  0.17329  Biso   1.000  C
  H536     1.0000 0.36127  0.94451  0.20798  Biso   1.000  H
  C827     1.0000 0.28344  0.87268  0.17329  Biso   1.000  C
  H537     1.0000 0.36133  0.94451  0.20798  Biso   1.000  H
  C828     1.0000 0.26038  0.86492  0.05392  Biso   1.000  C
  C829     1.0000 0.26037  0.86492  0.05387  Biso   1.000  C
  C830     1.0000 0.61878  0.05100  0.19939  Biso   1.000  C
  H538     1.0000 0.56008  0.04060  0.10441  Biso   1.000  H
  H539     1.0000 0.52191  0.09492  0.14372  Biso   1.000  H
  H540     1.0000 0.56014  0.04060  0.10441  Biso   1.000  H
  H541     1.0000 0.52190  0.09492  0.14367  Biso   1.000  H
  O122     1.0000 0.03562  0.12640  0.80812  Biso   1.000  O
  O123     1.0000 0.03562  0.12640  0.80807  Biso   1.000  O
  C831     1.0000 0.94750  0.03192  0.23288  Biso   1.000  C
  H542     1.0000 0.23627  0.03719  0.37998  Biso   1.000  H
  C832     1.0000 0.17612  0.10161  0.43629  Biso   1.000  C
  H543     1.0000 0.17887  0.00000  0.42168  Biso   1.000  H
  H544     1.0000 0.17893  0.00000  0.42168  Biso   1.000  H
  C833     1.0000 0.04191  0.94568  0.26499  Biso   1.000  C
  C834     1.0000 0.18661  0.93861  0.28978  Biso   1.000  C
  C835     1.0000 0.88719  0.26641  0.17538  Biso   1.000  C
  C836     1.0000 0.83058  0.24342  0.11560  Biso   1.000  C
  C837     1.0000 0.87019  0.24279  0.09880  Biso   1.000  C
  H545     1.0000 0.47540  0.36621  0.44708  Biso   1.000  H
  C838     1.0000 0.55253  0.29159  0.43982  Biso   1.000  C
  C839     1.0000 0.55252  0.29159  0.43977  Biso   1.000  C
  H546     1.0000 0.61171  0.21200  0.41368  Biso   1.000  H
  C840     1.0000 0.25888  0.84769  0.23780  Biso   1.000  C
  C841     1.0000 0.24561  0.84291  0.11550  Biso   1.000  C
  O124     1.0000 0.21440  0.84310  0.99359  Biso   1.000  O
  C842     1.0000 0.64642  0.10941  0.22920  Biso   1.000  C
  C843     1.0000 0.65962  0.99322  0.21762  Biso   1.000  C
  C844     1.0000 0.65961  0.99322  0.21757  Biso   1.000  C
  C845     1.0000 0.95979  0.11151  0.77199  Biso   1.000  C
  O125     1.0000 0.96860  0.97760  0.27160  Biso   1.000  O
  H547     1.0000 0.88918  0.03250  0.22140  Biso   1.000  H
  H548     1.0000 0.96972  0.02699  0.19178  Biso   1.000  H
  H549     1.0000 0.22450  0.10590  0.46869  Biso   1.000  H
  C846     1.0000 0.10670  0.10429  0.47128  Biso   1.000  C
  H550     1.0000 0.17382  0.13889  0.40682  Biso   1.000  H
  H551     1.0000 0.17381  0.13889  0.40677  Biso   1.000  H
  C847     1.0000 0.04021  0.88849  0.22801  Biso   1.000  C
  H552     1.0000 0.23547  0.95540  0.31051  Biso   1.000  H
  C848     1.0000 0.18491  0.88141  0.25281  Biso   1.000  C
  H553     1.0000 0.23553  0.95540  0.31051  Biso   1.000  H
  C849     1.0000 0.80298  0.17510  0.12509  Biso   1.000  C
  C850     1.0000 0.78012  0.23820  0.08911  Biso   1.000  C
  H554     1.0000 0.58861  0.30179  0.47769  Biso   1.000  H
  H555     1.0000 0.24547  0.80128  0.23129  Biso   1.000  H
  C851     1.0000 0.33001  0.85262  0.29709  Biso   1.000  C
  H556     1.0000 0.24553  0.80128  0.23129  Biso   1.000  H
  O126     1.0000 0.19432  0.78918  0.11510  Biso   1.000  O
  C852     1.0000 0.25212  0.84749  0.93619  Biso   1.000  C
  C853     1.0000 0.25113  0.78381  0.98027  Biso   1.000  C
  C854     1.0000 0.71471  0.11010  0.27721  Biso   1.000  C
  H557     1.0000 0.61903  0.14811  0.21698  Biso   1.000  H
  H558     1.0000 0.64117  0.95408  0.19760  Biso   1.000  H
  C855     1.0000 0.72802  0.99380  0.26558  Biso   1.000  C
  H559     1.0000 0.64123  0.95408  0.19760  Biso   1.000  H
  C856     1.0000 0.88828  0.14362  0.77800  Biso   1.000  C
  C857     1.0000 0.95809  0.05432  0.73501  Biso   1.000  C
  C858     1.0000 0.11349  0.07691  0.53439  Biso   1.000  C
  C859     1.0000 0.03342  0.13020  0.44161  Biso   1.000  C
  O127     1.0000 0.96438  0.87360  0.19188  Biso   1.000  O
  C860     1.0000 0.11172  0.85638  0.22200  Biso   1.000  C
  C861     1.0000 0.74788  0.15251  0.06381  Biso   1.000  C
  C862     1.0000 0.74892  0.21619  0.01968  Biso   1.000  C
  H560     1.0000 0.34973  0.89708  0.30121  Biso   1.000  H
  H561     1.0000 0.31089  0.84081  0.33819  Biso   1.000  H
  C863     1.0000 0.39733  0.80748  0.28541  Biso   1.000  C
  C864     1.0000 0.11432  0.79869  0.11868  Biso   1.000  C
  C865     1.0000 0.19702  0.82490  0.87491  Biso   1.000  C
  C866     1.0000 0.21988  0.76180  0.91089  Biso   1.000  C
  C867     1.0000 0.75560  0.05232  0.29540  Biso   1.000  C
  H562     1.0000 0.73320  0.14919  0.29709  Biso   1.000  H
  H563     1.0000 0.75528  0.95520  0.27771  Biso   1.000  H
  O128     1.0000 0.89698  0.19940  0.81249  Biso   1.000  O
  C868     1.0000 0.81509  0.11859  0.74719  Biso   1.000  C
  C869     1.0000 0.88488  0.02928  0.70410  Biso   1.000  C
  O129     1.0000 0.03140  0.02240  0.72840  Biso   1.000  O
  C870     1.0000 0.04723  0.07550  0.56779  Biso   1.000  C
  H564     1.0000 0.16248  0.05959  0.55422  Biso   1.000  H
  H565     1.0000 0.16248  0.05959  0.55417  Biso   1.000  H
  H566     1.0000 0.02879  0.14850  0.39942  Biso   1.000  H
  C871     1.0000 0.96700  0.12879  0.47511  Biso   1.000  C
  C872     1.0000 0.91090  0.84520  0.23059  Biso   1.000  C
  C873     1.0000 0.90402  0.83139  0.20768  Biso   1.000  C
  O130     1.0000 0.10302  0.80060  0.18751  Biso   1.000  O
  O131     1.0000 0.78560  0.15690  0.00641  Biso   1.000  O
  H567     1.0000 0.37698  0.76312  0.28402  Biso   1.000  H
  H568     1.0000 0.41161  0.81719  0.24198  Biso   1.000  H
  C874     1.0000 0.47261  0.81031  0.33551  Biso   1.000  C
  H569     1.0000 0.37697  0.76312  0.28397  Biso   1.000  H
  H570     1.0000 0.08270  0.76341  0.09611  Biso   1.000  H
  H571     1.0000 0.09618  0.83930  0.09711  Biso   1.000  H
  C875     1.0000 0.16942  0.75658  0.88440  Biso   1.000  C
  C876     1.0000 0.12981  0.75721  0.90120  Biso   1.000  C
  H572     1.0000 0.80130  0.05271  0.32750  Biso   1.000  H
  C877     1.0000 0.88568  0.20131  0.88132  Biso   1.000  C
  C878     1.0000 0.88567  0.20131  0.88127  Biso   1.000  C
  C879     1.0000 0.74112  0.15231  0.76220  Biso   1.000  C
  C880     1.0000 0.81339  0.06139  0.71022  Biso   1.000  C
  C881     1.0000 0.88338  0.96208  0.66658  Biso   1.000  C
  C882     1.0000 0.05250  0.96808  0.76712  Biso   1.000  C
  C883     1.0000 0.05249  0.96808  0.76707  Biso   1.000  C
  H573     1.0000 0.05179  0.05720  0.60998  Biso   1.000  H
  C884     1.0000 0.97389  0.10141  0.53812  Biso   1.000  C
  C885     1.0000 0.97388  0.10141  0.53807  Biso   1.000  C
  H574     1.0000 0.91798  0.14611  0.45518  Biso   1.000  H
  C886     1.0000 0.83288  0.82802  0.18741  Biso   1.000  C
  C887     1.0000 0.83294  0.82802  0.18741  Biso   1.000  C
  C888     1.0000 0.82290  0.84779  0.16872  Biso   1.000  C
  C889     1.0000 0.73962  0.13508  0.94608  Biso   1.000  C
  C890     1.0000 0.52628  0.86018  0.32711  Biso   1.000  C
  C891     1.0000 0.49151  0.76541  0.38659  Biso   1.000  C
  C892     1.0000 0.11281  0.73359  0.82462  Biso   1.000  C
  C893     1.0000 0.11280  0.73359  0.82457  Biso   1.000  C
  C894     1.0000 0.08980  0.78181  0.83441  Biso   1.000  C
  O132     1.0000 0.80568  0.21082  0.88490  Biso   1.000  O
  H575     1.0000 0.91730  0.23659  0.90389  Biso   1.000  H
  H576     1.0000 0.90382  0.16070  0.90289  Biso   1.000  H
  C895     1.0000 0.71662  0.12732  0.82671  Biso   1.000  C
  H577     1.0000 0.75453  0.19872  0.76871  Biso   1.000  H
  C896     1.0000 0.66999  0.14738  0.70291  Biso   1.000  C
  H578     1.0000 0.76453  0.04460  0.68949  Biso   1.000  H
  C897     1.0000 0.88100  0.90801  0.71608  Biso   1.000  C
  H579     1.0000 0.93477  0.95832  0.64968  Biso   1.000  H
  C898     1.0000 0.81621  0.96169  0.60550  Biso   1.000  C
  H580     1.0000 0.93483  0.95832  0.64968  Biso   1.000  H
  O133     1.0000 0.02822  0.90830  0.73969  Biso   1.000  O
  H581     1.0000 0.11082  0.96750  0.77860  Biso   1.000  H
  H582     1.0000 0.03028  0.97301  0.80822  Biso   1.000  H
  H583     1.0000 0.03033  0.97301  0.80817  Biso   1.000  H
  H584     1.0000 0.92952  0.10039  0.56048  Biso   1.000  H
  C899     1.0000 0.84729  0.78649  0.12971  Biso   1.000  C
  C900     1.0000 0.77873  0.78898  0.13781  Biso   1.000  C
  C901     1.0000 0.75439  0.15709  0.88450  Biso   1.000  C
  C902     1.0000 0.68698  0.08330  0.95000  Biso   1.000  C
  H585     1.0000 0.51358  0.89029  0.29292  Biso   1.000  H
  C903     1.0000 0.59890  0.86521  0.36980  Biso   1.000  C
  C904     1.0000 0.56421  0.77039  0.42938  Biso   1.000  C
  H586     1.0000 0.45558  0.73198  0.39221  Biso   1.000  H
  H587     1.0000 0.45564  0.73198  0.39221  Biso   1.000  H
  C905     1.0000 0.02881  0.75760  0.82720  Biso   1.000  C
  O134     1.0000 0.02581  0.82422  0.84241  Biso   1.000  O
  C906     1.0000 0.66398  0.07550  0.83058  Biso   1.000  C
  H588     1.0000 0.65027  0.10292  0.69879  Biso   1.000  H
  H589     1.0000 0.68911  0.15919  0.66181  Biso   1.000  H
  C907     1.0000 0.60267  0.19252  0.71459  Biso   1.000  C
  C908     1.0000 0.60273  0.19252  0.71459  Biso   1.000  C
  C909     1.0000 0.80868  0.88161  0.72910  Biso   1.000  C
  C910     1.0000 0.95371  0.88619  0.75112  Biso   1.000  C
  H590     1.0000 0.76373  0.96281  0.62002  Biso   1.000  H
  C911     1.0000 0.82388  0.89839  0.56371  Biso   1.000  C
  H591     1.0000 0.82113  0.00000  0.57832  Biso   1.000  H
  H592     1.0000 0.82112  0.00000  0.57827  Biso   1.000  H
  C912     1.0000 0.78133  0.79132  0.07132  Biso   1.000  C
  C913     1.0000 0.76701  0.78839  0.06341  Biso   1.000  C
  C914     1.0000 0.64921  0.05349  0.89221  Biso   1.000  C
  O135     1.0000 0.67083  0.06090  0.01352  Biso   1.000  O
  H593     1.0000 0.63489  0.89859  0.36418  Biso   1.000  H
  C915     1.0000 0.61787  0.82021  0.42098  Biso   1.000  C
  H594     1.0000 0.57679  0.74028  0.46358  Biso   1.000  H
  C916     1.0000 0.95399  0.83788  0.79922  Biso   1.000  C
  C917     1.0000 0.95398  0.83788  0.79917  Biso   1.000  C
  H595     1.0000 0.63873  0.05549  0.79202  Biso   1.000  H
  H596     1.0000 0.62302  0.23688  0.71598  Biso   1.000  H
  H597     1.0000 0.58839  0.18281  0.75802  Biso   1.000  H
  C918     1.0000 0.52739  0.18969  0.66449  Biso   1.000  C
  H598     1.0000 0.58838  0.18281  0.75797  Biso   1.000  H
  C919     1.0000 0.80901  0.83329  0.77711  Biso   1.000  C
  H599     1.0000 0.76008  0.89610  0.70559  Biso   1.000  H
  H600     1.0000 0.77550  0.89410  0.53131  Biso   1.000  H
  H601     1.0000 0.82618  0.86111  0.59318  Biso   1.000  H
  C920     1.0000 0.89330  0.89571  0.52872  Biso   1.000  C
  C921     1.0000 0.89330  0.89571  0.52867  Biso   1.000  C
  O136     1.0000 0.77828  0.85042  0.03608  Biso   1.000  O
  C922     1.0000 0.59809  0.99429  0.89658  Biso   1.000  C
  C923     1.0000 0.70748  0.00361  0.03722  Biso   1.000  C
  C924     1.0000 0.70748  0.00361  0.03717  Biso   1.000  C
  H602     1.0000 0.66652  0.82358  0.44961  Biso   1.000  H
  C925     1.0000 0.88173  0.81148  0.81219  Biso   1.000  C
  C926     1.0000 0.47372  0.13982  0.67289  Biso   1.000  C
  C927     1.0000 0.50849  0.23459  0.61341  Biso   1.000  C
  C928     1.0000 0.73299  0.80670  0.79430  Biso   1.000  C
  C929     1.0000 0.88651  0.92309  0.46561  Biso   1.000  C
  C930     1.0000 0.96658  0.86980  0.55839  Biso   1.000  C
  C931     1.0000 0.73159  0.86062  0.97421  Biso   1.000  C
  C932     1.0000 0.64282  0.93168  0.90289  Biso   1.000  C
  H603     1.0000 0.57641  0.99902  0.93838  Biso   1.000  H
  C933     1.0000 0.52383  0.99610  0.84171  Biso   1.000  C
  O137     1.0000 0.66642  0.94720  0.02132  Biso   1.000  O
  O138     1.0000 0.66641  0.94720  0.02127  Biso   1.000  O
  H604     1.0000 0.71889  0.00659  0.08518  Biso   1.000  H
  H605     1.0000 0.75889  0.00049  0.02102  Biso   1.000  H
  H606     1.0000 0.75888  0.00049  0.02097  Biso   1.000  H
  O139     1.0000 0.88582  0.76121  0.85439  Biso   1.000  O
  H607     1.0000 0.48642  0.10971  0.70708  Biso   1.000  H
  C934     1.0000 0.40110  0.13479  0.63020  Biso   1.000  C
  C935     1.0000 0.43579  0.22961  0.57062  Biso   1.000  C
  H608     1.0000 0.54442  0.26802  0.60779  Biso   1.000  H
  C936     1.0000 0.70981  0.84310  0.85588  Biso   1.000  C
  H609     1.0000 0.74508  0.76170  0.80891  Biso   1.000  H
  C937     1.0000 0.66817  0.80172  0.73238  Biso   1.000  C
  C938     1.0000 0.66823  0.80172  0.73238  Biso   1.000  C
  H610     1.0000 0.83752  0.94041  0.44578  Biso   1.000  H
  C939     1.0000 0.95277  0.92450  0.43221  Biso   1.000  C
  C940     1.0000 0.95283  0.92450  0.43221  Biso   1.000  C
  H611     1.0000 0.97121  0.85150  0.60058  Biso   1.000  H
  C941     1.0000 0.03300  0.87121  0.52489  Biso   1.000  C
  C942     1.0000 0.74672  0.82529  0.91909  Biso   1.000  C
  C943     1.0000 0.67968  0.91391  0.96611  Biso   1.000  C
  C944     1.0000 0.67974  0.91391  0.96611  Biso   1.000  C
  C945     1.0000 0.65789  0.89639  0.84778  Biso   1.000  C
  H612     1.0000 0.54102  0.98560  0.79952  Biso   1.000  H
  C946     1.0000 0.45623  0.94900  0.85310  Biso   1.000  C
  H613     1.0000 0.54102  0.98560  0.79947  Biso   1.000  H
  H614     1.0000 0.50238  0.04012  0.83848  Biso   1.000  H
  C947     1.0000 0.87201  0.77288  0.92222  Biso   1.000  C
  C948     1.0000 0.87200  0.77288  0.92217  Biso   1.000  C
  H615     1.0000 0.36511  0.10141  0.63582  Biso   1.000  H
  C949     1.0000 0.38213  0.17979  0.57902  Biso   1.000  C
  H616     1.0000 0.36510  0.10141  0.63577  Biso   1.000  H
  H617     1.0000 0.42321  0.25972  0.53642  Biso   1.000  H
  H618     1.0000 0.42320  0.25972  0.53638  Biso   1.000  H
  H619     1.0000 0.69198  0.78391  0.69570  Biso   1.000  H
  H620     1.0000 0.64769  0.84491  0.71981  Biso   1.000  H
  C950     1.0000 0.60700  0.76312  0.74441  Biso   1.000  C
  H621     1.0000 0.94821  0.94280  0.39002  Biso   1.000  H
  C951     1.0000 0.02611  0.89859  0.46188  Biso   1.000  C
  H622     1.0000 0.08202  0.85389  0.54482  Biso   1.000  H
  H623     1.0000 0.08201  0.85389  0.54477  Biso   1.000  H
  O140     1.0000 0.79190  0.77112  0.92849  Biso   1.000  O
  H624     1.0000 0.63321  0.90830  0.80549  Biso   1.000  H
  H625     1.0000 0.43992  0.95940  0.89559  Biso   1.000  H
  H626     1.0000 0.47809  0.90508  0.85628  Biso   1.000  H
  C952     1.0000 0.38122  0.94900  0.80061  Biso   1.000  C
  H627     1.0000 0.89390  0.81519  0.93659  Biso   1.000  H
  H628     1.0000 0.90059  0.74008  0.95100  Biso   1.000  H
  H629     1.0000 0.33348  0.17642  0.55039  Biso   1.000  H
  H630     1.0000 0.62811  0.72559  0.77050  Biso   1.000  H
  H631     1.0000 0.57191  0.78708  0.76960  Biso   1.000  H
  C953     1.0000 0.55552  0.73871  0.67359  Biso   1.000  C
  H632     1.0000 0.07048  0.89961  0.43952  Biso   1.000  H
  C954     1.0000 0.35358  0.89059  0.77080  Biso   1.000  C
  C955     1.0000 0.34038  0.00678  0.78238  Biso   1.000  C
  C956     1.0000 0.48773  0.77732  0.65530  Biso   1.000  C
  C957     1.0000 0.56942  0.68489  0.63522  Biso   1.000  C
  C958     1.0000 0.56941  0.68489  0.63517  Biso   1.000  C
  C959     1.0000 0.28529  0.88990  0.72279  Biso   1.000  C
  H633     1.0000 0.38097  0.85189  0.78302  Biso   1.000  H
  H634     1.0000 0.38103  0.85189  0.78297  Biso   1.000  H
  H635     1.0000 0.35883  0.04592  0.80240  Biso   1.000  H
  C960     1.0000 0.27198  0.00620  0.73442  Biso   1.000  C
  C961     1.0000 0.27203  0.00620  0.73437  Biso   1.000  C
  H636     1.0000 0.47840  0.81328  0.68089  Biso   1.000  H
  C962     1.0000 0.43370  0.76209  0.59860  Biso   1.000  C
  C963     1.0000 0.51541  0.66971  0.57862  Biso   1.000  C
  H637     1.0000 0.61471  0.65902  0.64750  Biso   1.000  H
  C964     1.0000 0.24440  0.94768  0.70460  Biso   1.000  C
  H638     1.0000 0.26680  0.85081  0.70291  Biso   1.000  H
  H639     1.0000 0.24472  0.04480  0.72229  Biso   1.000  H
  H640     1.0000 0.38829  0.78800  0.58632  Biso   1.000  H
  C965     1.0000 0.44747  0.70841  0.56018  Biso   1.000  C
  H641     1.0000 0.38828  0.78800  0.58627  Biso   1.000  H
  H642     1.0000 0.52460  0.63379  0.55292  Biso   1.000  H
  H643     1.0000 0.52459  0.63379  0.55287  Biso   1.000  H
  H644     1.0000 0.19870  0.94729  0.67250  Biso   1.000  H
  H645     1.0000 0.41139  0.69821  0.52231  Biso   1.000  H
  C966     1.0000 0.25328  0.17471  0.08091  Biso   1.000  C
  C967     1.0000 0.29019  0.15690  0.14412  Biso   1.000  C
  C968     1.0000 0.29019  0.15690  0.14407  Biso   1.000  C
  O141     1.0000 0.20810  0.22888  0.07151  Biso   1.000  O
  C969     1.0000 0.26841  0.13938  0.02579  Biso   1.000  C
  C970     1.0000 0.26701  0.19330  0.20570  Biso   1.000  C
  C971     1.0000 0.34211  0.10361  0.15222  Biso   1.000  C
  C972     1.0000 0.34210  0.10361  0.15217  Biso   1.000  C
  C973     1.0000 0.12799  0.22712  0.07778  Biso   1.000  C
  C974     1.0000 0.32032  0.08609  0.03389  Biso   1.000  C
  O142     1.0000 0.22172  0.14958  0.96392  Biso   1.000  O
  O143     1.0000 0.22171  0.14958  0.96387  Biso   1.000  O
  C975     1.0000 0.19099  0.16671  0.22289  Biso   1.000  C
  H646     1.0000 0.25492  0.23830  0.19109  Biso   1.000  H
  C976     1.0000 0.33183  0.19828  0.26762  Biso   1.000  C
  C977     1.0000 0.33182  0.19828  0.26757  Biso   1.000  C
  H647     1.0000 0.36679  0.09170  0.19451  Biso   1.000  H
  C978     1.0000 0.35718  0.06832  0.09711  Biso   1.000  C
  C979     1.0000 0.35724  0.06832  0.09711  Biso   1.000  C
  O144     1.0000 0.11418  0.23879  0.14561  Biso   1.000  O
  H648     1.0000 0.10610  0.18481  0.06341  Biso   1.000  H
  H649     1.0000 0.09941  0.25992  0.04900  Biso   1.000  H
  O145     1.0000 0.33358  0.05280  0.97868  Biso   1.000  O
  C980     1.0000 0.21867  0.20868  0.92868  Biso   1.000  C
  C981     1.0000 0.21873  0.20868  0.92868  Biso   1.000  C
  C982     1.0000 0.23299  0.21161  0.93659  Biso   1.000  C
  C983     1.0000 0.19132  0.11839  0.27090  Biso   1.000  C
  C984     1.0000 0.11827  0.18852  0.18781  Biso   1.000  C
  C985     1.0000 0.11833  0.18852  0.18781  Biso   1.000  C
  H650     1.0000 0.30802  0.21609  0.30430  Biso   1.000  H
  H651     1.0000 0.35231  0.15509  0.28019  Biso   1.000  H
  C986     1.0000 0.39300  0.23688  0.25559  Biso   1.000  C
  C987     1.0000 0.40191  0.00571  0.10342  Biso   1.000  C
  C988     1.0000 0.40190  0.00571  0.10337  Biso   1.000  C
  C989     1.0000 0.29252  0.99639  0.96278  Biso   1.000  C
  C990     1.0000 0.15271  0.21351  0.87029  Biso   1.000  C
  C991     1.0000 0.22133  0.21102  0.86219  Biso   1.000  C
  H652     1.0000 0.23992  0.10390  0.29441  Biso   1.000  H
  C992     1.0000 0.11900  0.09199  0.28392  Biso   1.000  C
  C993     1.0000 0.11899  0.09199  0.28387  Biso   1.000  C
  C994     1.0000 0.04601  0.16212  0.20078  Biso   1.000  C
  H653     1.0000 0.37189  0.27441  0.22950  Biso   1.000  H
  H654     1.0000 0.42809  0.21292  0.23040  Biso   1.000  H
  C995     1.0000 0.44448  0.26129  0.32641  Biso   1.000  C
  C996     1.0000 0.35079  0.94651  0.10779  Biso   1.000  C
  H655     1.0000 0.42359  0.00098  0.06162  Biso   1.000  H
  C997     1.0000 0.47617  0.00390  0.15829  Biso   1.000  C
  H656     1.0000 0.42358  0.00098  0.06157  Biso   1.000  H
  C998     1.0000 0.47623  0.00390  0.15829  Biso   1.000  C
  O146     1.0000 0.32917  0.93910  0.98648  Biso   1.000  O
  H657     1.0000 0.28111  0.99341  0.91482  Biso   1.000  H
  H658     1.0000 0.24111  0.99951  0.97898  Biso   1.000  H
  O147     1.0000 0.32923  0.93910  0.98648  Biso   1.000  O
  H659     1.0000 0.28110  0.99341  0.91477  Biso   1.000  H
  C999     1.0000 0.16712  0.17198  0.81259  Biso   1.000  C
  C1000    1.0000 0.17710  0.15221  0.83128  Biso   1.000  C
  C1001    1.0000 0.04629  0.11381  0.24888  Biso   1.000  C
  C1002    1.0000 0.11662  0.03792  0.33342  Biso   1.000  C
  C1003    1.0000 0.11661  0.03792  0.33337  Biso   1.000  C
  O148     1.0000 0.97419  0.17578  0.15759  Biso   1.000  O
  C1004    1.0000 0.43058  0.31511  0.36478  Biso   1.000  C
  C1005    1.0000 0.51227  0.22268  0.34470  Biso   1.000  C
  C1006    1.0000 0.51233  0.22268  0.34470  Biso   1.000  C
  C1007    1.0000 0.33602  0.92450  0.16942  Biso   1.000  C
  C1008    1.0000 0.31302  0.91670  0.05000  Biso   1.000  C
  H660     1.0000 0.45898  0.01440  0.20048  Biso   1.000  H
  H661     1.0000 0.49762  0.95988  0.16152  Biso   1.000  H
  C1009    1.0000 0.54377  0.05100  0.14690  Biso   1.000  C
  C1010    1.0000 0.54383  0.05100  0.14690  Biso   1.000  C
  C1011    1.0000 0.08910  0.15480  0.76941  Biso   1.000  C
  C1012    1.0000 0.09598  0.16861  0.79232  Biso   1.000  C
  O149     1.0000 0.97178  0.09170  0.26031  Biso   1.000  O
  H662     1.0000 0.06523  0.04168  0.35032  Biso   1.000  H
  C1013    1.0000 0.18379  0.03831  0.39450  Biso   1.000  C
  C1014    1.0000 0.11512  0.97072  0.29590  Biso   1.000  C
  C1015    1.0000 0.97119  0.24240  0.17280  Biso   1.000  C
  C1016    1.0000 0.91020  0.21819  0.16559  Biso   1.000  C
  C1017    1.0000 0.48459  0.33029  0.42138  Biso   1.000  C
  H663     1.0000 0.38529  0.34098  0.35250  Biso   1.000  H
  H664     1.0000 0.52160  0.18672  0.31911  Biso   1.000  H
  C1018    1.0000 0.56630  0.23791  0.40140  Biso   1.000  C
  C1019    1.0000 0.28338  0.87268  0.17329  Biso   1.000  C
  H665     1.0000 0.36127  0.94451  0.20798  Biso   1.000  H
  C1020    1.0000 0.28344  0.87268  0.17329  Biso   1.000  C
  H666     1.0000 0.36133  0.94451  0.20798  Biso   1.000  H
  C1021    1.0000 0.26038  0.86492  0.05392  Biso   1.000  C
  C1022    1.0000 0.26037  0.86492  0.05387  Biso   1.000  C
  C1023    1.0000 0.61878  0.05100  0.19939  Biso   1.000  C
  H667     1.0000 0.56008  0.04060  0.10441  Biso   1.000  H
  H668     1.0000 0.52191  0.09492  0.14372  Biso   1.000  H
  H669     1.0000 0.56014  0.04060  0.10441  Biso   1.000  H
  H670     1.0000 0.52190  0.09492  0.14367  Biso   1.000  H
  O150     1.0000 0.03562  0.12640  0.80812  Biso   1.000  O
  O151     1.0000 0.03562  0.12640  0.80807  Biso   1.000  O
  C1024    1.0000 0.94750  0.03192  0.23288  Biso   1.000  C
  H671     1.0000 0.23627  0.03719  0.37998  Biso   1.000  H
  C1025    1.0000 0.17612  0.10161  0.43629  Biso   1.000  C
  H672     1.0000 0.17887  0.00000  0.42168  Biso   1.000  H
  H673     1.0000 0.17893  0.00000  0.42168  Biso   1.000  H
  C1026    1.0000 0.04191  0.94568  0.26499  Biso   1.000  C
  C1027    1.0000 0.18661  0.93861  0.28978  Biso   1.000  C
  C1028    1.0000 0.88719  0.26641  0.17538  Biso   1.000  C
  C1029    1.0000 0.83058  0.24342  0.11560  Biso   1.000  C
  C1030    1.0000 0.87019  0.24279  0.09880  Biso   1.000  C
  H674     1.0000 0.47540  0.36621  0.44708  Biso   1.000  H
  C1031    1.0000 0.55253  0.29159  0.43982  Biso   1.000  C
  C1032    1.0000 0.55252  0.29159  0.43977  Biso   1.000  C
  H675     1.0000 0.61171  0.21200  0.41368  Biso   1.000  H
  C1033    1.0000 0.25888  0.84769  0.23780  Biso   1.000  C
  C1034    1.0000 0.24561  0.84291  0.11550  Biso   1.000  C
  O152     1.0000 0.21440  0.84310  0.99359  Biso   1.000  O
  C1035    1.0000 0.64642  0.10941  0.22920  Biso   1.000  C
  C1036    1.0000 0.65962  0.99322  0.21762  Biso   1.000  C
  C1037    1.0000 0.65961  0.99322  0.21757  Biso   1.000  C
  C1038    1.0000 0.95979  0.11151  0.77199  Biso   1.000  C
  O153     1.0000 0.96860  0.97760  0.27160  Biso   1.000  O
  H676     1.0000 0.88918  0.03250  0.22140  Biso   1.000  H
  H677     1.0000 0.96972  0.02699  0.19178  Biso   1.000  H
  H678     1.0000 0.22450  0.10590  0.46869  Biso   1.000  H
  C1039    1.0000 0.10670  0.10429  0.47128  Biso   1.000  C
  H679     1.0000 0.17382  0.13889  0.40682  Biso   1.000  H
  H680     1.0000 0.17381  0.13889  0.40677  Biso   1.000  H
  C1040    1.0000 0.04021  0.88849  0.22801  Biso   1.000  C
  H681     1.0000 0.23547  0.95540  0.31051  Biso   1.000  H
  C1041    1.0000 0.18491  0.88141  0.25281  Biso   1.000  C
  H682     1.0000 0.23553  0.95540  0.31051  Biso   1.000  H
  C1042    1.0000 0.80298  0.17510  0.12509  Biso   1.000  C
  C1043    1.0000 0.78012  0.23820  0.08911  Biso   1.000  C
  H683     1.0000 0.58861  0.30179  0.47769  Biso   1.000  H
  H684     1.0000 0.24547  0.80128  0.23129  Biso   1.000  H
  C1044    1.0000 0.33001  0.85262  0.29709  Biso   1.000  C
  H685     1.0000 0.24553  0.80128  0.23129  Biso   1.000  H
  O154     1.0000 0.19432  0.78918  0.11510  Biso   1.000  O
  C1045    1.0000 0.25212  0.84749  0.93619  Biso   1.000  C
  C1046    1.0000 0.25113  0.78381  0.98027  Biso   1.000  C
  C1047    1.0000 0.71471  0.11010  0.27721  Biso   1.000  C
  H686     1.0000 0.61903  0.14811  0.21698  Biso   1.000  H
  H687     1.0000 0.64117  0.95408  0.19760  Biso   1.000  H
  C1048    1.0000 0.72802  0.99380  0.26558  Biso   1.000  C
  H688     1.0000 0.64123  0.95408  0.19760  Biso   1.000  H
  C1049    1.0000 0.88828  0.14362  0.77800  Biso   1.000  C
  C1050    1.0000 0.95809  0.05432  0.73501  Biso   1.000  C
  C1051    1.0000 0.11349  0.07691  0.53439  Biso   1.000  C
  C1052    1.0000 0.03342  0.13020  0.44161  Biso   1.000  C
  O155     1.0000 0.96438  0.87360  0.19188  Biso   1.000  O
  C1053    1.0000 0.11172  0.85638  0.22200  Biso   1.000  C
  C1054    1.0000 0.74788  0.15251  0.06381  Biso   1.000  C
  C1055    1.0000 0.74892  0.21619  0.01968  Biso   1.000  C
  H689     1.0000 0.34973  0.89708  0.30121  Biso   1.000  H
  H690     1.0000 0.31089  0.84081  0.33819  Biso   1.000  H
  C1056    1.0000 0.39733  0.80748  0.28541  Biso   1.000  C
  C1057    1.0000 0.11432  0.79869  0.11868  Biso   1.000  C
  C1058    1.0000 0.19702  0.82490  0.87491  Biso   1.000  C
  C1059    1.0000 0.21988  0.76180  0.91089  Biso   1.000  C
  C1060    1.0000 0.75560  0.05232  0.29540  Biso   1.000  C
  H691     1.0000 0.73320  0.14919  0.29709  Biso   1.000  H
  H692     1.0000 0.75528  0.95520  0.27771  Biso   1.000  H
  O156     1.0000 0.89698  0.19940  0.81249  Biso   1.000  O
  C1061    1.0000 0.81509  0.11859  0.74719  Biso   1.000  C
  C1062    1.0000 0.88488  0.02928  0.70410  Biso   1.000  C
  O157     1.0000 0.03140  0.02240  0.72840  Biso   1.000  O
  C1063    1.0000 0.04723  0.07550  0.56779  Biso   1.000  C
  H693     1.0000 0.16248  0.05959  0.55422  Biso   1.000  H
  H694     1.0000 0.16248  0.05959  0.55417  Biso   1.000  H
  H695     1.0000 0.02879  0.14850  0.39942  Biso   1.000  H
  C1064    1.0000 0.96700  0.12879  0.47511  Biso   1.000  C
  C1065    1.0000 0.91090  0.84520  0.23059  Biso   1.000  C
  C1066    1.0000 0.90402  0.83139  0.20768  Biso   1.000  C
  O158     1.0000 0.10302  0.80060  0.18751  Biso   1.000  O
  O159     1.0000 0.78560  0.15690  0.00641  Biso   1.000  O
  H696     1.0000 0.37698  0.76312  0.28402  Biso   1.000  H
  H697     1.0000 0.41161  0.81719  0.24198  Biso   1.000  H
  C1067    1.0000 0.47261  0.81031  0.33551  Biso   1.000  C
  H698     1.0000 0.37697  0.76312  0.28397  Biso   1.000  H
  H699     1.0000 0.08270  0.76341  0.09611  Biso   1.000  H
  H700     1.0000 0.09618  0.83930  0.09711  Biso   1.000  H
  C1068    1.0000 0.16942  0.75658  0.88440  Biso   1.000  C
  C1069    1.0000 0.12981  0.75721  0.90120  Biso   1.000  C
  H701     1.0000 0.80130  0.05271  0.32750  Biso   1.000  H
  C1070    1.0000 0.88568  0.20131  0.88132  Biso   1.000  C
  C1071    1.0000 0.88567  0.20131  0.88127  Biso   1.000  C
  C1072    1.0000 0.74112  0.15231  0.76220  Biso   1.000  C
  C1073    1.0000 0.81339  0.06139  0.71022  Biso   1.000  C
  C1074    1.0000 0.88338  0.96208  0.66658  Biso   1.000  C
  C1075    1.0000 0.05250  0.96808  0.76712  Biso   1.000  C
  C1076    1.0000 0.05249  0.96808  0.76707  Biso   1.000  C
  H702     1.0000 0.05179  0.05720  0.60998  Biso   1.000  H
  C1077    1.0000 0.97389  0.10141  0.53812  Biso   1.000  C
  C1078    1.0000 0.97388  0.10141  0.53807  Biso   1.000  C
  H703     1.0000 0.91798  0.14611  0.45518  Biso   1.000  H
  C1079    1.0000 0.83288  0.82802  0.18741  Biso   1.000  C
  C1080    1.0000 0.83294  0.82802  0.18741  Biso   1.000  C
  C1081    1.0000 0.82290  0.84779  0.16872  Biso   1.000  C
  C1082    1.0000 0.73962  0.13508  0.94608  Biso   1.000  C
  C1083    1.0000 0.52628  0.86018  0.32711  Biso   1.000  C
  C1084    1.0000 0.49151  0.76541  0.38659  Biso   1.000  C
  C1085    1.0000 0.11281  0.73359  0.82462  Biso   1.000  C
  C1086    1.0000 0.11280  0.73359  0.82457  Biso   1.000  C
  C1087    1.0000 0.08980  0.78181  0.83441  Biso   1.000  C
  O160     1.0000 0.80568  0.21082  0.88490  Biso   1.000  O
  H704     1.0000 0.91730  0.23659  0.90389  Biso   1.000  H
  H705     1.0000 0.90382  0.16070  0.90289  Biso   1.000  H
  C1088    1.0000 0.71662  0.12732  0.82671  Biso   1.000  C
  H706     1.0000 0.75453  0.19872  0.76871  Biso   1.000  H
  C1089    1.0000 0.66999  0.14738  0.70291  Biso   1.000  C
  H707     1.0000 0.76453  0.04460  0.68949  Biso   1.000  H
  C1090    1.0000 0.88100  0.90801  0.71608  Biso   1.000  C
  H708     1.0000 0.93477  0.95832  0.64968  Biso   1.000  H
  C1091    1.0000 0.81621  0.96169  0.60550  Biso   1.000  C
  H709     1.0000 0.93483  0.95832  0.64968  Biso   1.000  H
  O161     1.0000 0.02822  0.90830  0.73969  Biso   1.000  O
  H710     1.0000 0.11082  0.96750  0.77860  Biso   1.000  H
  H711     1.0000 0.03028  0.97301  0.80822  Biso   1.000  H
  H712     1.0000 0.03033  0.97301  0.80817  Biso   1.000  H
  H713     1.0000 0.92952  0.10039  0.56048  Biso   1.000  H
  C1092    1.0000 0.84729  0.78649  0.12971  Biso   1.000  C
  C1093    1.0000 0.77873  0.78898  0.13781  Biso   1.000  C
  C1094    1.0000 0.75439  0.15709  0.88450  Biso   1.000  C
  C1095    1.0000 0.68698  0.08330  0.95000  Biso   1.000  C
  H714     1.0000 0.51358  0.89029  0.29292  Biso   1.000  H
  C1096    1.0000 0.59890  0.86521  0.36980  Biso   1.000  C
  C1097    1.0000 0.56421  0.77039  0.42938  Biso   1.000  C
  H715     1.0000 0.45558  0.73198  0.39221  Biso   1.000  H
  H716     1.0000 0.45564  0.73198  0.39221  Biso   1.000  H
  C1098    1.0000 0.02881  0.75760  0.82720  Biso   1.000  C
  O162     1.0000 0.02581  0.82422  0.84241  Biso   1.000  O
  C1099    1.0000 0.66398  0.07550  0.83058  Biso   1.000  C
  H717     1.0000 0.65027  0.10292  0.69879  Biso   1.000  H
  H718     1.0000 0.68911  0.15919  0.66181  Biso   1.000  H
  C1100    1.0000 0.60267  0.19252  0.71459  Biso   1.000  C
  C1101    1.0000 0.60273  0.19252  0.71459  Biso   1.000  C
  C1102    1.0000 0.80868  0.88161  0.72910  Biso   1.000  C
  C1103    1.0000 0.95371  0.88619  0.75112  Biso   1.000  C
  H719     1.0000 0.76373  0.96281  0.62002  Biso   1.000  H
  C1104    1.0000 0.82388  0.89839  0.56371  Biso   1.000  C
  H720     1.0000 0.82113  0.00000  0.57832  Biso   1.000  H
  H721     1.0000 0.82112  0.00000  0.57827  Biso   1.000  H
  C1105    1.0000 0.78133  0.79132  0.07132  Biso   1.000  C
  C1106    1.0000 0.76701  0.78839  0.06341  Biso   1.000  C
  C1107    1.0000 0.64921  0.05349  0.89221  Biso   1.000  C
  O163     1.0000 0.67083  0.06090  0.01352  Biso   1.000  O
  H722     1.0000 0.63489  0.89859  0.36418  Biso   1.000  H
  C1108    1.0000 0.61787  0.82021  0.42098  Biso   1.000  C
  H723     1.0000 0.57679  0.74028  0.46358  Biso   1.000  H
  C1109    1.0000 0.95399  0.83788  0.79922  Biso   1.000  C
  C1110    1.0000 0.95398  0.83788  0.79917  Biso   1.000  C
  H724     1.0000 0.63873  0.05549  0.79202  Biso   1.000  H
  H725     1.0000 0.62302  0.23688  0.71598  Biso   1.000  H
  H726     1.0000 0.58839  0.18281  0.75802  Biso   1.000  H
  C1111    1.0000 0.52739  0.18969  0.66449  Biso   1.000  C
  H727     1.0000 0.58838  0.18281  0.75797  Biso   1.000  H
  C1112    1.0000 0.80901  0.83329  0.77711  Biso   1.000  C
  H728     1.0000 0.76008  0.89610  0.70559  Biso   1.000  H
  H729     1.0000 0.77550  0.89410  0.53131  Biso   1.000  H
  H730     1.0000 0.82618  0.86111  0.59318  Biso   1.000  H
  C1113    1.0000 0.89330  0.89571  0.52872  Biso   1.000  C
  C1114    1.0000 0.89330  0.89571  0.52867  Biso   1.000  C
  O164     1.0000 0.77828  0.85042  0.03608  Biso   1.000  O
  C1115    1.0000 0.59809  0.99429  0.89658  Biso   1.000  C
  C1116    1.0000 0.70748  0.00361  0.03722  Biso   1.000  C
  C1117    1.0000 0.70748  0.00361  0.03717  Biso   1.000  C
  H731     1.0000 0.66652  0.82358  0.44961  Biso   1.000  H
  C1118    1.0000 0.88173  0.81148  0.81219  Biso   1.000  C
  C1119    1.0000 0.47372  0.13982  0.67289  Biso   1.000  C
  C1120    1.0000 0.50849  0.23459  0.61341  Biso   1.000  C
  C1121    1.0000 0.73299  0.80670  0.79430  Biso   1.000  C
  C1122    1.0000 0.88651  0.92309  0.46561  Biso   1.000  C
  C1123    1.0000 0.96658  0.86980  0.55839  Biso   1.000  C
  C1124    1.0000 0.73159  0.86062  0.97421  Biso   1.000  C
  C1125    1.0000 0.64282  0.93168  0.90289  Biso   1.000  C
  H732     1.0000 0.57641  0.99902  0.93838  Biso   1.000  H
  C1126    1.0000 0.52383  0.99610  0.84171  Biso   1.000  C
  O165     1.0000 0.66642  0.94720  0.02132  Biso   1.000  O
  O166     1.0000 0.66641  0.94720  0.02127  Biso   1.000  O
  H733     1.0000 0.71889  0.00659  0.08518  Biso   1.000  H
  H734     1.0000 0.75889  0.00049  0.02102  Biso   1.000  H
  H735     1.0000 0.75888  0.00049  0.02097  Biso   1.000  H
  O167     1.0000 0.88582  0.76121  0.85439  Biso   1.000  O
  H736     1.0000 0.48642  0.10971  0.70708  Biso   1.000  H
  C1127    1.0000 0.40110  0.13479  0.63020  Biso   1.000  C
  C1128    1.0000 0.43579  0.22961  0.57062  Biso   1.000  C
  H737     1.0000 0.54442  0.26802  0.60779  Biso   1.000  H
  C1129    1.0000 0.70981  0.84310  0.85588  Biso   1.000  C
  H738     1.0000 0.74508  0.76170  0.80891  Biso   1.000  H
  C1130    1.0000 0.66817  0.80172  0.73238  Biso   1.000  C
  C1131    1.0000 0.66823  0.80172  0.73238  Biso   1.000  C
  H739     1.0000 0.83752  0.94041  0.44578  Biso   1.000  H
  C1132    1.0000 0.95277  0.92450  0.43221  Biso   1.000  C
  C1133    1.0000 0.95283  0.92450  0.43221  Biso   1.000  C
  H740     1.0000 0.97121  0.85150  0.60058  Biso   1.000  H
  C1134    1.0000 0.03300  0.87121  0.52489  Biso   1.000  C
  C1135    1.0000 0.74672  0.82529  0.91909  Biso   1.000  C
  C1136    1.0000 0.67968  0.91391  0.96611  Biso   1.000  C
  C1137    1.0000 0.67974  0.91391  0.96611  Biso   1.000  C
  C1138    1.0000 0.65789  0.89639  0.84778  Biso   1.000  C
  H741     1.0000 0.54102  0.98560  0.79952  Biso   1.000  H
  C1139    1.0000 0.45623  0.94900  0.85310  Biso   1.000  C
  H742     1.0000 0.54102  0.98560  0.79947  Biso   1.000  H
  H743     1.0000 0.50238  0.04012  0.83848  Biso   1.000  H
  C1140    1.0000 0.87201  0.77288  0.92222  Biso   1.000  C
  C1141    1.0000 0.87200  0.77288  0.92217  Biso   1.000  C
  H744     1.0000 0.36511  0.10141  0.63582  Biso   1.000  H
  C1142    1.0000 0.38213  0.17979  0.57902  Biso   1.000  C
  H745     1.0000 0.36510  0.10141  0.63577  Biso   1.000  H
  H746     1.0000 0.42321  0.25972  0.53642  Biso   1.000  H
  H747     1.0000 0.42320  0.25972  0.53638  Biso   1.000  H
  H748     1.0000 0.69198  0.78391  0.69570  Biso   1.000  H
  H749     1.0000 0.64769  0.84491  0.71981  Biso   1.000  H
  C1143    1.0000 0.60700  0.76312  0.74441  Biso   1.000  C
  H750     1.0000 0.94821  0.94280  0.39002  Biso   1.000  H
  C1144    1.0000 0.02611  0.89859  0.46188  Biso   1.000  C
  H751     1.0000 0.08202  0.85389  0.54482  Biso   1.000  H
  H752     1.0000 0.08201  0.85389  0.54477  Biso   1.000  H
  O168     1.0000 0.79190  0.77112  0.92849  Biso   1.000  O
  H753     1.0000 0.63321  0.90830  0.80549  Biso   1.000  H
  H754     1.0000 0.43992  0.95940  0.89559  Biso   1.000  H
  H755     1.0000 0.47809  0.90508  0.85628  Biso   1.000  H
  C1145    1.0000 0.38122  0.94900  0.80061  Biso   1.000  C
  H756     1.0000 0.89390  0.81519  0.93659  Biso   1.000  H
  H757     1.0000 0.90059  0.74008  0.95100  Biso   1.000  H
  H758     1.0000 0.33348  0.17642  0.55039  Biso   1.000  H
  H759     1.0000 0.62811  0.72559  0.77050  Biso   1.000  H
  H760     1.0000 0.57191  0.78708  0.76960  Biso   1.000  H
  C1146    1.0000 0.55552  0.73871  0.67359  Biso   1.000  C
  H761     1.0000 0.07048  0.89961  0.43952  Biso   1.000  H
  C1147    1.0000 0.35358  0.89059  0.77080  Biso   1.000  C
  C1148    1.0000 0.34038  0.00678  0.78238  Biso   1.000  C
  C1149    1.0000 0.48773  0.77732  0.65530  Biso   1.000  C
  C1150    1.0000 0.56942  0.68489  0.63522  Biso   1.000  C
  C1151    1.0000 0.56941  0.68489  0.63517  Biso   1.000  C
  C1152    1.0000 0.28529  0.88990  0.72279  Biso   1.000  C
  H762     1.0000 0.38097  0.85189  0.78302  Biso   1.000  H
  H763     1.0000 0.38103  0.85189  0.78297  Biso   1.000  H
  H764     1.0000 0.35883  0.04592  0.80240  Biso   1.000  H
  C1153    1.0000 0.27198  0.00620  0.73442  Biso   1.000  C
  C1154    1.0000 0.27203  0.00620  0.73437  Biso   1.000  C
  H765     1.0000 0.47840  0.81328  0.68089  Biso   1.000  H
  C1155    1.0000 0.43370  0.76209  0.59860  Biso   1.000  C
  C1156    1.0000 0.51541  0.66971  0.57862  Biso   1.000  C
  H766     1.0000 0.61471  0.65902  0.64750  Biso   1.000  H
  C1157    1.0000 0.24440  0.94768  0.70460  Biso   1.000  C
  H767     1.0000 0.26680  0.85081  0.70291  Biso   1.000  H
  H768     1.0000 0.24472  0.04480  0.72229  Biso   1.000  H
  H769     1.0000 0.38829  0.78800  0.58632  Biso   1.000  H
  C1158    1.0000 0.44747  0.70841  0.56018  Biso   1.000  C
  H770     1.0000 0.38828  0.78800  0.58627  Biso   1.000  H
  H771     1.0000 0.52460  0.63379  0.55292  Biso   1.000  H
  H772     1.0000 0.52459  0.63379  0.55287  Biso   1.000  H
  H773     1.0000 0.19870  0.94729  0.67250  Biso   1.000  H
  H774     1.0000 0.41139  0.69821  0.52231  Biso   1.000  H
  C1159    1.0000 0.25328  0.17471  0.08091  Biso   1.000  C
  C1160    1.0000 0.29019  0.15690  0.14412  Biso   1.000  C
  C1161    1.0000 0.29019  0.15690  0.14407  Biso   1.000  C
  O169     1.0000 0.20810  0.22888  0.07151  Biso   1.000  O
  C1162    1.0000 0.26841  0.13938  0.02579  Biso   1.000  C
  C1163    1.0000 0.26701  0.19330  0.20570  Biso   1.000  C
  C1164    1.0000 0.34211  0.10361  0.15222  Biso   1.000  C
  C1165    1.0000 0.34210  0.10361  0.15217  Biso   1.000  C
  C1166    1.0000 0.12799  0.22712  0.07778  Biso   1.000  C
  C1167    1.0000 0.32032  0.08609  0.03389  Biso   1.000  C
  O170     1.0000 0.22172  0.14958  0.96392  Biso   1.000  O
  O171     1.0000 0.22171  0.14958  0.96387  Biso   1.000  O
  C1168    1.0000 0.19099  0.16671  0.22289  Biso   1.000  C
  H775     1.0000 0.25492  0.23830  0.19109  Biso   1.000  H
  C1169    1.0000 0.33183  0.19828  0.26762  Biso   1.000  C
  C1170    1.0000 0.33182  0.19828  0.26757  Biso   1.000  C
  H776     1.0000 0.36679  0.09170  0.19451  Biso   1.000  H
  C1171    1.0000 0.35718  0.06832  0.09711  Biso   1.000  C
  C1172    1.0000 0.35724  0.06832  0.09711  Biso   1.000  C
  O172     1.0000 0.11418  0.23879  0.14561  Biso   1.000  O
  H777     1.0000 0.10610  0.18481  0.06341  Biso   1.000  H
  H778     1.0000 0.09941  0.25992  0.04900  Biso   1.000  H
  O173     1.0000 0.33358  0.05280  0.97868  Biso   1.000  O
  C1173    1.0000 0.21867  0.20868  0.92868  Biso   1.000  C
  C1174    1.0000 0.21873  0.20868  0.92868  Biso   1.000  C
  C1175    1.0000 0.23299  0.21161  0.93659  Biso   1.000  C
  C1176    1.0000 0.19132  0.11839  0.27090  Biso   1.000  C
  C1177    1.0000 0.11827  0.18852  0.18781  Biso   1.000  C
  C1178    1.0000 0.11833  0.18852  0.18781  Biso   1.000  C
  H779     1.0000 0.30802  0.21609  0.30430  Biso   1.000  H
  H780     1.0000 0.35231  0.15509  0.28019  Biso   1.000  H
  C1179    1.0000 0.39300  0.23688  0.25559  Biso   1.000  C
  C1180    1.0000 0.40191  0.00571  0.10342  Biso   1.000  C
  C1181    1.0000 0.40190  0.00571  0.10337  Biso   1.000  C
  C1182    1.0000 0.29252  0.99639  0.96278  Biso   1.000  C
  C1183    1.0000 0.15271  0.21351  0.87029  Biso   1.000  C
  C1184    1.0000 0.22133  0.21102  0.86219  Biso   1.000  C
  H781     1.0000 0.23992  0.10390  0.29441  Biso   1.000  H
  C1185    1.0000 0.11900  0.09199  0.28392  Biso   1.000  C
  C1186    1.0000 0.11899  0.09199  0.28387  Biso   1.000  C
  C1187    1.0000 0.04601  0.16212  0.20078  Biso   1.000  C
  H782     1.0000 0.37189  0.27441  0.22950  Biso   1.000  H
  H783     1.0000 0.42809  0.21292  0.23040  Biso   1.000  H
  C1188    1.0000 0.44448  0.26129  0.32641  Biso   1.000  C
  C1189    1.0000 0.35079  0.94651  0.10779  Biso   1.000  C
  H784     1.0000 0.42359  0.00098  0.06162  Biso   1.000  H
  C1190    1.0000 0.47617  0.00390  0.15829  Biso   1.000  C
  H785     1.0000 0.42358  0.00098  0.06157  Biso   1.000  H
  C1191    1.0000 0.47623  0.00390  0.15829  Biso   1.000  C
  O174     1.0000 0.32917  0.93910  0.98648  Biso   1.000  O
  H786     1.0000 0.28111  0.99341  0.91482  Biso   1.000  H
  H787     1.0000 0.24111  0.99951  0.97898  Biso   1.000  H
  O175     1.0000 0.32923  0.93910  0.98648  Biso   1.000  O
  H788     1.0000 0.28110  0.99341  0.91477  Biso   1.000  H
  C1192    1.0000 0.16712  0.17198  0.81259  Biso   1.000  C
  C1193    1.0000 0.17710  0.15221  0.83128  Biso   1.000  C
  C1194    1.0000 0.04629  0.11381  0.24888  Biso   1.000  C
  C1195    1.0000 0.11662  0.03792  0.33342  Biso   1.000  C
  C1196    1.0000 0.11661  0.03792  0.33337  Biso   1.000  C
  O176     1.0000 0.97419  0.17578  0.15759  Biso   1.000  O
  C1197    1.0000 0.43058  0.31511  0.36478  Biso   1.000  C
  C1198    1.0000 0.51227  0.22268  0.34470  Biso   1.000  C
  C1199    1.0000 0.51233  0.22268  0.34470  Biso   1.000  C
  C1200    1.0000 0.33602  0.92450  0.16942  Biso   1.000  C
  C1201    1.0000 0.31302  0.91670  0.05000  Biso   1.000  C
  H789     1.0000 0.45898  0.01440  0.20048  Biso   1.000  H
  H790     1.0000 0.49762  0.95988  0.16152  Biso   1.000  H
  C1202    1.0000 0.54377  0.05100  0.14690  Biso   1.000  C
  C1203    1.0000 0.54383  0.05100  0.14690  Biso   1.000  C
  C1204    1.0000 0.08910  0.15480  0.76941  Biso   1.000  C
  C1205    1.0000 0.09598  0.16861  0.79232  Biso   1.000  C
  O177     1.0000 0.97178  0.09170  0.26031  Biso   1.000  O
  H791     1.0000 0.06523  0.04168  0.35032  Biso   1.000  H
  C1206    1.0000 0.18379  0.03831  0.39450  Biso   1.000  C
  C1207    1.0000 0.11512  0.97072  0.29590  Biso   1.000  C
  C1208    1.0000 0.97119  0.24240  0.17280  Biso   1.000  C
  C1209    1.0000 0.91020  0.21819  0.16559  Biso   1.000  C
  C1210    1.0000 0.48459  0.33029  0.42138  Biso   1.000  C
  H792     1.0000 0.38529  0.34098  0.35250  Biso   1.000  H
  H793     1.0000 0.52160  0.18672  0.31911  Biso   1.000  H
  C1211    1.0000 0.56630  0.23791  0.40140  Biso   1.000  C
  C1212    1.0000 0.28338  0.87268  0.17329  Biso   1.000  C
  H794     1.0000 0.36127  0.94451  0.20798  Biso   1.000  H
  C1213    1.0000 0.28344  0.87268  0.17329  Biso   1.000  C
  H795     1.0000 0.36133  0.94451  0.20798  Biso   1.000  H
  C1214    1.0000 0.26038  0.86492  0.05392  Biso   1.000  C
  C1215    1.0000 0.26037  0.86492  0.05387  Biso   1.000  C
  C1216    1.0000 0.61878  0.05100  0.19939  Biso   1.000  C
  H796     1.0000 0.56008  0.04060  0.10441  Biso   1.000  H
  H797     1.0000 0.52191  0.09492  0.14372  Biso   1.000  H
  H798     1.0000 0.56014  0.04060  0.10441  Biso   1.000  H
  H799     1.0000 0.52190  0.09492  0.14367  Biso   1.000  H
  O178     1.0000 0.03562  0.12640  0.80812  Biso   1.000  O
  O179     1.0000 0.03562  0.12640  0.80807  Biso   1.000  O
  C1217    1.0000 0.94750  0.03192  0.23288  Biso   1.000  C
  H800     1.0000 0.23627  0.03719  0.37998  Biso   1.000  H
  C1218    1.0000 0.17612  0.10161  0.43629  Biso   1.000  C
  H801     1.0000 0.17887  0.00000  0.42168  Biso   1.000  H
  H802     1.0000 0.17893  0.00000  0.42168  Biso   1.000  H
  C1219    1.0000 0.04191  0.94568  0.26499  Biso   1.000  C
  C1220    1.0000 0.18661  0.93861  0.28978  Biso   1.000  C
  C1221    1.0000 0.88719  0.26641  0.17538  Biso   1.000  C
  C1222    1.0000 0.83058  0.24342  0.11560  Biso   1.000  C
  C1223    1.0000 0.87019  0.24279  0.09880  Biso   1.000  C
  H803     1.0000 0.47540  0.36621  0.44708  Biso   1.000  H
  C1224    1.0000 0.55253  0.29159  0.43982  Biso   1.000  C
  C1225    1.0000 0.55252  0.29159  0.43977  Biso   1.000  C
  H804     1.0000 0.61171  0.21200  0.41368  Biso   1.000  H
  C1226    1.0000 0.25888  0.84769  0.23780  Biso   1.000  C
  C1227    1.0000 0.24561  0.84291  0.11550  Biso   1.000  C
  O180     1.0000 0.21440  0.84310  0.99359  Biso   1.000  O
  C1228    1.0000 0.64642  0.10941  0.22920  Biso   1.000  C
  C1229    1.0000 0.65962  0.99322  0.21762  Biso   1.000  C
  C1230    1.0000 0.65961  0.99322  0.21757  Biso   1.000  C
  C1231    1.0000 0.95979  0.11151  0.77199  Biso   1.000  C
  O181     1.0000 0.96860  0.97760  0.27160  Biso   1.000  O
  H805     1.0000 0.88918  0.03250  0.22140  Biso   1.000  H
  H806     1.0000 0.96972  0.02699  0.19178  Biso   1.000  H
  H807     1.0000 0.22450  0.10590  0.46869  Biso   1.000  H
  C1232    1.0000 0.10670  0.10429  0.47128  Biso   1.000  C
  H808     1.0000 0.17382  0.13889  0.40682  Biso   1.000  H
  H809     1.0000 0.17381  0.13889  0.40677  Biso   1.000  H
  C1233    1.0000 0.04021  0.88849  0.22801  Biso   1.000  C
  H810     1.0000 0.23547  0.95540  0.31051  Biso   1.000  H
  C1234    1.0000 0.18491  0.88141  0.25281  Biso   1.000  C
  H811     1.0000 0.23553  0.95540  0.31051  Biso   1.000  H
  C1235    1.0000 0.80298  0.17510  0.12509  Biso   1.000  C
  C1236    1.0000 0.78012  0.23820  0.08911  Biso   1.000  C
  H812     1.0000 0.58861  0.30179  0.47769  Biso   1.000  H
  H813     1.0000 0.24547  0.80128  0.23129  Biso   1.000  H
  C1237    1.0000 0.33001  0.85262  0.29709  Biso   1.000  C
  H814     1.0000 0.24553  0.80128  0.23129  Biso   1.000  H
  O182     1.0000 0.19432  0.78918  0.11510  Biso   1.000  O
  C1238    1.0000 0.25212  0.84749  0.93619  Biso   1.000  C
  C1239    1.0000 0.25113  0.78381  0.98027  Biso   1.000  C
  C1240    1.0000 0.71471  0.11010  0.27721  Biso   1.000  C
  H815     1.0000 0.61903  0.14811  0.21698  Biso   1.000  H
  H816     1.0000 0.64117  0.95408  0.19760  Biso   1.000  H
  C1241    1.0000 0.72802  0.99380  0.26558  Biso   1.000  C
  H817     1.0000 0.64123  0.95408  0.19760  Biso   1.000  H
  C1242    1.0000 0.88828  0.14362  0.77800  Biso   1.000  C
  C1243    1.0000 0.95809  0.05432  0.73501  Biso   1.000  C
  C1244    1.0000 0.11349  0.07691  0.53439  Biso   1.000  C
  C1245    1.0000 0.03342  0.13020  0.44161  Biso   1.000  C
  O183     1.0000 0.96438  0.87360  0.19188  Biso   1.000  O
  C1246    1.0000 0.11172  0.85638  0.22200  Biso   1.000  C
  C1247    1.0000 0.74788  0.15251  0.06381  Biso   1.000  C
  C1248    1.0000 0.74892  0.21619  0.01968  Biso   1.000  C
  H818     1.0000 0.34973  0.89708  0.30121  Biso   1.000  H
  H819     1.0000 0.31089  0.84081  0.33819  Biso   1.000  H
  C1249    1.0000 0.39733  0.80748  0.28541  Biso   1.000  C
  C1250    1.0000 0.11432  0.79869  0.11868  Biso   1.000  C
  C1251    1.0000 0.19702  0.82490  0.87491  Biso   1.000  C
  C1252    1.0000 0.21988  0.76180  0.91089  Biso   1.000  C
  C1253    1.0000 0.75560  0.05232  0.29540  Biso   1.000  C
  H820     1.0000 0.73320  0.14919  0.29709  Biso   1.000  H
  H821     1.0000 0.75528  0.95520  0.27771  Biso   1.000  H
  O184     1.0000 0.89698  0.19940  0.81249  Biso   1.000  O
  C1254    1.0000 0.81509  0.11859  0.74719  Biso   1.000  C
  C1255    1.0000 0.88488  0.02928  0.70410  Biso   1.000  C
  O185     1.0000 0.03140  0.02240  0.72840  Biso   1.000  O
  C1256    1.0000 0.04723  0.07550  0.56779  Biso   1.000  C
  H822     1.0000 0.16248  0.05959  0.55422  Biso   1.000  H
  H823     1.0000 0.16248  0.05959  0.55417  Biso   1.000  H
  H824     1.0000 0.02879  0.14850  0.39942  Biso   1.000  H
  C1257    1.0000 0.96700  0.12879  0.47511  Biso   1.000  C
  C1258    1.0000 0.91090  0.84520  0.23059  Biso   1.000  C
  C1259    1.0000 0.90402  0.83139  0.20768  Biso   1.000  C
  O186     1.0000 0.10302  0.80060  0.18751  Biso   1.000  O
  O187     1.0000 0.78560  0.15690  0.00641  Biso   1.000  O
  H825     1.0000 0.37698  0.76312  0.28402  Biso   1.000  H
  H826     1.0000 0.41161  0.81719  0.24198  Biso   1.000  H
  C1260    1.0000 0.47261  0.81031  0.33551  Biso   1.000  C
  H827     1.0000 0.37697  0.76312  0.28397  Biso   1.000  H
  H828     1.0000 0.08270  0.76341  0.09611  Biso   1.000  H
  H829     1.0000 0.09618  0.83930  0.09711  Biso   1.000  H
  C1261    1.0000 0.16942  0.75658  0.88440  Biso   1.000  C
  C1262    1.0000 0.12981  0.75721  0.90120  Biso   1.000  C
  H830     1.0000 0.80130  0.05271  0.32750  Biso   1.000  H
  C1263    1.0000 0.88568  0.20131  0.88132  Biso   1.000  C
  C1264    1.0000 0.88567  0.20131  0.88127  Biso   1.000  C
  C1265    1.0000 0.74112  0.15231  0.76220  Biso   1.000  C
  C1266    1.0000 0.81339  0.06139  0.71022  Biso   1.000  C
  C1267    1.0000 0.88338  0.96208  0.66658  Biso   1.000  C
  C1268    1.0000 0.05250  0.96808  0.76712  Biso   1.000  C
  C1269    1.0000 0.05249  0.96808  0.76707  Biso   1.000  C
  H831     1.0000 0.05179  0.05720  0.60998  Biso   1.000  H
  C1270    1.0000 0.97389  0.10141  0.53812  Biso   1.000  C
  C1271    1.0000 0.97388  0.10141  0.53807  Biso   1.000  C
  H832     1.0000 0.91798  0.14611  0.45518  Biso   1.000  H
  C1272    1.0000 0.83288  0.82802  0.18741  Biso   1.000  C
  C1273    1.0000 0.83294  0.82802  0.18741  Biso   1.000  C
  C1274    1.0000 0.82290  0.84779  0.16872  Biso   1.000  C
  C1275    1.0000 0.73962  0.13508  0.94608  Biso   1.000  C
  C1276    1.0000 0.52628  0.86018  0.32711  Biso   1.000  C
  C1277    1.0000 0.49151  0.76541  0.38659  Biso   1.000  C
  C1278    1.0000 0.11281  0.73359  0.82462  Biso   1.000  C
  C1279    1.0000 0.11280  0.73359  0.82457  Biso   1.000  C
  C1280    1.0000 0.08980  0.78181  0.83441  Biso   1.000  C
  O188     1.0000 0.80568  0.21082  0.88490  Biso   1.000  O
  H833     1.0000 0.91730  0.23659  0.90389  Biso   1.000  H
  H834     1.0000 0.90382  0.16070  0.90289  Biso   1.000  H
  C1281    1.0000 0.71662  0.12732  0.82671  Biso   1.000  C
  H835     1.0000 0.75453  0.19872  0.76871  Biso   1.000  H
  C1282    1.0000 0.66999  0.14738  0.70291  Biso   1.000  C
  H836     1.0000 0.76453  0.04460  0.68949  Biso   1.000  H
  C1283    1.0000 0.88100  0.90801  0.71608  Biso   1.000  C
  H837     1.0000 0.93477  0.95832  0.64968  Biso   1.000  H
  C1284    1.0000 0.81621  0.96169  0.60550  Biso   1.000  C
  H838     1.0000 0.93483  0.95832  0.64968  Biso   1.000  H
  O189     1.0000 0.02822  0.90830  0.73969  Biso   1.000  O
  H839     1.0000 0.11082  0.96750  0.77860  Biso   1.000  H
  H840     1.0000 0.03028  0.97301  0.80822  Biso   1.000  H
  H841     1.0000 0.03033  0.97301  0.80817  Biso   1.000  H
  H842     1.0000 0.92952  0.10039  0.56048  Biso   1.000  H
  C1285    1.0000 0.84729  0.78649  0.12971  Biso   1.000  C
  C1286    1.0000 0.77873  0.78898  0.13781  Biso   1.000  C
  C1287    1.0000 0.75439  0.15709  0.88450  Biso   1.000  C
  C1288    1.0000 0.68698  0.08330  0.95000  Biso   1.000  C
  H843     1.0000 0.51358  0.89029  0.29292  Biso   1.000  H
  C1289    1.0000 0.59890  0.86521  0.36980  Biso   1.000  C
  C1290    1.0000 0.56421  0.77039  0.42938  Biso   1.000  C
  H844     1.0000 0.45558  0.73198  0.39221  Biso   1.000  H
  H845     1.0000 0.45564  0.73198  0.39221  Biso   1.000  H
  C1291    1.0000 0.02881  0.75760  0.82720  Biso   1.000  C
  O190     1.0000 0.02581  0.82422  0.84241  Biso   1.000  O
  C1292    1.0000 0.66398  0.07550  0.83058  Biso   1.000  C
  H846     1.0000 0.65027  0.10292  0.69879  Biso   1.000  H
  H847     1.0000 0.68911  0.15919  0.66181  Biso   1.000  H
  C1293    1.0000 0.60267  0.19252  0.71459  Biso   1.000  C
  C1294    1.0000 0.60273  0.19252  0.71459  Biso   1.000  C
  C1295    1.0000 0.80868  0.88161  0.72910  Biso   1.000  C
  C1296    1.0000 0.95371  0.88619  0.75112  Biso   1.000  C
  H848     1.0000 0.76373  0.96281  0.62002  Biso   1.000  H
  C1297    1.0000 0.82388  0.89839  0.56371  Biso   1.000  C
  H849     1.0000 0.82113  0.00000  0.57832  Biso   1.000  H
  H850     1.0000 0.82112  0.00000  0.57827  Biso   1.000  H
  C1298    1.0000 0.78133  0.79132  0.07132  Biso   1.000  C
  C1299    1.0000 0.76701  0.78839  0.06341  Biso   1.000  C
  C1300    1.0000 0.64921  0.05349  0.89221  Biso   1.000  C
  O191     1.0000 0.67083  0.06090  0.01352  Biso   1.000  O
  H851     1.0000 0.63489  0.89859  0.36418  Biso   1.000  H
  C1301    1.0000 0.61787  0.82021  0.42098  Biso   1.000  C
  H852     1.0000 0.57679  0.74028  0.46358  Biso   1.000  H
  C1302    1.0000 0.95399  0.83788  0.79922  Biso   1.000  C
  C1303    1.0000 0.95398  0.83788  0.79917  Biso   1.000  C
  H853     1.0000 0.63873  0.05549  0.79202  Biso   1.000  H
  H854     1.0000 0.62302  0.23688  0.71598  Biso   1.000  H
  H855     1.0000 0.58839  0.18281  0.75802  Biso   1.000  H
  C1304    1.0000 0.52739  0.18969  0.66449  Biso   1.000  C
  H856     1.0000 0.58838  0.18281  0.75797  Biso   1.000  H
  C1305    1.0000 0.80901  0.83329  0.77711  Biso   1.000  C
  H857     1.0000 0.76008  0.89610  0.70559  Biso   1.000  H
  H858     1.0000 0.77550  0.89410  0.53131  Biso   1.000  H
  H859     1.0000 0.82618  0.86111  0.59318  Biso   1.000  H
  C1306    1.0000 0.89330  0.89571  0.52872  Biso   1.000  C
  C1307    1.0000 0.89330  0.89571  0.52867  Biso   1.000  C
  O192     1.0000 0.77828  0.85042  0.03608  Biso   1.000  O
  C1308    1.0000 0.59809  0.99429  0.89658  Biso   1.000  C
  C1309    1.0000 0.70748  0.00361  0.03722  Biso   1.000  C
  C1310    1.0000 0.70748  0.00361  0.03717  Biso   1.000  C
  H860     1.0000 0.66652  0.82358  0.44961  Biso   1.000  H
  C1311    1.0000 0.88173  0.81148  0.81219  Biso   1.000  C
  C1312    1.0000 0.47372  0.13982  0.67289  Biso   1.000  C
  C1313    1.0000 0.50849  0.23459  0.61341  Biso   1.000  C
  C1314    1.0000 0.73299  0.80670  0.79430  Biso   1.000  C
  C1315    1.0000 0.88651  0.92309  0.46561  Biso   1.000  C
  C1316    1.0000 0.96658  0.86980  0.55839  Biso   1.000  C
  C1317    1.0000 0.73159  0.86062  0.97421  Biso   1.000  C
  C1318    1.0000 0.64282  0.93168  0.90289  Biso   1.000  C
  H861     1.0000 0.57641  0.99902  0.93838  Biso   1.000  H
  C1319    1.0000 0.52383  0.99610  0.84171  Biso   1.000  C
  O193     1.0000 0.66642  0.94720  0.02132  Biso   1.000  O
  O194     1.0000 0.66641  0.94720  0.02127  Biso   1.000  O
  H862     1.0000 0.71889  0.00659  0.08518  Biso   1.000  H
  H863     1.0000 0.75889  0.00049  0.02102  Biso   1.000  H
  H864     1.0000 0.75888  0.00049  0.02097  Biso   1.000  H
  O195     1.0000 0.88582  0.76121  0.85439  Biso   1.000  O
  H865     1.0000 0.48642  0.10971  0.70708  Biso   1.000  H
  C1320    1.0000 0.40110  0.13479  0.63020  Biso   1.000  C
  C1321    1.0000 0.43579  0.22961  0.57062  Biso   1.000  C
  H866     1.0000 0.54442  0.26802  0.60779  Biso   1.000  H
  C1322    1.0000 0.70981  0.84310  0.85588  Biso   1.000  C
  H867     1.0000 0.74508  0.76170  0.80891  Biso   1.000  H
  C1323    1.0000 0.66817  0.80172  0.73238  Biso   1.000  C
  C1324    1.0000 0.66823  0.80172  0.73238  Biso   1.000  C
  H868     1.0000 0.83752  0.94041  0.44578  Biso   1.000  H
  C1325    1.0000 0.95277  0.92450  0.43221  Biso   1.000  C
  C1326    1.0000 0.95283  0.92450  0.43221  Biso   1.000  C
  H869     1.0000 0.97121  0.85150  0.60058  Biso   1.000  H
  C1327    1.0000 0.03300  0.87121  0.52489  Biso   1.000  C
  C1328    1.0000 0.74672  0.82529  0.91909  Biso   1.000  C
  C1329    1.0000 0.67968  0.91391  0.96611  Biso   1.000  C
  C1330    1.0000 0.67974  0.91391  0.96611  Biso   1.000  C
  C1331    1.0000 0.65789  0.89639  0.84778  Biso   1.000  C
  H870     1.0000 0.54102  0.98560  0.79952  Biso   1.000  H
  C1332    1.0000 0.45623  0.94900  0.85310  Biso   1.000  C
  H871     1.0000 0.54102  0.98560  0.79947  Biso   1.000  H
  H872     1.0000 0.50238  0.04012  0.83848  Biso   1.000  H
  C1333    1.0000 0.87201  0.77288  0.92222  Biso   1.000  C
  C1334    1.0000 0.87200  0.77288  0.92217  Biso   1.000  C
  H873     1.0000 0.36511  0.10141  0.63582  Biso   1.000  H
  C1335    1.0000 0.38213  0.17979  0.57902  Biso   1.000  C
  H874     1.0000 0.36510  0.10141  0.63577  Biso   1.000  H
  H875     1.0000 0.42321  0.25972  0.53642  Biso   1.000  H
  H876     1.0000 0.42320  0.25972  0.53638  Biso   1.000  H
  H877     1.0000 0.69198  0.78391  0.69570  Biso   1.000  H
  H878     1.0000 0.64769  0.84491  0.71981  Biso   1.000  H
  C1336    1.0000 0.60700  0.76312  0.74441  Biso   1.000  C
  H879     1.0000 0.94821  0.94280  0.39002  Biso   1.000  H
  C1337    1.0000 0.02611  0.89859  0.46188  Biso   1.000  C
  H880     1.0000 0.08202  0.85389  0.54482  Biso   1.000  H
  H881     1.0000 0.08201  0.85389  0.54477  Biso   1.000  H
  O196     1.0000 0.79190  0.77112  0.92849  Biso   1.000  O
  H882     1.0000 0.63321  0.90830  0.80549  Biso   1.000  H
  H883     1.0000 0.43992  0.95940  0.89559  Biso   1.000  H
  H884     1.0000 0.47809  0.90508  0.85628  Biso   1.000  H
  C1338    1.0000 0.38122  0.94900  0.80061  Biso   1.000  C
  H885     1.0000 0.89390  0.81519  0.93659  Biso   1.000  H
  H886     1.0000 0.90059  0.74008  0.95100  Biso   1.000  H
  H887     1.0000 0.33348  0.17642  0.55039  Biso   1.000  H
  H888     1.0000 0.62811  0.72559  0.77050  Biso   1.000  H
  H889     1.0000 0.57191  0.78708  0.76960  Biso   1.000  H
  C1339    1.0000 0.55552  0.73871  0.67359  Biso   1.000  C
  H890     1.0000 0.07048  0.89961  0.43952  Biso   1.000  H
  C1340    1.0000 0.35358  0.89059  0.77080  Biso   1.000  C
  C1341    1.0000 0.34038  0.00678  0.78238  Biso   1.000  C
  C1342    1.0000 0.48773  0.77732  0.65530  Biso   1.000  C
  C1343    1.0000 0.56942  0.68489  0.63522  Biso   1.000  C
  C1344    1.0000 0.56941  0.68489  0.63517  Biso   1.000  C
  C1345    1.0000 0.28529  0.88990  0.72279  Biso   1.000  C
  H891     1.0000 0.38097  0.85189  0.78302  Biso   1.000  H
  H892     1.0000 0.38103  0.85189  0.78297  Biso   1.000  H
  H893     1.0000 0.35883  0.04592  0.80240  Biso   1.000  H
  C1346    1.0000 0.27198  0.00620  0.73442  Biso   1.000  C
  C1347    1.0000 0.27203  0.00620  0.73437  Biso   1.000  C
  H894     1.0000 0.47840  0.81328  0.68089  Biso   1.000  H
  C1348    1.0000 0.43370  0.76209  0.59860  Biso   1.000  C
  C1349    1.0000 0.51541  0.66971  0.57862  Biso   1.000  C
  H895     1.0000 0.61471  0.65902  0.64750  Biso   1.000  H
  C1350    1.0000 0.24440  0.94768  0.70460  Biso   1.000  C
  H896     1.0000 0.26680  0.85081  0.70291  Biso   1.000  H
  H897     1.0000 0.24472  0.04480  0.72229  Biso   1.000  H
  H898     1.0000 0.38829  0.78800  0.58632  Biso   1.000  H
  C1351    1.0000 0.44747  0.70841  0.56018  Biso   1.000  C
  H899     1.0000 0.38828  0.78800  0.58627  Biso   1.000  H
  H900     1.0000 0.52460  0.63379  0.55292  Biso   1.000  H
  H901     1.0000 0.52459  0.63379  0.55287  Biso   1.000  H
  H902     1.0000 0.19870  0.94729  0.67250  Biso   1.000  H
  H903     1.0000 0.41139  0.69821  0.52231  Biso   1.000  H
  C1352    1.0000 0.25328  0.17471  0.08091  Biso   1.000  C
  C1353    1.0000 0.29019  0.15690  0.14412  Biso   1.000  C
  C1354    1.0000 0.29019  0.15690  0.14407  Biso   1.000  C
  O197     1.0000 0.20810  0.22888  0.07151  Biso   1.000  O
  C1355    1.0000 0.26841  0.13938  0.02579  Biso   1.000  C
  C1356    1.0000 0.26701  0.19330  0.20570  Biso   1.000  C
  C1357    1.0000 0.34211  0.10361  0.15222  Biso   1.000  C
  C1358    1.0000 0.34210  0.10361  0.15217  Biso   1.000  C
  C1359    1.0000 0.12799  0.22712  0.07778  Biso   1.000  C
  C1360    1.0000 0.32032  0.08609  0.03389  Biso   1.000  C
  O198     1.0000 0.22172  0.14958  0.96392  Biso   1.000  O
  O199     1.0000 0.22171  0.14958  0.96387  Biso   1.000  O
  C1361    1.0000 0.19099  0.16671  0.22289  Biso   1.000  C
  H904     1.0000 0.25492  0.23830  0.19109  Biso   1.000  H
  C1362    1.0000 0.33183  0.19828  0.26762  Biso   1.000  C
  C1363    1.0000 0.33182  0.19828  0.26757  Biso   1.000  C
  H905     1.0000 0.36679  0.09170  0.19451  Biso   1.000  H
  C1364    1.0000 0.35718  0.06832  0.09711  Biso   1.000  C
  C1365    1.0000 0.35724  0.06832  0.09711  Biso   1.000  C
  O200     1.0000 0.11418  0.23879  0.14561  Biso   1.000  O
  H906     1.0000 0.10610  0.18481  0.06341  Biso   1.000  H
  H907     1.0000 0.09941  0.25992  0.04900  Biso   1.000  H
  O201     1.0000 0.33358  0.05280  0.97868  Biso   1.000  O
  C1366    1.0000 0.21867  0.20868  0.92868  Biso   1.000  C
  C1367    1.0000 0.21873  0.20868  0.92868  Biso   1.000  C
  C1368    1.0000 0.23299  0.21161  0.93659  Biso   1.000  C
  C1369    1.0000 0.19132  0.11839  0.27090  Biso   1.000  C
  C1370    1.0000 0.11827  0.18852  0.18781  Biso   1.000  C
  C1371    1.0000 0.11833  0.18852  0.18781  Biso   1.000  C
  H908     1.0000 0.30802  0.21609  0.30430  Biso   1.000  H
  H909     1.0000 0.35231  0.15509  0.28019  Biso   1.000  H
  C1372    1.0000 0.39300  0.23688  0.25559  Biso   1.000  C
  C1373    1.0000 0.40191  0.00571  0.10342  Biso   1.000  C
  C1374    1.0000 0.40190  0.00571  0.10337  Biso   1.000  C
  C1375    1.0000 0.29252  0.99639  0.96278  Biso   1.000  C
  C1376    1.0000 0.15271  0.21351  0.87029  Biso   1.000  C
  C1377    1.0000 0.22133  0.21102  0.86219  Biso   1.000  C
  H910     1.0000 0.23992  0.10390  0.29441  Biso   1.000  H
  C1378    1.0000 0.11900  0.09199  0.28392  Biso   1.000  C
  C1379    1.0000 0.11899  0.09199  0.28387  Biso   1.000  C
  C1380    1.0000 0.04601  0.16212  0.20078  Biso   1.000  C
  H911     1.0000 0.37189  0.27441  0.22950  Biso   1.000  H
  H912     1.0000 0.42809  0.21292  0.23040  Biso   1.000  H
  C1381    1.0000 0.44448  0.26129  0.32641  Biso   1.000  C
  C1382    1.0000 0.35079  0.94651  0.10779  Biso   1.000  C
  H913     1.0000 0.42359  0.00098  0.06162  Biso   1.000  H
  C1383    1.0000 0.47617  0.00390  0.15829  Biso   1.000  C
  H914     1.0000 0.42358  0.00098  0.06157  Biso   1.000  H
  C1384    1.0000 0.47623  0.00390  0.15829  Biso   1.000  C
  O202     1.0000 0.32917  0.93910  0.98648  Biso   1.000  O
  H915     1.0000 0.28111  0.99341  0.91482  Biso   1.000  H
  H916     1.0000 0.24111  0.99951  0.97898  Biso   1.000  H
  O203     1.0000 0.32923  0.93910  0.98648  Biso   1.000  O
  H917     1.0000 0.28110  0.99341  0.91477  Biso   1.000  H
  C1385    1.0000 0.16712  0.17198  0.81259  Biso   1.000  C
  C1386    1.0000 0.17710  0.15221  0.83128  Biso   1.000  C
  C1387    1.0000 0.04629  0.11381  0.24888  Biso   1.000  C
  C1388    1.0000 0.11662  0.03792  0.33342  Biso   1.000  C
  C1389    1.0000 0.11661  0.03792  0.33337  Biso   1.000  C
  O204     1.0000 0.97419  0.17578  0.15759  Biso   1.000  O
  C1390    1.0000 0.43058  0.31511  0.36478  Biso   1.000  C
  C1391    1.0000 0.51227  0.22268  0.34470  Biso   1.000  C
  C1392    1.0000 0.51233  0.22268  0.34470  Biso   1.000  C
  C1393    1.0000 0.33602  0.92450  0.16942  Biso   1.000  C
  C1394    1.0000 0.31302  0.91670  0.05000  Biso   1.000  C
  H918     1.0000 0.45898  0.01440  0.20048  Biso   1.000  H
  H919     1.0000 0.49762  0.95988  0.16152  Biso   1.000  H
  C1395    1.0000 0.54377  0.05100  0.14690  Biso   1.000  C
  C1396    1.0000 0.54383  0.05100  0.14690  Biso   1.000  C
  C1397    1.0000 0.08910  0.15480  0.76941  Biso   1.000  C
  C1398    1.0000 0.09598  0.16861  0.79232  Biso   1.000  C
  O205     1.0000 0.97178  0.09170  0.26031  Biso   1.000  O
  H920     1.0000 0.06523  0.04168  0.35032  Biso   1.000  H
  C1399    1.0000 0.18379  0.03831  0.39450  Biso   1.000  C
  C1400    1.0000 0.11512  0.97072  0.29590  Biso   1.000  C
  C1401    1.0000 0.97119  0.24240  0.17280  Biso   1.000  C
  C1402    1.0000 0.91020  0.21819  0.16559  Biso   1.000  C
  C1403    1.0000 0.48459  0.33029  0.42138  Biso   1.000  C
  H921     1.0000 0.38529  0.34098  0.35250  Biso   1.000  H
  H922     1.0000 0.52160  0.18672  0.31911  Biso   1.000  H
  C1404    1.0000 0.56630  0.23791  0.40140  Biso   1.000  C
  C1405    1.0000 0.28338  0.87268  0.17329  Biso   1.000  C
  H923     1.0000 0.36127  0.94451  0.20798  Biso   1.000  H
  C1406    1.0000 0.28344  0.87268  0.17329  Biso   1.000  C
  H924     1.0000 0.36133  0.94451  0.20798  Biso   1.000  H
  C1407    1.0000 0.26038  0.86492  0.05392  Biso   1.000  C
  C1408    1.0000 0.26037  0.86492  0.05387  Biso   1.000  C
  C1409    1.0000 0.61878  0.05100  0.19939  Biso   1.000  C
  H925     1.0000 0.56008  0.04060  0.10441  Biso   1.000  H
  H926     1.0000 0.52191  0.09492  0.14372  Biso   1.000  H
  H927     1.0000 0.56014  0.04060  0.10441  Biso   1.000  H
  H928     1.0000 0.52190  0.09492  0.14367  Biso   1.000  H
  O206     1.0000 0.03562  0.12640  0.80812  Biso   1.000  O
  O207     1.0000 0.03562  0.12640  0.80807  Biso   1.000  O
  C1410    1.0000 0.94750  0.03192  0.23288  Biso   1.000  C
  H929     1.0000 0.23627  0.03719  0.37998  Biso   1.000  H
  C1411    1.0000 0.17612  0.10161  0.43629  Biso   1.000  C
  H930     1.0000 0.17887  0.00000  0.42168  Biso   1.000  H
  H931     1.0000 0.17893  0.00000  0.42168  Biso   1.000  H
  C1412    1.0000 0.04191  0.94568  0.26499  Biso   1.000  C
  C1413    1.0000 0.18661  0.93861  0.28978  Biso   1.000  C
  C1414    1.0000 0.88719  0.26641  0.17538  Biso   1.000  C
  C1415    1.0000 0.83058  0.24342  0.11560  Biso   1.000  C
  C1416    1.0000 0.87019  0.24279  0.09880  Biso   1.000  C
  H932     1.0000 0.47540  0.36621  0.44708  Biso   1.000  H
  C1417    1.0000 0.55253  0.29159  0.43982  Biso   1.000  C
  C1418    1.0000 0.55252  0.29159  0.43977  Biso   1.000  C
  H933     1.0000 0.61171  0.21200  0.41368  Biso   1.000  H
  C1419    1.0000 0.25888  0.84769  0.23780  Biso   1.000  C
  C1420    1.0000 0.24561  0.84291  0.11550  Biso   1.000  C
  O208     1.0000 0.21440  0.84310  0.99359  Biso   1.000  O
  C1421    1.0000 0.64642  0.10941  0.22920  Biso   1.000  C
  C1422    1.0000 0.65962  0.99322  0.21762  Biso   1.000  C
  C1423    1.0000 0.65961  0.99322  0.21757  Biso   1.000  C
  C1424    1.0000 0.95979  0.11151  0.77199  Biso   1.000  C
  O209     1.0000 0.96860  0.97760  0.27160  Biso   1.000  O
  H934     1.0000 0.88918  0.03250  0.22140  Biso   1.000  H
  H935     1.0000 0.96972  0.02699  0.19178  Biso   1.000  H
  H936     1.0000 0.22450  0.10590  0.46869  Biso   1.000  H
  C1425    1.0000 0.10670  0.10429  0.47128  Biso   1.000  C
  H937     1.0000 0.17382  0.13889  0.40682  Biso   1.000  H
  H938     1.0000 0.17381  0.13889  0.40677  Biso   1.000  H
  C1426    1.0000 0.04021  0.88849  0.22801  Biso   1.000  C
  H939     1.0000 0.23547  0.95540  0.31051  Biso   1.000  H
  C1427    1.0000 0.18491  0.88141  0.25281  Biso   1.000  C
  H940     1.0000 0.23553  0.95540  0.31051  Biso   1.000  H
  C1428    1.0000 0.80298  0.17510  0.12509  Biso   1.000  C
  C1429    1.0000 0.78012  0.23820  0.08911  Biso   1.000  C
  H941     1.0000 0.58861  0.30179  0.47769  Biso   1.000  H
  H942     1.0000 0.24547  0.80128  0.23129  Biso   1.000  H
  C1430    1.0000 0.33001  0.85262  0.29709  Biso   1.000  C
  H943     1.0000 0.24553  0.80128  0.23129  Biso   1.000  H
  O210     1.0000 0.19432  0.78918  0.11510  Biso   1.000  O
  C1431    1.0000 0.25212  0.84749  0.93619  Biso   1.000  C
  C1432    1.0000 0.25113  0.78381  0.98027  Biso   1.000  C
  C1433    1.0000 0.71471  0.11010  0.27721  Biso   1.000  C
  H944     1.0000 0.61903  0.14811  0.21698  Biso   1.000  H
  H945     1.0000 0.64117  0.95408  0.19760  Biso   1.000  H
  C1434    1.0000 0.72802  0.99380  0.26558  Biso   1.000  C
  H946     1.0000 0.64123  0.95408  0.19760  Biso   1.000  H
  C1435    1.0000 0.88828  0.14362  0.77800  Biso   1.000  C
  C1436    1.0000 0.95809  0.05432  0.73501  Biso   1.000  C
  C1437    1.0000 0.11349  0.07691  0.53439  Biso   1.000  C
  C1438    1.0000 0.03342  0.13020  0.44161  Biso   1.000  C
  O211     1.0000 0.96438  0.87360  0.19188  Biso   1.000  O
  C1439    1.0000 0.11172  0.85638  0.22200  Biso   1.000  C
  C1440    1.0000 0.74788  0.15251  0.06381  Biso   1.000  C
  C1441    1.0000 0.74892  0.21619  0.01968  Biso   1.000  C
  H947     1.0000 0.34973  0.89708  0.30121  Biso   1.000  H
  H948     1.0000 0.31089  0.84081  0.33819  Biso   1.000  H
  C1442    1.0000 0.39733  0.80748  0.28541  Biso   1.000  C
  C1443    1.0000 0.11432  0.79869  0.11868  Biso   1.000  C
  C1444    1.0000 0.19702  0.82490  0.87491  Biso   1.000  C
  C1445    1.0000 0.21988  0.76180  0.91089  Biso   1.000  C
  C1446    1.0000 0.75560  0.05232  0.29540  Biso   1.000  C
  H949     1.0000 0.73320  0.14919  0.29709  Biso   1.000  H
  H950     1.0000 0.75528  0.95520  0.27771  Biso   1.000  H
  O212     1.0000 0.89698  0.19940  0.81249  Biso   1.000  O
  C1447    1.0000 0.81509  0.11859  0.74719  Biso   1.000  C
  C1448    1.0000 0.88488  0.02928  0.70410  Biso   1.000  C
  O213     1.0000 0.03140  0.02240  0.72840  Biso   1.000  O
  C1449    1.0000 0.04723  0.07550  0.56779  Biso   1.000  C
  H951     1.0000 0.16248  0.05959  0.55422  Biso   1.000  H
  H952     1.0000 0.16248  0.05959  0.55417  Biso   1.000  H
  H953     1.0000 0.02879  0.14850  0.39942  Biso   1.000  H
  C1450    1.0000 0.96700  0.12879  0.47511  Biso   1.000  C
  C1451    1.0000 0.91090  0.84520  0.23059  Biso   1.000  C
  C1452    1.0000 0.90402  0.83139  0.20768  Biso   1.000  C
  O214     1.0000 0.10302  0.80060  0.18751  Biso   1.000  O
  O215     1.0000 0.78560  0.15690  0.00641  Biso   1.000  O
  H954     1.0000 0.37698  0.76312  0.28402  Biso   1.000  H
  H955     1.0000 0.41161  0.81719  0.24198  Biso   1.000  H
  C1453    1.0000 0.47261  0.81031  0.33551  Biso   1.000  C
  H956     1.0000 0.37697  0.76312  0.28397  Biso   1.000  H
  H957     1.0000 0.08270  0.76341  0.09611  Biso   1.000  H
  H958     1.0000 0.09618  0.83930  0.09711  Biso   1.000  H
  C1454    1.0000 0.16942  0.75658  0.88440  Biso   1.000  C
  C1455    1.0000 0.12981  0.75721  0.90120  Biso   1.000  C
  H959     1.0000 0.80130  0.05271  0.32750  Biso   1.000  H
  C1456    1.0000 0.88568  0.20131  0.88132  Biso   1.000  C
  C1457    1.0000 0.88567  0.20131  0.88127  Biso   1.000  C
  C1458    1.0000 0.74112  0.15231  0.76220  Biso   1.000  C
  C1459    1.0000 0.81339  0.06139  0.71022  Biso   1.000  C
  C1460    1.0000 0.88338  0.96208  0.66658  Biso   1.000  C
  C1461    1.0000 0.05250  0.96808  0.76712  Biso   1.000  C
  C1462    1.0000 0.05249  0.96808  0.76707  Biso   1.000  C
  H960     1.0000 0.05179  0.05720  0.60998  Biso   1.000  H
  C1463    1.0000 0.97389  0.10141  0.53812  Biso   1.000  C
  C1464    1.0000 0.97388  0.10141  0.53807  Biso   1.000  C
  H961     1.0000 0.91798  0.14611  0.45518  Biso   1.000  H
  C1465    1.0000 0.83288  0.82802  0.18741  Biso   1.000  C
  C1466    1.0000 0.83294  0.82802  0.18741  Biso   1.000  C
  C1467    1.0000 0.82290  0.84779  0.16872  Biso   1.000  C
  C1468    1.0000 0.73962  0.13508  0.94608  Biso   1.000  C
  C1469    1.0000 0.52628  0.86018  0.32711  Biso   1.000  C
  C1470    1.0000 0.49151  0.76541  0.38659  Biso   1.000  C
  C1471    1.0000 0.11281  0.73359  0.82462  Biso   1.000  C
  C1472    1.0000 0.11280  0.73359  0.82457  Biso   1.000  C
  C1473    1.0000 0.08980  0.78181  0.83441  Biso   1.000  C
  O216     1.0000 0.80568  0.21082  0.88490  Biso   1.000  O
  H962     1.0000 0.91730  0.23659  0.90389  Biso   1.000  H
  H963     1.0000 0.90382  0.16070  0.90289  Biso   1.000  H
  C1474    1.0000 0.71662  0.12732  0.82671  Biso   1.000  C
  H964     1.0000 0.75453  0.19872  0.76871  Biso   1.000  H
  C1475    1.0000 0.66999  0.14738  0.70291  Biso   1.000  C
  H965     1.0000 0.76453  0.04460  0.68949  Biso   1.000  H
  C1476    1.0000 0.88100  0.90801  0.71608  Biso   1.000  C
  H966     1.0000 0.93477  0.95832  0.64968  Biso   1.000  H
  C1477    1.0000 0.81621  0.96169  0.60550  Biso   1.000  C
  H967     1.0000 0.93483  0.95832  0.64968  Biso   1.000  H
  O217     1.0000 0.02822  0.90830  0.73969  Biso   1.000  O
  H968     1.0000 0.11082  0.96750  0.77860  Biso   1.000  H
  H969     1.0000 0.03028  0.97301  0.80822  Biso   1.000  H
  H970     1.0000 0.03033  0.97301  0.80817  Biso   1.000  H
  H971     1.0000 0.92952  0.10039  0.56048  Biso   1.000  H
  C1478    1.0000 0.84729  0.78649  0.12971  Biso   1.000  C
  C1479    1.0000 0.77873  0.78898  0.13781  Biso   1.000  C
  C1480    1.0000 0.75439  0.15709  0.88450  Biso   1.000  C
  C1481    1.0000 0.68698  0.08330  0.95000  Biso   1.000  C
  H972     1.0000 0.51358  0.89029  0.29292  Biso   1.000  H
  C1482    1.0000 0.59890  0.86521  0.36980  Biso   1.000  C
  C1483    1.0000 0.56421  0.77039  0.42938  Biso   1.000  C
  H973     1.0000 0.45558  0.73198  0.39221  Biso   1.000  H
  H974     1.0000 0.45564  0.73198  0.39221  Biso   1.000  H
  C1484    1.0000 0.02881  0.75760  0.82720  Biso   1.000  C
  O218     1.0000 0.02581  0.82422  0.84241  Biso   1.000  O
  C1485    1.0000 0.66398  0.07550  0.83058  Biso   1.000  C
  H975     1.0000 0.65027  0.10292  0.69879  Biso   1.000  H
  H976     1.0000 0.68911  0.15919  0.66181  Biso   1.000  H
  C1486    1.0000 0.60267  0.19252  0.71459  Biso   1.000  C
  C1487    1.0000 0.60273  0.19252  0.71459  Biso   1.000  C
  C1488    1.0000 0.80868  0.88161  0.72910  Biso   1.000  C
  C1489    1.0000 0.95371  0.88619  0.75112  Biso   1.000  C
  H977     1.0000 0.76373  0.96281  0.62002  Biso   1.000  H
  C1490    1.0000 0.82388  0.89839  0.56371  Biso   1.000  C
  H978     1.0000 0.82113  0.00000  0.57832  Biso   1.000  H
  H979     1.0000 0.82112  0.00000  0.57827  Biso   1.000  H
  C1491    1.0000 0.78133  0.79132  0.07132  Biso   1.000  C
  C1492    1.0000 0.76701  0.78839  0.06341  Biso   1.000  C
  C1493    1.0000 0.64921  0.05349  0.89221  Biso   1.000  C
  O219     1.0000 0.67083  0.06090  0.01352  Biso   1.000  O
  H980     1.0000 0.63489  0.89859  0.36418  Biso   1.000  H
  C1494    1.0000 0.61787  0.82021  0.42098  Biso   1.000  C
  H981     1.0000 0.57679  0.74028  0.46358  Biso   1.000  H
  C1495    1.0000 0.95399  0.83788  0.79922  Biso   1.000  C
  C1496    1.0000 0.95398  0.83788  0.79917  Biso   1.000  C
  H982     1.0000 0.63873  0.05549  0.79202  Biso   1.000  H
  H983     1.0000 0.62302  0.23688  0.71598  Biso   1.000  H
  H984     1.0000 0.58839  0.18281  0.75802  Biso   1.000  H
  C1497    1.0000 0.52739  0.18969  0.66449  Biso   1.000  C
  H985     1.0000 0.58838  0.18281  0.75797  Biso   1.000  H
  C1498    1.0000 0.80901  0.83329  0.77711  Biso   1.000  C
  H986     1.0000 0.76008  0.89610  0.70559  Biso   1.000  H
  H987     1.0000 0.77550  0.89410  0.53131  Biso   1.000  H
  H988     1.0000 0.82618  0.86111  0.59318  Biso   1.000  H
  C1499    1.0000 0.89330  0.89571  0.52872  Biso   1.000  C
  C1500    1.0000 0.89330  0.89571  0.52867  Biso   1.000  C
  O220     1.0000 0.77828  0.85042  0.03608  Biso   1.000  O
  C1501    1.0000 0.59809  0.99429  0.89658  Biso   1.000  C
  C1502    1.0000 0.70748  0.00361  0.03722  Biso   1.000  C
  C1503    1.0000 0.70748  0.00361  0.03717  Biso   1.000  C
  H989     1.0000 0.66652  0.82358  0.44961  Biso   1.000  H
  C1504    1.0000 0.88173  0.81148  0.81219  Biso   1.000  C
  C1505    1.0000 0.47372  0.13982  0.67289  Biso   1.000  C
  C1506    1.0000 0.50849  0.23459  0.61341  Biso   1.000  C
  C1507    1.0000 0.73299  0.80670  0.79430  Biso   1.000  C
  C1508    1.0000 0.88651  0.92309  0.46561  Biso   1.000  C
  C1509    1.0000 0.96658  0.86980  0.55839  Biso   1.000  C
  C1510    1.0000 0.73159  0.86062  0.97421  Biso   1.000  C
  C1511    1.0000 0.64282  0.93168  0.90289  Biso   1.000  C
  H990     1.0000 0.57641  0.99902  0.93838  Biso   1.000  H
  C1512    1.0000 0.52383  0.99610  0.84171  Biso   1.000  C
  O221     1.0000 0.66642  0.94720  0.02132  Biso   1.000  O
  O222     1.0000 0.66641  0.94720  0.02127  Biso   1.000  O
  H991     1.0000 0.71889  0.00659  0.08518  Biso   1.000  H
  H992     1.0000 0.75889  0.00049  0.02102  Biso   1.000  H
  H993     1.0000 0.75888  0.00049  0.02097  Biso   1.000  H
  O223     1.0000 0.88582  0.76121  0.85439  Biso   1.000  O
  H994     1.0000 0.48642  0.10971  0.70708  Biso   1.000  H
  C1513    1.0000 0.40110  0.13479  0.63020  Biso   1.000  C
  C1514    1.0000 0.43579  0.22961  0.57062  Biso   1.000  C
  H995     1.0000 0.54442  0.26802  0.60779  Biso   1.000  H
  C1515    1.0000 0.70981  0.84310  0.85588  Biso   1.000  C
  H996     1.0000 0.74508  0.76170  0.80891  Biso   1.000  H
  C1516    1.0000 0.66817  0.80172  0.73238  Biso   1.000  C
  C1517    1.0000 0.66823  0.80172  0.73238  Biso   1.000  C
  H997     1.0000 0.83752  0.94041  0.44578  Biso   1.000  H
  C1518    1.0000 0.95277  0.92450  0.43221  Biso   1.000  C
  C1519    1.0000 0.95283  0.92450  0.43221  Biso   1.000  C
  H998     1.0000 0.97121  0.85150  0.60058  Biso   1.000  H
  C1520    1.0000 0.03300  0.87121  0.52489  Biso   1.000  C
  C1521    1.0000 0.74672  0.82529  0.91909  Biso   1.000  C
  C1522    1.0000 0.67968  0.91391  0.96611  Biso   1.000  C
  C1523    1.0000 0.67974  0.91391  0.96611  Biso   1.000  C
  C1524    1.0000 0.65789  0.89639  0.84778  Biso   1.000  C
  H999     1.0000 0.54102  0.98560  0.79952  Biso   1.000  H
  C1525    1.0000 0.45623  0.94900  0.85310  Biso   1.000  C
  H1000    1.0000 0.54102  0.98560  0.79947  Biso   1.000  H
  H1001    1.0000 0.50238  0.04012  0.83848  Biso   1.000  H
  C1526    1.0000 0.87201  0.77288  0.92222  Biso   1.000  C
  C1527    1.0000 0.87200  0.77288  0.92217  Biso   1.000  C
  H1002    1.0000 0.36511  0.10141  0.63582  Biso   1.000  H
  C1528    1.0000 0.38213  0.17979  0.57902  Biso   1.000  C
  H1003    1.0000 0.36510  0.10141  0.63577  Biso   1.000  H
  H1004    1.0000 0.42321  0.25972  0.53642  Biso   1.000  H
  H1005    1.0000 0.42320  0.25972  0.53638  Biso   1.000  H
  H1006    1.0000 0.69198  0.78391  0.69570  Biso   1.000  H
  H1007    1.0000 0.64769  0.84491  0.71981  Biso   1.000  H
  C1529    1.0000 0.60700  0.76312  0.74441  Biso   1.000  C
  H1008    1.0000 0.94821  0.94280  0.39002  Biso   1.000  H
  C1530    1.0000 0.02611  0.89859  0.46188  Biso   1.000  C
  H1009    1.0000 0.08202  0.85389  0.54482  Biso   1.000  H
  H1010    1.0000 0.08201  0.85389  0.54477  Biso   1.000  H
  O224     1.0000 0.79190  0.77112  0.92849  Biso   1.000  O
  H1011    1.0000 0.63321  0.90830  0.80549  Biso   1.000  H
  H1012    1.0000 0.43992  0.95940  0.89559  Biso   1.000  H
  H1013    1.0000 0.47809  0.90508  0.85628  Biso   1.000  H
  C1531    1.0000 0.38122  0.94900  0.80061  Biso   1.000  C
  H1014    1.0000 0.89390  0.81519  0.93659  Biso   1.000  H
  H1015    1.0000 0.90059  0.74008  0.95100  Biso   1.000  H
  H1016    1.0000 0.33348  0.17642  0.55039  Biso   1.000  H
  H1017    1.0000 0.62811  0.72559  0.77050  Biso   1.000  H
  H1018    1.0000 0.57191  0.78708  0.76960  Biso   1.000  H
  C1532    1.0000 0.55552  0.73871  0.67359  Biso   1.000  C
  H1019    1.0000 0.07048  0.89961  0.43952  Biso   1.000  H
  C1533    1.0000 0.35358  0.89059  0.77080  Biso   1.000  C
  C1534    1.0000 0.34038  0.00678  0.78238  Biso   1.000  C
  C1535    1.0000 0.48773  0.77732  0.65530  Biso   1.000  C
  C1536    1.0000 0.56942  0.68489  0.63522  Biso   1.000  C
  C1537    1.0000 0.56941  0.68489  0.63517  Biso   1.000  C
  C1538    1.0000 0.28529  0.88990  0.72279  Biso   1.000  C
  H1020    1.0000 0.38097  0.85189  0.78302  Biso   1.000  H
  H1021    1.0000 0.38103  0.85189  0.78297  Biso   1.000  H
  H1022    1.0000 0.35883  0.04592  0.80240  Biso   1.000  H
  C1539    1.0000 0.27198  0.00620  0.73442  Biso   1.000  C
  C1540    1.0000 0.27203  0.00620  0.73437  Biso   1.000  C
  H1023    1.0000 0.47840  0.81328  0.68089  Biso   1.000  H
  C1541    1.0000 0.43370  0.76209  0.59860  Biso   1.000  C
  C1542    1.0000 0.51541  0.66971  0.57862  Biso   1.000  C
  H1024    1.0000 0.61471  0.65902  0.64750  Biso   1.000  H
  C1543    1.0000 0.24440  0.94768  0.70460  Biso   1.000  C
  H1025    1.0000 0.26680  0.85081  0.70291  Biso   1.000  H
  H1026    1.0000 0.24472  0.04480  0.72229  Biso   1.000  H
  H1027    1.0000 0.38829  0.78800  0.58632  Biso   1.000  H
  C1544    1.0000 0.44747  0.70841  0.56018  Biso   1.000  C
  H1028    1.0000 0.38828  0.78800  0.58627  Biso   1.000  H
  H1029    1.0000 0.52460  0.63379  0.55292  Biso   1.000  H
  H1030    1.0000 0.52459  0.63379  0.55287  Biso   1.000  H
  H1031    1.0000 0.19870  0.94729  0.67250  Biso   1.000  H
  H1032    1.0000 0.41139  0.69821  0.52231  Biso   1.000  H
  C1545    1.0000 0.43579  0.27041  0.07062  Biso   1.000  C
  C1546    1.0000 0.38212  0.32019  0.07902  Biso   1.000  C
  C1547    1.0000 0.50849  0.26538  0.11341  Biso   1.000  C
  H1033    1.0000 0.42320  0.24030  0.03638  Biso   1.000  H
  C1548    1.0000 0.40110  0.36518  0.13021  Biso   1.000  C
  H1034    1.0000 0.33348  0.32361  0.05039  Biso   1.000  H
  C1549    1.0000 0.52738  0.31028  0.16450  Biso   1.000  C
  H1035    1.0000 0.54442  0.23200  0.10779  Biso   1.000  H
  C1550    1.0000 0.47372  0.36021  0.17290  Biso   1.000  C
  H1036    1.0000 0.36510  0.39861  0.13582  Biso   1.000  H
  C1551    1.0000 0.60267  0.30750  0.21459  Biso   1.000  C
  H1037    1.0000 0.48642  0.39032  0.20709  Biso   1.000  H
  C1552    1.0000 0.66998  0.35259  0.20291  Biso   1.000  C
  H1038    1.0000 0.62302  0.26309  0.21598  Biso   1.000  H
  H1039    1.0000 0.58838  0.31721  0.25798  Biso   1.000  H
  C1553    1.0000 0.74111  0.34771  0.26220  Biso   1.000  C
  H1040    1.0000 0.65027  0.39710  0.19879  Biso   1.000  H
  H1041    1.0000 0.68911  0.34078  0.16181  Biso   1.000  H
  C1554    1.0000 0.81509  0.38139  0.24719  Biso   1.000  C
  H1042    1.0000 0.75453  0.30130  0.26871  Biso   1.000  H
  C1555    1.0000 0.71662  0.37270  0.32671  Biso   1.000  C
  C1556    1.0000 0.81339  0.43858  0.21022  Biso   1.000  C
  C1557    1.0000 0.88828  0.35640  0.27801  Biso   1.000  C
  C1558    1.0000 0.75439  0.34288  0.38451  Biso   1.000  C
  C1559    1.0000 0.66398  0.42448  0.33059  Biso   1.000  C
  C1560    1.0000 0.88488  0.47069  0.20411  Biso   1.000  C
  H1043    1.0000 0.76452  0.45542  0.18950  Biso   1.000  H
  C1561    1.0000 0.95979  0.38851  0.27199  Biso   1.000  C
  O225     1.0000 0.89698  0.30062  0.31250  Biso   1.000  O
  O226     1.0000 0.80567  0.28920  0.38490  Biso   1.000  O
  C1562    1.0000 0.73962  0.36489  0.44608  Biso   1.000  C
  H1044    1.0000 0.63873  0.44449  0.29202  Biso   1.000  H
  C1563    1.0000 0.64921  0.44649  0.39221  Biso   1.000  C
  C1564    1.0000 0.88337  0.53789  0.16658  Biso   1.000  C
  C1565    1.0000 0.95809  0.44571  0.23502  Biso   1.000  C
  O227     1.0000 0.03562  0.37358  0.30812  Biso   1.000  O
  C1566    1.0000 0.88567  0.29872  0.38128  Biso   1.000  C
  C1567    1.0000 0.68698  0.41672  0.45001  Biso   1.000  C
  O228     1.0000 0.78560  0.34308  0.50641  Biso   1.000  O
  C1568    1.0000 0.59808  0.50569  0.39658  Biso   1.000  C
  C1569    1.0000 0.88099  0.59202  0.21608  Biso   1.000  C
  H1045    1.0000 0.93477  0.54170  0.14969  Biso   1.000  H
  C1570    1.0000 0.81621  0.53829  0.10551  Biso   1.000  C
  O229     1.0000 0.03140  0.47762  0.22841  Biso   1.000  O
  C1571    1.0000 0.08910  0.34518  0.26941  Biso   1.000  C
  C1572    1.0000 0.09598  0.33141  0.29232  Biso   1.000  C
  H1046    1.0000 0.91729  0.26338  0.40389  Biso   1.000  H
  H1047    1.0000 0.90382  0.33932  0.40290  Biso   1.000  H
  O230     1.0000 0.67083  0.43912  0.51352  Biso   1.000  O
  C1573    1.0000 0.74788  0.34752  0.56381  Biso   1.000  C
  C1574    1.0000 0.74892  0.28378  0.51968  Biso   1.000  C
  C1575    1.0000 0.64282  0.56830  0.40290  Biso   1.000  C
  H1048    1.0000 0.57641  0.50100  0.43838  Biso   1.000  H
  C1576    1.0000 0.52383  0.50388  0.34172  Biso   1.000  C
  C1577    1.0000 0.80868  0.61842  0.22910  Biso   1.000  C
  C1578    1.0000 0.95370  0.61378  0.25112  Biso   1.000  C
  H1049    1.0000 0.76372  0.53721  0.12002  Biso   1.000  H
  H1050    1.0000 0.82113  0.49998  0.07832  Biso   1.000  H
  C1579    1.0000 0.82388  0.60158  0.06371  Biso   1.000  C
  C1580    1.0000 0.05250  0.53189  0.26712  Biso   1.000  C
  C1581    1.0000 0.16712  0.32800  0.31260  Biso   1.000  C
  C1582    1.0000 0.17710  0.34781  0.33128  Biso   1.000  C
  C1583    1.0000 0.70747  0.49641  0.53718  Biso   1.000  C
  C1584    1.0000 0.80298  0.32492  0.62509  Biso   1.000  C
  C1585    1.0000 0.78012  0.26182  0.58911  Biso   1.000  C
  C1586    1.0000 0.67967  0.58611  0.46611  Biso   1.000  C
  C1587    1.0000 0.65788  0.60358  0.34778  Biso   1.000  C
  H1051    1.0000 0.54101  0.51442  0.29948  Biso   1.000  H
  H1052    1.0000 0.50237  0.45991  0.33849  Biso   1.000  H
  C1588    1.0000 0.45622  0.55102  0.35310  Biso   1.000  C
  C1589    1.0000 0.80901  0.66668  0.27711  Biso   1.000  C
  H1053    1.0000 0.76008  0.60392  0.20560  Biso   1.000  H
  C1590    1.0000 0.95398  0.66210  0.29918  Biso   1.000  C
  O231     1.0000 0.02822  0.59172  0.23969  Biso   1.000  O
  H1054    1.0000 0.77550  0.60588  0.03131  Biso   1.000  H
  H1055    1.0000 0.82617  0.63891  0.09318  Biso   1.000  H
  C1591    1.0000 0.89329  0.60431  0.02868  Biso   1.000  C
  H1056    1.0000 0.11082  0.53248  0.27860  Biso   1.000  H
  H1057    1.0000 0.03027  0.52701  0.30822  Biso   1.000  H
  C1592    1.0000 0.15271  0.28652  0.37029  Biso   1.000  C
  C1593    1.0000 0.22127  0.28900  0.36219  Biso   1.000  C
  H1058    1.0000 0.71889  0.49339  0.58518  Biso   1.000  H
  H1059    1.0000 0.75888  0.49949  0.52098  Biso   1.000  H
  O232     1.0000 0.66642  0.55278  0.52132  Biso   1.000  O
  C1594    1.0000 0.83057  0.25660  0.61560  Biso   1.000  C
  C1595    1.0000 0.87018  0.25719  0.59880  Biso   1.000  C
  C1596    1.0000 0.73159  0.63940  0.47421  Biso   1.000  C
  C1597    1.0000 0.70980  0.65692  0.35588  Biso   1.000  C
  H1060    1.0000 0.63321  0.59172  0.30549  Biso   1.000  H
  H1061    1.0000 0.43992  0.54058  0.39559  Biso   1.000  H
  H1062    1.0000 0.47809  0.59490  0.35628  Biso   1.000  H
  C1598    1.0000 0.38121  0.55102  0.30062  Biso   1.000  C
  C1599    1.0000 0.88172  0.68850  0.31220  Biso   1.000  C
  C1600    1.0000 0.73298  0.69328  0.29431  Biso   1.000  C
  O233     1.0000 0.02581  0.67581  0.34241  Biso   1.000  O
  C1601    1.0000 0.96658  0.63018  0.05839  Biso   1.000  C
  C1602    1.0000 0.88651  0.57689  0.96561  Biso   1.000  C
  C1603    1.0000 0.21872  0.29130  0.42869  Biso   1.000  C
  C1604    1.0000 0.23299  0.28842  0.43659  Biso   1.000  C
  C1605    1.0000 0.88719  0.23361  0.67538  Biso   1.000  C
  C1606    1.0000 0.91020  0.28178  0.66559  Biso   1.000  C
  C1607    1.0000 0.74672  0.67469  0.41910  Biso   1.000  C
  O234     1.0000 0.77828  0.64960  0.53608  Biso   1.000  O
  C1608    1.0000 0.34037  0.49319  0.28238  Biso   1.000  C
  C1609    1.0000 0.35358  0.60939  0.27080  Biso   1.000  C
  O235     1.0000 0.88581  0.73881  0.35439  Biso   1.000  O
  H1063    1.0000 0.74508  0.73832  0.30892  Biso   1.000  H
  C1610    1.0000 0.66817  0.69831  0.23238  Biso   1.000  C
  C1611    1.0000 0.02880  0.74242  0.32721  Biso   1.000  C
  C1612    1.0000 0.08980  0.71822  0.33441  Biso   1.000  C
  H1064    1.0000 0.97120  0.64848  0.10059  Biso   1.000  H
  C1613    1.0000 0.03300  0.62881  0.02490  Biso   1.000  C
  H1065    1.0000 0.83751  0.55961  0.94578  Biso   1.000  H
  C1614    1.0000 0.95283  0.57552  0.93221  Biso   1.000  C
  O236     1.0000 0.22172  0.35040  0.46392  Biso   1.000  O
  C1615    1.0000 0.97119  0.25758  0.67280  Biso   1.000  C
  O237     1.0000 0.97419  0.32419  0.65759  Biso   1.000  O
  O238     1.0000 0.79190  0.72891  0.42849  Biso   1.000  O
  C1616    1.0000 0.78133  0.70870  0.57132  Biso   1.000  C
  C1617    1.0000 0.76701  0.71158  0.56342  Biso   1.000  C
  H1066    1.0000 0.35883  0.45410  0.30241  Biso   1.000  H
  C1618    1.0000 0.27198  0.49378  0.23442  Biso   1.000  C
  C1619    1.0000 0.28529  0.61012  0.22279  Biso   1.000  C
  H1067    1.0000 0.38102  0.64809  0.28298  Biso   1.000  H
  C1620    1.0000 0.87200  0.72710  0.42218  Biso   1.000  C
  H1068    1.0000 0.69198  0.71612  0.19571  Biso   1.000  H
  H1069    1.0000 0.64768  0.65512  0.21981  Biso   1.000  H
  C1621    1.0000 0.60700  0.73691  0.24441  Biso   1.000  C
  C1622    1.0000 0.11281  0.76639  0.32462  Biso   1.000  C
  C1623    1.0000 0.16942  0.74340  0.38441  Biso   1.000  C
  C1624    1.0000 0.12981  0.74281  0.40121  Biso   1.000  C
  C1625    1.0000 0.02611  0.60139  0.96188  Biso   1.000  C
  H1070    1.0000 0.08200  0.64609  0.04478  Biso   1.000  H
  H1071    1.0000 0.94820  0.55722  0.89002  Biso   1.000  H
  C1626    1.0000 0.26840  0.36060  0.52580  Biso   1.000  C
  C1627    1.0000 0.04601  0.33790  0.70078  Biso   1.000  C
  C1628    1.0000 0.84729  0.71348  0.62971  Biso   1.000  C
  C1629    1.0000 0.77872  0.71100  0.63781  Biso   1.000  C
  H1072    1.0000 0.24472  0.45522  0.22230  Biso   1.000  H
  C1630    1.0000 0.24440  0.55229  0.20460  Biso   1.000  C
  H1073    1.0000 0.26680  0.64921  0.20291  Biso   1.000  H
  H1074    1.0000 0.89389  0.68479  0.43659  Biso   1.000  H
  H1075    1.0000 0.90059  0.75989  0.45100  Biso   1.000  H
  H1076    1.0000 0.62811  0.77439  0.27050  Biso   1.000  H
  H1077    1.0000 0.57191  0.71290  0.26961  Biso   1.000  H
  C1631    1.0000 0.55552  0.76131  0.17359  Biso   1.000  C
  C1632    1.0000 0.19701  0.67508  0.37492  Biso   1.000  C
  C1633    1.0000 0.21988  0.73818  0.41090  Biso   1.000  C
  H1078    1.0000 0.07048  0.60041  0.93952  Biso   1.000  H
  C1634    1.0000 0.25328  0.32531  0.58091  Biso   1.000  C
  C1635    1.0000 0.32032  0.41389  0.53390  Biso   1.000  C
  C1636    1.0000 0.11833  0.31150  0.68781  Biso   1.000  C
  C1637    1.0000 0.04629  0.38622  0.74889  Biso   1.000  C
  C1638    1.0000 0.83288  0.67200  0.68741  Biso   1.000  C
  C1639    1.0000 0.82289  0.65219  0.66868  Biso   1.000  C
  H1079    1.0000 0.19869  0.55268  0.17250  Biso   1.000  H
  C1640    1.0000 0.48772  0.72271  0.15530  Biso   1.000  C
  C1641    1.0000 0.56941  0.81509  0.13518  Biso   1.000  C
  C1642    1.0000 0.25211  0.65248  0.43619  Biso   1.000  C
  C1643    1.0000 0.25113  0.71622  0.48032  Biso   1.000  C
  O239     1.0000 0.20810  0.27109  0.57152  Biso   1.000  O
  C1644    1.0000 0.29018  0.34308  0.64408  Biso   1.000  C
  O240     1.0000 0.33358  0.44722  0.47868  Biso   1.000  O
  C1645    1.0000 0.35718  0.43170  0.59711  Biso   1.000  C
  C1646    1.0000 0.19099  0.33332  0.72290  Biso   1.000  C
  O241     1.0000 0.11418  0.26119  0.64562  Biso   1.000  O
  O242     1.0000 0.97178  0.40828  0.76032  Biso   1.000  O
  C1647    1.0000 0.11900  0.40798  0.78392  Biso   1.000  C
  C1648    1.0000 0.91089  0.65482  0.73060  Biso   1.000  C
  C1649    1.0000 0.90401  0.66859  0.70769  Biso   1.000  C
  H1080    1.0000 0.47840  0.68669  0.18090  Biso   1.000  H
  C1650    1.0000 0.43370  0.73788  0.09860  Biso   1.000  C
  C1651    1.0000 0.51541  0.83032  0.07862  Biso   1.000  C
  H1081    1.0000 0.61471  0.84100  0.14750  Biso   1.000  H
  O243     1.0000 0.21439  0.65692  0.49359  Biso   1.000  O
  C1652    1.0000 0.12799  0.27290  0.57778  Biso   1.000  C
  C1653    1.0000 0.34210  0.39642  0.65218  Biso   1.000  C
  C1654    1.0000 0.26701  0.30672  0.70570  Biso   1.000  C
  C1655    1.0000 0.29251  0.50359  0.46278  Biso   1.000  C
  C1656    1.0000 0.40191  0.49431  0.60342  Biso   1.000  C
  C1657    1.0000 0.19132  0.38158  0.77090  Biso   1.000  C
  C1658    1.0000 0.94750  0.46811  0.73288  Biso   1.000  C
  C1659    1.0000 0.11662  0.46211  0.83342  Biso   1.000  C
  O244     1.0000 0.96437  0.62642  0.69188  Biso   1.000  O
  H1082    1.0000 0.38829  0.71202  0.08632  Biso   1.000  H
  C1660    1.0000 0.44747  0.79162  0.06018  Biso   1.000  C
  H1083    1.0000 0.52459  0.86619  0.05288  Biso   1.000  H
  C1661    1.0000 0.26038  0.63511  0.55392  Biso   1.000  C
  H1084    1.0000 0.10610  0.31521  0.56342  Biso   1.000  H
  H1085    1.0000 0.09941  0.24011  0.54900  Biso   1.000  H
  H1086    1.0000 0.36679  0.40828  0.69452  Biso   1.000  H
  H1087    1.0000 0.25492  0.26168  0.69109  Biso   1.000  H
  C1662    1.0000 0.33183  0.30169  0.76762  Biso   1.000  C
  O245     1.0000 0.32923  0.56088  0.48649  Biso   1.000  O
  H1088    1.0000 0.28111  0.50661  0.41482  Biso   1.000  H
  H1089    1.0000 0.24111  0.50051  0.47898  Biso   1.000  H
  C1663    1.0000 0.35079  0.55351  0.60780  Biso   1.000  C
  H1090    1.0000 0.42358  0.49900  0.56158  Biso   1.000  H
  C1664    1.0000 0.47622  0.49612  0.65829  Biso   1.000  C
  H1091    1.0000 0.23992  0.39608  0.79441  Biso   1.000  H
  O246     1.0000 0.96860  0.52238  0.77160  Biso   1.000  O
  H1092    1.0000 0.88918  0.46752  0.72140  Biso   1.000  H
  H1093    1.0000 0.96972  0.47299  0.69178  Biso   1.000  H
  C1665    1.0000 0.11511  0.52931  0.79590  Biso   1.000  C
  H1094    1.0000 0.06523  0.45830  0.85032  Biso   1.000  H
  C1666    1.0000 0.18378  0.46171  0.89450  Biso   1.000  C
  C1667    1.0000 0.04020  0.61149  0.72801  Biso   1.000  C
  H1095    1.0000 0.41138  0.80182  0.02231  Biso   1.000  H
  C1668    1.0000 0.24560  0.65712  0.61550  Biso   1.000  C
  C1669    1.0000 0.31302  0.58328  0.55000  Biso   1.000  C
  H1096    1.0000 0.30802  0.28388  0.80430  Biso   1.000  H
  H1097    1.0000 0.35231  0.34488  0.78020  Biso   1.000  H
  C1670    1.0000 0.39300  0.26309  0.75560  Biso   1.000  C
  C1671    1.0000 0.33602  0.57552  0.66942  Biso   1.000  C
  H1098    1.0000 0.45897  0.48558  0.70048  Biso   1.000  H
  H1099    1.0000 0.49762  0.54009  0.66152  Biso   1.000  H
  C1672    1.0000 0.54377  0.44898  0.64691  Biso   1.000  C
  C1673    1.0000 0.04191  0.55429  0.76499  Biso   1.000  C
  C1674    1.0000 0.18661  0.56142  0.78979  Biso   1.000  C
  H1100    1.0000 0.23627  0.46279  0.87999  Biso   1.000  H
  H1101    1.0000 0.17893  0.50002  0.92168  Biso   1.000  H
  C1675    1.0000 0.17612  0.39842  0.93629  Biso   1.000  C
  C1676    1.0000 0.11171  0.64360  0.72200  Biso   1.000  C
  O247     1.0000 0.19432  0.71080  0.61510  Biso   1.000  O
  C1677    1.0000 0.28337  0.62730  0.67330  Biso   1.000  C
  H1102    1.0000 0.37188  0.22561  0.72950  Biso   1.000  H
  H1103    1.0000 0.42809  0.28710  0.73040  Biso   1.000  H
  C1678    1.0000 0.44448  0.23869  0.82641  Biso   1.000  C
  H1104    1.0000 0.36132  0.55551  0.70799  Biso   1.000  H
  H1105    1.0000 0.56008  0.45942  0.60442  Biso   1.000  H
  H1106    1.0000 0.52190  0.40510  0.64368  Biso   1.000  H
  C1679    1.0000 0.61878  0.44898  0.69939  Biso   1.000  C
  C1680    1.0000 0.18490  0.61861  0.75281  Biso   1.000  C
  H1107    1.0000 0.23553  0.54458  0.81051  Biso   1.000  H
  H1108    1.0000 0.22450  0.39412  0.96870  Biso   1.000  H
  H1109    1.0000 0.17382  0.36109  0.90682  Biso   1.000  H
  C1681    1.0000 0.10669  0.39569  0.97128  Biso   1.000  C
  O248     1.0000 0.10301  0.69938  0.68751  Biso   1.000  O
  C1682    1.0000 0.11431  0.70128  0.61868  Biso   1.000  C
  C1683    1.0000 0.25888  0.65229  0.73780  Biso   1.000  C
  C1684    1.0000 0.51227  0.27729  0.84470  Biso   1.000  C
  C1685    1.0000 0.43058  0.18491  0.86478  Biso   1.000  C
  C1686    1.0000 0.65961  0.50681  0.71758  Biso   1.000  C
  C1687    1.0000 0.64642  0.39061  0.72921  Biso   1.000  C
  C1688    1.0000 0.03342  0.36982  0.94161  Biso   1.000  C
  C1689    1.0000 0.11348  0.42311  0.03440  Biso   1.000  C
  H1110    1.0000 0.08270  0.73662  0.59612  Biso   1.000  H
  H1111    1.0000 0.09618  0.66068  0.59711  Biso   1.000  H
  H1112    1.0000 0.24553  0.69870  0.73129  Biso   1.000  H
  C1690    1.0000 0.33001  0.64741  0.79709  Biso   1.000  C
  H1113    1.0000 0.52159  0.31331  0.81911  Biso   1.000  H
  C1691    1.0000 0.56629  0.26212  0.90141  Biso   1.000  C
  C1692    1.0000 0.48458  0.16968  0.92139  Biso   1.000  C
  H1114    1.0000 0.38529  0.15900  0.85251  Biso   1.000  H
  H1115    1.0000 0.64123  0.54590  0.69760  Biso   1.000  H
  C1693    1.0000 0.72802  0.50622  0.76559  Biso   1.000  C
  C1694    1.0000 0.71471  0.38988  0.77721  Biso   1.000  C
  H1116    1.0000 0.61902  0.35191  0.71698  Biso   1.000  H
  C1695    1.0000 0.96700  0.37119  0.97511  Biso   1.000  C
  H1117    1.0000 0.02879  0.35152  0.89942  Biso   1.000  H
  H1118    1.0000 0.16247  0.44039  0.05418  Biso   1.000  H
  C1696    1.0000 0.04722  0.42448  0.06779  Biso   1.000  C
  H1119    1.0000 0.34972  0.60290  0.80122  Biso   1.000  H
  H1120    1.0000 0.31089  0.65922  0.83819  Biso   1.000  H
  C1697    1.0000 0.39732  0.69250  0.78541  Biso   1.000  C
  H1121    1.0000 0.61170  0.28798  0.91368  Biso   1.000  H
  C1698    1.0000 0.55252  0.20838  0.93982  Biso   1.000  C
  H1122    1.0000 0.47540  0.13381  0.94708  Biso   1.000  H
  H1123    1.0000 0.75528  0.54478  0.77771  Biso   1.000  H
  C1699    1.0000 0.75560  0.44771  0.79540  Biso   1.000  C
  H1124    1.0000 0.73319  0.35079  0.79709  Biso   1.000  H
  H1125    1.0000 0.91798  0.35391  0.95518  Biso   1.000  H
  C1700    1.0000 0.97389  0.39861  0.03812  Biso   1.000  C
  H1126    1.0000 0.05179  0.44278  0.10999  Biso   1.000  H
  H1127    1.0000 0.37698  0.73691  0.78402  Biso   1.000  H
  H1128    1.0000 0.41161  0.68279  0.74198  Biso   1.000  H
  C1701    1.0000 0.47261  0.68972  0.83551  Biso   1.000  C
  H1129    1.0000 0.58861  0.19818  0.97769  Biso   1.000  H
  H1130    1.0000 0.80130  0.44732  0.82751  Biso   1.000  H
  H1131    1.0000 0.92952  0.39959  0.06049  Biso   1.000  H
  C1702    1.0000 0.52628  0.63979  0.82711  Biso   1.000  C
  C1703    1.0000 0.49151  0.73462  0.88660  Biso   1.000  C
  H1132    1.0000 0.51358  0.60968  0.79292  Biso   1.000  H
  C1704    1.0000 0.59890  0.63482  0.86980  Biso   1.000  C
  C1705    1.0000 0.56421  0.72959  0.92939  Biso   1.000  C
  H1133    1.0000 0.45557  0.76800  0.89221  Biso   1.000  H
  H1134    1.0000 0.63489  0.60139  0.86418  Biso   1.000  H
  C1706    1.0000 0.61787  0.67981  0.92099  Biso   1.000  C
  H1135    1.0000 0.57679  0.75970  0.96358  Biso   1.000  H
  H1136    1.0000 0.66651  0.67639  0.94961  Biso   1.000  H
  C1707    1.0000 0.43579  0.27041  0.07062  Biso   1.000  C
  C1708    1.0000 0.38212  0.32019  0.07902  Biso   1.000  C
  C1709    1.0000 0.50849  0.26538  0.11341  Biso   1.000  C
  H1137    1.0000 0.42320  0.24030  0.03638  Biso   1.000  H
  C1710    1.0000 0.40110  0.36518  0.13021  Biso   1.000  C
  H1138    1.0000 0.33348  0.32361  0.05039  Biso   1.000  H
  C1711    1.0000 0.52738  0.31028  0.16450  Biso   1.000  C
  H1139    1.0000 0.54442  0.23200  0.10779  Biso   1.000  H
  C1712    1.0000 0.47372  0.36021  0.17290  Biso   1.000  C
  H1140    1.0000 0.36510  0.39861  0.13582  Biso   1.000  H
  C1713    1.0000 0.60267  0.30750  0.21459  Biso   1.000  C
  H1141    1.0000 0.48642  0.39032  0.20709  Biso   1.000  H
  C1714    1.0000 0.66998  0.35259  0.20291  Biso   1.000  C
  H1142    1.0000 0.62302  0.26309  0.21598  Biso   1.000  H
  H1143    1.0000 0.58838  0.31721  0.25798  Biso   1.000  H
  C1715    1.0000 0.74111  0.34771  0.26220  Biso   1.000  C
  H1144    1.0000 0.65027  0.39710  0.19879  Biso   1.000  H
  H1145    1.0000 0.68911  0.34078  0.16181  Biso   1.000  H
  C1716    1.0000 0.81509  0.38139  0.24719  Biso   1.000  C
  H1146    1.0000 0.75453  0.30130  0.26871  Biso   1.000  H
  C1717    1.0000 0.71662  0.37270  0.32671  Biso   1.000  C
  C1718    1.0000 0.81339  0.43858  0.21022  Biso   1.000  C
  C1719    1.0000 0.88828  0.35640  0.27801  Biso   1.000  C
  C1720    1.0000 0.75439  0.34288  0.38451  Biso   1.000  C
  C1721    1.0000 0.66398  0.42448  0.33059  Biso   1.000  C
  C1722    1.0000 0.88488  0.47069  0.20411  Biso   1.000  C
  H1147    1.0000 0.76452  0.45542  0.18950  Biso   1.000  H
  C1723    1.0000 0.95979  0.38851  0.27199  Biso   1.000  C
  O249     1.0000 0.89698  0.30062  0.31250  Biso   1.000  O
  O250     1.0000 0.80567  0.28920  0.38490  Biso   1.000  O
  C1724    1.0000 0.73962  0.36489  0.44608  Biso   1.000  C
  H1148    1.0000 0.63873  0.44449  0.29202  Biso   1.000  H
  C1725    1.0000 0.64921  0.44649  0.39221  Biso   1.000  C
  C1726    1.0000 0.88337  0.53789  0.16658  Biso   1.000  C
  C1727    1.0000 0.95809  0.44571  0.23502  Biso   1.000  C
  O251     1.0000 0.03562  0.37358  0.30812  Biso   1.000  O
  C1728    1.0000 0.88567  0.29872  0.38128  Biso   1.000  C
  C1729    1.0000 0.68698  0.41672  0.45001  Biso   1.000  C
  O252     1.0000 0.78560  0.34308  0.50641  Biso   1.000  O
  C1730    1.0000 0.59808  0.50569  0.39658  Biso   1.000  C
  C1731    1.0000 0.88099  0.59202  0.21608  Biso   1.000  C
  H1149    1.0000 0.93477  0.54170  0.14969  Biso   1.000  H
  C1732    1.0000 0.81621  0.53829  0.10551  Biso   1.000  C
  O253     1.0000 0.03140  0.47762  0.22841  Biso   1.000  O
  C1733    1.0000 0.08910  0.34518  0.26941  Biso   1.000  C
  C1734    1.0000 0.09598  0.33141  0.29232  Biso   1.000  C
  H1150    1.0000 0.91729  0.26338  0.40389  Biso   1.000  H
  H1151    1.0000 0.90382  0.33932  0.40290  Biso   1.000  H
  O254     1.0000 0.67083  0.43912  0.51352  Biso   1.000  O
  C1735    1.0000 0.74788  0.34752  0.56381  Biso   1.000  C
  C1736    1.0000 0.74892  0.28378  0.51968  Biso   1.000  C
  C1737    1.0000 0.64282  0.56830  0.40290  Biso   1.000  C
  H1152    1.0000 0.57641  0.50100  0.43838  Biso   1.000  H
  C1738    1.0000 0.52383  0.50388  0.34172  Biso   1.000  C
  C1739    1.0000 0.80868  0.61842  0.22910  Biso   1.000  C
  C1740    1.0000 0.95370  0.61378  0.25112  Biso   1.000  C
  H1153    1.0000 0.76372  0.53721  0.12002  Biso   1.000  H
  H1154    1.0000 0.82113  0.49998  0.07832  Biso   1.000  H
  C1741    1.0000 0.82388  0.60158  0.06371  Biso   1.000  C
  C1742    1.0000 0.05250  0.53189  0.26712  Biso   1.000  C
  C1743    1.0000 0.16712  0.32800  0.31260  Biso   1.000  C
  C1744    1.0000 0.17710  0.34781  0.33128  Biso   1.000  C
  C1745    1.0000 0.70747  0.49641  0.53718  Biso   1.000  C
  C1746    1.0000 0.80298  0.32492  0.62509  Biso   1.000  C
  C1747    1.0000 0.78012  0.26182  0.58911  Biso   1.000  C
  C1748    1.0000 0.67967  0.58611  0.46611  Biso   1.000  C
  C1749    1.0000 0.65788  0.60358  0.34778  Biso   1.000  C
  H1155    1.0000 0.54101  0.51442  0.29948  Biso   1.000  H
  H1156    1.0000 0.50237  0.45991  0.33849  Biso   1.000  H
  C1750    1.0000 0.45622  0.55102  0.35310  Biso   1.000  C
  C1751    1.0000 0.80901  0.66668  0.27711  Biso   1.000  C
  H1157    1.0000 0.76008  0.60392  0.20560  Biso   1.000  H
  C1752    1.0000 0.95398  0.66210  0.29918  Biso   1.000  C
  O255     1.0000 0.02822  0.59172  0.23969  Biso   1.000  O
  H1158    1.0000 0.77550  0.60588  0.03131  Biso   1.000  H
  H1159    1.0000 0.82617  0.63891  0.09318  Biso   1.000  H
  C1753    1.0000 0.89329  0.60431  0.02868  Biso   1.000  C
  H1160    1.0000 0.11082  0.53248  0.27860  Biso   1.000  H
  H1161    1.0000 0.03027  0.52701  0.30822  Biso   1.000  H
  C1754    1.0000 0.15271  0.28652  0.37029  Biso   1.000  C
  C1755    1.0000 0.22127  0.28900  0.36219  Biso   1.000  C
  H1162    1.0000 0.71889  0.49339  0.58518  Biso   1.000  H
  H1163    1.0000 0.75888  0.49949  0.52098  Biso   1.000  H
  O256     1.0000 0.66642  0.55278  0.52132  Biso   1.000  O
  C1756    1.0000 0.83057  0.25660  0.61560  Biso   1.000  C
  C1757    1.0000 0.87018  0.25719  0.59880  Biso   1.000  C
  C1758    1.0000 0.73159  0.63940  0.47421  Biso   1.000  C
  C1759    1.0000 0.70980  0.65692  0.35588  Biso   1.000  C
  H1164    1.0000 0.63321  0.59172  0.30549  Biso   1.000  H
  H1165    1.0000 0.43992  0.54058  0.39559  Biso   1.000  H
  H1166    1.0000 0.47809  0.59490  0.35628  Biso   1.000  H
  C1760    1.0000 0.38121  0.55102  0.30062  Biso   1.000  C
  C1761    1.0000 0.88172  0.68850  0.31220  Biso   1.000  C
  C1762    1.0000 0.73298  0.69328  0.29431  Biso   1.000  C
  O257     1.0000 0.02581  0.67581  0.34241  Biso   1.000  O
  C1763    1.0000 0.96658  0.63018  0.05839  Biso   1.000  C
  C1764    1.0000 0.88651  0.57689  0.96561  Biso   1.000  C
  C1765    1.0000 0.21872  0.29130  0.42869  Biso   1.000  C
  C1766    1.0000 0.23299  0.28842  0.43659  Biso   1.000  C
  C1767    1.0000 0.88719  0.23361  0.67538  Biso   1.000  C
  C1768    1.0000 0.91020  0.28178  0.66559  Biso   1.000  C
  C1769    1.0000 0.74672  0.67469  0.41910  Biso   1.000  C
  O258     1.0000 0.77828  0.64960  0.53608  Biso   1.000  O
  C1770    1.0000 0.34037  0.49319  0.28238  Biso   1.000  C
  C1771    1.0000 0.35358  0.60939  0.27080  Biso   1.000  C
  O259     1.0000 0.88581  0.73881  0.35439  Biso   1.000  O
  H1167    1.0000 0.74508  0.73832  0.30892  Biso   1.000  H
  C1772    1.0000 0.66817  0.69831  0.23238  Biso   1.000  C
  C1773    1.0000 0.02880  0.74242  0.32721  Biso   1.000  C
  C1774    1.0000 0.08980  0.71822  0.33441  Biso   1.000  C
  H1168    1.0000 0.97120  0.64848  0.10059  Biso   1.000  H
  C1775    1.0000 0.03300  0.62881  0.02490  Biso   1.000  C
  H1169    1.0000 0.83751  0.55961  0.94578  Biso   1.000  H
  C1776    1.0000 0.95283  0.57552  0.93221  Biso   1.000  C
  O260     1.0000 0.22172  0.35040  0.46392  Biso   1.000  O
  C1777    1.0000 0.97119  0.25758  0.67280  Biso   1.000  C
  O261     1.0000 0.97419  0.32419  0.65759  Biso   1.000  O
  O262     1.0000 0.79190  0.72891  0.42849  Biso   1.000  O
  C1778    1.0000 0.78133  0.70870  0.57132  Biso   1.000  C
  C1779    1.0000 0.76701  0.71158  0.56342  Biso   1.000  C
  H1170    1.0000 0.35883  0.45410  0.30241  Biso   1.000  H
  C1780    1.0000 0.27198  0.49378  0.23442  Biso   1.000  C
  C1781    1.0000 0.28529  0.61012  0.22279  Biso   1.000  C
  H1171    1.0000 0.38102  0.64809  0.28298  Biso   1.000  H
  C1782    1.0000 0.87200  0.72710  0.42218  Biso   1.000  C
  H1172    1.0000 0.69198  0.71612  0.19571  Biso   1.000  H
  H1173    1.0000 0.64768  0.65512  0.21981  Biso   1.000  H
  C1783    1.0000 0.60700  0.73691  0.24441  Biso   1.000  C
  C1784    1.0000 0.11281  0.76639  0.32462  Biso   1.000  C
  C1785    1.0000 0.16942  0.74340  0.38441  Biso   1.000  C
  C1786    1.0000 0.12981  0.74281  0.40121  Biso   1.000  C
  C1787    1.0000 0.02611  0.60139  0.96188  Biso   1.000  C
  H1174    1.0000 0.08200  0.64609  0.04478  Biso   1.000  H
  H1175    1.0000 0.94820  0.55722  0.89002  Biso   1.000  H
  C1788    1.0000 0.26840  0.36060  0.52580  Biso   1.000  C
  C1789    1.0000 0.04601  0.33790  0.70078  Biso   1.000  C
  C1790    1.0000 0.84729  0.71348  0.62971  Biso   1.000  C
  C1791    1.0000 0.77872  0.71100  0.63781  Biso   1.000  C
  H1176    1.0000 0.24472  0.45522  0.22230  Biso   1.000  H
  C1792    1.0000 0.24440  0.55229  0.20460  Biso   1.000  C
  H1177    1.0000 0.26680  0.64921  0.20291  Biso   1.000  H
  H1178    1.0000 0.89389  0.68479  0.43659  Biso   1.000  H
  H1179    1.0000 0.90059  0.75989  0.45100  Biso   1.000  H
  H1180    1.0000 0.62811  0.77439  0.27050  Biso   1.000  H
  H1181    1.0000 0.57191  0.71290  0.26961  Biso   1.000  H
  C1793    1.0000 0.55552  0.76131  0.17359  Biso   1.000  C
  C1794    1.0000 0.19701  0.67508  0.37492  Biso   1.000  C
  C1795    1.0000 0.21988  0.73818  0.41090  Biso   1.000  C
  H1182    1.0000 0.07048  0.60041  0.93952  Biso   1.000  H
  C1796    1.0000 0.25328  0.32531  0.58091  Biso   1.000  C
  C1797    1.0000 0.32032  0.41389  0.53390  Biso   1.000  C
  C1798    1.0000 0.11833  0.31150  0.68781  Biso   1.000  C
  C1799    1.0000 0.04629  0.38622  0.74889  Biso   1.000  C
  C1800    1.0000 0.83288  0.67200  0.68741  Biso   1.000  C
  C1801    1.0000 0.82289  0.65219  0.66868  Biso   1.000  C
  H1183    1.0000 0.19869  0.55268  0.17250  Biso   1.000  H
  C1802    1.0000 0.48772  0.72271  0.15530  Biso   1.000  C
  C1803    1.0000 0.56941  0.81509  0.13518  Biso   1.000  C
  C1804    1.0000 0.25211  0.65248  0.43619  Biso   1.000  C
  C1805    1.0000 0.25113  0.71622  0.48032  Biso   1.000  C
  O263     1.0000 0.20810  0.27109  0.57152  Biso   1.000  O
  C1806    1.0000 0.29018  0.34308  0.64408  Biso   1.000  C
  O264     1.0000 0.33358  0.44722  0.47868  Biso   1.000  O
  C1807    1.0000 0.35718  0.43170  0.59711  Biso   1.000  C
  C1808    1.0000 0.19099  0.33332  0.72290  Biso   1.000  C
  O265     1.0000 0.11418  0.26119  0.64562  Biso   1.000  O
  O266     1.0000 0.97178  0.40828  0.76032  Biso   1.000  O
  C1809    1.0000 0.11900  0.40798  0.78392  Biso   1.000  C
  C1810    1.0000 0.91089  0.65482  0.73060  Biso   1.000  C
  C1811    1.0000 0.90401  0.66859  0.70769  Biso   1.000  C
  H1184    1.0000 0.47840  0.68669  0.18090  Biso   1.000  H
  C1812    1.0000 0.43370  0.73788  0.09860  Biso   1.000  C
  C1813    1.0000 0.51541  0.83032  0.07862  Biso   1.000  C
  H1185    1.0000 0.61471  0.84100  0.14750  Biso   1.000  H
  O267     1.0000 0.21439  0.65692  0.49359  Biso   1.000  O
  C1814    1.0000 0.12799  0.27290  0.57778  Biso   1.000  C
  C1815    1.0000 0.34210  0.39642  0.65218  Biso   1.000  C
  C1816    1.0000 0.26701  0.30672  0.70570  Biso   1.000  C
  C1817    1.0000 0.29251  0.50359  0.46278  Biso   1.000  C
  C1818    1.0000 0.40191  0.49431  0.60342  Biso   1.000  C
  C1819    1.0000 0.19132  0.38158  0.77090  Biso   1.000  C
  C1820    1.0000 0.94750  0.46811  0.73288  Biso   1.000  C
  C1821    1.0000 0.11662  0.46211  0.83342  Biso   1.000  C
  O268     1.0000 0.96437  0.62642  0.69188  Biso   1.000  O
  H1186    1.0000 0.38829  0.71202  0.08632  Biso   1.000  H
  C1822    1.0000 0.44747  0.79162  0.06018  Biso   1.000  C
  H1187    1.0000 0.52459  0.86619  0.05288  Biso   1.000  H
  C1823    1.0000 0.26038  0.63511  0.55392  Biso   1.000  C
  H1188    1.0000 0.10610  0.31521  0.56342  Biso   1.000  H
  H1189    1.0000 0.09941  0.24011  0.54900  Biso   1.000  H
  H1190    1.0000 0.36679  0.40828  0.69452  Biso   1.000  H
  H1191    1.0000 0.25492  0.26168  0.69109  Biso   1.000  H
  C1824    1.0000 0.33183  0.30169  0.76762  Biso   1.000  C
  O269     1.0000 0.32923  0.56088  0.48649  Biso   1.000  O
  H1192    1.0000 0.28111  0.50661  0.41482  Biso   1.000  H
  H1193    1.0000 0.24111  0.50051  0.47898  Biso   1.000  H
  C1825    1.0000 0.35079  0.55351  0.60780  Biso   1.000  C
  H1194    1.0000 0.42358  0.49900  0.56158  Biso   1.000  H
  C1826    1.0000 0.47622  0.49612  0.65829  Biso   1.000  C
  H1195    1.0000 0.23992  0.39608  0.79441  Biso   1.000  H
  O270     1.0000 0.96860  0.52238  0.77160  Biso   1.000  O
  H1196    1.0000 0.88918  0.46752  0.72140  Biso   1.000  H
  H1197    1.0000 0.96972  0.47299  0.69178  Biso   1.000  H
  C1827    1.0000 0.11511  0.52931  0.79590  Biso   1.000  C
  H1198    1.0000 0.06523  0.45830  0.85032  Biso   1.000  H
  C1828    1.0000 0.18378  0.46171  0.89450  Biso   1.000  C
  C1829    1.0000 0.04020  0.61149  0.72801  Biso   1.000  C
  H1199    1.0000 0.41138  0.80182  0.02231  Biso   1.000  H
  C1830    1.0000 0.24560  0.65712  0.61550  Biso   1.000  C
  C1831    1.0000 0.31302  0.58328  0.55000  Biso   1.000  C
  H1200    1.0000 0.30802  0.28388  0.80430  Biso   1.000  H
  H1201    1.0000 0.35231  0.34488  0.78020  Biso   1.000  H
  C1832    1.0000 0.39300  0.26309  0.75560  Biso   1.000  C
  C1833    1.0000 0.33602  0.57552  0.66942  Biso   1.000  C
  H1202    1.0000 0.45897  0.48558  0.70048  Biso   1.000  H
  H1203    1.0000 0.49762  0.54009  0.66152  Biso   1.000  H
  C1834    1.0000 0.54377  0.44898  0.64691  Biso   1.000  C
  C1835    1.0000 0.04191  0.55429  0.76499  Biso   1.000  C
  C1836    1.0000 0.18661  0.56142  0.78979  Biso   1.000  C
  H1204    1.0000 0.23627  0.46279  0.87999  Biso   1.000  H
  H1205    1.0000 0.17893  0.50002  0.92168  Biso   1.000  H
  C1837    1.0000 0.17612  0.39842  0.93629  Biso   1.000  C
  C1838    1.0000 0.11171  0.64360  0.72200  Biso   1.000  C
  O271     1.0000 0.19432  0.71080  0.61510  Biso   1.000  O
  C1839    1.0000 0.28337  0.62730  0.67330  Biso   1.000  C
  H1206    1.0000 0.37188  0.22561  0.72950  Biso   1.000  H
  H1207    1.0000 0.42809  0.28710  0.73040  Biso   1.000  H
  C1840    1.0000 0.44448  0.23869  0.82641  Biso   1.000  C
  H1208    1.0000 0.36132  0.55551  0.70799  Biso   1.000  H
  H1209    1.0000 0.56008  0.45942  0.60442  Biso   1.000  H
  H1210    1.0000 0.52190  0.40510  0.64368  Biso   1.000  H
  C1841    1.0000 0.61878  0.44898  0.69939  Biso   1.000  C
  C1842    1.0000 0.18490  0.61861  0.75281  Biso   1.000  C
  H1211    1.0000 0.23553  0.54458  0.81051  Biso   1.000  H
  H1212    1.0000 0.22450  0.39412  0.96870  Biso   1.000  H
  H1213    1.0000 0.17382  0.36109  0.90682  Biso   1.000  H
  C1843    1.0000 0.10669  0.39569  0.97128  Biso   1.000  C
  O272     1.0000 0.10301  0.69938  0.68751  Biso   1.000  O
  C1844    1.0000 0.11431  0.70128  0.61868  Biso   1.000  C
  C1845    1.0000 0.25888  0.65229  0.73780  Biso   1.000  C
  C1846    1.0000 0.51227  0.27729  0.84470  Biso   1.000  C
  C1847    1.0000 0.43058  0.18491  0.86478  Biso   1.000  C
  C1848    1.0000 0.65961  0.50681  0.71758  Biso   1.000  C
  C1849    1.0000 0.64642  0.39061  0.72921  Biso   1.000  C
  C1850    1.0000 0.03342  0.36982  0.94161  Biso   1.000  C
  C1851    1.0000 0.11348  0.42311  0.03440  Biso   1.000  C
  H1214    1.0000 0.08270  0.73662  0.59612  Biso   1.000  H
  H1215    1.0000 0.09618  0.66068  0.59711  Biso   1.000  H
  H1216    1.0000 0.24553  0.69870  0.73129  Biso   1.000  H
  C1852    1.0000 0.33001  0.64741  0.79709  Biso   1.000  C
  H1217    1.0000 0.52159  0.31331  0.81911  Biso   1.000  H
  C1853    1.0000 0.56629  0.26212  0.90141  Biso   1.000  C
  C1854    1.0000 0.48458  0.16968  0.92139  Biso   1.000  C
  H1218    1.0000 0.38529  0.15900  0.85251  Biso   1.000  H
  H1219    1.0000 0.64123  0.54590  0.69760  Biso   1.000  H
  C1855    1.0000 0.72802  0.50622  0.76559  Biso   1.000  C
  C1856    1.0000 0.71471  0.38988  0.77721  Biso   1.000  C
  H1220    1.0000 0.61902  0.35191  0.71698  Biso   1.000  H
  C1857    1.0000 0.96700  0.37119  0.97511  Biso   1.000  C
  H1221    1.0000 0.02879  0.35152  0.89942  Biso   1.000  H
  H1222    1.0000 0.16247  0.44039  0.05418  Biso   1.000  H
  C1858    1.0000 0.04722  0.42448  0.06779  Biso   1.000  C
  H1223    1.0000 0.34972  0.60290  0.80122  Biso   1.000  H
  H1224    1.0000 0.31089  0.65922  0.83819  Biso   1.000  H
  C1859    1.0000 0.39732  0.69250  0.78541  Biso   1.000  C
  H1225    1.0000 0.61170  0.28798  0.91368  Biso   1.000  H
  C1860    1.0000 0.55252  0.20838  0.93982  Biso   1.000  C
  H1226    1.0000 0.47540  0.13381  0.94708  Biso   1.000  H
  H1227    1.0000 0.75528  0.54478  0.77771  Biso   1.000  H
  C1861    1.0000 0.75560  0.44771  0.79540  Biso   1.000  C
  H1228    1.0000 0.73319  0.35079  0.79709  Biso   1.000  H
  H1229    1.0000 0.91798  0.35391  0.95518  Biso   1.000  H
  C1862    1.0000 0.97389  0.39861  0.03812  Biso   1.000  C
  H1230    1.0000 0.05179  0.44278  0.10999  Biso   1.000  H
  H1231    1.0000 0.37698  0.73691  0.78402  Biso   1.000  H
  H1232    1.0000 0.41161  0.68279  0.74198  Biso   1.000  H
  C1863    1.0000 0.47261  0.68972  0.83551  Biso   1.000  C
  H1233    1.0000 0.58861  0.19818  0.97769  Biso   1.000  H
  H1234    1.0000 0.80130  0.44732  0.82751  Biso   1.000  H
  H1235    1.0000 0.92952  0.39959  0.06049  Biso   1.000  H
  C1864    1.0000 0.52628  0.63979  0.82711  Biso   1.000  C
  C1865    1.0000 0.49151  0.73462  0.88660  Biso   1.000  C
  H1236    1.0000 0.51358  0.60968  0.79292  Biso   1.000  H
  C1866    1.0000 0.59890  0.63482  0.86980  Biso   1.000  C
  C1867    1.0000 0.56421  0.72959  0.92939  Biso   1.000  C
  H1237    1.0000 0.45557  0.76800  0.89221  Biso   1.000  H
  H1238    1.0000 0.63489  0.60139  0.86418  Biso   1.000  H
  C1868    1.0000 0.61787  0.67981  0.92099  Biso   1.000  C
  H1239    1.0000 0.57679  0.75970  0.96358  Biso   1.000  H
  H1240    1.0000 0.66651  0.67639  0.94961  Biso   1.000  H
