data_image0
_cell_length_a       42.116
_cell_length_b       9.99
_cell_length_c       19.551
_cell_angle_alpha    90
_cell_angle_beta     99.19
_cell_angle_gamma    90

_symmetry_space_group_name_H-M    "P 1"
_symmetry_int_tables_number       1

loop_
  _symmetry_equiv_pos_as_xyz
  'x, y, z'

loop_
  _atom_site_label
  _atom_site_occupancy
  _atom_site_fract_x
  _atom_site_fract_y
  _atom_site_fract_z
  _atom_site_thermal_displace_type
  _atom_site_B_iso_or_equiv
  _atom_site_type_symbol
  C1       1.0000 0.54854  0.45946  0.40492  Biso   1.000  C
  C2       1.0000 0.54327  0.49389  0.33549  Biso   1.000  C
  C3       1.0000 0.57970  0.43994  0.43922  Biso   1.000  C
  H1       1.0000 0.53089  0.44925  0.42912  Biso   1.000  H
  C4       1.0000 0.56885  0.51211  0.29938  Biso   1.000  C
  H2       1.0000 0.52189  0.50531  0.31218  Biso   1.000  H
  C5       1.0000 0.60603  0.45445  0.40492  Biso   1.000  C
  H3       1.0000 0.58308  0.41612  0.48679  Biso   1.000  H
  C6       1.0000 0.56344  0.55235  0.22440  Biso   1.000  C
  C7       1.0000 0.60011  0.49079  0.33508  Biso   1.000  C
  C8       1.0000 0.63938  0.42693  0.44300  Biso   1.000  C
  C9       1.0000 0.58141  0.67508  0.20451  Biso   1.000  C
  H4       1.0000 0.54010  0.56837  0.21010  Biso   1.000  H
  H5       1.0000 0.56941  0.47548  0.19699  Biso   1.000  H
  O1       1.0000 0.62586  0.51602  0.30098  Biso   1.000  O
  C10      1.0000 0.66546  0.52983  0.43798  Biso   1.000  C
  H6       1.0000 0.64660  0.34054  0.42601  Biso   1.000  H
  H7       1.0000 0.63788  0.41502  0.49259  Biso   1.000  H
  C11      1.0000 0.58267  0.79720  0.23943  Biso   1.000  C
  C12      1.0000 0.59708  0.66507  0.14689  Biso   1.000  C
  C13      1.0000 0.63865  0.40240  0.26948  Biso   1.000  C
  C14      1.0000 0.66083  0.66517  0.45140  Biso   1.000  C
  C15      1.0000 0.69499  0.48999  0.42181  Biso   1.000  C
  O2       1.0000 0.57167  0.80030  0.30155  Biso   1.000  O
  C16      1.0000 0.59889  0.90701  0.21865  Biso   1.000  C
  H8       1.0000 0.59681  0.58248  0.12269  Biso   1.000  H
  C17      1.0000 0.61286  0.77267  0.12471  Biso   1.000  C
  H9       1.0000 0.62220  0.36286  0.23332  Biso   1.000  H
  H10      1.0000 0.64600  0.33293  0.30461  Biso   1.000  H
  C18      1.0000 0.66658  0.45485  0.23788  Biso   1.000  C
  O3       1.0000 0.63116  0.70781  0.46534  Biso   1.000  O
  C19      1.0000 0.68493  0.76006  0.44922  Biso   1.000  C
  C20      1.0000 0.71913  0.58198  0.41881  Biso   1.000  C
  H11      1.0000 0.69859  0.39830  0.41269  Biso   1.000  H
  C21      1.0000 0.54170  0.82683  0.29218  Biso   1.000  C
  C22      1.0000 0.61372  0.89379  0.16021  Biso   1.000  C
  C23      1.0000 0.59936  0.03994  0.25580  Biso   1.000  C
  H12      1.0000 0.62321  0.76466  0.08518  Biso   1.000  H
  S1       1.0000 0.68659  0.31542  0.20451  Biso   1.000  S
  H13      1.0000 0.68180  0.50300  0.27342  Biso   1.000  H
  H14      1.0000 0.65879  0.51832  0.20000  Biso   1.000  H
  C24      1.0000 0.62710  0.70100  0.53642  Biso   1.000  C
  C25      1.0000 0.68124  0.90631  0.46663  Biso   1.000  C
  C26      1.0000 0.71413  0.71512  0.43218  Biso   1.000  C
  H15      1.0000 0.73919  0.55355  0.40762  Biso   1.000  H
  C27      1.0000 0.53186  0.84144  0.36958  Biso   1.000  C
  H16      1.0000 0.52930  0.75375  0.26611  Biso   1.000  H
  H17      1.0000 0.53730  0.91121  0.26580  Biso   1.000  H
  H18      1.0000 0.62461  0.96827  0.14440  Biso   1.000  H
  C28      1.0000 0.61235  0.04154  0.33269  Biso   1.000  C
  H19      1.0000 0.57710  0.07487  0.24927  Biso   1.000  H
  H20      1.0000 0.61230  0.10320  0.23269  Biso   1.000  H
  C29      1.0000 0.72010  0.40110  0.17642  Biso   1.000  C
  C30      1.0000 0.59308  0.74655  0.53901  Biso   1.000  C
  H21      1.0000 0.64278  0.76026  0.56508  Biso   1.000  H
  H22      1.0000 0.63040  0.60831  0.55399  Biso   1.000  H
  C31      1.0000 0.65058  0.97608  0.43425  Biso   1.000  C
  H23      1.0000 0.69960  0.95576  0.45290  Biso   1.000  H
  H24      1.0000 0.68300  0.91401  0.51762  Biso   1.000  H
  H25      1.0000 0.73089  0.77768  0.42990  Biso   1.000  H
  O4       1.0000 0.49908  0.81792  0.36202  Biso   1.000  O
  H26      1.0000 0.54379  0.77538  0.40171  Biso   1.000  H
  H27      1.0000 0.53700  0.93243  0.38819  Biso   1.000  H
  C32      1.0000 0.64057  0.97728  0.36295  Biso   1.000  C
  C33      1.0000 0.59451  0.10811  0.37668  Biso   1.000  C
  H28      1.0000 0.72979  0.46256  0.21357  Biso   1.000  H
  H29      1.0000 0.73661  0.33423  0.16938  Biso   1.000  H
  C34      1.0000 0.71094  0.48038  0.11021  Biso   1.000  C
  O5       1.0000 0.58601  0.71161  0.60513  Biso   1.000  O
  H30      1.0000 0.59118  0.84454  0.53202  Biso   1.000  H
  H31      1.0000 0.57788  0.70170  0.50217  Biso   1.000  H
  C35      1.0000 0.63179  0.04194  0.47611  Biso   1.000  C
  C36      1.0000 0.48364  0.86156  0.41601  Biso   1.000  C
  O6       1.0000 0.65823  0.90300  0.32249  Biso   1.000  O
  H32      1.0000 0.57540  0.15385  0.35730  Biso   1.000  H
  C37      1.0000 0.60393  0.10891  0.44741  Biso   1.000  C
  S2       1.0000 0.74345  0.58589  0.09005  Biso   1.000  S
  H33      1.0000 0.69211  0.53744  0.11461  Biso   1.000  H
  H34      1.0000 0.70451  0.41752  0.07140  Biso   1.000  H
  C38      1.0000 0.55774  0.77087  0.62181  Biso   1.000  C
  H35      1.0000 0.63810  0.04104  0.52497  Biso   1.000  H
  C39      1.0000 0.48918  0.77407  0.47891  Biso   1.000  C
  H36      1.0000 0.46020  0.86647  0.39901  Biso   1.000  H
  H37      1.0000 0.49118  0.95315  0.42938  Biso   1.000  H
  C40      1.0000 0.67691  0.98028  0.28145  Biso   1.000  C
  H38      1.0000 0.59149  0.15495  0.47632  Biso   1.000  H
  C41      1.0000 0.74011  0.72653  0.14710  Biso   1.000  C
  C42      1.0000 0.52679  0.72563  0.57948  Biso   1.000  C
  H39      1.0000 0.55949  0.86907  0.61668  Biso   1.000  H
  H40      1.0000 0.55679  0.75235  0.67119  Biso   1.000  H
  O7       1.0000 0.52041  0.79920  0.51710  Biso   1.000  O
  H41      1.0000 0.47268  0.79269  0.50839  Biso   1.000  H
  H42      1.0000 0.48740  0.67888  0.46482  Biso   1.000  H
  C43      1.0000 0.69187  0.87918  0.23855  Biso   1.000  C
  H43      1.0000 0.69379  0.03183  0.31150  Biso   1.000  H
  H44      1.0000 0.66299  0.04354  0.25119  Biso   1.000  H
  C44      1.0000 0.71413  0.82352  0.11601  Biso   1.000  C
  H45      1.0000 0.73521  0.69289  0.19181  Biso   1.000  H
  H46      1.0000 0.76100  0.77397  0.15632  Biso   1.000  H
  H47      1.0000 0.52819  0.62913  0.56881  Biso   1.000  H
  H48      1.0000 0.50898  0.73834  0.60632  Biso   1.000  H
  S3       1.0000 0.70888  0.96486  0.17109  Biso   1.000  S
  H49      1.0000 0.67530  0.81471  0.21741  Biso   1.000  H
  H50      1.0000 0.70899  0.82893  0.26860  Biso   1.000  H
  H51      1.0000 0.69351  0.77457  0.10560  Biso   1.000  H
  H52      1.0000 0.71950  0.85736  0.07161  Biso   1.000  H
  C45      1.0000 0.51078  0.22593  0.52109  Biso   1.000  C
  O8       1.0000 0.47955  0.20080  0.48290  Biso   1.000  O
  C46      1.0000 0.51635  0.13844  0.58399  Biso   1.000  C
  H53      1.0000 0.52728  0.20731  0.49161  Biso   1.000  H
  H54      1.0000 0.51259  0.32112  0.53518  Biso   1.000  H
  C47      1.0000 0.47319  0.27437  0.42052  Biso   1.000  C
  O9       1.0000 0.50090  0.18208  0.63798  Biso   1.000  O
  H55      1.0000 0.53978  0.13353  0.60098  Biso   1.000  H
  H56      1.0000 0.50880  0.04685  0.57062  Biso   1.000  H
  C48      1.0000 0.44225  0.22913  0.37819  Biso   1.000  C
  H57      1.0000 0.47180  0.37087  0.43119  Biso   1.000  H
  H58      1.0000 0.49098  0.26166  0.39368  Biso   1.000  H
  C49      1.0000 0.46812  0.15856  0.63041  Biso   1.000  C
  O10      1.0000 0.41397  0.28839  0.39487  Biso   1.000  O
  H59      1.0000 0.44050  0.13093  0.38332  Biso   1.000  H
  H60      1.0000 0.44320  0.24765  0.32881  Biso   1.000  H
  C50      1.0000 0.45828  0.17317  0.70777  Biso   1.000  C
  H61      1.0000 0.45620  0.22462  0.59829  Biso   1.000  H
  H62      1.0000 0.46299  0.06757  0.61181  Biso   1.000  H
  C51      1.0000 0.40691  0.25345  0.46098  Biso   1.000  C
  O11      1.0000 0.42831  0.19970  0.69844  Biso   1.000  O
  H63      1.0000 0.47069  0.24625  0.73388  Biso   1.000  H
  H64      1.0000 0.46269  0.08879  0.73420  Biso   1.000  H
  C52      1.0000 0.37286  0.29900  0.46357  Biso   1.000  C
  H65      1.0000 0.40878  0.15546  0.46798  Biso   1.000  H
  H66      1.0000 0.42208  0.29830  0.49782  Biso   1.000  H
  C53      1.0000 0.41732  0.20280  0.76057  Biso   1.000  C
  O12      1.0000 0.36883  0.29219  0.53466  Biso   1.000  O
  H67      1.0000 0.35720  0.23974  0.43492  Biso   1.000  H
  H68      1.0000 0.36959  0.39169  0.44601  Biso   1.000  H
  C54      1.0000 0.40110  0.09299  0.78135  Biso   1.000  C
  C55      1.0000 0.41858  0.32492  0.79549  Biso   1.000  C
  C56      1.0000 0.33916  0.33483  0.54860  Biso   1.000  C
  C57      1.0000 0.40063  0.96006  0.74420  Biso   1.000  C
  C58      1.0000 0.38625  0.10621  0.83979  Biso   1.000  C
  C59      1.0000 0.43653  0.44765  0.77559  Biso   1.000  C
  C60      1.0000 0.40291  0.33493  0.85311  Biso   1.000  C
  C61      1.0000 0.31503  0.23994  0.55078  Biso   1.000  C
  C62      1.0000 0.33450  0.47017  0.56202  Biso   1.000  C
  C63      1.0000 0.38764  0.95846  0.66730  Biso   1.000  C
  H69      1.0000 0.42288  0.92513  0.75067  Biso   1.000  H
  H70      1.0000 0.38769  0.89680  0.76730  Biso   1.000  H
  C64      1.0000 0.38712  0.22733  0.87528  Biso   1.000  C
  H71      1.0000 0.37538  0.03173  0.85559  Biso   1.000  H
  C65      1.0000 0.43113  0.48789  0.70062  Biso   1.000  C
  H72      1.0000 0.45988  0.43163  0.78989  Biso   1.000  H
  H73      1.0000 0.43058  0.52452  0.80300  Biso   1.000  H
  H74      1.0000 0.40318  0.41752  0.87730  Biso   1.000  H
  C66      1.0000 0.31875  0.09369  0.53337  Biso   1.000  C
  C67      1.0000 0.28585  0.28488  0.56782  Biso   1.000  C
  C68      1.0000 0.30500  0.51001  0.57819  Biso   1.000  C
  C69      1.0000 0.36058  0.57307  0.55699  Biso   1.000  C
  C70      1.0000 0.35939  0.02272  0.63699  Biso   1.000  C
  C71      1.0000 0.40548  0.89189  0.62331  Biso   1.000  C
  H75      1.0000 0.37678  0.23534  0.91482  Biso   1.000  H
  C72      1.0000 0.39988  0.50921  0.66492  Biso   1.000  C
  C73      1.0000 0.45671  0.50611  0.66451  Biso   1.000  C
  C74      1.0000 0.34938  0.02392  0.56575  Biso   1.000  C
  H76      1.0000 0.30039  0.04424  0.54710  Biso   1.000  H
  H77      1.0000 0.31699  0.08599  0.48238  Biso   1.000  H
  H78      1.0000 0.26909  0.22232  0.57010  Biso   1.000  H
  C75      1.0000 0.28086  0.41802  0.58119  Biso   1.000  C
  H79      1.0000 0.30140  0.60170  0.58730  Biso   1.000  H
  H80      1.0000 0.35339  0.65946  0.57399  Biso   1.000  H
  H81      1.0000 0.36210  0.58498  0.50741  Biso   1.000  H
  C76      1.0000 0.39396  0.54555  0.59508  Biso   1.000  C
  O13      1.0000 0.34176  0.09700  0.67751  Biso   1.000  O
  C77      1.0000 0.39606  0.89109  0.55259  Biso   1.000  C
  H82      1.0000 0.42458  0.84615  0.64269  Biso   1.000  H
  O14      1.0000 0.37413  0.48398  0.69901  Biso   1.000  O
  C78      1.0000 0.45145  0.54054  0.59508  Biso   1.000  C
  H83      1.0000 0.47810  0.49469  0.68777  Biso   1.000  H
  C79      1.0000 0.36819  0.95806  0.52388  Biso   1.000  C
  H84      1.0000 0.26080  0.44645  0.59238  Biso   1.000  H
  C80      1.0000 0.42029  0.56006  0.56078  Biso   1.000  C
  C81      1.0000 0.32308  0.01972  0.71855  Biso   1.000  C
  H85      1.0000 0.40849  0.84505  0.52368  Biso   1.000  H
  C82      1.0000 0.36134  0.59760  0.73052  Biso   1.000  C
  H86      1.0000 0.46910  0.55075  0.57088  Biso   1.000  H
  H87      1.0000 0.36188  0.95896  0.47497  Biso   1.000  H
  H88      1.0000 0.41688  0.58388  0.51321  Biso   1.000  H
  C83      1.0000 0.30812  0.12082  0.76145  Biso   1.000  C
  H89      1.0000 0.30620  0.96817  0.68850  Biso   1.000  H
  H90      1.0000 0.33698  0.95646  0.74881  Biso   1.000  H
  H91      1.0000 0.37779  0.63714  0.76668  Biso   1.000  H
  H92      1.0000 0.35398  0.66707  0.69539  Biso   1.000  H
  C84      1.0000 0.33340  0.54515  0.76207  Biso   1.000  C
  S4       1.0000 0.29111  0.03514  0.82891  Biso   1.000  S
  H93      1.0000 0.32469  0.18529  0.78259  Biso   1.000  H
  H94      1.0000 0.29098  0.17107  0.73140  Biso   1.000  H
  S5       1.0000 0.31339  0.68458  0.79549  Biso   1.000  S
  H95      1.0000 0.31819  0.49700  0.72658  Biso   1.000  H
  H96      1.0000 0.34118  0.48168  0.80000  Biso   1.000  H
  C85      1.0000 0.28583  0.17648  0.88399  Biso   1.000  C
  C86      1.0000 0.27988  0.59890  0.82357  Biso   1.000  C
  C87      1.0000 0.25986  0.27347  0.85290  Biso   1.000  C
  H97      1.0000 0.30648  0.22543  0.89440  Biso   1.000  H
  H98      1.0000 0.28048  0.14264  0.92839  Biso   1.000  H
  H99      1.0000 0.27019  0.53744  0.78637  Biso   1.000  H
  H100     1.0000 0.26338  0.66577  0.83062  Biso   1.000  H
  C88      1.0000 0.28904  0.51962  0.88979  Biso   1.000  C
  S6       1.0000 0.25654  0.41411  0.90995  Biso   1.000  S
  H101     1.0000 0.26478  0.30711  0.80818  Biso   1.000  H
  H102     1.0000 0.23899  0.22603  0.84368  Biso   1.000  H
  H103     1.0000 0.30788  0.46256  0.88539  Biso   1.000  H
  H104     1.0000 0.29548  0.58248  0.92860  Biso   1.000  H
  C89      1.0000 0.59709  0.33493  0.64689  Biso   1.000  C
  C90      1.0000 0.58139  0.32492  0.70451  Biso   1.000  C
  H105     1.0000 0.59679  0.41752  0.62269  Biso   1.000  H
  C91      1.0000 0.61287  0.22733  0.62471  Biso   1.000  C
  C92      1.0000 0.58265  0.20280  0.73943  Biso   1.000  C
  C93      1.0000 0.56344  0.44765  0.72440  Biso   1.000  C
  C94      1.0000 0.61372  0.10621  0.66021  Biso   1.000  C
  H106     1.0000 0.62319  0.23534  0.58518  Biso   1.000  H
  O15      1.0000 0.57166  0.19970  0.80155  Biso   1.000  O
  C95      1.0000 0.59887  0.09299  0.71865  Biso   1.000  C
  C96      1.0000 0.56883  0.48789  0.79938  Biso   1.000  C
  H107     1.0000 0.54009  0.43163  0.71010  Biso   1.000  H
  H108     1.0000 0.56939  0.52452  0.69699  Biso   1.000  H
  H109     1.0000 0.62459  0.03173  0.64440  Biso   1.000  H
  C97      1.0000 0.54168  0.17317  0.79217  Biso   1.000  C
  C98      1.0000 0.59934  0.96006  0.75580  Biso   1.000  C
  C99      1.0000 0.54326  0.50611  0.83549  Biso   1.000  C
  C100     1.0000 0.60012  0.50921  0.83508  Biso   1.000  C
  C101     1.0000 0.53185  0.15856  0.86958  Biso   1.000  C
  H110     1.0000 0.52928  0.24625  0.76611  Biso   1.000  H
  H111     1.0000 0.53728  0.08879  0.76580  Biso   1.000  H
  C102     1.0000 0.61233  0.95846  0.83269  Biso   1.000  C
  H112     1.0000 0.57709  0.92513  0.74927  Biso   1.000  H
  H113     1.0000 0.61228  0.89680  0.73269  Biso   1.000  H
  C103     1.0000 0.54855  0.54054  0.90492  Biso   1.000  C
  H114     1.0000 0.52189  0.49469  0.81217  Biso   1.000  H
  O16      1.0000 0.62584  0.48398  0.80098  Biso   1.000  O
  C104     1.0000 0.60601  0.54555  0.90492  Biso   1.000  C
  O17      1.0000 0.49907  0.18208  0.86202  Biso   1.000  O
  H115     1.0000 0.54380  0.22462  0.90171  Biso   1.000  H
  H116     1.0000 0.53698  0.06757  0.88818  Biso   1.000  H
  C105     1.0000 0.64058  0.02272  0.86295  Biso   1.000  C
  C106     1.0000 0.59449  0.89189  0.87668  Biso   1.000  C
  C107     1.0000 0.57968  0.56006  0.93922  Biso   1.000  C
  H117     1.0000 0.53089  0.55075  0.92912  Biso   1.000  H
  C108     1.0000 0.63863  0.59760  0.76948  Biso   1.000  C
  C109     1.0000 0.63939  0.57307  0.94300  Biso   1.000  C
  C110     1.0000 0.48362  0.13844  0.91601  Biso   1.000  C
  O18      1.0000 0.65823  0.09700  0.82249  Biso   1.000  O
  C111     1.0000 0.65059  0.02392  0.93425  Biso   1.000  C
  H118     1.0000 0.57538  0.84615  0.85730  Biso   1.000  H
  C112     1.0000 0.60391  0.89109  0.94741  Biso   1.000  C
  H119     1.0000 0.58308  0.58388  0.98679  Biso   1.000  H
  H120     1.0000 0.62218  0.63714  0.73331  Biso   1.000  H
  H121     1.0000 0.64599  0.66707  0.80461  Biso   1.000  H
  C113     1.0000 0.66656  0.54515  0.73787  Biso   1.000  C
  C114     1.0000 0.66547  0.47017  0.93798  Biso   1.000  C
  H122     1.0000 0.64658  0.65946  0.92601  Biso   1.000  H
  H123     1.0000 0.63789  0.58498  0.99259  Biso   1.000  H
  H124     1.0000 0.46018  0.13353  0.89901  Biso   1.000  H
  H125     1.0000 0.49119  0.04685  0.92938  Biso   1.000  H
  C115     1.0000 0.48919  0.22593  0.97891  Biso   1.000  C
  C116     1.0000 0.67692  0.01972  0.78145  Biso   1.000  C
  C117     1.0000 0.68122  0.09369  0.96663  Biso   1.000  C
  C118     1.0000 0.63180  0.95806  0.97611  Biso   1.000  C
  H126     1.0000 0.59147  0.84505  0.97632  Biso   1.000  H
  S7       1.0000 0.68660  0.68458  0.70451  Biso   1.000  S
  H127     1.0000 0.68178  0.49700  0.77342  Biso   1.000  H
  H128     1.0000 0.65879  0.48168  0.70000  Biso   1.000  H
  C119     1.0000 0.66083  0.33483  0.95140  Biso   1.000  C
  C120     1.0000 0.69497  0.51001  0.92181  Biso   1.000  C
  H129     1.0000 0.48738  0.32112  0.96482  Biso   1.000  H
  O19      1.0000 0.52044  0.20080  0.01710  Biso   1.000  O
  H130     1.0000 0.47271  0.20731  0.00839  Biso   1.000  H
  C121     1.0000 0.69188  0.12082  0.73855  Biso   1.000  C
  H131     1.0000 0.69380  0.96817  0.81150  Biso   1.000  H
  H132     1.0000 0.66299  0.95646  0.75119  Biso   1.000  H
  H133     1.0000 0.69958  0.04424  0.95290  Biso   1.000  H
  C122     1.0000 0.68494  0.23994  0.94922  Biso   1.000  C
  H134     1.0000 0.68301  0.08599  0.01761  Biso   1.000  H
  H135     1.0000 0.63811  0.95896  0.02497  Biso   1.000  H
  C123     1.0000 0.72008  0.59890  0.67637  Biso   1.000  C
  O20      1.0000 0.63114  0.29219  0.96533  Biso   1.000  O
  C124     1.0000 0.71913  0.41802  0.91881  Biso   1.000  C
  H136     1.0000 0.69859  0.60170  0.91269  Biso   1.000  H
  C125     1.0000 0.52680  0.27437  0.07948  Biso   1.000  C
  S8       1.0000 0.70886  0.03514  0.67109  Biso   1.000  S
  H137     1.0000 0.67528  0.18529  0.71741  Biso   1.000  H
  H138     1.0000 0.70899  0.17107  0.76860  Biso   1.000  H
  C126     1.0000 0.71412  0.28488  0.93217  Biso   1.000  C
  H139     1.0000 0.72980  0.53744  0.71357  Biso   1.000  H
  H140     1.0000 0.73659  0.66577  0.66938  Biso   1.000  H
  C127     1.0000 0.71095  0.51962  0.61021  Biso   1.000  C
  C128     1.0000 0.62713  0.29900  0.03642  Biso   1.000  C
  H141     1.0000 0.73920  0.44645  0.90761  Biso   1.000  H
  H142     1.0000 0.52822  0.37087  0.06881  Biso   1.000  H
  H143     1.0000 0.50901  0.26166  0.10632  Biso   1.000  H
  C129     1.0000 0.55776  0.22913  0.12181  Biso   1.000  C
  C130     1.0000 0.71413  0.17648  0.61601  Biso   1.000  C
  H144     1.0000 0.73088  0.22232  0.92989  Biso   1.000  H
  S9       1.0000 0.74343  0.41411  0.59005  Biso   1.000  S
  H145     1.0000 0.69209  0.46256  0.61461  Biso   1.000  H
  H146     1.0000 0.70449  0.58248  0.57140  Biso   1.000  H
  C131     1.0000 0.59311  0.25345  0.03901  Biso   1.000  C
  H147     1.0000 0.64281  0.23974  0.06508  Biso   1.000  H
  H148     1.0000 0.63040  0.39169  0.05399  Biso   1.000  H
  O21      1.0000 0.58602  0.28839  0.10513  Biso   1.000  O
  H149     1.0000 0.55950  0.13093  0.11668  Biso   1.000  H
  H150     1.0000 0.55680  0.24765  0.17119  Biso   1.000  H
  C132     1.0000 0.74011  0.27347  0.64710  Biso   1.000  C
  H151     1.0000 0.69349  0.22543  0.60559  Biso   1.000  H
  H152     1.0000 0.71948  0.14264  0.57160  Biso   1.000  H
  H153     1.0000 0.59121  0.15546  0.03202  Biso   1.000  H
  H154     1.0000 0.57791  0.29830  0.00217  Biso   1.000  H
  H155     1.0000 0.73519  0.30711  0.69181  Biso   1.000  H
  H156     1.0000 0.76100  0.22603  0.65632  Biso   1.000  H
  C133     1.0000 0.43655  0.55235  0.27560  Biso   1.000  C
  C134     1.0000 0.43113  0.51211  0.20062  Biso   1.000  C
  H157     1.0000 0.45990  0.56837  0.28990  Biso   1.000  H
  H158     1.0000 0.43060  0.47548  0.30300  Biso   1.000  H
  C135     1.0000 0.41857  0.67508  0.29549  Biso   1.000  C
  C136     1.0000 0.39987  0.49079  0.16492  Biso   1.000  C
  C137     1.0000 0.45671  0.49389  0.16451  Biso   1.000  C
  C138     1.0000 0.40290  0.66507  0.35311  Biso   1.000  C
  C139     1.0000 0.41734  0.79720  0.26057  Biso   1.000  C
  O22      1.0000 0.37414  0.51602  0.19902  Biso   1.000  O
  C140     1.0000 0.39396  0.45445  0.09508  Biso   1.000  C
  C141     1.0000 0.45144  0.45946  0.09508  Biso   1.000  C
  H159     1.0000 0.47810  0.50531  0.18782  Biso   1.000  H
  H160     1.0000 0.40320  0.58248  0.37730  Biso   1.000  H
  C142     1.0000 0.38712  0.77267  0.37528  Biso   1.000  C
  O23      1.0000 0.42833  0.80030  0.19845  Biso   1.000  O
  C143     1.0000 0.40112  0.90701  0.28135  Biso   1.000  C
  C144     1.0000 0.36135  0.40240  0.23052  Biso   1.000  C
  C145     1.0000 0.36060  0.42693  0.05699  Biso   1.000  C
  C146     1.0000 0.42029  0.43994  0.06078  Biso   1.000  C
  H161     1.0000 0.46909  0.44925  0.07088  Biso   1.000  H
  H162     1.0000 0.37680  0.76466  0.41482  Biso   1.000  H
  C147     1.0000 0.38627  0.89379  0.33979  Biso   1.000  C
  C148     1.0000 0.45830  0.82683  0.20782  Biso   1.000  C
  C149     1.0000 0.40064  0.03994  0.24420  Biso   1.000  C
  C150     1.0000 0.33342  0.45485  0.26212  Biso   1.000  C
  H163     1.0000 0.37778  0.36286  0.26668  Biso   1.000  H
  H164     1.0000 0.35400  0.33293  0.19539  Biso   1.000  H
  C151     1.0000 0.33452  0.52983  0.06202  Biso   1.000  C
  H165     1.0000 0.35341  0.34054  0.07399  Biso   1.000  H
  H166     1.0000 0.36210  0.41502  0.00741  Biso   1.000  H
  H167     1.0000 0.41690  0.41612  0.01321  Biso   1.000  H
  H168     1.0000 0.37540  0.96827  0.35560  Biso   1.000  H
  H169     1.0000 0.47068  0.75375  0.23389  Biso   1.000  H
  H170     1.0000 0.46270  0.91121  0.23420  Biso   1.000  H
  C152     1.0000 0.46814  0.84144  0.13041  Biso   1.000  C
  C153     1.0000 0.38765  0.04154  0.16731  Biso   1.000  C
  H171     1.0000 0.42290  0.07487  0.25067  Biso   1.000  H
  H172     1.0000 0.38771  0.10320  0.26731  Biso   1.000  H
  S10      1.0000 0.31339  0.31542  0.29549  Biso   1.000  S
  H173     1.0000 0.31820  0.50300  0.22658  Biso   1.000  H
  H174     1.0000 0.34119  0.51832  0.30000  Biso   1.000  H
  C154     1.0000 0.30502  0.48999  0.07819  Biso   1.000  C
  C155     1.0000 0.33915  0.66517  0.04860  Biso   1.000  C
  O24      1.0000 0.50090  0.81792  0.13798  Biso   1.000  O
  H175     1.0000 0.45619  0.77538  0.09829  Biso   1.000  H
  H176     1.0000 0.46301  0.93243  0.11181  Biso   1.000  H
  C156     1.0000 0.35941  0.97728  0.13699  Biso   1.000  C
  C157     1.0000 0.40550  0.10811  0.12332  Biso   1.000  C
  C158     1.0000 0.27990  0.40110  0.32357  Biso   1.000  C
  C159     1.0000 0.28086  0.58198  0.08119  Biso   1.000  C
  H177     1.0000 0.30140  0.39830  0.08731  Biso   1.000  H
  O25      1.0000 0.36882  0.70781  0.03466  Biso   1.000  O
  C160     1.0000 0.31505  0.76006  0.05078  Biso   1.000  C
  C161     1.0000 0.51637  0.86156  0.08399  Biso   1.000  C
  O26      1.0000 0.34175  0.90300  0.17751  Biso   1.000  O
  C162     1.0000 0.34940  0.97608  0.06575  Biso   1.000  C
  C163     1.0000 0.39608  0.10891  0.05259  Biso   1.000  C
  H178     1.0000 0.42460  0.15385  0.14269  Biso   1.000  H
  H179     1.0000 0.27019  0.46256  0.28642  Biso   1.000  H
  H180     1.0000 0.26340  0.33423  0.33062  Biso   1.000  H
  C164     1.0000 0.28904  0.48038  0.38979  Biso   1.000  C
  C165     1.0000 0.28587  0.71512  0.06782  Biso   1.000  C
  H181     1.0000 0.26079  0.55355  0.09238  Biso   1.000  H
  C166     1.0000 0.37286  0.70100  0.96358  Biso   1.000  C
  C167     1.0000 0.31877  0.90631  0.03337  Biso   1.000  C
  H182     1.0000 0.53980  0.86647  0.10098  Biso   1.000  H
  H183     1.0000 0.50880  0.95315  0.07062  Biso   1.000  H
  C168     1.0000 0.51080  0.77407  0.02109  Biso   1.000  C
  C169     1.0000 0.32307  0.98028  0.21855  Biso   1.000  C
  C170     1.0000 0.36819  0.04194  0.02389  Biso   1.000  C
  H184     1.0000 0.40849  0.15495  0.02368  Biso   1.000  H
  S11      1.0000 0.25655  0.58589  0.40995  Biso   1.000  S
  H185     1.0000 0.30790  0.53744  0.38539  Biso   1.000  H
  H186     1.0000 0.29550  0.41752  0.42860  Biso   1.000  H
  H187     1.0000 0.26909  0.77768  0.07010  Biso   1.000  H
  C171     1.0000 0.40688  0.74655  0.96098  Biso   1.000  C
  H188     1.0000 0.35718  0.76026  0.93492  Biso   1.000  H
  H189     1.0000 0.36958  0.60831  0.94601  Biso   1.000  H
  H190     1.0000 0.30041  0.95576  0.04710  Biso   1.000  H
  H191     1.0000 0.31698  0.91401  0.98238  Biso   1.000  H
  O27      1.0000 0.47955  0.79920  0.98290  Biso   1.000  O
  H192     1.0000 0.51260  0.67888  0.03518  Biso   1.000  H
  H193     1.0000 0.52728  0.79269  0.99161  Biso   1.000  H
  C172     1.0000 0.30811  0.87918  0.26145  Biso   1.000  C
  H194     1.0000 0.30619  0.03183  0.18850  Biso   1.000  H
  H195     1.0000 0.33700  0.04354  0.24881  Biso   1.000  H
  H196     1.0000 0.36188  0.04104  0.97503  Biso   1.000  H
  C173     1.0000 0.25988  0.72653  0.35290  Biso   1.000  C
  O28      1.0000 0.41397  0.71161  0.89487  Biso   1.000  O
  H197     1.0000 0.40878  0.84454  0.96798  Biso   1.000  H
  H198     1.0000 0.42208  0.70170  0.99782  Biso   1.000  H
  C174     1.0000 0.47319  0.72563  0.92052  Biso   1.000  C
  S12      1.0000 0.29112  0.96486  0.32891  Biso   1.000  S
  H199     1.0000 0.32468  0.81471  0.28259  Biso   1.000  H
  H200     1.0000 0.29099  0.82893  0.23140  Biso   1.000  H
  H201     1.0000 0.26480  0.69289  0.30819  Biso   1.000  H
  H202     1.0000 0.23899  0.77397  0.34368  Biso   1.000  H
  C175     1.0000 0.28585  0.82352  0.38399  Biso   1.000  C
  C176     1.0000 0.44222  0.77087  0.87819  Biso   1.000  C
  H203     1.0000 0.47177  0.62913  0.93119  Biso   1.000  H
  H204     1.0000 0.49098  0.73834  0.89368  Biso   1.000  H
  H205     1.0000 0.30650  0.77457  0.39440  Biso   1.000  H
  H206     1.0000 0.28050  0.85736  0.42839  Biso   1.000  H
  H207     1.0000 0.44049  0.86907  0.88332  Biso   1.000  H
  H208     1.0000 0.44317  0.75235  0.82881  Biso   1.000  H
  S13      1.0000 0.75655  0.08589  0.40995  Biso   1.000  S
  C177     1.0000 0.75988  0.22653  0.35290  Biso   1.000  C
  C178     1.0000 0.78904  0.98038  0.38979  Biso   1.000  C
  H209     1.0000 0.76480  0.19289  0.30819  Biso   1.000  H
  H210     1.0000 0.73899  0.27397  0.34368  Biso   1.000  H
  C179     1.0000 0.78585  0.32352  0.38399  Biso   1.000  C
  H211     1.0000 0.80790  0.03744  0.38539  Biso   1.000  H
  C180     1.0000 0.77990  0.90110  0.32357  Biso   1.000  C
  H212     1.0000 0.79550  0.91752  0.42860  Biso   1.000  H
  S14      1.0000 0.79112  0.46486  0.32891  Biso   1.000  S
  H213     1.0000 0.80650  0.27457  0.39440  Biso   1.000  H
  H214     1.0000 0.78050  0.35736  0.42839  Biso   1.000  H
  S15      1.0000 0.81339  0.81542  0.29549  Biso   1.000  S
  H215     1.0000 0.77019  0.96256  0.28642  Biso   1.000  H
  H216     1.0000 0.76340  0.83423  0.33062  Biso   1.000  H
  C181     1.0000 0.80811  0.37918  0.26145  Biso   1.000  C
  C182     1.0000 0.83342  0.95485  0.26212  Biso   1.000  C
  H217     1.0000 0.82468  0.31471  0.28259  Biso   1.000  H
  H218     1.0000 0.79099  0.32893  0.23140  Biso   1.000  H
  C183     1.0000 0.82307  0.48028  0.21855  Biso   1.000  C
  H219     1.0000 0.81820  0.00300  0.22658  Biso   1.000  H
  H220     1.0000 0.84119  0.01832  0.30000  Biso   1.000  H
  C184     1.0000 0.86135  0.90240  0.23052  Biso   1.000  C
  O29      1.0000 0.84175  0.40300  0.17751  Biso   1.000  O
  H221     1.0000 0.80619  0.53183  0.18850  Biso   1.000  H
  H222     1.0000 0.83700  0.54354  0.24881  Biso   1.000  H
  O30      1.0000 0.87414  0.01602  0.19902  Biso   1.000  O
  H223     1.0000 0.87778  0.86286  0.26668  Biso   1.000  H
  H224     1.0000 0.85400  0.83293  0.19539  Biso   1.000  H
  C185     1.0000 0.85941  0.47728  0.13699  Biso   1.000  C
  C186     1.0000 0.89987  0.99079  0.16492  Biso   1.000  C
  C187     1.0000 0.88765  0.54154  0.16731  Biso   1.000  C
  C188     1.0000 0.84940  0.47608  0.06575  Biso   1.000  C
  C189     1.0000 0.93113  0.01211  0.20062  Biso   1.000  C
  C190     1.0000 0.89396  0.95445  0.09508  Biso   1.000  C
  C191     1.0000 0.90550  0.60811  0.12332  Biso   1.000  C
  C192     1.0000 0.90064  0.53994  0.24420  Biso   1.000  C
  C193     1.0000 0.86819  0.54194  0.02389  Biso   1.000  C
  C194     1.0000 0.81877  0.40631  0.03337  Biso   1.000  C
  C195     1.0000 0.93655  0.05235  0.27560  Biso   1.000  C
  C196     1.0000 0.95671  0.99389  0.16451  Biso   1.000  C
  C197     1.0000 0.86060  0.92693  0.05699  Biso   1.000  C
  C198     1.0000 0.92029  0.93994  0.06078  Biso   1.000  C
  H225     1.0000 0.92460  0.65385  0.14269  Biso   1.000  H
  C199     1.0000 0.89608  0.60891  0.05259  Biso   1.000  C
  C200     1.0000 0.90112  0.40701  0.28135  Biso   1.000  C
  H226     1.0000 0.92290  0.57487  0.25067  Biso   1.000  H
  H227     1.0000 0.88771  0.60320  0.26731  Biso   1.000  H
  H228     1.0000 0.86188  0.54104  0.97503  Biso   1.000  H
  H229     1.0000 0.80041  0.45576  0.04710  Biso   1.000  H
  C201     1.0000 0.81505  0.26006  0.05078  Biso   1.000  C
  H230     1.0000 0.81698  0.41401  0.98238  Biso   1.000  H
  H231     1.0000 0.95990  0.06837  0.28990  Biso   1.000  H
  C202     1.0000 0.91857  0.17508  0.29549  Biso   1.000  C
  H232     1.0000 0.93060  0.97548  0.30300  Biso   1.000  H
  H233     1.0000 0.97810  0.00531  0.18782  Biso   1.000  H
  C203     1.0000 0.95144  0.95946  0.09508  Biso   1.000  C
  C204     1.0000 0.83452  0.02983  0.06202  Biso   1.000  C
  H234     1.0000 0.85341  0.84054  0.07399  Biso   1.000  H
  H235     1.0000 0.86210  0.91502  0.00741  Biso   1.000  H
  H236     1.0000 0.91690  0.91612  0.01321  Biso   1.000  H
  H237     1.0000 0.90849  0.65495  0.02368  Biso   1.000  H
  C205     1.0000 0.88627  0.39379  0.33979  Biso   1.000  C
  C206     1.0000 0.91734  0.29720  0.26057  Biso   1.000  C
  C207     1.0000 0.78587  0.21512  0.06782  Biso   1.000  C
  C208     1.0000 0.83915  0.16517  0.04860  Biso   1.000  C
  C209     1.0000 0.90290  0.16507  0.35311  Biso   1.000  C
  H238     1.0000 0.96909  0.94925  0.07088  Biso   1.000  H
  C210     1.0000 0.80502  0.98999  0.07819  Biso   1.000  C
  C211     1.0000 0.88712  0.27267  0.37528  Biso   1.000  C
  H239     1.0000 0.87540  0.46827  0.35560  Biso   1.000  H
  O31      1.0000 0.92833  0.30030  0.19845  Biso   1.000  O
  H240     1.0000 0.76909  0.27768  0.07010  Biso   1.000  H
  C212     1.0000 0.78086  0.08198  0.08119  Biso   1.000  C
  O32      1.0000 0.86882  0.20781  0.03466  Biso   1.000  O
  H241     1.0000 0.90320  0.08248  0.37730  Biso   1.000  H
  H242     1.0000 0.80140  0.89830  0.08731  Biso   1.000  H
  H243     1.0000 0.87680  0.26466  0.41482  Biso   1.000  H
  C213     1.0000 0.95830  0.32683  0.20782  Biso   1.000  C
  H244     1.0000 0.76079  0.05355  0.09238  Biso   1.000  H
  C214     1.0000 0.87286  0.20100  0.96358  Biso   1.000  C
  H245     1.0000 0.97068  0.25375  0.23389  Biso   1.000  H
  H246     1.0000 0.96270  0.41121  0.23420  Biso   1.000  H
  C215     1.0000 0.96814  0.34144  0.13041  Biso   1.000  C
  C216     1.0000 0.90688  0.24655  0.96098  Biso   1.000  C
  H247     1.0000 0.85718  0.26026  0.93492  Biso   1.000  H
  H248     1.0000 0.86958  0.10831  0.94601  Biso   1.000  H
  H249     1.0000 0.95619  0.27538  0.09829  Biso   1.000  H
  H250     1.0000 0.96301  0.43243  0.11181  Biso   1.000  H
  O33      1.0000 0.00090  0.31792  0.13798  Biso   1.000  O
  O34      1.0000 0.91397  0.21161  0.89487  Biso   1.000  O
  H251     1.0000 0.90878  0.34454  0.96798  Biso   1.000  H
  H252     1.0000 0.92208  0.20170  0.99782  Biso   1.000  H
  C217     1.0000 0.01637  0.36156  0.08399  Biso   1.000  C
  C218     1.0000 0.94222  0.27087  0.87819  Biso   1.000  C
  H253     1.0000 0.03980  0.36647  0.10098  Biso   1.000  H
  H254     1.0000 0.00880  0.45315  0.07062  Biso   1.000  H
  C219     1.0000 0.01080  0.27407  0.02109  Biso   1.000  C
  C220     1.0000 0.97319  0.22563  0.92052  Biso   1.000  C
  H255     1.0000 0.94049  0.36907  0.88332  Biso   1.000  H
  H256     1.0000 0.94317  0.25235  0.82881  Biso   1.000  H
  O35      1.0000 0.97955  0.29920  0.98290  Biso   1.000  O
  H257     1.0000 0.02728  0.29269  0.99161  Biso   1.000  H
  H258     1.0000 0.01260  0.17888  0.03518  Biso   1.000  H
  H259     1.0000 0.97177  0.12913  0.93119  Biso   1.000  H
  H260     1.0000 0.99098  0.23834  0.89368  Biso   1.000  H
  C221     1.0000 0.78585  0.78488  0.56782  Biso   1.000  C
  C222     1.0000 0.81503  0.73994  0.55078  Biso   1.000  C
  H261     1.0000 0.76909  0.72232  0.57010  Biso   1.000  H
  C223     1.0000 0.78086  0.91802  0.58119  Biso   1.000  C
  C224     1.0000 0.81875  0.59369  0.53337  Biso   1.000  C
  C225     1.0000 0.83916  0.83483  0.54860  Biso   1.000  C
  H262     1.0000 0.76080  0.94645  0.59238  Biso   1.000  H
  C226     1.0000 0.80500  0.01001  0.57819  Biso   1.000  C
  C227     1.0000 0.84938  0.52392  0.56575  Biso   1.000  C
  H263     1.0000 0.80039  0.54424  0.54710  Biso   1.000  H
  H264     1.0000 0.81699  0.58599  0.48238  Biso   1.000  H
  O36      1.0000 0.86883  0.79219  0.53466  Biso   1.000  O
  C228     1.0000 0.83450  0.97017  0.56202  Biso   1.000  C
  H265     1.0000 0.80140  0.10170  0.58730  Biso   1.000  H
  C229     1.0000 0.85939  0.52272  0.63699  Biso   1.000  C
  C230     1.0000 0.86819  0.45806  0.52388  Biso   1.000  C
  C231     1.0000 0.87286  0.79900  0.46357  Biso   1.000  C
  C232     1.0000 0.86058  0.07307  0.55699  Biso   1.000  C
  O37      1.0000 0.84176  0.59700  0.67751  Biso   1.000  O
  C233     1.0000 0.88764  0.45846  0.66730  Biso   1.000  C
  C234     1.0000 0.89606  0.39109  0.55259  Biso   1.000  C
  H266     1.0000 0.86188  0.45896  0.47497  Biso   1.000  H
  C235     1.0000 0.90691  0.75345  0.46098  Biso   1.000  C
  H267     1.0000 0.85720  0.73974  0.43492  Biso   1.000  H
  H268     1.0000 0.86959  0.89169  0.44601  Biso   1.000  H
  H269     1.0000 0.85339  0.15946  0.57399  Biso   1.000  H
  H270     1.0000 0.86210  0.08498  0.50741  Biso   1.000  H
  C236     1.0000 0.89396  0.04555  0.59508  Biso   1.000  C
  C237     1.0000 0.82308  0.51972  0.71855  Biso   1.000  C
  C238     1.0000 0.90548  0.39189  0.62331  Biso   1.000  C
  C239     1.0000 0.90063  0.46006  0.74420  Biso   1.000  C
  H271     1.0000 0.90849  0.34505  0.52368  Biso   1.000  H
  O38      1.0000 0.91397  0.78839  0.39487  Biso   1.000  O
  H272     1.0000 0.90878  0.65546  0.46798  Biso   1.000  H
  H273     1.0000 0.92208  0.79830  0.49782  Biso   1.000  H
  C240     1.0000 0.92029  0.06006  0.56078  Biso   1.000  C
  C241     1.0000 0.89988  0.00921  0.66492  Biso   1.000  C
  C242     1.0000 0.80812  0.62082  0.76145  Biso   1.000  C
  H274     1.0000 0.80620  0.46817  0.68850  Biso   1.000  H
  H275     1.0000 0.83698  0.45646  0.74881  Biso   1.000  H
  H276     1.0000 0.92458  0.34615  0.64269  Biso   1.000  H
  C243     1.0000 0.90110  0.59299  0.78135  Biso   1.000  C
  H277     1.0000 0.92288  0.42513  0.75067  Biso   1.000  H
  H278     1.0000 0.88769  0.39680  0.76730  Biso   1.000  H
  C244     1.0000 0.94225  0.72913  0.37819  Biso   1.000  C
  H279     1.0000 0.91688  0.08388  0.51321  Biso   1.000  H
  C245     1.0000 0.95145  0.04054  0.59508  Biso   1.000  C
  O39      1.0000 0.87413  0.98398  0.69901  Biso   1.000  O
  C246     1.0000 0.93113  0.98789  0.70062  Biso   1.000  C
  S16      1.0000 0.79111  0.53514  0.82891  Biso   1.000  S
  H280     1.0000 0.82469  0.68529  0.78259  Biso   1.000  H
  H281     1.0000 0.79098  0.67107  0.73140  Biso   1.000  H
  C247     1.0000 0.88625  0.60621  0.83979  Biso   1.000  C
  C248     1.0000 0.91732  0.70280  0.76057  Biso   1.000  C
  C249     1.0000 0.97319  0.77437  0.42052  Biso   1.000  C
  H282     1.0000 0.94050  0.63093  0.38332  Biso   1.000  H
  H283     1.0000 0.94320  0.74765  0.32881  Biso   1.000  H
  H284     1.0000 0.96910  0.05075  0.57088  Biso   1.000  H
  C250     1.0000 0.95671  0.00611  0.66451  Biso   1.000  C
  C251     1.0000 0.86134  0.09760  0.73052  Biso   1.000  C
  C252     1.0000 0.93653  0.94765  0.77559  Biso   1.000  C
  C253     1.0000 0.78583  0.67648  0.88399  Biso   1.000  C
  C254     1.0000 0.88712  0.72733  0.87528  Biso   1.000  C
  H285     1.0000 0.87538  0.53173  0.85559  Biso   1.000  H
  O40      1.0000 0.92831  0.69970  0.69844  Biso   1.000  O
  C255     1.0000 0.91858  0.82492  0.79549  Biso   1.000  C
  O41      1.0000 0.97955  0.70080  0.48290  Biso   1.000  O
  H286     1.0000 0.97180  0.87087  0.43119  Biso   1.000  H
  H287     1.0000 0.99098  0.76166  0.39368  Biso   1.000  H
  H288     1.0000 0.97810  0.99469  0.68777  Biso   1.000  H
  H289     1.0000 0.87779  0.13714  0.76668  Biso   1.000  H
  H290     1.0000 0.85398  0.16707  0.69539  Biso   1.000  H
  C256     1.0000 0.83340  0.04515  0.76207  Biso   1.000  C
  H291     1.0000 0.95988  0.93163  0.78989  Biso   1.000  H
  H292     1.0000 0.93058  0.02452  0.80300  Biso   1.000  H
  C257     1.0000 0.75986  0.77347  0.85290  Biso   1.000  C
  H293     1.0000 0.80648  0.72543  0.89440  Biso   1.000  H
  H294     1.0000 0.78048  0.64264  0.92839  Biso   1.000  H
  C258     1.0000 0.90291  0.83493  0.85311  Biso   1.000  C
  H295     1.0000 0.87678  0.73534  0.91482  Biso   1.000  H
  C259     1.0000 0.95828  0.67317  0.70777  Biso   1.000  C
  C260     1.0000 0.01078  0.72593  0.52109  Biso   1.000  C
  H296     1.0000 0.81819  0.99700  0.72658  Biso   1.000  H
  H297     1.0000 0.84118  0.98168  0.80000  Biso   1.000  H
  S17      1.0000 0.81339  0.18458  0.79549  Biso   1.000  S
  S18      1.0000 0.75654  0.91411  0.90995  Biso   1.000  S
  H298     1.0000 0.76478  0.80711  0.80818  Biso   1.000  H
  H299     1.0000 0.73899  0.72603  0.84368  Biso   1.000  H
  H300     1.0000 0.90318  0.91752  0.87730  Biso   1.000  H
  H301     1.0000 0.97069  0.74625  0.73388  Biso   1.000  H
  H302     1.0000 0.96269  0.58879  0.73420  Biso   1.000  H
  C261     1.0000 0.96812  0.65856  0.63041  Biso   1.000  C
  C262     1.0000 0.01635  0.63844  0.58399  Biso   1.000  C
  H303     1.0000 0.02728  0.70731  0.49161  Biso   1.000  H
  H304     1.0000 0.01259  0.82112  0.53518  Biso   1.000  H
  C263     1.0000 0.77988  0.09890  0.82357  Biso   1.000  C
  C264     1.0000 0.78904  0.01962  0.88979  Biso   1.000  C
  H305     1.0000 0.95620  0.72462  0.59829  Biso   1.000  H
  H306     1.0000 0.96299  0.56757  0.61181  Biso   1.000  H
  O42      1.0000 0.00090  0.68208  0.63798  Biso   1.000  O
  H307     1.0000 0.03978  0.63353  0.60098  Biso   1.000  H
  H308     1.0000 0.00880  0.54685  0.57062  Biso   1.000  H
  H309     1.0000 0.77019  0.03744  0.78637  Biso   1.000  H
  H310     1.0000 0.76338  0.16577  0.83062  Biso   1.000  H
  H311     1.0000 0.80788  0.96256  0.88539  Biso   1.000  H
  H312     1.0000 0.79548  0.08248  0.92860  Biso   1.000  H
  S19      1.0000 0.24343  0.91411  0.59005  Biso   1.000  S
  C265     1.0000 0.24011  0.77347  0.64710  Biso   1.000  C
  C266     1.0000 0.21095  0.01962  0.61021  Biso   1.000  C
  C267     1.0000 0.21413  0.67648  0.61601  Biso   1.000  C
  H313     1.0000 0.23519  0.80711  0.69181  Biso   1.000  H
  H314     1.0000 0.26100  0.72603  0.65632  Biso   1.000  H
  H315     1.0000 0.19209  0.96256  0.61461  Biso   1.000  H
  C268     1.0000 0.22008  0.09890  0.67637  Biso   1.000  C
  H316     1.0000 0.20449  0.08248  0.57140  Biso   1.000  H
  S20      1.0000 0.20886  0.53514  0.67109  Biso   1.000  S
  H317     1.0000 0.19349  0.72543  0.60559  Biso   1.000  H
  H318     1.0000 0.21948  0.64264  0.57160  Biso   1.000  H
  S21      1.0000 0.18660  0.18458  0.70451  Biso   1.000  S
  H319     1.0000 0.22980  0.03744  0.71357  Biso   1.000  H
  H320     1.0000 0.23659  0.16577  0.66938  Biso   1.000  H
  C269     1.0000 0.19188  0.62082  0.73855  Biso   1.000  C
  C270     1.0000 0.16656  0.04515  0.73787  Biso   1.000  C
  H321     1.0000 0.17528  0.68529  0.71741  Biso   1.000  H
  H322     1.0000 0.20899  0.67107  0.76860  Biso   1.000  H
  C271     1.0000 0.17692  0.51972  0.78145  Biso   1.000  C
  H323     1.0000 0.18178  0.99700  0.77342  Biso   1.000  H
  H324     1.0000 0.15879  0.98168  0.70000  Biso   1.000  H
  C272     1.0000 0.13863  0.09760  0.76948  Biso   1.000  C
  O43      1.0000 0.15823  0.59700  0.82249  Biso   1.000  O
  H325     1.0000 0.19380  0.46817  0.81150  Biso   1.000  H
  H326     1.0000 0.16299  0.45646  0.75119  Biso   1.000  H
  O44      1.0000 0.12584  0.98398  0.80098  Biso   1.000  O
  H327     1.0000 0.12218  0.13714  0.73331  Biso   1.000  H
  H328     1.0000 0.14599  0.16707  0.80461  Biso   1.000  H
  C273     1.0000 0.14058  0.52272  0.86295  Biso   1.000  C
  C274     1.0000 0.10012  0.00921  0.83508  Biso   1.000  C
  C275     1.0000 0.11233  0.45846  0.83269  Biso   1.000  C
  C276     1.0000 0.15059  0.52392  0.93425  Biso   1.000  C
  C277     1.0000 0.06883  0.98789  0.79938  Biso   1.000  C
  C278     1.0000 0.10601  0.04555  0.90492  Biso   1.000  C
  C279     1.0000 0.09449  0.39189  0.87668  Biso   1.000  C
  C280     1.0000 0.09934  0.46006  0.75580  Biso   1.000  C
  C281     1.0000 0.13180  0.45806  0.97611  Biso   1.000  C
  C282     1.0000 0.18122  0.59369  0.96663  Biso   1.000  C
  C283     1.0000 0.06344  0.94765  0.72440  Biso   1.000  C
  C284     1.0000 0.04326  0.00611  0.83549  Biso   1.000  C
  C285     1.0000 0.13939  0.07307  0.94300  Biso   1.000  C
  C286     1.0000 0.07968  0.06006  0.93922  Biso   1.000  C
  H329     1.0000 0.07538  0.34615  0.85730  Biso   1.000  H
  C287     1.0000 0.10391  0.39109  0.94741  Biso   1.000  C
  C288     1.0000 0.09887  0.59299  0.71865  Biso   1.000  C
  H330     1.0000 0.07709  0.42513  0.74927  Biso   1.000  H
  H331     1.0000 0.11228  0.39680  0.73269  Biso   1.000  H
  H332     1.0000 0.13811  0.45896  0.02497  Biso   1.000  H
  H333     1.0000 0.19958  0.54424  0.95290  Biso   1.000  H
  C289     1.0000 0.18494  0.73994  0.94922  Biso   1.000  C
  H334     1.0000 0.18301  0.58599  0.01761  Biso   1.000  H
  C290     1.0000 0.08139  0.82492  0.70451  Biso   1.000  C
  H335     1.0000 0.04009  0.93163  0.71010  Biso   1.000  H
  H336     1.0000 0.06939  0.02452  0.69699  Biso   1.000  H
  H337     1.0000 0.02189  0.99469  0.81217  Biso   1.000  H
  C291     1.0000 0.04855  0.04054  0.90492  Biso   1.000  C
  C292     1.0000 0.16547  0.97017  0.93798  Biso   1.000  C
  H338     1.0000 0.14658  0.15946  0.92601  Biso   1.000  H
  H339     1.0000 0.13789  0.08498  0.99259  Biso   1.000  H
  H340     1.0000 0.08308  0.08388  0.98679  Biso   1.000  H
  H341     1.0000 0.09147  0.34505  0.97632  Biso   1.000  H
  C293     1.0000 0.11372  0.60621  0.66021  Biso   1.000  C
  C294     1.0000 0.08265  0.70280  0.73943  Biso   1.000  C
  C295     1.0000 0.21412  0.78488  0.93217  Biso   1.000  C
  C296     1.0000 0.16083  0.83483  0.95140  Biso   1.000  C
  C297     1.0000 0.09709  0.83493  0.64689  Biso   1.000  C
  H342     1.0000 0.03089  0.05075  0.92912  Biso   1.000  H
  C298     1.0000 0.19497  0.01001  0.92181  Biso   1.000  C
  C299     1.0000 0.11287  0.72733  0.62471  Biso   1.000  C
  H343     1.0000 0.12459  0.53173  0.64440  Biso   1.000  H
  O45      1.0000 0.07166  0.69970  0.80155  Biso   1.000  O
  H344     1.0000 0.23088  0.72232  0.92989  Biso   1.000  H
  C300     1.0000 0.21913  0.91802  0.91881  Biso   1.000  C
  O46      1.0000 0.13114  0.79219  0.96533  Biso   1.000  O
  H345     1.0000 0.09679  0.91752  0.62269  Biso   1.000  H
  H346     1.0000 0.19859  0.10170  0.91269  Biso   1.000  H
  H347     1.0000 0.12319  0.73534  0.58518  Biso   1.000  H
  C301     1.0000 0.04168  0.67317  0.79217  Biso   1.000  C
  H348     1.0000 0.23920  0.94645  0.90761  Biso   1.000  H
  C302     1.0000 0.12713  0.79900  0.03642  Biso   1.000  C
  H349     1.0000 0.02928  0.74625  0.76611  Biso   1.000  H
  H350     1.0000 0.03728  0.58879  0.76580  Biso   1.000  H
  C303     1.0000 0.03185  0.65856  0.86958  Biso   1.000  C
  C304     1.0000 0.09311  0.75345  0.03901  Biso   1.000  C
  H351     1.0000 0.14281  0.73974  0.06508  Biso   1.000  H
  H352     1.0000 0.13040  0.89169  0.05399  Biso   1.000  H
  H353     1.0000 0.04380  0.72462  0.90171  Biso   1.000  H
  H354     1.0000 0.03698  0.56757  0.88818  Biso   1.000  H
  O47      1.0000 0.99907  0.68208  0.86202  Biso   1.000  O
  O48      1.0000 0.08602  0.78839  0.10513  Biso   1.000  O
  H355     1.0000 0.09121  0.65546  0.03202  Biso   1.000  H
  H356     1.0000 0.07791  0.79830  0.00217  Biso   1.000  H
  C305     1.0000 0.98362  0.63844  0.91601  Biso   1.000  C
  C306     1.0000 0.05776  0.72913  0.12181  Biso   1.000  C
  H357     1.0000 0.96018  0.63353  0.89901  Biso   1.000  H
  H358     1.0000 0.99119  0.54685  0.92938  Biso   1.000  H
  C307     1.0000 0.98919  0.72593  0.97891  Biso   1.000  C
  C308     1.0000 0.02680  0.77437  0.07948  Biso   1.000  C
  H359     1.0000 0.05950  0.63093  0.11668  Biso   1.000  H
  H360     1.0000 0.05680  0.74765  0.17119  Biso   1.000  H
  H361     1.0000 0.98738  0.82112  0.96482  Biso   1.000  H
  H362     1.0000 0.97271  0.70731  0.00839  Biso   1.000  H
  O49      1.0000 0.02044  0.70080  0.01710  Biso   1.000  O
  H363     1.0000 0.02822  0.87087  0.06881  Biso   1.000  H
  H364     1.0000 0.00901  0.76166  0.10632  Biso   1.000  H
  C309     1.0000 0.24011  0.22653  0.14710  Biso   1.000  C
  S22      1.0000 0.24345  0.08589  0.09005  Biso   1.000  S
  H365     1.0000 0.23521  0.19289  0.19181  Biso   1.000  H
  H366     1.0000 0.26100  0.27397  0.15632  Biso   1.000  H
  C310     1.0000 0.21413  0.32352  0.11601  Biso   1.000  C
  C311     1.0000 0.21094  0.98038  0.11021  Biso   1.000  C
  S23      1.0000 0.20888  0.46486  0.17109  Biso   1.000  S
  H367     1.0000 0.19351  0.27457  0.10560  Biso   1.000  H
  H368     1.0000 0.21950  0.35736  0.07161  Biso   1.000  H
  H369     1.0000 0.19211  0.03744  0.11461  Biso   1.000  H
  C312     1.0000 0.22010  0.90110  0.17642  Biso   1.000  C
  H370     1.0000 0.20451  0.91752  0.07140  Biso   1.000  H
  C313     1.0000 0.19187  0.37918  0.23855  Biso   1.000  C
  S24      1.0000 0.18659  0.81542  0.20451  Biso   1.000  S
  H371     1.0000 0.22979  0.96256  0.21357  Biso   1.000  H
  H372     1.0000 0.23661  0.83423  0.16938  Biso   1.000  H
  H373     1.0000 0.17530  0.31471  0.21741  Biso   1.000  H
  H374     1.0000 0.20899  0.32893  0.26860  Biso   1.000  H
  C314     1.0000 0.17691  0.48028  0.28145  Biso   1.000  C
  C315     1.0000 0.16658  0.95485  0.23788  Biso   1.000  C
  O50      1.0000 0.15823  0.40300  0.32249  Biso   1.000  O
  H375     1.0000 0.19379  0.53183  0.31150  Biso   1.000  H
  H376     1.0000 0.16299  0.54354  0.25119  Biso   1.000  H
  H377     1.0000 0.18180  0.00300  0.27342  Biso   1.000  H
  H378     1.0000 0.15879  0.01832  0.20000  Biso   1.000  H
  C316     1.0000 0.13865  0.90240  0.26948  Biso   1.000  C
  C317     1.0000 0.14057  0.47728  0.36295  Biso   1.000  C
  O51      1.0000 0.12586  0.01602  0.30098  Biso   1.000  O
  H379     1.0000 0.12220  0.86286  0.23332  Biso   1.000  H
  H380     1.0000 0.14600  0.83293  0.30461  Biso   1.000  H
  C318     1.0000 0.11235  0.54154  0.33269  Biso   1.000  C
  C319     1.0000 0.15058  0.47608  0.43425  Biso   1.000  C
  C320     1.0000 0.10011  0.99079  0.33508  Biso   1.000  C
  C321     1.0000 0.09451  0.60811  0.37668  Biso   1.000  C
  C322     1.0000 0.09936  0.53994  0.25580  Biso   1.000  C
  C323     1.0000 0.13179  0.54194  0.47611  Biso   1.000  C
  C324     1.0000 0.18124  0.40631  0.46663  Biso   1.000  C
  C325     1.0000 0.06885  0.01211  0.29938  Biso   1.000  C
  C326     1.0000 0.10603  0.95445  0.40492  Biso   1.000  C
  H381     1.0000 0.07540  0.65385  0.35730  Biso   1.000  H
  C327     1.0000 0.10393  0.60891  0.44741  Biso   1.000  C
  C328     1.0000 0.09889  0.40701  0.21865  Biso   1.000  C
  H382     1.0000 0.07710  0.57487  0.24927  Biso   1.000  H
  H383     1.0000 0.11230  0.60320  0.23269  Biso   1.000  H
  H384     1.0000 0.13810  0.54104  0.52497  Biso   1.000  H
  H385     1.0000 0.19960  0.45576  0.45290  Biso   1.000  H
  H386     1.0000 0.18300  0.41401  0.51762  Biso   1.000  H
  C329     1.0000 0.18493  0.26006  0.44922  Biso   1.000  C
  C330     1.0000 0.06344  0.05235  0.22440  Biso   1.000  C
  C331     1.0000 0.04327  0.99389  0.33549  Biso   1.000  C
  C332     1.0000 0.13938  0.92693  0.44300  Biso   1.000  C
  C333     1.0000 0.07970  0.93994  0.43922  Biso   1.000  C
  H387     1.0000 0.09149  0.65495  0.47632  Biso   1.000  H
  C334     1.0000 0.11372  0.39379  0.16021  Biso   1.000  C
  C335     1.0000 0.08267  0.29720  0.23943  Biso   1.000  C
  C336     1.0000 0.21413  0.21512  0.43218  Biso   1.000  C
  C337     1.0000 0.16083  0.16517  0.45140  Biso   1.000  C
  H388     1.0000 0.04010  0.06837  0.21010  Biso   1.000  H
  C338     1.0000 0.08141  0.17508  0.20451  Biso   1.000  C
  H389     1.0000 0.06941  0.97548  0.19699  Biso   1.000  H
  H390     1.0000 0.02189  0.00531  0.31218  Biso   1.000  H
  C339     1.0000 0.04854  0.95946  0.40492  Biso   1.000  C
  C340     1.0000 0.16546  0.02983  0.43798  Biso   1.000  C
  H391     1.0000 0.14660  0.84054  0.42601  Biso   1.000  H
  H392     1.0000 0.13788  0.91502  0.49259  Biso   1.000  H
  H393     1.0000 0.08308  0.91612  0.48679  Biso   1.000  H
  C341     1.0000 0.11286  0.27267  0.12471  Biso   1.000  C
  H394     1.0000 0.12461  0.46827  0.14440  Biso   1.000  H
  O52      1.0000 0.07167  0.30030  0.30155  Biso   1.000  O
  H395     1.0000 0.23089  0.27768  0.42990  Biso   1.000  H
  C342     1.0000 0.21913  0.08198  0.41881  Biso   1.000  C
  O53      1.0000 0.13116  0.20781  0.46534  Biso   1.000  O
  C343     1.0000 0.09708  0.16507  0.14689  Biso   1.000  C
  H396     1.0000 0.03089  0.94925  0.42912  Biso   1.000  H
  C344     1.0000 0.19499  0.98999  0.42181  Biso   1.000  C
  H397     1.0000 0.12321  0.26466  0.08518  Biso   1.000  H
  C345     1.0000 0.04170  0.32683  0.29218  Biso   1.000  C
  H398     1.0000 0.23919  0.05355  0.40762  Biso   1.000  H
  C346     1.0000 0.12710  0.20100  0.53642  Biso   1.000  C
  H399     1.0000 0.09681  0.08248  0.12269  Biso   1.000  H
  H400     1.0000 0.19859  0.89830  0.41269  Biso   1.000  H
  H401     1.0000 0.02930  0.25375  0.26611  Biso   1.000  H
  H402     1.0000 0.03730  0.41121  0.26580  Biso   1.000  H
  C347     1.0000 0.03186  0.34144  0.36958  Biso   1.000  C
  C348     1.0000 0.09308  0.24655  0.53901  Biso   1.000  C
  H403     1.0000 0.14278  0.26026  0.56508  Biso   1.000  H
  H404     1.0000 0.13040  0.10831  0.55399  Biso   1.000  H
  H405     1.0000 0.04379  0.27538  0.40171  Biso   1.000  H
  H406     1.0000 0.03700  0.43243  0.38819  Biso   1.000  H
  O54      1.0000 0.99908  0.31792  0.36202  Biso   1.000  O
  O55      1.0000 0.08601  0.21161  0.60513  Biso   1.000  O
  H407     1.0000 0.09118  0.34454  0.53202  Biso   1.000  H
  H408     1.0000 0.07788  0.20170  0.50217  Biso   1.000  H
  C349     1.0000 0.98364  0.36156  0.41601  Biso   1.000  C
  C350     1.0000 0.05774  0.27087  0.62181  Biso   1.000  C
  H409     1.0000 0.96020  0.36647  0.39901  Biso   1.000  H
  H410     1.0000 0.99118  0.45315  0.42938  Biso   1.000  H
  C351     1.0000 0.98918  0.27407  0.47891  Biso   1.000  C
  C352     1.0000 0.02679  0.22563  0.57948  Biso   1.000  C
  H411     1.0000 0.05949  0.36907  0.61668  Biso   1.000  H
  H412     1.0000 0.05679  0.25235  0.67119  Biso   1.000  H
  O56      1.0000 0.02041  0.29920  0.51710  Biso   1.000  O
  H413     1.0000 0.97268  0.29269  0.50839  Biso   1.000  H
  H414     1.0000 0.98740  0.17888  0.46482  Biso   1.000  H
  H415     1.0000 0.02819  0.12913  0.56881  Biso   1.000  H
  H416     1.0000 0.00898  0.23834  0.60632  Biso   1.000  H
