data_image0
_cell_length_a       8.402
_cell_length_b       8.402
_cell_length_c       26.022
_cell_angle_alpha    90
_cell_angle_beta     90
_cell_angle_gamma    120

_symmetry_space_group_name_H-M    "P 1"
_symmetry_int_tables_number       1

loop_
  _symmetry_equiv_pos_as_xyz
  'x, y, z'

loop_
  _atom_site_label
  _atom_site_occupancy
  _atom_site_fract_x
  _atom_site_fract_y
  _atom_site_fract_z
  _atom_site_thermal_displace_type
  _atom_site_B_iso_or_equiv
  _atom_site_type_symbol
  C1       1.0000 0.82879  0.16794  0.60929  Biso   1.000  C
  C2       1.0000 0.85116  0.03106  0.57674  Biso   1.000  C
  C3       1.0000 0.85128  0.03106  0.57674  Biso   1.000  C
  H1       1.0000 0.94825  0.27569  0.61502  Biso   1.000  H
  H2       1.0000 0.75313  0.20656  0.59100  Biso   1.000  H
  N1       1.0000 0.74395  0.08919  0.65883  Biso   1.000  N
  H3       1.0000 0.94837  0.27569  0.61502  Biso   1.000  H
  N2       1.0000 0.74407  0.08919  0.65883  Biso   1.000  N
  H4       1.0000 0.87679  0.07518  0.54162  Biso   1.000  H
  H5       1.0000 0.73657  0.91493  0.57678  Biso   1.000  H
  N3       1.0000 0.00000  0.00000  0.59488  Biso   1.000  N
  H6       1.0000 0.73645  0.91493  0.57678  Biso   1.000  H
  H7       1.0000 0.63218  0.00014  0.65829  Biso   1.000  H
  C4       1.0000 0.82175  0.14100  0.70371  Biso   1.000  C
  H8       1.0000 0.63206  0.00014  0.65829  Biso   1.000  H
  C5       1.0000 0.82163  0.14100  0.70371  Biso   1.000  C
  C6       1.0000 0.96903  0.82024  0.57674  Biso   1.000  C
  C7       1.0000 0.17987  0.14884  0.57674  Biso   1.000  C
  C8       1.0000 0.17975  0.14884  0.57674  Biso   1.000  C
  H9       1.0000 0.94394  0.23446  0.70479  Biso   1.000  H
  C9       1.0000 0.73450  0.06624  0.75002  Biso   1.000  C
  C10      1.0000 0.73457  0.06638  0.75002  Biso   1.000  C
  H10      1.0000 0.94382  0.23446  0.70479  Biso   1.000  H
  H11      1.0000 0.92482  0.80155  0.54162  Biso   1.000  H
  C11      1.0000 0.83214  0.66096  0.60929  Biso   1.000  C
  H12      1.0000 0.92488  0.80169  0.54162  Biso   1.000  H
  H13      1.0000 0.92470  0.80155  0.54162  Biso   1.000  H
  H14      1.0000 0.08505  0.82161  0.57678  Biso   1.000  H
  H15      1.0000 0.08517  0.82161  0.57678  Biso   1.000  H
  H16      1.0000 0.17838  0.26346  0.57678  Biso   1.000  H
  H17      1.0000 0.19832  0.12314  0.54162  Biso   1.000  H
  C12      1.0000 0.33913  0.17124  0.60929  Biso   1.000  C
  H18      1.0000 0.19839  0.12328  0.54162  Biso   1.000  H
  C13      1.0000 0.82175  0.14100  0.79629  Biso   1.000  C
  C14      1.0000 0.82163  0.14100  0.79629  Biso   1.000  C
  H19      1.0000 0.61644  0.96509  0.75002  Biso   1.000  H
  H20      1.0000 0.61632  0.96509  0.75002  Biso   1.000  H
  H21      1.0000 0.72432  0.67264  0.61502  Biso   1.000  H
  H22      1.0000 0.79354  0.54661  0.59100  Biso   1.000  H
  N4       1.0000 0.91082  0.65477  0.65883  Biso   1.000  N
  H23      1.0000 0.32743  0.05167  0.61502  Biso   1.000  H
  H24      1.0000 0.45334  0.24683  0.59100  Biso   1.000  H
  N5       1.0000 0.34523  0.25604  0.65883  Biso   1.000  N
  H25      1.0000 0.45340  0.24696  0.59100  Biso   1.000  H
  H26      1.0000 0.32731  0.05167  0.61502  Biso   1.000  H
  N6       1.0000 0.74395  0.08919  0.84117  Biso   1.000  N
  H27      1.0000 0.94394  0.23446  0.79521  Biso   1.000  H
  N7       1.0000 0.74407  0.08919  0.84117  Biso   1.000  N
  H28      1.0000 0.94382  0.23446  0.79521  Biso   1.000  H
  H29      1.0000 0.99986  0.63196  0.65829  Biso   1.000  H
  C15      1.0000 0.85906  0.68075  0.70371  Biso   1.000  C
  H30      1.0000 0.99993  0.63210  0.65829  Biso   1.000  H
  C16      1.0000 0.85894  0.68075  0.70371  Biso   1.000  C
  H31      1.0000 0.36796  0.36790  0.65829  Biso   1.000  H
  C17      1.0000 0.31931  0.17825  0.70371  Biso   1.000  C
  C18      1.0000 0.31938  0.17839  0.70371  Biso   1.000  C
  C19      1.0000 0.31919  0.17825  0.70371  Biso   1.000  C
  C20      1.0000 0.82879  0.16794  0.89071  Biso   1.000  C
  H32      1.0000 0.63218  0.00014  0.84171  Biso   1.000  H
  H33      1.0000 0.63206  0.00014  0.84171  Biso   1.000  H
  H34      1.0000 0.76559  0.70947  0.70479  Biso   1.000  H
  C21      1.0000 0.93374  0.66824  0.75002  Biso   1.000  C
  H35      1.0000 0.76547  0.70947  0.70479  Biso   1.000  H
  H36      1.0000 0.29059  0.05607  0.70479  Biso   1.000  H
  C22      1.0000 0.33176  0.26552  0.75002  Biso   1.000  C
  C23      1.0000 0.85128  0.03106  0.92326  Biso   1.000  C
  H37      1.0000 0.94825  0.27569  0.88498  Biso   1.000  H
  H38      1.0000 0.75313  0.20656  0.90900  Biso   1.000  H
  H39      1.0000 0.94837  0.27569  0.88498  Biso   1.000  H
  C24      1.0000 0.85116  0.03106  0.92326  Biso   1.000  C
  C25      1.0000 0.85906  0.68075  0.79629  Biso   1.000  C
  C26      1.0000 0.85894  0.68075  0.79629  Biso   1.000  C
  H40      1.0000 0.03490  0.65134  0.75002  Biso   1.000  H
  H41      1.0000 0.34865  0.38357  0.75002  Biso   1.000  H
  C27      1.0000 0.31931  0.17825  0.79629  Biso   1.000  C
  C28      1.0000 0.31938  0.17839  0.79629  Biso   1.000  C
  C29      1.0000 0.31919  0.17825  0.79629  Biso   1.000  C
  H42      1.0000 0.87679  0.07518  0.95838  Biso   1.000  H
  H43      1.0000 0.73657  0.91493  0.92322  Biso   1.000  H
  N8       1.0000 0.00000  0.00000  0.90512  Biso   1.000  N
  H44      1.0000 0.73645  0.91493  0.92322  Biso   1.000  H
  N9       1.0000 0.91082  0.65477  0.84117  Biso   1.000  N
  H45      1.0000 0.76559  0.70947  0.79521  Biso   1.000  H
  H46      1.0000 0.76547  0.70947  0.79521  Biso   1.000  H
  N10      1.0000 0.34523  0.25604  0.84117  Biso   1.000  N
  H47      1.0000 0.29059  0.05607  0.79521  Biso   1.000  H
  C30      1.0000 0.96903  0.82024  0.92326  Biso   1.000  C
  C31      1.0000 0.17987  0.14884  0.92326  Biso   1.000  C
  C32      1.0000 0.17975  0.14884  0.92326  Biso   1.000  C
  C33      1.0000 0.83214  0.66096  0.89071  Biso   1.000  C
  H48      1.0000 0.99986  0.63196  0.84171  Biso   1.000  H
  H49      1.0000 0.99993  0.63210  0.84171  Biso   1.000  H
  C34      1.0000 0.33913  0.17124  0.89071  Biso   1.000  C
  H50      1.0000 0.36796  0.36790  0.84171  Biso   1.000  H
  H51      1.0000 0.92482  0.80155  0.95838  Biso   1.000  H
  H52      1.0000 0.92488  0.80169  0.95838  Biso   1.000  H
  H53      1.0000 0.92470  0.80155  0.95838  Biso   1.000  H
  H54      1.0000 0.08505  0.82161  0.92322  Biso   1.000  H
  H55      1.0000 0.08517  0.82161  0.92322  Biso   1.000  H
  H56      1.0000 0.17838  0.26346  0.92322  Biso   1.000  H
  H57      1.0000 0.19832  0.12314  0.95838  Biso   1.000  H
  H58      1.0000 0.19839  0.12328  0.95838  Biso   1.000  H
  H59      1.0000 0.72432  0.67264  0.88498  Biso   1.000  H
  H60      1.0000 0.79354  0.54661  0.90900  Biso   1.000  H
  H61      1.0000 0.32743  0.05167  0.88498  Biso   1.000  H
  H62      1.0000 0.45334  0.24683  0.90900  Biso   1.000  H
  H63      1.0000 0.45340  0.24696  0.90900  Biso   1.000  H
  H64      1.0000 0.32731  0.05167  0.88498  Biso   1.000  H
  C35      1.0000 0.82879  0.16794  0.60929  Biso   1.000  C
  C36      1.0000 0.85116  0.03106  0.57674  Biso   1.000  C
  C37      1.0000 0.85128  0.03106  0.57674  Biso   1.000  C
  H65      1.0000 0.75313  0.20656  0.59100  Biso   1.000  H
  H66      1.0000 0.94825  0.27569  0.61502  Biso   1.000  H
  N11      1.0000 0.74395  0.08919  0.65883  Biso   1.000  N
  H67      1.0000 0.94837  0.27569  0.61502  Biso   1.000  H
  N12      1.0000 0.74407  0.08919  0.65883  Biso   1.000  N
  N13      1.0000 0.00000  0.00000  0.59488  Biso   1.000  N
  H68      1.0000 0.87679  0.07518  0.54162  Biso   1.000  H
  H69      1.0000 0.73657  0.91493  0.57678  Biso   1.000  H
  H70      1.0000 0.73645  0.91493  0.57678  Biso   1.000  H
  H71      1.0000 0.63218  0.00014  0.65829  Biso   1.000  H
  C38      1.0000 0.82175  0.14100  0.70371  Biso   1.000  C
  H72      1.0000 0.63206  0.00014  0.65829  Biso   1.000  H
  C39      1.0000 0.82163  0.14100  0.70371  Biso   1.000  C
  C40      1.0000 0.96903  0.82024  0.57674  Biso   1.000  C
  C41      1.0000 0.17987  0.14884  0.57674  Biso   1.000  C
  C42      1.0000 0.17975  0.14884  0.57674  Biso   1.000  C
  H73      1.0000 0.94394  0.23446  0.70479  Biso   1.000  H
  C43      1.0000 0.73450  0.06624  0.75002  Biso   1.000  C
  H74      1.0000 0.94382  0.23446  0.70479  Biso   1.000  H
  C44      1.0000 0.73457  0.06638  0.75002  Biso   1.000  C
  H75      1.0000 0.92482  0.80155  0.54162  Biso   1.000  H
  C45      1.0000 0.83214  0.66096  0.60929  Biso   1.000  C
  H76      1.0000 0.92488  0.80169  0.54162  Biso   1.000  H
  H77      1.0000 0.92470  0.80155  0.54162  Biso   1.000  H
  H78      1.0000 0.08505  0.82161  0.57678  Biso   1.000  H
  H79      1.0000 0.08517  0.82161  0.57678  Biso   1.000  H
  H80      1.0000 0.17838  0.26346  0.57678  Biso   1.000  H
  H81      1.0000 0.19832  0.12314  0.54162  Biso   1.000  H
  C46      1.0000 0.33913  0.17124  0.60929  Biso   1.000  C
  H82      1.0000 0.19839  0.12328  0.54162  Biso   1.000  H
  C47      1.0000 0.82175  0.14100  0.79629  Biso   1.000  C
  H83      1.0000 0.61644  0.96509  0.75002  Biso   1.000  H
  H84      1.0000 0.61632  0.96509  0.75002  Biso   1.000  H
  C48      1.0000 0.82163  0.14100  0.79629  Biso   1.000  C
  H85      1.0000 0.72432  0.67264  0.61502  Biso   1.000  H
  H86      1.0000 0.79354  0.54661  0.59100  Biso   1.000  H
  N14      1.0000 0.91082  0.65477  0.65883  Biso   1.000  N
  H87      1.0000 0.32743  0.05167  0.61502  Biso   1.000  H
  H88      1.0000 0.45334  0.24683  0.59100  Biso   1.000  H
  N15      1.0000 0.34523  0.25604  0.65883  Biso   1.000  N
  H89      1.0000 0.45340  0.24696  0.59100  Biso   1.000  H
  H90      1.0000 0.32731  0.05167  0.61502  Biso   1.000  H
  H91      1.0000 0.94394  0.23446  0.79521  Biso   1.000  H
  N16      1.0000 0.74395  0.08919  0.84117  Biso   1.000  N
  H92      1.0000 0.94382  0.23446  0.79521  Biso   1.000  H
  N17      1.0000 0.74407  0.08919  0.84117  Biso   1.000  N
  H93      1.0000 0.99986  0.63196  0.65829  Biso   1.000  H
  C49      1.0000 0.85906  0.68075  0.70371  Biso   1.000  C
  H94      1.0000 0.99993  0.63210  0.65829  Biso   1.000  H
  C50      1.0000 0.85894  0.68075  0.70371  Biso   1.000  C
  H95      1.0000 0.36796  0.36790  0.65829  Biso   1.000  H
  C51      1.0000 0.31931  0.17825  0.70371  Biso   1.000  C
  C52      1.0000 0.31938  0.17839  0.70371  Biso   1.000  C
  C53      1.0000 0.31919  0.17825  0.70371  Biso   1.000  C
  C54      1.0000 0.82879  0.16794  0.89071  Biso   1.000  C
  H96      1.0000 0.63218  0.00014  0.84171  Biso   1.000  H
  H97      1.0000 0.63206  0.00014  0.84171  Biso   1.000  H
  H98      1.0000 0.76559  0.70947  0.70479  Biso   1.000  H
  C55      1.0000 0.93374  0.66824  0.75002  Biso   1.000  C
  H99      1.0000 0.76547  0.70947  0.70479  Biso   1.000  H
  H100     1.0000 0.29059  0.05607  0.70479  Biso   1.000  H
  C56      1.0000 0.33176  0.26552  0.75002  Biso   1.000  C
  C57      1.0000 0.85128  0.03106  0.92326  Biso   1.000  C
  H101     1.0000 0.75313  0.20656  0.90900  Biso   1.000  H
  H102     1.0000 0.94825  0.27569  0.88498  Biso   1.000  H
  C58      1.0000 0.85116  0.03106  0.92326  Biso   1.000  C
  H103     1.0000 0.94837  0.27569  0.88498  Biso   1.000  H
  C59      1.0000 0.85906  0.68075  0.79629  Biso   1.000  C
  C60      1.0000 0.85894  0.68075  0.79629  Biso   1.000  C
  H104     1.0000 0.03490  0.65134  0.75002  Biso   1.000  H
  H105     1.0000 0.34865  0.38357  0.75002  Biso   1.000  H
  C61      1.0000 0.31931  0.17825  0.79629  Biso   1.000  C
  C62      1.0000 0.31938  0.17839  0.79629  Biso   1.000  C
  C63      1.0000 0.31919  0.17825  0.79629  Biso   1.000  C
  N18      1.0000 0.00000  0.00000  0.90512  Biso   1.000  N
  H106     1.0000 0.87679  0.07518  0.95838  Biso   1.000  H
  H107     1.0000 0.73657  0.91493  0.92322  Biso   1.000  H
  H108     1.0000 0.73645  0.91493  0.92322  Biso   1.000  H
  N19      1.0000 0.91082  0.65477  0.84117  Biso   1.000  N
  H109     1.0000 0.76559  0.70947  0.79521  Biso   1.000  H
  H110     1.0000 0.76547  0.70947  0.79521  Biso   1.000  H
  N20      1.0000 0.34523  0.25604  0.84117  Biso   1.000  N
  H111     1.0000 0.29059  0.05607  0.79521  Biso   1.000  H
  C64      1.0000 0.96903  0.82024  0.92326  Biso   1.000  C
  C65      1.0000 0.17987  0.14884  0.92326  Biso   1.000  C
  C66      1.0000 0.17975  0.14884  0.92326  Biso   1.000  C
  C67      1.0000 0.83214  0.66096  0.89071  Biso   1.000  C
  H112     1.0000 0.99986  0.63196  0.84171  Biso   1.000  H
  H113     1.0000 0.99993  0.63210  0.84171  Biso   1.000  H
  C68      1.0000 0.33913  0.17124  0.89071  Biso   1.000  C
  H114     1.0000 0.36796  0.36790  0.84171  Biso   1.000  H
  H115     1.0000 0.92482  0.80155  0.95838  Biso   1.000  H
  H116     1.0000 0.92488  0.80169  0.95838  Biso   1.000  H
  H117     1.0000 0.92470  0.80155  0.95838  Biso   1.000  H
  H118     1.0000 0.08505  0.82161  0.92322  Biso   1.000  H
  H119     1.0000 0.08517  0.82161  0.92322  Biso   1.000  H
  H120     1.0000 0.17838  0.26346  0.92322  Biso   1.000  H
  H121     1.0000 0.19832  0.12314  0.95838  Biso   1.000  H
  H122     1.0000 0.19839  0.12328  0.95838  Biso   1.000  H
  H123     1.0000 0.72432  0.67264  0.88498  Biso   1.000  H
  H124     1.0000 0.79354  0.54661  0.90900  Biso   1.000  H
  H125     1.0000 0.32743  0.05167  0.88498  Biso   1.000  H
  H126     1.0000 0.45334  0.24683  0.90900  Biso   1.000  H
  H127     1.0000 0.45340  0.24696  0.90900  Biso   1.000  H
  H128     1.0000 0.32731  0.05167  0.88498  Biso   1.000  H
  C69      1.0000 0.82879  0.16794  0.60929  Biso   1.000  C
  H129     1.0000 0.75313  0.20656  0.59100  Biso   1.000  H
  H130     1.0000 0.94825  0.27569  0.61502  Biso   1.000  H
  N21      1.0000 0.74395  0.08919  0.65883  Biso   1.000  N
  C70      1.0000 0.85128  0.03106  0.57674  Biso   1.000  C
  H131     1.0000 0.94837  0.27569  0.61502  Biso   1.000  H
  N22      1.0000 0.74407  0.08919  0.65883  Biso   1.000  N
  C71      1.0000 0.85116  0.03106  0.57674  Biso   1.000  C
  C72      1.0000 0.82175  0.14100  0.70371  Biso   1.000  C
  H132     1.0000 0.63218  0.00014  0.65829  Biso   1.000  H
  H133     1.0000 0.63206  0.00014  0.65829  Biso   1.000  H
  C73      1.0000 0.82163  0.14100  0.70371  Biso   1.000  C
  N23      1.0000 0.00000  0.00000  0.59488  Biso   1.000  N
  H134     1.0000 0.87679  0.07518  0.54162  Biso   1.000  H
  H135     1.0000 0.73657  0.91493  0.57678  Biso   1.000  H
  H136     1.0000 0.73645  0.91493  0.57678  Biso   1.000  H
  H137     1.0000 0.94394  0.23446  0.70479  Biso   1.000  H
  C74      1.0000 0.73450  0.06624  0.75002  Biso   1.000  C
  C75      1.0000 0.73457  0.06638  0.75002  Biso   1.000  C
  H138     1.0000 0.94382  0.23446  0.70479  Biso   1.000  H
  C76      1.0000 0.96903  0.82024  0.57674  Biso   1.000  C
  C77      1.0000 0.17987  0.14884  0.57674  Biso   1.000  C
  C78      1.0000 0.17975  0.14884  0.57674  Biso   1.000  C
  C79      1.0000 0.82175  0.14100  0.79629  Biso   1.000  C
  H139     1.0000 0.61644  0.96509  0.75002  Biso   1.000  H
  H140     1.0000 0.61632  0.96509  0.75002  Biso   1.000  H
  C80      1.0000 0.82163  0.14100  0.79629  Biso   1.000  C
  H141     1.0000 0.92482  0.80155  0.54162  Biso   1.000  H
  C81      1.0000 0.83214  0.66096  0.60929  Biso   1.000  C
  H142     1.0000 0.92488  0.80169  0.54162  Biso   1.000  H
  H143     1.0000 0.92470  0.80155  0.54162  Biso   1.000  H
  H144     1.0000 0.08505  0.82161  0.57678  Biso   1.000  H
  H145     1.0000 0.08517  0.82161  0.57678  Biso   1.000  H
  H146     1.0000 0.17838  0.26346  0.57678  Biso   1.000  H
  H147     1.0000 0.19832  0.12314  0.54162  Biso   1.000  H
  C82      1.0000 0.33913  0.17124  0.60929  Biso   1.000  C
  H148     1.0000 0.19839  0.12328  0.54162  Biso   1.000  H
  N24      1.0000 0.74395  0.08919  0.84117  Biso   1.000  N
  H149     1.0000 0.94394  0.23446  0.79521  Biso   1.000  H
  N25      1.0000 0.74407  0.08919  0.84117  Biso   1.000  N
  H150     1.0000 0.94382  0.23446  0.79521  Biso   1.000  H
  H151     1.0000 0.72432  0.67264  0.61502  Biso   1.000  H
  H152     1.0000 0.79354  0.54661  0.59100  Biso   1.000  H
  N26      1.0000 0.91082  0.65477  0.65883  Biso   1.000  N
  H153     1.0000 0.32743  0.05167  0.61502  Biso   1.000  H
  H154     1.0000 0.45334  0.24683  0.59100  Biso   1.000  H
  N27      1.0000 0.34523  0.25604  0.65883  Biso   1.000  N
  H155     1.0000 0.45340  0.24696  0.59100  Biso   1.000  H
  H156     1.0000 0.32731  0.05167  0.61502  Biso   1.000  H
  C83      1.0000 0.82879  0.16794  0.89071  Biso   1.000  C
  H157     1.0000 0.63218  0.00014  0.84171  Biso   1.000  H
  H158     1.0000 0.63206  0.00014  0.84171  Biso   1.000  H
  H159     1.0000 0.99986  0.63196  0.65829  Biso   1.000  H
  C84      1.0000 0.85906  0.68075  0.70371  Biso   1.000  C
  H160     1.0000 0.99993  0.63210  0.65829  Biso   1.000  H
  C85      1.0000 0.85894  0.68075  0.70371  Biso   1.000  C
  H161     1.0000 0.36796  0.36790  0.65829  Biso   1.000  H
  C86      1.0000 0.31931  0.17825  0.70371  Biso   1.000  C
  C87      1.0000 0.31938  0.17839  0.70371  Biso   1.000  C
  C88      1.0000 0.31919  0.17825  0.70371  Biso   1.000  C
  H162     1.0000 0.75313  0.20656  0.90900  Biso   1.000  H
  H163     1.0000 0.94825  0.27569  0.88498  Biso   1.000  H
  C89      1.0000 0.85128  0.03106  0.92326  Biso   1.000  C
  H164     1.0000 0.94837  0.27569  0.88498  Biso   1.000  H
  C90      1.0000 0.85116  0.03106  0.92326  Biso   1.000  C
  H165     1.0000 0.76559  0.70947  0.70479  Biso   1.000  H
  C91      1.0000 0.93374  0.66824  0.75002  Biso   1.000  C
  H166     1.0000 0.76547  0.70947  0.70479  Biso   1.000  H
  H167     1.0000 0.29059  0.05607  0.70479  Biso   1.000  H
  C92      1.0000 0.33176  0.26552  0.75002  Biso   1.000  C
  N28      1.0000 0.00000  0.00000  0.90512  Biso   1.000  N
  H168     1.0000 0.87679  0.07518  0.95838  Biso   1.000  H
  H169     1.0000 0.73657  0.91493  0.92322  Biso   1.000  H
  H170     1.0000 0.73645  0.91493  0.92322  Biso   1.000  H
  C93      1.0000 0.85906  0.68075  0.79629  Biso   1.000  C
  C94      1.0000 0.85894  0.68075  0.79629  Biso   1.000  C
  H171     1.0000 0.03490  0.65134  0.75002  Biso   1.000  H
  H172     1.0000 0.34865  0.38357  0.75002  Biso   1.000  H
  C95      1.0000 0.31931  0.17825  0.79629  Biso   1.000  C
  C96      1.0000 0.31938  0.17839  0.79629  Biso   1.000  C
  C97      1.0000 0.31919  0.17825  0.79629  Biso   1.000  C
  C98      1.0000 0.96903  0.82024  0.92326  Biso   1.000  C
  C99      1.0000 0.17987  0.14884  0.92326  Biso   1.000  C
  C100     1.0000 0.17975  0.14884  0.92326  Biso   1.000  C
  N29      1.0000 0.91082  0.65477  0.84117  Biso   1.000  N
  H173     1.0000 0.76559  0.70947  0.79521  Biso   1.000  H
  H174     1.0000 0.76547  0.70947  0.79521  Biso   1.000  H
  N30      1.0000 0.34523  0.25604  0.84117  Biso   1.000  N
  H175     1.0000 0.29059  0.05607  0.79521  Biso   1.000  H
  H176     1.0000 0.92482  0.80155  0.95838  Biso   1.000  H
  C101     1.0000 0.83214  0.66096  0.89071  Biso   1.000  C
  H177     1.0000 0.92488  0.80169  0.95838  Biso   1.000  H
  H178     1.0000 0.92470  0.80155  0.95838  Biso   1.000  H
  H179     1.0000 0.08505  0.82161  0.92322  Biso   1.000  H
  H180     1.0000 0.08517  0.82161  0.92322  Biso   1.000  H
  H181     1.0000 0.17838  0.26346  0.92322  Biso   1.000  H
  H182     1.0000 0.19832  0.12314  0.95838  Biso   1.000  H
  C102     1.0000 0.33913  0.17124  0.89071  Biso   1.000  C
  H183     1.0000 0.19839  0.12328  0.95838  Biso   1.000  H
  H184     1.0000 0.99986  0.63196  0.84171  Biso   1.000  H
  H185     1.0000 0.99993  0.63210  0.84171  Biso   1.000  H
  H186     1.0000 0.36796  0.36790  0.84171  Biso   1.000  H
  H187     1.0000 0.72432  0.67264  0.88498  Biso   1.000  H
  H188     1.0000 0.79354  0.54661  0.90900  Biso   1.000  H
  H189     1.0000 0.32743  0.05167  0.88498  Biso   1.000  H
  H190     1.0000 0.45334  0.24683  0.90900  Biso   1.000  H
  H191     1.0000 0.45340  0.24696  0.90900  Biso   1.000  H
  H192     1.0000 0.32731  0.05167  0.88498  Biso   1.000  H
  C103     1.0000 0.82879  0.16794  0.60929  Biso   1.000  C
  H193     1.0000 0.75313  0.20656  0.59100  Biso   1.000  H
  C104     1.0000 0.85128  0.03106  0.57674  Biso   1.000  C
  H194     1.0000 0.94825  0.27569  0.61502  Biso   1.000  H
  N31      1.0000 0.74395  0.08919  0.65883  Biso   1.000  N
  H195     1.0000 0.94837  0.27569  0.61502  Biso   1.000  H
  N32      1.0000 0.74407  0.08919  0.65883  Biso   1.000  N
  C105     1.0000 0.85116  0.03106  0.57674  Biso   1.000  C
  N33      1.0000 0.00000  0.00000  0.59488  Biso   1.000  N
  H196     1.0000 0.87679  0.07518  0.54162  Biso   1.000  H
  H197     1.0000 0.73657  0.91493  0.57678  Biso   1.000  H
  H198     1.0000 0.73645  0.91493  0.57678  Biso   1.000  H
  H199     1.0000 0.63218  0.00014  0.65829  Biso   1.000  H
  C106     1.0000 0.82175  0.14100  0.70371  Biso   1.000  C
  H200     1.0000 0.63206  0.00014  0.65829  Biso   1.000  H
  C107     1.0000 0.82163  0.14100  0.70371  Biso   1.000  C
  C108     1.0000 0.96903  0.82024  0.57674  Biso   1.000  C
  C109     1.0000 0.17987  0.14884  0.57674  Biso   1.000  C
  C110     1.0000 0.17975  0.14884  0.57674  Biso   1.000  C
  H201     1.0000 0.94394  0.23446  0.70479  Biso   1.000  H
  C111     1.0000 0.73450  0.06624  0.75002  Biso   1.000  C
  C112     1.0000 0.73457  0.06638  0.75002  Biso   1.000  C
  H202     1.0000 0.94382  0.23446  0.70479  Biso   1.000  H
  H203     1.0000 0.92482  0.80155  0.54162  Biso   1.000  H
  C113     1.0000 0.83214  0.66096  0.60929  Biso   1.000  C
  H204     1.0000 0.92488  0.80169  0.54162  Biso   1.000  H
  H205     1.0000 0.92470  0.80155  0.54162  Biso   1.000  H
  H206     1.0000 0.08505  0.82161  0.57678  Biso   1.000  H
  H207     1.0000 0.08517  0.82161  0.57678  Biso   1.000  H
  H208     1.0000 0.17838  0.26346  0.57678  Biso   1.000  H
  H209     1.0000 0.19832  0.12314  0.54162  Biso   1.000  H
  C114     1.0000 0.33913  0.17124  0.60929  Biso   1.000  C
  H210     1.0000 0.19839  0.12328  0.54162  Biso   1.000  H
  H211     1.0000 0.61644  0.96509  0.75002  Biso   1.000  H
  H212     1.0000 0.61632  0.96509  0.75002  Biso   1.000  H
  C115     1.0000 0.82175  0.14100  0.79629  Biso   1.000  C
  C116     1.0000 0.82163  0.14100  0.79629  Biso   1.000  C
  H213     1.0000 0.72432  0.67264  0.61502  Biso   1.000  H
  H214     1.0000 0.79354  0.54661  0.59100  Biso   1.000  H
  N34      1.0000 0.91082  0.65477  0.65883  Biso   1.000  N
  H215     1.0000 0.32743  0.05167  0.61502  Biso   1.000  H
  H216     1.0000 0.45334  0.24683  0.59100  Biso   1.000  H
  N35      1.0000 0.34523  0.25604  0.65883  Biso   1.000  N
  H217     1.0000 0.45340  0.24696  0.59100  Biso   1.000  H
  H218     1.0000 0.32731  0.05167  0.61502  Biso   1.000  H
  N36      1.0000 0.74395  0.08919  0.84117  Biso   1.000  N
  H219     1.0000 0.94394  0.23446  0.79521  Biso   1.000  H
  N37      1.0000 0.74407  0.08919  0.84117  Biso   1.000  N
  H220     1.0000 0.94382  0.23446  0.79521  Biso   1.000  H
  H221     1.0000 0.99986  0.63196  0.65829  Biso   1.000  H
  C117     1.0000 0.85906  0.68075  0.70371  Biso   1.000  C
  H222     1.0000 0.99993  0.63210  0.65829  Biso   1.000  H
  C118     1.0000 0.85894  0.68075  0.70371  Biso   1.000  C
  H223     1.0000 0.36796  0.36790  0.65829  Biso   1.000  H
  C119     1.0000 0.31931  0.17825  0.70371  Biso   1.000  C
  C120     1.0000 0.31938  0.17839  0.70371  Biso   1.000  C
  C121     1.0000 0.31919  0.17825  0.70371  Biso   1.000  C
  C122     1.0000 0.82879  0.16794  0.89071  Biso   1.000  C
  H224     1.0000 0.63218  0.00014  0.84171  Biso   1.000  H
  H225     1.0000 0.63206  0.00014  0.84171  Biso   1.000  H
  H226     1.0000 0.76559  0.70947  0.70479  Biso   1.000  H
  C123     1.0000 0.93374  0.66824  0.75002  Biso   1.000  C
  H227     1.0000 0.76547  0.70947  0.70479  Biso   1.000  H
  H228     1.0000 0.29059  0.05607  0.70479  Biso   1.000  H
  C124     1.0000 0.33176  0.26552  0.75002  Biso   1.000  C
  H229     1.0000 0.75313  0.20656  0.90900  Biso   1.000  H
  C125     1.0000 0.85128  0.03106  0.92326  Biso   1.000  C
  H230     1.0000 0.94825  0.27569  0.88498  Biso   1.000  H
  H231     1.0000 0.94837  0.27569  0.88498  Biso   1.000  H
  C126     1.0000 0.85116  0.03106  0.92326  Biso   1.000  C
  C127     1.0000 0.85906  0.68075  0.79629  Biso   1.000  C
  C128     1.0000 0.85894  0.68075  0.79629  Biso   1.000  C
  H232     1.0000 0.03490  0.65134  0.75002  Biso   1.000  H
  H233     1.0000 0.34865  0.38357  0.75002  Biso   1.000  H
  C129     1.0000 0.31931  0.17825  0.79629  Biso   1.000  C
  C130     1.0000 0.31938  0.17839  0.79629  Biso   1.000  C
  C131     1.0000 0.31919  0.17825  0.79629  Biso   1.000  C
  N38      1.0000 0.00000  0.00000  0.90512  Biso   1.000  N
  H234     1.0000 0.87679  0.07518  0.95838  Biso   1.000  H
  H235     1.0000 0.73657  0.91493  0.92322  Biso   1.000  H
  H236     1.0000 0.73645  0.91493  0.92322  Biso   1.000  H
  N39      1.0000 0.91082  0.65477  0.84117  Biso   1.000  N
  H237     1.0000 0.76559  0.70947  0.79521  Biso   1.000  H
  H238     1.0000 0.76547  0.70947  0.79521  Biso   1.000  H
  N40      1.0000 0.34523  0.25604  0.84117  Biso   1.000  N
  H239     1.0000 0.29059  0.05607  0.79521  Biso   1.000  H
  C132     1.0000 0.96903  0.82024  0.92326  Biso   1.000  C
  C133     1.0000 0.17987  0.14884  0.92326  Biso   1.000  C
  C134     1.0000 0.17975  0.14884  0.92326  Biso   1.000  C
  C135     1.0000 0.83214  0.66096  0.89071  Biso   1.000  C
  H240     1.0000 0.99986  0.63196  0.84171  Biso   1.000  H
  H241     1.0000 0.99993  0.63210  0.84171  Biso   1.000  H
  C136     1.0000 0.33913  0.17124  0.89071  Biso   1.000  C
  H242     1.0000 0.36796  0.36790  0.84171  Biso   1.000  H
  H243     1.0000 0.92482  0.80155  0.95838  Biso   1.000  H
  H244     1.0000 0.92488  0.80169  0.95838  Biso   1.000  H
  H245     1.0000 0.92470  0.80155  0.95838  Biso   1.000  H
  H246     1.0000 0.08505  0.82161  0.92322  Biso   1.000  H
  H247     1.0000 0.08517  0.82161  0.92322  Biso   1.000  H
  H248     1.0000 0.17838  0.26346  0.92322  Biso   1.000  H
  H249     1.0000 0.19832  0.12314  0.95838  Biso   1.000  H
  H250     1.0000 0.19839  0.12328  0.95838  Biso   1.000  H
  H251     1.0000 0.72432  0.67264  0.88498  Biso   1.000  H
  H252     1.0000 0.79354  0.54661  0.90900  Biso   1.000  H
  H253     1.0000 0.32743  0.05167  0.88498  Biso   1.000  H
  H254     1.0000 0.45334  0.24683  0.90900  Biso   1.000  H
  H255     1.0000 0.45340  0.24696  0.90900  Biso   1.000  H
  H256     1.0000 0.32731  0.05167  0.88498  Biso   1.000  H
  C137     1.0000 0.17118  0.83201  0.39071  Biso   1.000  C
  N41      1.0000 0.25602  0.91076  0.34117  Biso   1.000  N
  N42      1.0000 0.25590  0.91076  0.34117  Biso   1.000  N
  C138     1.0000 0.14869  0.96889  0.42326  Biso   1.000  C
  H257     1.0000 0.05173  0.72426  0.38498  Biso   1.000  H
  H258     1.0000 0.24685  0.79339  0.40900  Biso   1.000  H
  C139     1.0000 0.14888  0.96903  0.42326  Biso   1.000  C
  H259     1.0000 0.24692  0.79353  0.40900  Biso   1.000  H
  H260     1.0000 0.05161  0.72426  0.38498  Biso   1.000  H
  C140     1.0000 0.14876  0.96903  0.42326  Biso   1.000  C
  C141     1.0000 0.17822  0.85895  0.29629  Biso   1.000  C
  H261     1.0000 0.36780  0.99982  0.34171  Biso   1.000  H
  C142     1.0000 0.17125  0.83215  0.39071  Biso   1.000  C
  H262     1.0000 0.36792  0.99982  0.34171  Biso   1.000  H
  H263     1.0000 0.12318  0.92478  0.45838  Biso   1.000  H
  N43      1.0000 0.99998  0.99995  0.40512  Biso   1.000  N
  H264     1.0000 0.26341  0.08502  0.42322  Biso   1.000  H
  H265     1.0000 0.05604  0.76549  0.29521  Biso   1.000  H
  C143     1.0000 0.26547  0.93371  0.25002  Biso   1.000  C
  H266     1.0000 0.05616  0.76549  0.29521  Biso   1.000  H
  C144     1.0000 0.82011  0.85111  0.42326  Biso   1.000  C
  C145     1.0000 0.82022  0.85111  0.42326  Biso   1.000  C
  C146     1.0000 0.03094  0.17971  0.42326  Biso   1.000  C
  C147     1.0000 0.17822  0.85895  0.20371  Biso   1.000  C
  H267     1.0000 0.38353  0.03486  0.25002  Biso   1.000  H
  H268     1.0000 0.82159  0.73650  0.42322  Biso   1.000  H
  H269     1.0000 0.80165  0.87681  0.45838  Biso   1.000  H
  C148     1.0000 0.66085  0.82871  0.39071  Biso   1.000  C
  H270     1.0000 0.80153  0.87681  0.45838  Biso   1.000  H
  H271     1.0000 0.91493  0.17834  0.42322  Biso   1.000  H
  H272     1.0000 0.91481  0.17834  0.42322  Biso   1.000  H
  H273     1.0000 0.07516  0.19840  0.45838  Biso   1.000  H
  C149     1.0000 0.16783  0.33900  0.39071  Biso   1.000  C
  C150     1.0000 0.16790  0.33913  0.39071  Biso   1.000  C
  N44      1.0000 0.25602  0.91076  0.15883  Biso   1.000  N
  H274     1.0000 0.05604  0.76549  0.20479  Biso   1.000  H
  H275     1.0000 0.05616  0.76549  0.20479  Biso   1.000  H
  N45      1.0000 0.25590  0.91076  0.15883  Biso   1.000  N
  H276     1.0000 0.67254  0.94828  0.38498  Biso   1.000  H
  H277     1.0000 0.54664  0.75313  0.40900  Biso   1.000  H
  N46      1.0000 0.65475  0.74392  0.34117  Biso   1.000  N
  H278     1.0000 0.67266  0.94828  0.38498  Biso   1.000  H
  H279     1.0000 0.27565  0.32731  0.38498  Biso   1.000  H
  H280     1.0000 0.20644  0.45334  0.40900  Biso   1.000  H
  N47      1.0000 0.08916  0.34518  0.34117  Biso   1.000  N
  C151     1.0000 0.17118  0.83201  0.10929  Biso   1.000  C
  H281     1.0000 0.36780  0.99982  0.15829  Biso   1.000  H
  C152     1.0000 0.17125  0.83215  0.10929  Biso   1.000  C
  H282     1.0000 0.36792  0.99982  0.15829  Biso   1.000  H
  H283     1.0000 0.63202  0.63205  0.34171  Biso   1.000  H
  C153     1.0000 0.68067  0.82170  0.29629  Biso   1.000  C
  H284     1.0000 0.63190  0.63205  0.34171  Biso   1.000  H
  H285     1.0000 0.00011  0.36799  0.34171  Biso   1.000  H
  C154     1.0000 0.14092  0.31921  0.29629  Biso   1.000  C
  C155     1.0000 0.14869  0.96889  0.07674  Biso   1.000  C
  H286     1.0000 0.05173  0.72426  0.11502  Biso   1.000  H
  H287     1.0000 0.24685  0.79339  0.09100  Biso   1.000  H
  C156     1.0000 0.14888  0.96903  0.07674  Biso   1.000  C
  H288     1.0000 0.24692  0.79353  0.09100  Biso   1.000  H
  H289     1.0000 0.05161  0.72426  0.11502  Biso   1.000  H
  C157     1.0000 0.14876  0.96903  0.07674  Biso   1.000  C
  C158     1.0000 0.66822  0.73443  0.25002  Biso   1.000  C
  H290     1.0000 0.70938  0.94388  0.29521  Biso   1.000  H
  C159     1.0000 0.66810  0.73443  0.25002  Biso   1.000  C
  H291     1.0000 0.23439  0.29048  0.29521  Biso   1.000  H
  C160     1.0000 0.06624  0.33171  0.25002  Biso   1.000  C
  H292     1.0000 0.23457  0.29062  0.29521  Biso   1.000  H
  H293     1.0000 0.23446  0.29062  0.29521  Biso   1.000  H
  H294     1.0000 0.12318  0.92478  0.04162  Biso   1.000  H
  N48      1.0000 0.99998  0.99995  0.09488  Biso   1.000  N
  H295     1.0000 0.26341  0.08502  0.07678  Biso   1.000  H
  C161     1.0000 0.68067  0.82170  0.20371  Biso   1.000  C
  H296     1.0000 0.65132  0.61638  0.25002  Biso   1.000  H
  H297     1.0000 0.96507  0.34862  0.25002  Biso   1.000  H
  C162     1.0000 0.14092  0.31921  0.20371  Biso   1.000  C
  C163     1.0000 0.82011  0.85111  0.07674  Biso   1.000  C
  C164     1.0000 0.82022  0.85111  0.07674  Biso   1.000  C
  C165     1.0000 0.03094  0.17971  0.07674  Biso   1.000  C
  N49      1.0000 0.65475  0.74392  0.15883  Biso   1.000  N
  H298     1.0000 0.70938  0.94388  0.20479  Biso   1.000  H
  N50      1.0000 0.08916  0.34518  0.15883  Biso   1.000  N
  H299     1.0000 0.23439  0.29048  0.20479  Biso   1.000  H
  H300     1.0000 0.23457  0.29062  0.20479  Biso   1.000  H
  H301     1.0000 0.23446  0.29062  0.20479  Biso   1.000  H
  H302     1.0000 0.82159  0.73650  0.07678  Biso   1.000  H
  H303     1.0000 0.80165  0.87681  0.04162  Biso   1.000  H
  C166     1.0000 0.66085  0.82871  0.10929  Biso   1.000  C
  H304     1.0000 0.80153  0.87681  0.04162  Biso   1.000  H
  H305     1.0000 0.91493  0.17834  0.07678  Biso   1.000  H
  H306     1.0000 0.91481  0.17834  0.07678  Biso   1.000  H
  H307     1.0000 0.07516  0.19840  0.04162  Biso   1.000  H
  C167     1.0000 0.16783  0.33900  0.10929  Biso   1.000  C
  C168     1.0000 0.16790  0.33913  0.10929  Biso   1.000  C
  H308     1.0000 0.63202  0.63205  0.15829  Biso   1.000  H
  H309     1.0000 0.63190  0.63205  0.15829  Biso   1.000  H
  H310     1.0000 0.00011  0.36799  0.15829  Biso   1.000  H
  H311     1.0000 0.67254  0.94828  0.11502  Biso   1.000  H
  H312     1.0000 0.54664  0.75313  0.09100  Biso   1.000  H
  H313     1.0000 0.67266  0.94828  0.11502  Biso   1.000  H
  H314     1.0000 0.27565  0.32731  0.11502  Biso   1.000  H
  H315     1.0000 0.20644  0.45334  0.09100  Biso   1.000  H
  C169     1.0000 0.17118  0.83201  0.39071  Biso   1.000  C
  N51      1.0000 0.25602  0.91076  0.34117  Biso   1.000  N
  N52      1.0000 0.25590  0.91076  0.34117  Biso   1.000  N
  H316     1.0000 0.05173  0.72426  0.38498  Biso   1.000  H
  C170     1.0000 0.14869  0.96889  0.42326  Biso   1.000  C
  H317     1.0000 0.24685  0.79339  0.40900  Biso   1.000  H
  H318     1.0000 0.05161  0.72426  0.38498  Biso   1.000  H
  H319     1.0000 0.24692  0.79353  0.40900  Biso   1.000  H
  C171     1.0000 0.14888  0.96903  0.42326  Biso   1.000  C
  C172     1.0000 0.14876  0.96903  0.42326  Biso   1.000  C
  C173     1.0000 0.17822  0.85895  0.29629  Biso   1.000  C
  H320     1.0000 0.36780  0.99982  0.34171  Biso   1.000  H
  C174     1.0000 0.17125  0.83215  0.39071  Biso   1.000  C
  H321     1.0000 0.36792  0.99982  0.34171  Biso   1.000  H
  N53      1.0000 0.99998  0.99995  0.40512  Biso   1.000  N
  H322     1.0000 0.12318  0.92478  0.45838  Biso   1.000  H
  H323     1.0000 0.26341  0.08502  0.42322  Biso   1.000  H
  C175     1.0000 0.26547  0.93371  0.25002  Biso   1.000  C
  H324     1.0000 0.05604  0.76549  0.29521  Biso   1.000  H
  H325     1.0000 0.05616  0.76549  0.29521  Biso   1.000  H
  C176     1.0000 0.82011  0.85111  0.42326  Biso   1.000  C
  C177     1.0000 0.82022  0.85111  0.42326  Biso   1.000  C
  C178     1.0000 0.03094  0.17971  0.42326  Biso   1.000  C
  C179     1.0000 0.17822  0.85895  0.20371  Biso   1.000  C
  H326     1.0000 0.38353  0.03486  0.25002  Biso   1.000  H
  H327     1.0000 0.82159  0.73650  0.42322  Biso   1.000  H
  H328     1.0000 0.80165  0.87681  0.45838  Biso   1.000  H
  C180     1.0000 0.66085  0.82871  0.39071  Biso   1.000  C
  H329     1.0000 0.80153  0.87681  0.45838  Biso   1.000  H
  H330     1.0000 0.91493  0.17834  0.42322  Biso   1.000  H
  H331     1.0000 0.91481  0.17834  0.42322  Biso   1.000  H
  H332     1.0000 0.07516  0.19840  0.45838  Biso   1.000  H
  C181     1.0000 0.16783  0.33900  0.39071  Biso   1.000  C
  C182     1.0000 0.16790  0.33913  0.39071  Biso   1.000  C
  N54      1.0000 0.25602  0.91076  0.15883  Biso   1.000  N
  H333     1.0000 0.05604  0.76549  0.20479  Biso   1.000  H
  N55      1.0000 0.25590  0.91076  0.15883  Biso   1.000  N
  H334     1.0000 0.05616  0.76549  0.20479  Biso   1.000  H
  H335     1.0000 0.67254  0.94828  0.38498  Biso   1.000  H
  H336     1.0000 0.54664  0.75313  0.40900  Biso   1.000  H
  N56      1.0000 0.65475  0.74392  0.34117  Biso   1.000  N
  H337     1.0000 0.67266  0.94828  0.38498  Biso   1.000  H
  H338     1.0000 0.27565  0.32731  0.38498  Biso   1.000  H
  H339     1.0000 0.20644  0.45334  0.40900  Biso   1.000  H
  N57      1.0000 0.08916  0.34518  0.34117  Biso   1.000  N
  C183     1.0000 0.17118  0.83201  0.10929  Biso   1.000  C
  H340     1.0000 0.36780  0.99982  0.15829  Biso   1.000  H
  C184     1.0000 0.17125  0.83215  0.10929  Biso   1.000  C
  H341     1.0000 0.36792  0.99982  0.15829  Biso   1.000  H
  H342     1.0000 0.63202  0.63205  0.34171  Biso   1.000  H
  C185     1.0000 0.68067  0.82170  0.29629  Biso   1.000  C
  H343     1.0000 0.63190  0.63205  0.34171  Biso   1.000  H
  H344     1.0000 0.00011  0.36799  0.34171  Biso   1.000  H
  C186     1.0000 0.14092  0.31921  0.29629  Biso   1.000  C
  H345     1.0000 0.05173  0.72426  0.11502  Biso   1.000  H
  C187     1.0000 0.14869  0.96889  0.07674  Biso   1.000  C
  H346     1.0000 0.24685  0.79339  0.09100  Biso   1.000  H
  H347     1.0000 0.05161  0.72426  0.11502  Biso   1.000  H
  H348     1.0000 0.24692  0.79353  0.09100  Biso   1.000  H
  C188     1.0000 0.14888  0.96903  0.07674  Biso   1.000  C
  C189     1.0000 0.14876  0.96903  0.07674  Biso   1.000  C
  C190     1.0000 0.66822  0.73443  0.25002  Biso   1.000  C
  H349     1.0000 0.70938  0.94388  0.29521  Biso   1.000  H
  C191     1.0000 0.66810  0.73443  0.25002  Biso   1.000  C
  H350     1.0000 0.23439  0.29048  0.29521  Biso   1.000  H
  C192     1.0000 0.06624  0.33171  0.25002  Biso   1.000  C
  H351     1.0000 0.23457  0.29062  0.29521  Biso   1.000  H
  H352     1.0000 0.23446  0.29062  0.29521  Biso   1.000  H
  N58      1.0000 0.99998  0.99995  0.09488  Biso   1.000  N
  H353     1.0000 0.12318  0.92478  0.04162  Biso   1.000  H
  H354     1.0000 0.26341  0.08502  0.07678  Biso   1.000  H
  C193     1.0000 0.68067  0.82170  0.20371  Biso   1.000  C
  H355     1.0000 0.65132  0.61638  0.25002  Biso   1.000  H
  H356     1.0000 0.96507  0.34862  0.25002  Biso   1.000  H
  C194     1.0000 0.14092  0.31921  0.20371  Biso   1.000  C
  C195     1.0000 0.82011  0.85111  0.07674  Biso   1.000  C
  C196     1.0000 0.82022  0.85111  0.07674  Biso   1.000  C
  C197     1.0000 0.03094  0.17971  0.07674  Biso   1.000  C
  N59      1.0000 0.65475  0.74392  0.15883  Biso   1.000  N
  H357     1.0000 0.70938  0.94388  0.20479  Biso   1.000  H
  N60      1.0000 0.08916  0.34518  0.15883  Biso   1.000  N
  H358     1.0000 0.23439  0.29048  0.20479  Biso   1.000  H
  H359     1.0000 0.23457  0.29062  0.20479  Biso   1.000  H
  H360     1.0000 0.23446  0.29062  0.20479  Biso   1.000  H
  H361     1.0000 0.82159  0.73650  0.07678  Biso   1.000  H
  H362     1.0000 0.80165  0.87681  0.04162  Biso   1.000  H
  C198     1.0000 0.66085  0.82871  0.10929  Biso   1.000  C
  H363     1.0000 0.80153  0.87681  0.04162  Biso   1.000  H
  H364     1.0000 0.91493  0.17834  0.07678  Biso   1.000  H
  H365     1.0000 0.91481  0.17834  0.07678  Biso   1.000  H
  H366     1.0000 0.07516  0.19840  0.04162  Biso   1.000  H
  C199     1.0000 0.16783  0.33900  0.10929  Biso   1.000  C
  C200     1.0000 0.16790  0.33913  0.10929  Biso   1.000  C
  H367     1.0000 0.63202  0.63205  0.15829  Biso   1.000  H
  H368     1.0000 0.63190  0.63205  0.15829  Biso   1.000  H
  H369     1.0000 0.00011  0.36799  0.15829  Biso   1.000  H
  H370     1.0000 0.67254  0.94828  0.11502  Biso   1.000  H
  H371     1.0000 0.54664  0.75313  0.09100  Biso   1.000  H
  H372     1.0000 0.67266  0.94828  0.11502  Biso   1.000  H
  H373     1.0000 0.27565  0.32731  0.11502  Biso   1.000  H
  H374     1.0000 0.20644  0.45334  0.09100  Biso   1.000  H
  C201     1.0000 0.17118  0.83201  0.39071  Biso   1.000  C
  N61      1.0000 0.25602  0.91076  0.34117  Biso   1.000  N
  N62      1.0000 0.25590  0.91076  0.34117  Biso   1.000  N
  C202     1.0000 0.14869  0.96889  0.42326  Biso   1.000  C
  H375     1.0000 0.05173  0.72426  0.38498  Biso   1.000  H
  H376     1.0000 0.24685  0.79339  0.40900  Biso   1.000  H
  C203     1.0000 0.14888  0.96903  0.42326  Biso   1.000  C
  H377     1.0000 0.24692  0.79353  0.40900  Biso   1.000  H
  H378     1.0000 0.05161  0.72426  0.38498  Biso   1.000  H
  C204     1.0000 0.14876  0.96903  0.42326  Biso   1.000  C
  C205     1.0000 0.17822  0.85895  0.29629  Biso   1.000  C
  H379     1.0000 0.36780  0.99982  0.34171  Biso   1.000  H
  C206     1.0000 0.17125  0.83215  0.39071  Biso   1.000  C
  H380     1.0000 0.36792  0.99982  0.34171  Biso   1.000  H
  N63      1.0000 0.99998  0.99995  0.40512  Biso   1.000  N
  H381     1.0000 0.12318  0.92478  0.45838  Biso   1.000  H
  H382     1.0000 0.26341  0.08502  0.42322  Biso   1.000  H
  C207     1.0000 0.26547  0.93371  0.25002  Biso   1.000  C
  H383     1.0000 0.05604  0.76549  0.29521  Biso   1.000  H
  H384     1.0000 0.05616  0.76549  0.29521  Biso   1.000  H
  C208     1.0000 0.82011  0.85111  0.42326  Biso   1.000  C
  C209     1.0000 0.82022  0.85111  0.42326  Biso   1.000  C
  C210     1.0000 0.03094  0.17971  0.42326  Biso   1.000  C
  C211     1.0000 0.17822  0.85895  0.20371  Biso   1.000  C
  H385     1.0000 0.38353  0.03486  0.25002  Biso   1.000  H
  H386     1.0000 0.82159  0.73650  0.42322  Biso   1.000  H
  H387     1.0000 0.80165  0.87681  0.45838  Biso   1.000  H
  C212     1.0000 0.66085  0.82871  0.39071  Biso   1.000  C
  H388     1.0000 0.80153  0.87681  0.45838  Biso   1.000  H
  H389     1.0000 0.91493  0.17834  0.42322  Biso   1.000  H
  H390     1.0000 0.91481  0.17834  0.42322  Biso   1.000  H
  H391     1.0000 0.07516  0.19840  0.45838  Biso   1.000  H
  C213     1.0000 0.16783  0.33900  0.39071  Biso   1.000  C
  C214     1.0000 0.16790  0.33913  0.39071  Biso   1.000  C
  H392     1.0000 0.05604  0.76549  0.20479  Biso   1.000  H
  N64      1.0000 0.25602  0.91076  0.15883  Biso   1.000  N
  H393     1.0000 0.05616  0.76549  0.20479  Biso   1.000  H
  N65      1.0000 0.25590  0.91076  0.15883  Biso   1.000  N
  H394     1.0000 0.67254  0.94828  0.38498  Biso   1.000  H
  H395     1.0000 0.54664  0.75313  0.40900  Biso   1.000  H
  N66      1.0000 0.65475  0.74392  0.34117  Biso   1.000  N
  H396     1.0000 0.67266  0.94828  0.38498  Biso   1.000  H
  H397     1.0000 0.27565  0.32731  0.38498  Biso   1.000  H
  H398     1.0000 0.20644  0.45334  0.40900  Biso   1.000  H
  N67      1.0000 0.08916  0.34518  0.34117  Biso   1.000  N
  H399     1.0000 0.36780  0.99982  0.15829  Biso   1.000  H
  C215     1.0000 0.17118  0.83201  0.10929  Biso   1.000  C
  C216     1.0000 0.17125  0.83215  0.10929  Biso   1.000  C
  H400     1.0000 0.36792  0.99982  0.15829  Biso   1.000  H
  H401     1.0000 0.63202  0.63205  0.34171  Biso   1.000  H
  C217     1.0000 0.68067  0.82170  0.29629  Biso   1.000  C
  H402     1.0000 0.63190  0.63205  0.34171  Biso   1.000  H
  H403     1.0000 0.00011  0.36799  0.34171  Biso   1.000  H
  C218     1.0000 0.14092  0.31921  0.29629  Biso   1.000  C
  C219     1.0000 0.14869  0.96889  0.07674  Biso   1.000  C
  H404     1.0000 0.05173  0.72426  0.11502  Biso   1.000  H
  H405     1.0000 0.24685  0.79339  0.09100  Biso   1.000  H
  C220     1.0000 0.14888  0.96903  0.07674  Biso   1.000  C
  H406     1.0000 0.24692  0.79353  0.09100  Biso   1.000  H
  H407     1.0000 0.05161  0.72426  0.11502  Biso   1.000  H
  C221     1.0000 0.14876  0.96903  0.07674  Biso   1.000  C
  C222     1.0000 0.66822  0.73443  0.25002  Biso   1.000  C
  H408     1.0000 0.70938  0.94388  0.29521  Biso   1.000  H
  C223     1.0000 0.66810  0.73443  0.25002  Biso   1.000  C
  H409     1.0000 0.23439  0.29048  0.29521  Biso   1.000  H
  C224     1.0000 0.06624  0.33171  0.25002  Biso   1.000  C
  H410     1.0000 0.23457  0.29062  0.29521  Biso   1.000  H
  H411     1.0000 0.23446  0.29062  0.29521  Biso   1.000  H
  N68      1.0000 0.99998  0.99995  0.09488  Biso   1.000  N
  H412     1.0000 0.12318  0.92478  0.04162  Biso   1.000  H
  H413     1.0000 0.26341  0.08502  0.07678  Biso   1.000  H
  C225     1.0000 0.68067  0.82170  0.20371  Biso   1.000  C
  H414     1.0000 0.65132  0.61638  0.25002  Biso   1.000  H
  C226     1.0000 0.14092  0.31921  0.20371  Biso   1.000  C
  H415     1.0000 0.96507  0.34862  0.25002  Biso   1.000  H
  C227     1.0000 0.82011  0.85111  0.07674  Biso   1.000  C
  C228     1.0000 0.82022  0.85111  0.07674  Biso   1.000  C
  C229     1.0000 0.03094  0.17971  0.07674  Biso   1.000  C
  N69      1.0000 0.65475  0.74392  0.15883  Biso   1.000  N
  H416     1.0000 0.70938  0.94388  0.20479  Biso   1.000  H
  N70      1.0000 0.08916  0.34518  0.15883  Biso   1.000  N
  H417     1.0000 0.23439  0.29048  0.20479  Biso   1.000  H
  H418     1.0000 0.23457  0.29062  0.20479  Biso   1.000  H
  H419     1.0000 0.23446  0.29062  0.20479  Biso   1.000  H
  H420     1.0000 0.82159  0.73650  0.07678  Biso   1.000  H
  H421     1.0000 0.80165  0.87681  0.04162  Biso   1.000  H
  C230     1.0000 0.66085  0.82871  0.10929  Biso   1.000  C
  H422     1.0000 0.80153  0.87681  0.04162  Biso   1.000  H
  H423     1.0000 0.91493  0.17834  0.07678  Biso   1.000  H
  H424     1.0000 0.91481  0.17834  0.07678  Biso   1.000  H
  H425     1.0000 0.07516  0.19840  0.04162  Biso   1.000  H
  C231     1.0000 0.16783  0.33900  0.10929  Biso   1.000  C
  C232     1.0000 0.16790  0.33913  0.10929  Biso   1.000  C
  H426     1.0000 0.63202  0.63205  0.15829  Biso   1.000  H
  H427     1.0000 0.63190  0.63205  0.15829  Biso   1.000  H
  H428     1.0000 0.00011  0.36799  0.15829  Biso   1.000  H
  H429     1.0000 0.67254  0.94828  0.11502  Biso   1.000  H
  H430     1.0000 0.54664  0.75313  0.09100  Biso   1.000  H
  H431     1.0000 0.67266  0.94828  0.11502  Biso   1.000  H
  H432     1.0000 0.27565  0.32731  0.11502  Biso   1.000  H
  H433     1.0000 0.20644  0.45334  0.09100  Biso   1.000  H
  C233     1.0000 0.17118  0.83201  0.39071  Biso   1.000  C
  N71      1.0000 0.25602  0.91076  0.34117  Biso   1.000  N
  N72      1.0000 0.25590  0.91076  0.34117  Biso   1.000  N
  C234     1.0000 0.14869  0.96889  0.42326  Biso   1.000  C
  H434     1.0000 0.05173  0.72426  0.38498  Biso   1.000  H
  H435     1.0000 0.24685  0.79339  0.40900  Biso   1.000  H
  C235     1.0000 0.14888  0.96903  0.42326  Biso   1.000  C
  H436     1.0000 0.24692  0.79353  0.40900  Biso   1.000  H
  H437     1.0000 0.05161  0.72426  0.38498  Biso   1.000  H
  C236     1.0000 0.14876  0.96903  0.42326  Biso   1.000  C
  C237     1.0000 0.17822  0.85895  0.29629  Biso   1.000  C
  H438     1.0000 0.36780  0.99982  0.34171  Biso   1.000  H
  C238     1.0000 0.17125  0.83215  0.39071  Biso   1.000  C
  H439     1.0000 0.36792  0.99982  0.34171  Biso   1.000  H
  N73      1.0000 0.99998  0.99995  0.40512  Biso   1.000  N
  H440     1.0000 0.12318  0.92478  0.45838  Biso   1.000  H
  H441     1.0000 0.26341  0.08502  0.42322  Biso   1.000  H
  C239     1.0000 0.26547  0.93371  0.25002  Biso   1.000  C
  H442     1.0000 0.05604  0.76549  0.29521  Biso   1.000  H
  H443     1.0000 0.05616  0.76549  0.29521  Biso   1.000  H
  C240     1.0000 0.82011  0.85111  0.42326  Biso   1.000  C
  C241     1.0000 0.82022  0.85111  0.42326  Biso   1.000  C
  C242     1.0000 0.03094  0.17971  0.42326  Biso   1.000  C
  C243     1.0000 0.17822  0.85895  0.20371  Biso   1.000  C
  H444     1.0000 0.38353  0.03486  0.25002  Biso   1.000  H
  H445     1.0000 0.82159  0.73650  0.42322  Biso   1.000  H
  H446     1.0000 0.80165  0.87681  0.45838  Biso   1.000  H
  C244     1.0000 0.66085  0.82871  0.39071  Biso   1.000  C
  H447     1.0000 0.80153  0.87681  0.45838  Biso   1.000  H
  H448     1.0000 0.91493  0.17834  0.42322  Biso   1.000  H
  H449     1.0000 0.91481  0.17834  0.42322  Biso   1.000  H
  H450     1.0000 0.07516  0.19840  0.45838  Biso   1.000  H
  C245     1.0000 0.16783  0.33900  0.39071  Biso   1.000  C
  C246     1.0000 0.16790  0.33913  0.39071  Biso   1.000  C
  N74      1.0000 0.25602  0.91076  0.15883  Biso   1.000  N
  H451     1.0000 0.05604  0.76549  0.20479  Biso   1.000  H
  H452     1.0000 0.05616  0.76549  0.20479  Biso   1.000  H
  N75      1.0000 0.25590  0.91076  0.15883  Biso   1.000  N
  H453     1.0000 0.67254  0.94828  0.38498  Biso   1.000  H
  H454     1.0000 0.54664  0.75313  0.40900  Biso   1.000  H
  N76      1.0000 0.65475  0.74392  0.34117  Biso   1.000  N
  H455     1.0000 0.67266  0.94828  0.38498  Biso   1.000  H
  H456     1.0000 0.27565  0.32731  0.38498  Biso   1.000  H
  H457     1.0000 0.20644  0.45334  0.40900  Biso   1.000  H
  N77      1.0000 0.08916  0.34518  0.34117  Biso   1.000  N
  C247     1.0000 0.17118  0.83201  0.10929  Biso   1.000  C
  H458     1.0000 0.36780  0.99982  0.15829  Biso   1.000  H
  C248     1.0000 0.17125  0.83215  0.10929  Biso   1.000  C
  H459     1.0000 0.36792  0.99982  0.15829  Biso   1.000  H
  H460     1.0000 0.63202  0.63205  0.34171  Biso   1.000  H
  C249     1.0000 0.68067  0.82170  0.29629  Biso   1.000  C
  H461     1.0000 0.63190  0.63205  0.34171  Biso   1.000  H
  H462     1.0000 0.00011  0.36799  0.34171  Biso   1.000  H
  C250     1.0000 0.14092  0.31921  0.29629  Biso   1.000  C
  C251     1.0000 0.14869  0.96889  0.07674  Biso   1.000  C
  H463     1.0000 0.05173  0.72426  0.11502  Biso   1.000  H
  H464     1.0000 0.24685  0.79339  0.09100  Biso   1.000  H
  C252     1.0000 0.14888  0.96903  0.07674  Biso   1.000  C
  H465     1.0000 0.24692  0.79353  0.09100  Biso   1.000  H
  H466     1.0000 0.05161  0.72426  0.11502  Biso   1.000  H
  C253     1.0000 0.14876  0.96903  0.07674  Biso   1.000  C
  C254     1.0000 0.66822  0.73443  0.25002  Biso   1.000  C
  H467     1.0000 0.70938  0.94388  0.29521  Biso   1.000  H
  C255     1.0000 0.66810  0.73443  0.25002  Biso   1.000  C
  H468     1.0000 0.23439  0.29048  0.29521  Biso   1.000  H
  C256     1.0000 0.06624  0.33171  0.25002  Biso   1.000  C
  H469     1.0000 0.23457  0.29062  0.29521  Biso   1.000  H
  H470     1.0000 0.23446  0.29062  0.29521  Biso   1.000  H
  N78      1.0000 0.99998  0.99995  0.09488  Biso   1.000  N
  H471     1.0000 0.12318  0.92478  0.04162  Biso   1.000  H
  H472     1.0000 0.26341  0.08502  0.07678  Biso   1.000  H
  C257     1.0000 0.68067  0.82170  0.20371  Biso   1.000  C
  H473     1.0000 0.65132  0.61638  0.25002  Biso   1.000  H
  C258     1.0000 0.14092  0.31921  0.20371  Biso   1.000  C
  H474     1.0000 0.96507  0.34862  0.25002  Biso   1.000  H
  C259     1.0000 0.82011  0.85111  0.07674  Biso   1.000  C
  C260     1.0000 0.82022  0.85111  0.07674  Biso   1.000  C
  C261     1.0000 0.03094  0.17971  0.07674  Biso   1.000  C
  N79      1.0000 0.65475  0.74392  0.15883  Biso   1.000  N
  H475     1.0000 0.70938  0.94388  0.20479  Biso   1.000  H
  N80      1.0000 0.08916  0.34518  0.15883  Biso   1.000  N
  H476     1.0000 0.23439  0.29048  0.20479  Biso   1.000  H
  H477     1.0000 0.23457  0.29062  0.20479  Biso   1.000  H
  H478     1.0000 0.23446  0.29062  0.20479  Biso   1.000  H
  H479     1.0000 0.82159  0.73650  0.07678  Biso   1.000  H
  H480     1.0000 0.80165  0.87681  0.04162  Biso   1.000  H
  C262     1.0000 0.66085  0.82871  0.10929  Biso   1.000  C
  H481     1.0000 0.80153  0.87681  0.04162  Biso   1.000  H
  H482     1.0000 0.91493  0.17834  0.07678  Biso   1.000  H
  H483     1.0000 0.91481  0.17834  0.07678  Biso   1.000  H
  H484     1.0000 0.07516  0.19840  0.04162  Biso   1.000  H
  C263     1.0000 0.16783  0.33900  0.10929  Biso   1.000  C
  C264     1.0000 0.16790  0.33913  0.10929  Biso   1.000  C
  H485     1.0000 0.63202  0.63205  0.15829  Biso   1.000  H
  H486     1.0000 0.63190  0.63205  0.15829  Biso   1.000  H
  H487     1.0000 0.00011  0.36799  0.15829  Biso   1.000  H
  H488     1.0000 0.67254  0.94828  0.11502  Biso   1.000  H
  H489     1.0000 0.54664  0.75313  0.09100  Biso   1.000  H
  H490     1.0000 0.67266  0.94828  0.11502  Biso   1.000  H
  H491     1.0000 0.27565  0.32731  0.11502  Biso   1.000  H
  H492     1.0000 0.20644  0.45334  0.09100  Biso   1.000  H
