data_image0
_cell_length_a       24.274
_cell_length_b       24.274
_cell_length_c       24.274
_cell_angle_alpha    90
_cell_angle_beta     90
_cell_angle_gamma    90

_symmetry_space_group_name_H-M    "P 1"
_symmetry_int_tables_number       1

loop_
  _symmetry_equiv_pos_as_xyz
  'x, y, z'

loop_
  _atom_site_label
  _atom_site_occupancy
  _atom_site_fract_x
  _atom_site_fract_y
  _atom_site_fract_z
  _atom_site_thermal_displace_type
  _atom_site_B_iso_or_equiv
  _atom_site_type_symbol
  C1       1.0000 0.36895  0.24689  0.22361  Biso   1.000  C
  C2       1.0000 0.37394  0.30407  0.24429  Biso   1.000  C
  C3       1.0000 0.41942  0.23181  0.18802  Biso   1.000  C
  H1       1.0000 0.33501  0.24331  0.20129  Biso   1.000  H
  H2       1.0000 0.36632  0.22110  0.25509  Biso   1.000  H
  C4       1.0000 0.42527  0.30868  0.28014  Biso   1.000  C
  H3       1.0000 0.34090  0.31379  0.26621  Biso   1.000  H
  H4       1.0000 0.37662  0.32998  0.21290  Biso   1.000  H
  C5       1.0000 0.47232  0.23762  0.22110  Biso   1.000  C
  H5       1.0000 0.42090  0.25628  0.15552  Biso   1.000  H
  H6       1.0000 0.41579  0.19342  0.17480  Biso   1.000  H
  C6       1.0000 0.47697  0.29447  0.24755  Biso   1.000  C
  H7       1.0000 0.42840  0.34671  0.29460  Biso   1.000  H
  H8       1.0000 0.42189  0.28331  0.31190  Biso   1.000  H
  N1       1.0000 0.51953  0.23008  0.18419  Biso   1.000  N
  H9       1.0000 0.47318  0.20878  0.25051  Biso   1.000  H
  N2       1.0000 0.52472  0.29468  0.28421  Biso   1.000  N
  H10      1.0000 0.48249  0.32269  0.21801  Biso   1.000  H
  C7       1.0000 0.54791  0.18786  0.19070  Biso   1.000  C
  C8       1.0000 0.55936  0.33208  0.27593  Biso   1.000  C
  C9       1.0000 0.59751  0.17525  0.15766  Biso   1.000  C
  H11      1.0000 0.53712  0.16240  0.21838  Biso   1.000  H
  C10      1.0000 0.60839  0.33896  0.31149  Biso   1.000  C
  H12      1.0000 0.55401  0.35672  0.24598  Biso   1.000  H
  C11      1.0000 0.62643  0.12693  0.16928  Biso   1.000  C
  C12      1.0000 0.61790  0.21055  0.11712  Biso   1.000  C
  C13      1.0000 0.61757  0.30345  0.35602  Biso   1.000  C
  C14      1.0000 0.64398  0.38243  0.30345  Biso   1.000  C
  C15      1.0000 0.67434  0.11420  0.14089  Biso   1.000  C
  H13      1.0000 0.61321  0.10262  0.19692  Biso   1.000  H
  C16      1.0000 0.66458  0.19803  0.08816  Biso   1.000  C
  H14      1.0000 0.59899  0.24401  0.10950  Biso   1.000  H
  C17      1.0000 0.66104  0.31149  0.39161  Biso   1.000  C
  H15      1.0000 0.59331  0.27330  0.36179  Biso   1.000  H
  C18      1.0000 0.68851  0.39161  0.33896  Biso   1.000  C
  H16      1.0000 0.63821  0.40669  0.27330  Biso   1.000  H
  C19      1.0000 0.70532  0.06299  0.15255  Biso   1.000  C
  C20      1.0000 0.69420  0.15012  0.10011  Biso   1.000  C
  C21      1.0000 0.68411  0.23453  0.04350  Biso   1.000  C
  C22      1.0000 0.66792  0.27593  0.44064  Biso   1.000  C
  C23      1.0000 0.69655  0.35602  0.38243  Biso   1.000  C
  C24      1.0000 0.72407  0.44064  0.33208  Biso   1.000  C
  N3       1.0000 0.68930  0.03020  0.19041  Biso   1.000  N
  H17      1.0000 0.73741  0.05450  0.13170  Biso   1.000  H
  H18      1.0000 0.72728  0.14188  0.08091  Biso   1.000  H
  N4       1.0000 0.72769  0.22468  0.01615  Biso   1.000  N
  H19      1.0000 0.66330  0.26658  0.03489  Biso   1.000  H
  N5       1.0000 0.70532  0.28421  0.47528  Biso   1.000  N
  H20      1.0000 0.64328  0.24598  0.44599  Biso   1.000  H
  H21      1.0000 0.72670  0.36179  0.40669  Biso   1.000  H
  N6       1.0000 0.71579  0.47528  0.29468  Biso   1.000  N
  H22      1.0000 0.75402  0.44599  0.35672  Biso   1.000  H
  C25      1.0000 0.72065  0.97981  0.19626  Biso   1.000  C
  C26      1.0000 0.74347  0.26238  0.97199  Biso   1.000  C
  C27      1.0000 0.70553  0.24755  0.52303  Biso   1.000  C
  C28      1.0000 0.75245  0.52303  0.29447  Biso   1.000  C
  C29      1.0000 0.73762  0.97199  0.25653  Biso   1.000  C
  C30      1.0000 0.68505  0.93157  0.17624  Biso   1.000  C
  H23      1.0000 0.75451  0.98220  0.17290  Biso   1.000  H
  C31      1.0000 0.80374  0.27935  0.97981  Biso   1.000  C
  C32      1.0000 0.73535  0.23379  0.91670  Biso   1.000  C
  H24      1.0000 0.71962  0.29591  0.97359  Biso   1.000  H
  C33      1.0000 0.76238  0.22110  0.52768  Biso   1.000  C
  C34      1.0000 0.69132  0.28014  0.57473  Biso   1.000  C
  H25      1.0000 0.67731  0.21801  0.51751  Biso   1.000  H
  C35      1.0000 0.77890  0.52768  0.23762  Biso   1.000  C
  C36      1.0000 0.71986  0.57473  0.30868  Biso   1.000  C
  H26      1.0000 0.78199  0.51751  0.32269  Biso   1.000  H
  N7       1.0000 0.77532  0.01615  0.27231  Biso   1.000  N
  C37      1.0000 0.76621  0.91670  0.26465  Biso   1.000  C
  H27      1.0000 0.70409  0.97359  0.28038  Biso   1.000  H
  C38      1.0000 0.71488  0.87715  0.18308  Biso   1.000  C
  H28      1.0000 0.65020  0.93071  0.19750  Biso   1.000  H
  H29      1.0000 0.67570  0.93701  0.13690  Biso   1.000  H
  N8       1.0000 0.80959  0.31070  0.03020  Biso   1.000  N
  C39      1.0000 0.82376  0.31495  0.93157  Biso   1.000  C
  H30      1.0000 0.82710  0.24549  0.98220  Biso   1.000  H
  C40      1.0000 0.75645  0.26868  0.86879  Biso   1.000  C
  H31      1.0000 0.75501  0.19811  0.91699  Biso   1.000  H
  H32      1.0000 0.69560  0.22621  0.91130  Biso   1.000  H
  N9       1.0000 0.76992  0.18419  0.48047  Biso   1.000  N
  C41      1.0000 0.76819  0.18802  0.58058  Biso   1.000  C
  H33      1.0000 0.79122  0.25051  0.52682  Biso   1.000  H
  C42      1.0000 0.69593  0.24429  0.62606  Biso   1.000  C
  H34      1.0000 0.65329  0.29460  0.57160  Biso   1.000  H
  H35      1.0000 0.71669  0.31190  0.57811  Biso   1.000  H
  N10      1.0000 0.81581  0.48047  0.23008  Biso   1.000  N
  C43      1.0000 0.81198  0.58058  0.23181  Biso   1.000  C
  H36      1.0000 0.74949  0.52682  0.20878  Biso   1.000  H
  C44      1.0000 0.75571  0.62606  0.30407  Biso   1.000  C
  H37      1.0000 0.70540  0.57160  0.34671  Biso   1.000  H
  H38      1.0000 0.68810  0.57811  0.28331  Biso   1.000  H
  C45      1.0000 0.76547  0.04350  0.31589  Biso   1.000  C
  C46      1.0000 0.73132  0.86879  0.24355  Biso   1.000  C
  H39      1.0000 0.80189  0.91699  0.24499  Biso   1.000  H
  H40      1.0000 0.77379  0.91130  0.30440  Biso   1.000  H
  H41      1.0000 0.69062  0.84658  0.17109  Biso   1.000  H
  H42      1.0000 0.74821  0.87678  0.15959  Biso   1.000  H
  C47      1.0000 0.84745  0.29468  0.06299  Biso   1.000  C
  C48      1.0000 0.81692  0.28512  0.87715  Biso   1.000  C
  H43      1.0000 0.80250  0.34980  0.93071  Biso   1.000  H
  H44      1.0000 0.86310  0.32430  0.93701  Biso   1.000  H
  H45      1.0000 0.73358  0.30230  0.86549  Biso   1.000  H
  H46      1.0000 0.75290  0.24759  0.83410  Biso   1.000  H
  C49      1.0000 0.81214  0.19070  0.45209  Biso   1.000  C
  C50      1.0000 0.75311  0.22361  0.63105  Biso   1.000  C
  H47      1.0000 0.74372  0.15552  0.57910  Biso   1.000  H
  H48      1.0000 0.80658  0.17480  0.58421  Biso   1.000  H
  H49      1.0000 0.68621  0.26621  0.65910  Biso   1.000  H
  H50      1.0000 0.67002  0.21290  0.62338  Biso   1.000  H
  C51      1.0000 0.80930  0.45209  0.18786  Biso   1.000  C
  C52      1.0000 0.77639  0.63105  0.24689  Biso   1.000  C
  H51      1.0000 0.84448  0.57910  0.25628  Biso   1.000  H
  H52      1.0000 0.82520  0.58421  0.19342  Biso   1.000  H
  H53      1.0000 0.73379  0.65910  0.31379  Biso   1.000  H
  H54      1.0000 0.78710  0.62338  0.32998  Biso   1.000  H
  C53      1.0000 0.80197  0.08816  0.33542  Biso   1.000  C
  H55      1.0000 0.73342  0.03489  0.33670  Biso   1.000  H
  H56      1.0000 0.69770  0.86549  0.26642  Biso   1.000  H
  H57      1.0000 0.75241  0.83410  0.24710  Biso   1.000  H
  C54      1.0000 0.85911  0.32566  0.11420  Biso   1.000  C
  H58      1.0000 0.86830  0.26259  0.05450  Biso   1.000  H
  H59      1.0000 0.82891  0.30938  0.84658  Biso   1.000  H
  H60      1.0000 0.84041  0.25179  0.87678  Biso   1.000  H
  C55      1.0000 0.82475  0.15766  0.40249  Biso   1.000  C
  H61      1.0000 0.83760  0.21838  0.46288  Biso   1.000  H
  H62      1.0000 0.75669  0.20129  0.66499  Biso   1.000  H
  H63      1.0000 0.77890  0.25509  0.63368  Biso   1.000  H
  C56      1.0000 0.84234  0.40249  0.17525  Biso   1.000  C
  H64      1.0000 0.78162  0.46288  0.16240  Biso   1.000  H
  H65      1.0000 0.79871  0.66499  0.24331  Biso   1.000  H
  H66      1.0000 0.74491  0.63368  0.22110  Biso   1.000  H
  C57      1.0000 0.84988  0.10011  0.30580  Biso   1.000  C
  C58      1.0000 0.78945  0.11712  0.38210  Biso   1.000  C
  C59      1.0000 0.83072  0.37357  0.12693  Biso   1.000  C
  C60      1.0000 0.89989  0.30580  0.15012  Biso   1.000  C
  C61      1.0000 0.87307  0.16928  0.37357  Biso   1.000  C
  C62      1.0000 0.88288  0.38210  0.21055  Biso   1.000  C
  H67      1.0000 0.85812  0.08091  0.27272  Biso   1.000  H
  C63      1.0000 0.88580  0.14089  0.32566  Biso   1.000  C
  H68      1.0000 0.75599  0.10950  0.40101  Biso   1.000  H
  H69      1.0000 0.80308  0.38679  0.10262  Biso   1.000  H
  C64      1.0000 0.91184  0.33542  0.19803  Biso   1.000  C
  H70      1.0000 0.91909  0.27272  0.14188  Biso   1.000  H
  H71      1.0000 0.89738  0.19692  0.38679  Biso   1.000  H
  H72      1.0000 0.89050  0.40101  0.24401  Biso   1.000  H
  C65      1.0000 0.93701  0.15255  0.29468  Biso   1.000  C
  C66      1.0000 0.95650  0.31589  0.23453  Biso   1.000  C
  N11      1.0000 0.96980  0.19041  0.31070  Biso   1.000  N
  H73      1.0000 0.94550  0.13170  0.26259  Biso   1.000  H
  N12      1.0000 0.98385  0.27231  0.22468  Biso   1.000  N
  H74      1.0000 0.96511  0.33670  0.26658  Biso   1.000  H
  C67      1.0000 0.02019  0.19626  0.27935  Biso   1.000  C
  C68      1.0000 0.02801  0.25653  0.26238  Biso   1.000  C
  C69      1.0000 0.06843  0.17624  0.31495  Biso   1.000  C
  H75      1.0000 0.01780  0.17290  0.24549  Biso   1.000  H
  C70      1.0000 0.08330  0.26465  0.23379  Biso   1.000  C
  H76      1.0000 0.02641  0.28038  0.29591  Biso   1.000  H
  C71      1.0000 0.12285  0.18308  0.28512  Biso   1.000  C
  H77      1.0000 0.06929  0.19750  0.34980  Biso   1.000  H
  H78      1.0000 0.06299  0.13690  0.32430  Biso   1.000  H
  C72      1.0000 0.13121  0.24355  0.26868  Biso   1.000  C
  H79      1.0000 0.08301  0.24499  0.19811  Biso   1.000  H
  H80      1.0000 0.08870  0.30440  0.22621  Biso   1.000  H
  H81      1.0000 0.15342  0.17109  0.30938  Biso   1.000  H
  H82      1.0000 0.12322  0.15959  0.25179  Biso   1.000  H
  H83      1.0000 0.13451  0.26642  0.30230  Biso   1.000  H
  H84      1.0000 0.16590  0.24710  0.24759  Biso   1.000  H
  C73      1.0000 0.24689  0.22361  0.36895  Biso   1.000  C
  C74      1.0000 0.30407  0.24429  0.37394  Biso   1.000  C
  C75      1.0000 0.23181  0.18802  0.41942  Biso   1.000  C
  H85      1.0000 0.24331  0.20129  0.33501  Biso   1.000  H
  H86      1.0000 0.22110  0.25509  0.36632  Biso   1.000  H
  C76      1.0000 0.30868  0.28014  0.42527  Biso   1.000  C
  H87      1.0000 0.31379  0.26621  0.34090  Biso   1.000  H
  H88      1.0000 0.32998  0.21290  0.37662  Biso   1.000  H
  C77      1.0000 0.23762  0.22110  0.47232  Biso   1.000  C
  H89      1.0000 0.25628  0.15552  0.42090  Biso   1.000  H
  H90      1.0000 0.19342  0.17480  0.41579  Biso   1.000  H
  C78      1.0000 0.29447  0.24755  0.47697  Biso   1.000  C
  H91      1.0000 0.34671  0.29460  0.42840  Biso   1.000  H
  H92      1.0000 0.28331  0.31190  0.42189  Biso   1.000  H
  N13      1.0000 0.23008  0.18419  0.51953  Biso   1.000  N
  H93      1.0000 0.20878  0.25051  0.47318  Biso   1.000  H
  N14      1.0000 0.29468  0.28421  0.52472  Biso   1.000  N
  H94      1.0000 0.32269  0.21801  0.48249  Biso   1.000  H
  C79      1.0000 0.18786  0.19070  0.54791  Biso   1.000  C
  C80      1.0000 0.33208  0.27593  0.55936  Biso   1.000  C
  C81      1.0000 0.17525  0.15766  0.59751  Biso   1.000  C
  H95      1.0000 0.16240  0.21838  0.53712  Biso   1.000  H
  C82      1.0000 0.33896  0.31149  0.60839  Biso   1.000  C
  H96      1.0000 0.35672  0.24598  0.55401  Biso   1.000  H
  C83      1.0000 0.21055  0.11712  0.61790  Biso   1.000  C
  C84      1.0000 0.12693  0.16928  0.62643  Biso   1.000  C
  C85      1.0000 0.30345  0.35602  0.61757  Biso   1.000  C
  C86      1.0000 0.38243  0.30345  0.64398  Biso   1.000  C
  C87      1.0000 0.19803  0.08816  0.66458  Biso   1.000  C
  H97      1.0000 0.24401  0.10950  0.59899  Biso   1.000  H
  C88      1.0000 0.11420  0.14089  0.67434  Biso   1.000  C
  H98      1.0000 0.10262  0.19692  0.61321  Biso   1.000  H
  H99      1.0000 0.27330  0.36179  0.59331  Biso   1.000  H
  C89      1.0000 0.31149  0.39161  0.66104  Biso   1.000  C
  C90      1.0000 0.39161  0.33896  0.68851  Biso   1.000  C
  H100     1.0000 0.40669  0.27330  0.63821  Biso   1.000  H
  C91      1.0000 0.23453  0.04350  0.68411  Biso   1.000  C
  C92      1.0000 0.15012  0.10011  0.69420  Biso   1.000  C
  C93      1.0000 0.06299  0.15255  0.70532  Biso   1.000  C
  C94      1.0000 0.27593  0.44064  0.66792  Biso   1.000  C
  C95      1.0000 0.35602  0.38243  0.69655  Biso   1.000  C
  C96      1.0000 0.44064  0.33208  0.72407  Biso   1.000  C
  N15      1.0000 0.22468  0.01615  0.72769  Biso   1.000  N
  H101     1.0000 0.26658  0.03489  0.66330  Biso   1.000  H
  H102     1.0000 0.14188  0.08091  0.72728  Biso   1.000  H
  N16      1.0000 0.03020  0.19041  0.68930  Biso   1.000  N
  H103     1.0000 0.05450  0.13170  0.73741  Biso   1.000  H
  N17      1.0000 0.28421  0.47528  0.70532  Biso   1.000  N
  H104     1.0000 0.24598  0.44599  0.64328  Biso   1.000  H
  H105     1.0000 0.36179  0.40669  0.72670  Biso   1.000  H
  N18      1.0000 0.47528  0.29468  0.71579  Biso   1.000  N
  H106     1.0000 0.44599  0.35672  0.75402  Biso   1.000  H
  C97      1.0000 0.26238  0.97199  0.74347  Biso   1.000  C
  C98      1.0000 0.97981  0.19626  0.72065  Biso   1.000  C
  C99      1.0000 0.24755  0.52303  0.70553  Biso   1.000  C
  C100     1.0000 0.52303  0.29447  0.75245  Biso   1.000  C
  C101     1.0000 0.27935  0.97981  0.80374  Biso   1.000  C
  C102     1.0000 0.23379  0.91670  0.73535  Biso   1.000  C
  H107     1.0000 0.29591  0.97359  0.71962  Biso   1.000  H
  C103     1.0000 0.97199  0.25653  0.73762  Biso   1.000  C
  C104     1.0000 0.93157  0.17624  0.68505  Biso   1.000  C
  H108     1.0000 0.98220  0.17290  0.75451  Biso   1.000  H
  C105     1.0000 0.22110  0.52768  0.76238  Biso   1.000  C
  C106     1.0000 0.28014  0.57473  0.69132  Biso   1.000  C
  H109     1.0000 0.21801  0.51751  0.67731  Biso   1.000  H
  C107     1.0000 0.52768  0.23762  0.77890  Biso   1.000  C
  C108     1.0000 0.57473  0.30868  0.71986  Biso   1.000  C
  H110     1.0000 0.51751  0.32269  0.78199  Biso   1.000  H
  N19      1.0000 0.31070  0.03020  0.80959  Biso   1.000  N
  C109     1.0000 0.31495  0.93157  0.82376  Biso   1.000  C
  H111     1.0000 0.24549  0.98220  0.82710  Biso   1.000  H
  C110     1.0000 0.26868  0.86879  0.75645  Biso   1.000  C
  H112     1.0000 0.19811  0.91699  0.75501  Biso   1.000  H
  H113     1.0000 0.22621  0.91130  0.69560  Biso   1.000  H
  N20      1.0000 0.01615  0.27231  0.77532  Biso   1.000  N
  C111     1.0000 0.91670  0.26465  0.76621  Biso   1.000  C
  H114     1.0000 0.97359  0.28038  0.70409  Biso   1.000  H
  C112     1.0000 0.87715  0.18308  0.71488  Biso   1.000  C
  H115     1.0000 0.93071  0.19750  0.65020  Biso   1.000  H
  H116     1.0000 0.93701  0.13690  0.67570  Biso   1.000  H
  N21      1.0000 0.18419  0.48047  0.76992  Biso   1.000  N
  C113     1.0000 0.18802  0.58058  0.76819  Biso   1.000  C
  H117     1.0000 0.25051  0.52682  0.79122  Biso   1.000  H
  C114     1.0000 0.24429  0.62606  0.69593  Biso   1.000  C
  H118     1.0000 0.29460  0.57160  0.65329  Biso   1.000  H
  H119     1.0000 0.31190  0.57811  0.71669  Biso   1.000  H
  N22      1.0000 0.48047  0.23008  0.81581  Biso   1.000  N
  C115     1.0000 0.58058  0.23181  0.81198  Biso   1.000  C
  H120     1.0000 0.52682  0.20878  0.74949  Biso   1.000  H
  C116     1.0000 0.62606  0.30407  0.75571  Biso   1.000  C
  H121     1.0000 0.57160  0.34671  0.70540  Biso   1.000  H
  H122     1.0000 0.57811  0.28331  0.68810  Biso   1.000  H
  C117     1.0000 0.29468  0.06299  0.84745  Biso   1.000  C
  C118     1.0000 0.28512  0.87715  0.81692  Biso   1.000  C
  H123     1.0000 0.34980  0.93071  0.80250  Biso   1.000  H
  H124     1.0000 0.32430  0.93701  0.86310  Biso   1.000  H
  H125     1.0000 0.30230  0.86549  0.73358  Biso   1.000  H
  H126     1.0000 0.24759  0.83410  0.75290  Biso   1.000  H
  C119     1.0000 0.04350  0.31589  0.76547  Biso   1.000  C
  C120     1.0000 0.86879  0.24355  0.73132  Biso   1.000  C
  H127     1.0000 0.91699  0.24499  0.80189  Biso   1.000  H
  H128     1.0000 0.91130  0.30440  0.77379  Biso   1.000  H
  H129     1.0000 0.84658  0.17109  0.69062  Biso   1.000  H
  H130     1.0000 0.87678  0.15959  0.74821  Biso   1.000  H
  C121     1.0000 0.19070  0.45209  0.81214  Biso   1.000  C
  C122     1.0000 0.22361  0.63105  0.75311  Biso   1.000  C
  H131     1.0000 0.15552  0.57910  0.74372  Biso   1.000  H
  H132     1.0000 0.17480  0.58421  0.80658  Biso   1.000  H
  H133     1.0000 0.26621  0.65910  0.68621  Biso   1.000  H
  H134     1.0000 0.21290  0.62338  0.67002  Biso   1.000  H
  C123     1.0000 0.45209  0.18786  0.80930  Biso   1.000  C
  C124     1.0000 0.63105  0.24689  0.77639  Biso   1.000  C
  H135     1.0000 0.57910  0.25628  0.84448  Biso   1.000  H
  H136     1.0000 0.58421  0.19342  0.82520  Biso   1.000  H
  H137     1.0000 0.65910  0.31379  0.73379  Biso   1.000  H
  H138     1.0000 0.62338  0.32998  0.78710  Biso   1.000  H
  C125     1.0000 0.32566  0.11420  0.85911  Biso   1.000  C
  H139     1.0000 0.26259  0.05450  0.86830  Biso   1.000  H
  H140     1.0000 0.30938  0.84658  0.82891  Biso   1.000  H
  H141     1.0000 0.25179  0.87678  0.84041  Biso   1.000  H
  C126     1.0000 0.08816  0.33542  0.80197  Biso   1.000  C
  H142     1.0000 0.03489  0.33670  0.73342  Biso   1.000  H
  H143     1.0000 0.86549  0.26642  0.69770  Biso   1.000  H
  H144     1.0000 0.83410  0.24710  0.75241  Biso   1.000  H
  C127     1.0000 0.15766  0.40249  0.82475  Biso   1.000  C
  H145     1.0000 0.21838  0.46288  0.83760  Biso   1.000  H
  H146     1.0000 0.20129  0.66499  0.75669  Biso   1.000  H
  H147     1.0000 0.25509  0.63368  0.77890  Biso   1.000  H
  C128     1.0000 0.40249  0.17525  0.84234  Biso   1.000  C
  H148     1.0000 0.46288  0.16240  0.78162  Biso   1.000  H
  H149     1.0000 0.66499  0.24331  0.79871  Biso   1.000  H
  H150     1.0000 0.63368  0.22110  0.74491  Biso   1.000  H
  C129     1.0000 0.37357  0.12693  0.83072  Biso   1.000  C
  C130     1.0000 0.30580  0.15012  0.89989  Biso   1.000  C
  C131     1.0000 0.10011  0.30580  0.84988  Biso   1.000  C
  C132     1.0000 0.11712  0.38210  0.78945  Biso   1.000  C
  C133     1.0000 0.16928  0.37357  0.87307  Biso   1.000  C
  C134     1.0000 0.38210  0.21055  0.88288  Biso   1.000  C
  H151     1.0000 0.38679  0.10262  0.80308  Biso   1.000  H
  C135     1.0000 0.33542  0.19803  0.91184  Biso   1.000  C
  H152     1.0000 0.27272  0.14188  0.91909  Biso   1.000  H
  C136     1.0000 0.14089  0.32566  0.88580  Biso   1.000  C
  H153     1.0000 0.08091  0.27272  0.85812  Biso   1.000  H
  H154     1.0000 0.10950  0.40101  0.75599  Biso   1.000  H
  H155     1.0000 0.19692  0.38679  0.89738  Biso   1.000  H
  H156     1.0000 0.40101  0.24401  0.89050  Biso   1.000  H
  C137     1.0000 0.31589  0.23453  0.95650  Biso   1.000  C
  C138     1.0000 0.15255  0.29468  0.93701  Biso   1.000  C
  N23      1.0000 0.27231  0.22468  0.98385  Biso   1.000  N
  H157     1.0000 0.33670  0.26658  0.96511  Biso   1.000  H
  N24      1.0000 0.19041  0.31070  0.96980  Biso   1.000  N
  H158     1.0000 0.13170  0.26259  0.94550  Biso   1.000  H
  C139     1.0000 0.25653  0.26238  0.02801  Biso   1.000  C
  C140     1.0000 0.19626  0.27935  0.02019  Biso   1.000  C
  C141     1.0000 0.26465  0.23379  0.08330  Biso   1.000  C
  H159     1.0000 0.28038  0.29591  0.02641  Biso   1.000  H
  C142     1.0000 0.17624  0.31495  0.06843  Biso   1.000  C
  H160     1.0000 0.17290  0.24549  0.01780  Biso   1.000  H
  C143     1.0000 0.24355  0.26868  0.13121  Biso   1.000  C
  H161     1.0000 0.24499  0.19811  0.08301  Biso   1.000  H
  H162     1.0000 0.30440  0.22621  0.08870  Biso   1.000  H
  C144     1.0000 0.18308  0.28512  0.12285  Biso   1.000  C
  H163     1.0000 0.19750  0.34980  0.06929  Biso   1.000  H
  H164     1.0000 0.13690  0.32430  0.06299  Biso   1.000  H
  H165     1.0000 0.26642  0.30230  0.13451  Biso   1.000  H
  H166     1.0000 0.24710  0.24759  0.16590  Biso   1.000  H
  H167     1.0000 0.17109  0.30938  0.15342  Biso   1.000  H
  H168     1.0000 0.15959  0.25179  0.12322  Biso   1.000  H
  C145     1.0000 0.22361  0.36895  0.24689  Biso   1.000  C
  C146     1.0000 0.24429  0.37394  0.30407  Biso   1.000  C
  C147     1.0000 0.18802  0.41942  0.23181  Biso   1.000  C
  H169     1.0000 0.20129  0.33501  0.24331  Biso   1.000  H
  H170     1.0000 0.25509  0.36632  0.22110  Biso   1.000  H
  C148     1.0000 0.28014  0.42527  0.30868  Biso   1.000  C
  H171     1.0000 0.26621  0.34090  0.31379  Biso   1.000  H
  H172     1.0000 0.21290  0.37662  0.32998  Biso   1.000  H
  C149     1.0000 0.22110  0.47232  0.23762  Biso   1.000  C
  H173     1.0000 0.15552  0.42090  0.25628  Biso   1.000  H
  H174     1.0000 0.17480  0.41579  0.19342  Biso   1.000  H
  C150     1.0000 0.24755  0.47697  0.29447  Biso   1.000  C
  H175     1.0000 0.29460  0.42840  0.34671  Biso   1.000  H
  H176     1.0000 0.31190  0.42189  0.28331  Biso   1.000  H
  N25      1.0000 0.18419  0.51953  0.23008  Biso   1.000  N
  H177     1.0000 0.25051  0.47318  0.20878  Biso   1.000  H
  N26      1.0000 0.28421  0.52472  0.29468  Biso   1.000  N
  H178     1.0000 0.21801  0.48249  0.32269  Biso   1.000  H
  C151     1.0000 0.19070  0.54791  0.18786  Biso   1.000  C
  C152     1.0000 0.27593  0.55936  0.33208  Biso   1.000  C
  C153     1.0000 0.15766  0.59751  0.17525  Biso   1.000  C
  H179     1.0000 0.21838  0.53712  0.16240  Biso   1.000  H
  C154     1.0000 0.31149  0.60839  0.33896  Biso   1.000  C
  H180     1.0000 0.24598  0.55401  0.35672  Biso   1.000  H
  C155     1.0000 0.16928  0.62643  0.12693  Biso   1.000  C
  C156     1.0000 0.11712  0.61790  0.21055  Biso   1.000  C
  C157     1.0000 0.30345  0.64398  0.38243  Biso   1.000  C
  C158     1.0000 0.35602  0.61757  0.30345  Biso   1.000  C
  C159     1.0000 0.14089  0.67434  0.11420  Biso   1.000  C
  H181     1.0000 0.19692  0.61321  0.10262  Biso   1.000  H
  C160     1.0000 0.08816  0.66458  0.19803  Biso   1.000  C
  H182     1.0000 0.10950  0.59899  0.24401  Biso   1.000  H
  C161     1.0000 0.33896  0.68851  0.39161  Biso   1.000  C
  H183     1.0000 0.27330  0.63821  0.40669  Biso   1.000  H
  C162     1.0000 0.39161  0.66104  0.31149  Biso   1.000  C
  H184     1.0000 0.36179  0.59331  0.27330  Biso   1.000  H
  C163     1.0000 0.15255  0.70532  0.06299  Biso   1.000  C
  C164     1.0000 0.10011  0.69420  0.15012  Biso   1.000  C
  C165     1.0000 0.04350  0.68411  0.23453  Biso   1.000  C
  C166     1.0000 0.33208  0.72407  0.44064  Biso   1.000  C
  C167     1.0000 0.38243  0.69655  0.35602  Biso   1.000  C
  C168     1.0000 0.44064  0.66792  0.27593  Biso   1.000  C
  N27      1.0000 0.19041  0.68930  0.03020  Biso   1.000  N
  H185     1.0000 0.13170  0.73741  0.05450  Biso   1.000  H
  H186     1.0000 0.08091  0.72728  0.14188  Biso   1.000  H
  N28      1.0000 0.01615  0.72769  0.22468  Biso   1.000  N
  H187     1.0000 0.03489  0.66330  0.26658  Biso   1.000  H
  N29      1.0000 0.29468  0.71579  0.47528  Biso   1.000  N
  H188     1.0000 0.35672  0.75402  0.44599  Biso   1.000  H
  H189     1.0000 0.40669  0.72670  0.36179  Biso   1.000  H
  N30      1.0000 0.47528  0.70532  0.28421  Biso   1.000  N
  H190     1.0000 0.44599  0.64328  0.24598  Biso   1.000  H
  C169     1.0000 0.19626  0.72065  0.97981  Biso   1.000  C
  C170     1.0000 0.97199  0.74347  0.26238  Biso   1.000  C
  C171     1.0000 0.29447  0.75245  0.52303  Biso   1.000  C
  C172     1.0000 0.52303  0.70553  0.24755  Biso   1.000  C
  C173     1.0000 0.25653  0.73762  0.97199  Biso   1.000  C
  C174     1.0000 0.17624  0.68505  0.93157  Biso   1.000  C
  H191     1.0000 0.17290  0.75451  0.98220  Biso   1.000  H
  C175     1.0000 0.97981  0.80374  0.27935  Biso   1.000  C
  C176     1.0000 0.91670  0.73535  0.23379  Biso   1.000  C
  H192     1.0000 0.97359  0.71962  0.29591  Biso   1.000  H
  C177     1.0000 0.23762  0.77890  0.52768  Biso   1.000  C
  C178     1.0000 0.30868  0.71986  0.57473  Biso   1.000  C
  H193     1.0000 0.32269  0.78199  0.51751  Biso   1.000  H
  C179     1.0000 0.52768  0.76238  0.22110  Biso   1.000  C
  C180     1.0000 0.57473  0.69132  0.28014  Biso   1.000  C
  H194     1.0000 0.51751  0.67731  0.21801  Biso   1.000  H
  N31      1.0000 0.27231  0.77532  0.01615  Biso   1.000  N
  C181     1.0000 0.26465  0.76621  0.91670  Biso   1.000  C
  H195     1.0000 0.28038  0.70409  0.97359  Biso   1.000  H
  C182     1.0000 0.18308  0.71488  0.87715  Biso   1.000  C
  H196     1.0000 0.19750  0.65020  0.93071  Biso   1.000  H
  H197     1.0000 0.13690  0.67570  0.93701  Biso   1.000  H
  N32      1.0000 0.03020  0.80959  0.31070  Biso   1.000  N
  C183     1.0000 0.93157  0.82376  0.31495  Biso   1.000  C
  H198     1.0000 0.98220  0.82710  0.24549  Biso   1.000  H
  C184     1.0000 0.86879  0.75645  0.26868  Biso   1.000  C
  H199     1.0000 0.91699  0.75501  0.19811  Biso   1.000  H
  H200     1.0000 0.91130  0.69560  0.22621  Biso   1.000  H
  N33      1.0000 0.23008  0.81581  0.48047  Biso   1.000  N
  C185     1.0000 0.23181  0.81198  0.58058  Biso   1.000  C
  H201     1.0000 0.20878  0.74949  0.52682  Biso   1.000  H
  C186     1.0000 0.30407  0.75571  0.62606  Biso   1.000  C
  H202     1.0000 0.34671  0.70540  0.57160  Biso   1.000  H
  H203     1.0000 0.28331  0.68810  0.57811  Biso   1.000  H
  N34      1.0000 0.48047  0.76992  0.18419  Biso   1.000  N
  C187     1.0000 0.58058  0.76819  0.18802  Biso   1.000  C
  H204     1.0000 0.52682  0.79122  0.25051  Biso   1.000  H
  C188     1.0000 0.62606  0.69593  0.24429  Biso   1.000  C
  H205     1.0000 0.57160  0.65329  0.29460  Biso   1.000  H
  H206     1.0000 0.57811  0.71669  0.31190  Biso   1.000  H
  C189     1.0000 0.31589  0.76547  0.04350  Biso   1.000  C
  C190     1.0000 0.24355  0.73132  0.86879  Biso   1.000  C
  H207     1.0000 0.24499  0.80189  0.91699  Biso   1.000  H
  H208     1.0000 0.30440  0.77379  0.91130  Biso   1.000  H
  H209     1.0000 0.17109  0.69062  0.84658  Biso   1.000  H
  H210     1.0000 0.15959  0.74821  0.87678  Biso   1.000  H
  C191     1.0000 0.06299  0.84745  0.29468  Biso   1.000  C
  C192     1.0000 0.87715  0.81692  0.28512  Biso   1.000  C
  H211     1.0000 0.93071  0.80250  0.34980  Biso   1.000  H
  H212     1.0000 0.93701  0.86310  0.32430  Biso   1.000  H
  H213     1.0000 0.86549  0.73358  0.30230  Biso   1.000  H
  H214     1.0000 0.83410  0.75290  0.24759  Biso   1.000  H
  C193     1.0000 0.18786  0.80930  0.45209  Biso   1.000  C
  C194     1.0000 0.24689  0.77639  0.63105  Biso   1.000  C
  H215     1.0000 0.25628  0.84448  0.57910  Biso   1.000  H
  H216     1.0000 0.19342  0.82520  0.58421  Biso   1.000  H
  H217     1.0000 0.31379  0.73379  0.65910  Biso   1.000  H
  H218     1.0000 0.32998  0.78710  0.62338  Biso   1.000  H
  C195     1.0000 0.45209  0.81214  0.19070  Biso   1.000  C
  C196     1.0000 0.63105  0.75311  0.22361  Biso   1.000  C
  H219     1.0000 0.57910  0.74372  0.15552  Biso   1.000  H
  H220     1.0000 0.58421  0.80658  0.17480  Biso   1.000  H
  H221     1.0000 0.65910  0.68621  0.26621  Biso   1.000  H
  H222     1.0000 0.62338  0.67002  0.21290  Biso   1.000  H
  C197     1.0000 0.33542  0.80197  0.08816  Biso   1.000  C
  H223     1.0000 0.33670  0.73342  0.03489  Biso   1.000  H
  H224     1.0000 0.26642  0.69770  0.86549  Biso   1.000  H
  H225     1.0000 0.24710  0.75241  0.83410  Biso   1.000  H
  C198     1.0000 0.11420  0.85911  0.32566  Biso   1.000  C
  H226     1.0000 0.05450  0.86830  0.26259  Biso   1.000  H
  H227     1.0000 0.84658  0.82891  0.30938  Biso   1.000  H
  H228     1.0000 0.87678  0.84041  0.25179  Biso   1.000  H
  C199     1.0000 0.17525  0.84234  0.40249  Biso   1.000  C
  H229     1.0000 0.16240  0.78162  0.46288  Biso   1.000  H
  H230     1.0000 0.24331  0.79871  0.66499  Biso   1.000  H
  H231     1.0000 0.22110  0.74491  0.63368  Biso   1.000  H
  C200     1.0000 0.40249  0.82475  0.15766  Biso   1.000  C
  H232     1.0000 0.46288  0.83760  0.21838  Biso   1.000  H
  H233     1.0000 0.66499  0.75669  0.20129  Biso   1.000  H
  H234     1.0000 0.63368  0.77890  0.25509  Biso   1.000  H
  C201     1.0000 0.30580  0.84988  0.10011  Biso   1.000  C
  C202     1.0000 0.38210  0.78945  0.11712  Biso   1.000  C
  C203     1.0000 0.15012  0.89989  0.30580  Biso   1.000  C
  C204     1.0000 0.12693  0.83072  0.37357  Biso   1.000  C
  C205     1.0000 0.21055  0.88288  0.38210  Biso   1.000  C
  C206     1.0000 0.37357  0.87307  0.16928  Biso   1.000  C
  C207     1.0000 0.32566  0.88580  0.14089  Biso   1.000  C
  H235     1.0000 0.27272  0.85812  0.08091  Biso   1.000  H
  H236     1.0000 0.40101  0.75599  0.10950  Biso   1.000  H
  C208     1.0000 0.19803  0.91184  0.33542  Biso   1.000  C
  H237     1.0000 0.14188  0.91909  0.27272  Biso   1.000  H
  H238     1.0000 0.10262  0.80308  0.38679  Biso   1.000  H
  H239     1.0000 0.24401  0.89050  0.40101  Biso   1.000  H
  H240     1.0000 0.38679  0.89738  0.19692  Biso   1.000  H
  C209     1.0000 0.29468  0.93701  0.15255  Biso   1.000  C
  C210     1.0000 0.23453  0.95650  0.31589  Biso   1.000  C
  N35      1.0000 0.31070  0.96980  0.19041  Biso   1.000  N
  H241     1.0000 0.26259  0.94550  0.13170  Biso   1.000  H
  N36      1.0000 0.22468  0.98385  0.27231  Biso   1.000  N
  H242     1.0000 0.26658  0.96511  0.33670  Biso   1.000  H
  C211     1.0000 0.27935  0.02019  0.19626  Biso   1.000  C
  C212     1.0000 0.26238  0.02801  0.25653  Biso   1.000  C
  C213     1.0000 0.31495  0.06843  0.17624  Biso   1.000  C
  H243     1.0000 0.24549  0.01780  0.17290  Biso   1.000  H
  C214     1.0000 0.23379  0.08330  0.26465  Biso   1.000  C
  H244     1.0000 0.29591  0.02641  0.28038  Biso   1.000  H
  C215     1.0000 0.28512  0.12285  0.18308  Biso   1.000  C
  H245     1.0000 0.34980  0.06929  0.19750  Biso   1.000  H
  H246     1.0000 0.32430  0.06299  0.13690  Biso   1.000  H
  C216     1.0000 0.26868  0.13121  0.24355  Biso   1.000  C
  H247     1.0000 0.19811  0.08301  0.24499  Biso   1.000  H
  H248     1.0000 0.22621  0.08870  0.30440  Biso   1.000  H
  H249     1.0000 0.30938  0.15342  0.17109  Biso   1.000  H
  H250     1.0000 0.25179  0.12322  0.15959  Biso   1.000  H
  H251     1.0000 0.30230  0.13451  0.26642  Biso   1.000  H
  H252     1.0000 0.24759  0.16590  0.24710  Biso   1.000  H
  C217     1.0000 0.13924  0.06196  0.12153  Biso   1.000  C
  C218     1.0000 0.09310  0.07543  0.15313  Biso   1.000  C
  C219     1.0000 0.15313  0.09310  0.07543  Biso   1.000  C
  H253     1.0000 0.16141  0.03131  0.13158  Biso   1.000  H
  C220     1.0000 0.07922  0.04091  0.20133  Biso   1.000  C
  C221     1.0000 0.06196  0.12153  0.13924  Biso   1.000  C
  C222     1.0000 0.20133  0.07922  0.04091  Biso   1.000  C
  C223     1.0000 0.12153  0.13924  0.06196  Biso   1.000  C
  N37      1.0000 0.03687  0.04939  0.22983  Biso   1.000  N
  H254     1.0000 0.10299  0.01141  0.21101  Biso   1.000  H
  C224     1.0000 0.07543  0.15313  0.09310  Biso   1.000  C
  H255     1.0000 0.03131  0.13158  0.16141  Biso   1.000  H
  N38      1.0000 0.22983  0.03687  0.04939  Biso   1.000  N
  H256     1.0000 0.21101  0.10299  0.01141  Biso   1.000  H
  H257     1.0000 0.13158  0.16141  0.03131  Biso   1.000  H
  C225     1.0000 0.02900  0.01228  0.27705  Biso   1.000  C
  C226     1.0000 0.04091  0.20133  0.07922  Biso   1.000  C
  C227     1.0000 0.27705  0.02900  0.01228  Biso   1.000  C
  H258     1.0000 0.03502  0.03300  0.31169  Biso   1.000  H
  C228     1.0000 0.97100  0.98772  0.27705  Biso   1.000  C
  H259     1.0000 0.05648  0.98220  0.27540  Biso   1.000  H
  N39      1.0000 0.04939  0.22983  0.03687  Biso   1.000  N
  H260     1.0000 0.01141  0.21101  0.10299  Biso   1.000  H
  H261     1.0000 0.31169  0.03502  0.03300  Biso   1.000  H
  C229     1.0000 0.27705  0.97100  0.98772  Biso   1.000  C
  H262     1.0000 0.27540  0.05648  0.98220  Biso   1.000  H
  N40      1.0000 0.96313  0.95061  0.22983  Biso   1.000  N
  H263     1.0000 0.96498  0.96700  0.31169  Biso   1.000  H
  H264     1.0000 0.94352  0.01780  0.27540  Biso   1.000  H
  C230     1.0000 0.01228  0.27705  0.02900  Biso   1.000  C
  N41      1.0000 0.22983  0.96313  0.95061  Biso   1.000  N
  H265     1.0000 0.31169  0.96498  0.96700  Biso   1.000  H
  H266     1.0000 0.27540  0.94352  0.01780  Biso   1.000  H
  C231     1.0000 0.92078  0.95909  0.20133  Biso   1.000  C
  H267     1.0000 0.03300  0.31169  0.03502  Biso   1.000  H
  C232     1.0000 0.98772  0.27705  0.97100  Biso   1.000  C
  H268     1.0000 0.98220  0.27540  0.05648  Biso   1.000  H
  C233     1.0000 0.20133  0.92078  0.95909  Biso   1.000  C
  C234     1.0000 0.90690  0.92457  0.15313  Biso   1.000  C
  H269     1.0000 0.89701  0.98859  0.21101  Biso   1.000  H
  N42      1.0000 0.95061  0.22983  0.96313  Biso   1.000  N
  H270     1.0000 0.96700  0.31169  0.96498  Biso   1.000  H
  H271     1.0000 0.01780  0.27540  0.94352  Biso   1.000  H
  C235     1.0000 0.15313  0.90690  0.92457  Biso   1.000  C
  H272     1.0000 0.21101  0.89701  0.98859  Biso   1.000  H
  C236     1.0000 0.86076  0.93804  0.12153  Biso   1.000  C
  C237     1.0000 0.93804  0.87847  0.13924  Biso   1.000  C
  C238     1.0000 0.95909  0.20133  0.92078  Biso   1.000  C
  C239     1.0000 0.13924  0.93804  0.87847  Biso   1.000  C
  C240     1.0000 0.12153  0.86076  0.93804  Biso   1.000  C
  H273     1.0000 0.83859  0.96869  0.13158  Biso   1.000  H
  C241     1.0000 0.84687  0.90690  0.07543  Biso   1.000  C
  C242     1.0000 0.92457  0.84687  0.09310  Biso   1.000  C
  H274     1.0000 0.96869  0.86842  0.16141  Biso   1.000  H
  C243     1.0000 0.92457  0.15313  0.90690  Biso   1.000  C
  H275     1.0000 0.98859  0.21101  0.89701  Biso   1.000  H
  C244     1.0000 0.09310  0.92457  0.84687  Biso   1.000  C
  H276     1.0000 0.16141  0.96869  0.86842  Biso   1.000  H
  C245     1.0000 0.07543  0.84687  0.90690  Biso   1.000  C
  H277     1.0000 0.13158  0.83859  0.96869  Biso   1.000  H
  C246     1.0000 0.79867  0.92078  0.04091  Biso   1.000  C
  C247     1.0000 0.87847  0.86076  0.06196  Biso   1.000  C
  C248     1.0000 0.95909  0.79867  0.07922  Biso   1.000  C
  C249     1.0000 0.87847  0.13924  0.93804  Biso   1.000  C
  C250     1.0000 0.93804  0.12153  0.86076  Biso   1.000  C
  C251     1.0000 0.07922  0.95909  0.79867  Biso   1.000  C
  C252     1.0000 0.06196  0.87847  0.86076  Biso   1.000  C
  C253     1.0000 0.04091  0.79867  0.92078  Biso   1.000  C
  N43      1.0000 0.77017  0.96313  0.04939  Biso   1.000  N
  H278     1.0000 0.78899  0.89701  0.01141  Biso   1.000  H
  H279     1.0000 0.86842  0.83859  0.03131  Biso   1.000  H
  N44      1.0000 0.95061  0.77017  0.03687  Biso   1.000  N
  H280     1.0000 0.98859  0.78899  0.10299  Biso   1.000  H
  C254     1.0000 0.84687  0.09310  0.92457  Biso   1.000  C
  H281     1.0000 0.86842  0.16141  0.96869  Biso   1.000  H
  C255     1.0000 0.90690  0.07543  0.84687  Biso   1.000  C
  H282     1.0000 0.96869  0.13158  0.83859  Biso   1.000  H
  N45      1.0000 0.03687  0.95061  0.77017  Biso   1.000  N
  H283     1.0000 0.10299  0.98859  0.78899  Biso   1.000  H
  H284     1.0000 0.03131  0.86842  0.83859  Biso   1.000  H
  N46      1.0000 0.04939  0.77017  0.96313  Biso   1.000  N
  H285     1.0000 0.01141  0.78899  0.89701  Biso   1.000  H
  C256     1.0000 0.72295  0.97100  0.01228  Biso   1.000  C
  C257     1.0000 0.98772  0.72295  0.02900  Biso   1.000  C
  C258     1.0000 0.79867  0.07922  0.95909  Biso   1.000  C
  C259     1.0000 0.86076  0.06196  0.87847  Biso   1.000  C
  C260     1.0000 0.92078  0.04091  0.79867  Biso   1.000  C
  C261     1.0000 0.02900  0.98772  0.72295  Biso   1.000  C
  C262     1.0000 0.01228  0.72295  0.97100  Biso   1.000  C
  H286     1.0000 0.72460  0.94352  0.98220  Biso   1.000  H
  H287     1.0000 0.68831  0.96498  0.03300  Biso   1.000  H
  C263     1.0000 0.72295  0.02900  0.98772  Biso   1.000  C
  H288     1.0000 0.96700  0.68831  0.03502  Biso   1.000  H
  H289     1.0000 0.01780  0.72460  0.05648  Biso   1.000  H
  N47      1.0000 0.77017  0.03687  0.95061  Biso   1.000  N
  H290     1.0000 0.78899  0.10299  0.98859  Biso   1.000  H
  H291     1.0000 0.83859  0.03131  0.86842  Biso   1.000  H
  N48      1.0000 0.96313  0.04939  0.77017  Biso   1.000  N
  H292     1.0000 0.89701  0.01141  0.78899  Biso   1.000  H
  C264     1.0000 0.97100  0.01228  0.72295  Biso   1.000  C
  H293     1.0000 0.03502  0.96700  0.68831  Biso   1.000  H
  H294     1.0000 0.05648  0.01780  0.72460  Biso   1.000  H
  H295     1.0000 0.98220  0.72460  0.94352  Biso   1.000  H
  H296     1.0000 0.03300  0.68831  0.96498  Biso   1.000  H
  H297     1.0000 0.68831  0.03502  0.96700  Biso   1.000  H
  H298     1.0000 0.72460  0.05648  0.01780  Biso   1.000  H
  H299     1.0000 0.94352  0.98220  0.72460  Biso   1.000  H
  H300     1.0000 0.96498  0.03300  0.68831  Biso   1.000  H
  C265     1.0000 0.13924  0.06196  0.12153  Biso   1.000  C
  C266     1.0000 0.09310  0.07543  0.15313  Biso   1.000  C
  C267     1.0000 0.15313  0.09310  0.07543  Biso   1.000  C
  H301     1.0000 0.16141  0.03131  0.13158  Biso   1.000  H
  C268     1.0000 0.07922  0.04091  0.20133  Biso   1.000  C
  C269     1.0000 0.06196  0.12153  0.13924  Biso   1.000  C
  C270     1.0000 0.20133  0.07922  0.04091  Biso   1.000  C
  C271     1.0000 0.12153  0.13924  0.06196  Biso   1.000  C
  N49      1.0000 0.03687  0.04939  0.22983  Biso   1.000  N
  H302     1.0000 0.10299  0.01141  0.21101  Biso   1.000  H
  C272     1.0000 0.07543  0.15313  0.09310  Biso   1.000  C
  H303     1.0000 0.03131  0.13158  0.16141  Biso   1.000  H
  N50      1.0000 0.22983  0.03687  0.04939  Biso   1.000  N
  H304     1.0000 0.21101  0.10299  0.01141  Biso   1.000  H
  H305     1.0000 0.13158  0.16141  0.03131  Biso   1.000  H
  C273     1.0000 0.02900  0.01228  0.27705  Biso   1.000  C
  C274     1.0000 0.04091  0.20133  0.07922  Biso   1.000  C
  C275     1.0000 0.27705  0.02900  0.01228  Biso   1.000  C
  H306     1.0000 0.03502  0.03300  0.31169  Biso   1.000  H
  C276     1.0000 0.97100  0.98772  0.27705  Biso   1.000  C
  H307     1.0000 0.05648  0.98220  0.27540  Biso   1.000  H
  N51      1.0000 0.04939  0.22983  0.03687  Biso   1.000  N
  H308     1.0000 0.01141  0.21101  0.10299  Biso   1.000  H
  H309     1.0000 0.31169  0.03502  0.03300  Biso   1.000  H
  C277     1.0000 0.27705  0.97100  0.98772  Biso   1.000  C
  H310     1.0000 0.27540  0.05648  0.98220  Biso   1.000  H
  N52      1.0000 0.96313  0.95061  0.22983  Biso   1.000  N
  H311     1.0000 0.96498  0.96700  0.31169  Biso   1.000  H
  H312     1.0000 0.94352  0.01780  0.27540  Biso   1.000  H
  C278     1.0000 0.01228  0.27705  0.02900  Biso   1.000  C
  N53      1.0000 0.22983  0.96313  0.95061  Biso   1.000  N
  H313     1.0000 0.31169  0.96498  0.96700  Biso   1.000  H
  H314     1.0000 0.27540  0.94352  0.01780  Biso   1.000  H
  C279     1.0000 0.92078  0.95909  0.20133  Biso   1.000  C
  H315     1.0000 0.03300  0.31169  0.03502  Biso   1.000  H
  C280     1.0000 0.98772  0.27705  0.97100  Biso   1.000  C
  H316     1.0000 0.98220  0.27540  0.05648  Biso   1.000  H
  C281     1.0000 0.20133  0.92078  0.95909  Biso   1.000  C
  C282     1.0000 0.90690  0.92457  0.15313  Biso   1.000  C
  H317     1.0000 0.89701  0.98859  0.21101  Biso   1.000  H
  N54      1.0000 0.95061  0.22983  0.96313  Biso   1.000  N
  H318     1.0000 0.96700  0.31169  0.96498  Biso   1.000  H
  H319     1.0000 0.01780  0.27540  0.94352  Biso   1.000  H
  C283     1.0000 0.15313  0.90690  0.92457  Biso   1.000  C
  H320     1.0000 0.21101  0.89701  0.98859  Biso   1.000  H
  C284     1.0000 0.86076  0.93804  0.12153  Biso   1.000  C
  C285     1.0000 0.93804  0.87847  0.13924  Biso   1.000  C
  C286     1.0000 0.95909  0.20133  0.92078  Biso   1.000  C
  C287     1.0000 0.13924  0.93804  0.87847  Biso   1.000  C
  C288     1.0000 0.12153  0.86076  0.93804  Biso   1.000  C
  H321     1.0000 0.83859  0.96869  0.13158  Biso   1.000  H
  C289     1.0000 0.84687  0.90690  0.07543  Biso   1.000  C
  C290     1.0000 0.92457  0.84687  0.09310  Biso   1.000  C
  H322     1.0000 0.96869  0.86842  0.16141  Biso   1.000  H
  C291     1.0000 0.92457  0.15313  0.90690  Biso   1.000  C
  H323     1.0000 0.98859  0.21101  0.89701  Biso   1.000  H
  C292     1.0000 0.09310  0.92457  0.84687  Biso   1.000  C
  H324     1.0000 0.16141  0.96869  0.86842  Biso   1.000  H
  C293     1.0000 0.07543  0.84687  0.90690  Biso   1.000  C
  H325     1.0000 0.13158  0.83859  0.96869  Biso   1.000  H
  C294     1.0000 0.79867  0.92078  0.04091  Biso   1.000  C
  C295     1.0000 0.87847  0.86076  0.06196  Biso   1.000  C
  C296     1.0000 0.95909  0.79867  0.07922  Biso   1.000  C
  C297     1.0000 0.87847  0.13924  0.93804  Biso   1.000  C
  C298     1.0000 0.93804  0.12153  0.86076  Biso   1.000  C
  C299     1.0000 0.07922  0.95909  0.79867  Biso   1.000  C
  C300     1.0000 0.06196  0.87847  0.86076  Biso   1.000  C
  C301     1.0000 0.04091  0.79867  0.92078  Biso   1.000  C
  N55      1.0000 0.77017  0.96313  0.04939  Biso   1.000  N
  H326     1.0000 0.78899  0.89701  0.01141  Biso   1.000  H
  H327     1.0000 0.86842  0.83859  0.03131  Biso   1.000  H
  N56      1.0000 0.95061  0.77017  0.03687  Biso   1.000  N
  H328     1.0000 0.98859  0.78899  0.10299  Biso   1.000  H
  C302     1.0000 0.84687  0.09310  0.92457  Biso   1.000  C
  H329     1.0000 0.86842  0.16141  0.96869  Biso   1.000  H
  C303     1.0000 0.90690  0.07543  0.84687  Biso   1.000  C
  H330     1.0000 0.96869  0.13158  0.83859  Biso   1.000  H
  N57      1.0000 0.03687  0.95061  0.77017  Biso   1.000  N
  H331     1.0000 0.10299  0.98859  0.78899  Biso   1.000  H
  H332     1.0000 0.03131  0.86842  0.83859  Biso   1.000  H
  N58      1.0000 0.04939  0.77017  0.96313  Biso   1.000  N
  H333     1.0000 0.01141  0.78899  0.89701  Biso   1.000  H
  C304     1.0000 0.72295  0.97100  0.01228  Biso   1.000  C
  C305     1.0000 0.98772  0.72295  0.02900  Biso   1.000  C
  C306     1.0000 0.79867  0.07922  0.95909  Biso   1.000  C
  C307     1.0000 0.86076  0.06196  0.87847  Biso   1.000  C
  C308     1.0000 0.92078  0.04091  0.79867  Biso   1.000  C
  C309     1.0000 0.02900  0.98772  0.72295  Biso   1.000  C
  C310     1.0000 0.01228  0.72295  0.97100  Biso   1.000  C
  H334     1.0000 0.72460  0.94352  0.98220  Biso   1.000  H
  H335     1.0000 0.68831  0.96498  0.03300  Biso   1.000  H
  C311     1.0000 0.72295  0.02900  0.98772  Biso   1.000  C
  H336     1.0000 0.96700  0.68831  0.03502  Biso   1.000  H
  H337     1.0000 0.01780  0.72460  0.05648  Biso   1.000  H
  N59      1.0000 0.77017  0.03687  0.95061  Biso   1.000  N
  H338     1.0000 0.78899  0.10299  0.98859  Biso   1.000  H
  H339     1.0000 0.83859  0.03131  0.86842  Biso   1.000  H
  N60      1.0000 0.96313  0.04939  0.77017  Biso   1.000  N
  H340     1.0000 0.89701  0.01141  0.78899  Biso   1.000  H
  C312     1.0000 0.97100  0.01228  0.72295  Biso   1.000  C
  H341     1.0000 0.03502  0.96700  0.68831  Biso   1.000  H
  H342     1.0000 0.05648  0.01780  0.72460  Biso   1.000  H
  H343     1.0000 0.98220  0.72460  0.94352  Biso   1.000  H
  H344     1.0000 0.03300  0.68831  0.96498  Biso   1.000  H
  H345     1.0000 0.68831  0.03502  0.96700  Biso   1.000  H
  H346     1.0000 0.72460  0.05648  0.01780  Biso   1.000  H
  H347     1.0000 0.94352  0.98220  0.72460  Biso   1.000  H
  H348     1.0000 0.96498  0.03300  0.68831  Biso   1.000  H
  C313     1.0000 0.13924  0.06196  0.12153  Biso   1.000  C
  C314     1.0000 0.09310  0.07543  0.15313  Biso   1.000  C
  C315     1.0000 0.15313  0.09310  0.07543  Biso   1.000  C
  H349     1.0000 0.16141  0.03131  0.13158  Biso   1.000  H
  C316     1.0000 0.07922  0.04091  0.20133  Biso   1.000  C
  C317     1.0000 0.06196  0.12153  0.13924  Biso   1.000  C
  C318     1.0000 0.20133  0.07922  0.04091  Biso   1.000  C
  C319     1.0000 0.12153  0.13924  0.06196  Biso   1.000  C
  N61      1.0000 0.03687  0.04939  0.22983  Biso   1.000  N
  H350     1.0000 0.10299  0.01141  0.21101  Biso   1.000  H
  C320     1.0000 0.07543  0.15313  0.09310  Biso   1.000  C
  H351     1.0000 0.03131  0.13158  0.16141  Biso   1.000  H
  N62      1.0000 0.22983  0.03687  0.04939  Biso   1.000  N
  H352     1.0000 0.21101  0.10299  0.01141  Biso   1.000  H
  H353     1.0000 0.13158  0.16141  0.03131  Biso   1.000  H
  C321     1.0000 0.02900  0.01228  0.27705  Biso   1.000  C
  C322     1.0000 0.04091  0.20133  0.07922  Biso   1.000  C
  C323     1.0000 0.27705  0.02900  0.01228  Biso   1.000  C
  H354     1.0000 0.03502  0.03300  0.31169  Biso   1.000  H
  C324     1.0000 0.97100  0.98772  0.27705  Biso   1.000  C
  H355     1.0000 0.05648  0.98220  0.27540  Biso   1.000  H
  N63      1.0000 0.04939  0.22983  0.03687  Biso   1.000  N
  H356     1.0000 0.01141  0.21101  0.10299  Biso   1.000  H
  H357     1.0000 0.31169  0.03502  0.03300  Biso   1.000  H
  C325     1.0000 0.27705  0.97100  0.98772  Biso   1.000  C
  H358     1.0000 0.27540  0.05648  0.98220  Biso   1.000  H
  N64      1.0000 0.96313  0.95061  0.22983  Biso   1.000  N
  H359     1.0000 0.96498  0.96700  0.31169  Biso   1.000  H
  H360     1.0000 0.94352  0.01780  0.27540  Biso   1.000  H
  C326     1.0000 0.01228  0.27705  0.02900  Biso   1.000  C
  N65      1.0000 0.22983  0.96313  0.95061  Biso   1.000  N
  H361     1.0000 0.31169  0.96498  0.96700  Biso   1.000  H
  H362     1.0000 0.27540  0.94352  0.01780  Biso   1.000  H
  C327     1.0000 0.92078  0.95909  0.20133  Biso   1.000  C
  H363     1.0000 0.03300  0.31169  0.03502  Biso   1.000  H
  C328     1.0000 0.98772  0.27705  0.97100  Biso   1.000  C
  H364     1.0000 0.98220  0.27540  0.05648  Biso   1.000  H
  C329     1.0000 0.20133  0.92078  0.95909  Biso   1.000  C
  C330     1.0000 0.90690  0.92457  0.15313  Biso   1.000  C
  H365     1.0000 0.89701  0.98859  0.21101  Biso   1.000  H
  N66      1.0000 0.95061  0.22983  0.96313  Biso   1.000  N
  H366     1.0000 0.96700  0.31169  0.96498  Biso   1.000  H
  H367     1.0000 0.01780  0.27540  0.94352  Biso   1.000  H
  C331     1.0000 0.15313  0.90690  0.92457  Biso   1.000  C
  H368     1.0000 0.21101  0.89701  0.98859  Biso   1.000  H
  C332     1.0000 0.86076  0.93804  0.12153  Biso   1.000  C
  C333     1.0000 0.93804  0.87847  0.13924  Biso   1.000  C
  C334     1.0000 0.95909  0.20133  0.92078  Biso   1.000  C
  C335     1.0000 0.13924  0.93804  0.87847  Biso   1.000  C
  C336     1.0000 0.12153  0.86076  0.93804  Biso   1.000  C
  H369     1.0000 0.83859  0.96869  0.13158  Biso   1.000  H
  C337     1.0000 0.84687  0.90690  0.07543  Biso   1.000  C
  C338     1.0000 0.92457  0.84687  0.09310  Biso   1.000  C
  H370     1.0000 0.96869  0.86842  0.16141  Biso   1.000  H
  C339     1.0000 0.92457  0.15313  0.90690  Biso   1.000  C
  H371     1.0000 0.98859  0.21101  0.89701  Biso   1.000  H
  C340     1.0000 0.09310  0.92457  0.84687  Biso   1.000  C
  H372     1.0000 0.16141  0.96869  0.86842  Biso   1.000  H
  C341     1.0000 0.07543  0.84687  0.90690  Biso   1.000  C
  H373     1.0000 0.13158  0.83859  0.96869  Biso   1.000  H
  C342     1.0000 0.79867  0.92078  0.04091  Biso   1.000  C
  C343     1.0000 0.87847  0.86076  0.06196  Biso   1.000  C
  C344     1.0000 0.95909  0.79867  0.07922  Biso   1.000  C
  C345     1.0000 0.87847  0.13924  0.93804  Biso   1.000  C
  C346     1.0000 0.93804  0.12153  0.86076  Biso   1.000  C
  C347     1.0000 0.07922  0.95909  0.79867  Biso   1.000  C
  C348     1.0000 0.06196  0.87847  0.86076  Biso   1.000  C
  C349     1.0000 0.04091  0.79867  0.92078  Biso   1.000  C
  N67      1.0000 0.77017  0.96313  0.04939  Biso   1.000  N
  H374     1.0000 0.78899  0.89701  0.01141  Biso   1.000  H
  H375     1.0000 0.86842  0.83859  0.03131  Biso   1.000  H
  N68      1.0000 0.95061  0.77017  0.03687  Biso   1.000  N
  H376     1.0000 0.98859  0.78899  0.10299  Biso   1.000  H
  C350     1.0000 0.84687  0.09310  0.92457  Biso   1.000  C
  H377     1.0000 0.86842  0.16141  0.96869  Biso   1.000  H
  C351     1.0000 0.90690  0.07543  0.84687  Biso   1.000  C
  H378     1.0000 0.96869  0.13158  0.83859  Biso   1.000  H
  N69      1.0000 0.03687  0.95061  0.77017  Biso   1.000  N
  H379     1.0000 0.10299  0.98859  0.78899  Biso   1.000  H
  H380     1.0000 0.03131  0.86842  0.83859  Biso   1.000  H
  N70      1.0000 0.04939  0.77017  0.96313  Biso   1.000  N
  H381     1.0000 0.01141  0.78899  0.89701  Biso   1.000  H
  C352     1.0000 0.72295  0.97100  0.01228  Biso   1.000  C
  C353     1.0000 0.98772  0.72295  0.02900  Biso   1.000  C
  C354     1.0000 0.79867  0.07922  0.95909  Biso   1.000  C
  C355     1.0000 0.86076  0.06196  0.87847  Biso   1.000  C
  C356     1.0000 0.92078  0.04091  0.79867  Biso   1.000  C
  C357     1.0000 0.02900  0.98772  0.72295  Biso   1.000  C
  C358     1.0000 0.01228  0.72295  0.97100  Biso   1.000  C
  H382     1.0000 0.72460  0.94352  0.98220  Biso   1.000  H
  H383     1.0000 0.68831  0.96498  0.03300  Biso   1.000  H
  C359     1.0000 0.72295  0.02900  0.98772  Biso   1.000  C
  H384     1.0000 0.96700  0.68831  0.03502  Biso   1.000  H
  H385     1.0000 0.01780  0.72460  0.05648  Biso   1.000  H
  N71      1.0000 0.77017  0.03687  0.95061  Biso   1.000  N
  H386     1.0000 0.78899  0.10299  0.98859  Biso   1.000  H
  H387     1.0000 0.83859  0.03131  0.86842  Biso   1.000  H
  N72      1.0000 0.96313  0.04939  0.77017  Biso   1.000  N
  H388     1.0000 0.89701  0.01141  0.78899  Biso   1.000  H
  C360     1.0000 0.97100  0.01228  0.72295  Biso   1.000  C
  H389     1.0000 0.03502  0.96700  0.68831  Biso   1.000  H
  H390     1.0000 0.05648  0.01780  0.72460  Biso   1.000  H
  H391     1.0000 0.98220  0.72460  0.94352  Biso   1.000  H
  H392     1.0000 0.03300  0.68831  0.96498  Biso   1.000  H
  H393     1.0000 0.68831  0.03502  0.96700  Biso   1.000  H
  H394     1.0000 0.72460  0.05648  0.01780  Biso   1.000  H
  H395     1.0000 0.94352  0.98220  0.72460  Biso   1.000  H
  H396     1.0000 0.96498  0.03300  0.68831  Biso   1.000  H
  C361     1.0000 0.13924  0.06196  0.12153  Biso   1.000  C
  C362     1.0000 0.09310  0.07543  0.15313  Biso   1.000  C
  C363     1.0000 0.15313  0.09310  0.07543  Biso   1.000  C
  H397     1.0000 0.16141  0.03131  0.13158  Biso   1.000  H
  C364     1.0000 0.07922  0.04091  0.20133  Biso   1.000  C
  C365     1.0000 0.06196  0.12153  0.13924  Biso   1.000  C
  C366     1.0000 0.20133  0.07922  0.04091  Biso   1.000  C
  C367     1.0000 0.12153  0.13924  0.06196  Biso   1.000  C
  N73      1.0000 0.03687  0.04939  0.22983  Biso   1.000  N
  H398     1.0000 0.10299  0.01141  0.21101  Biso   1.000  H
  C368     1.0000 0.07543  0.15313  0.09310  Biso   1.000  C
  H399     1.0000 0.03131  0.13158  0.16141  Biso   1.000  H
  N74      1.0000 0.22983  0.03687  0.04939  Biso   1.000  N
  H400     1.0000 0.21101  0.10299  0.01141  Biso   1.000  H
  H401     1.0000 0.13158  0.16141  0.03131  Biso   1.000  H
  C369     1.0000 0.02900  0.01228  0.27705  Biso   1.000  C
  C370     1.0000 0.04091  0.20133  0.07922  Biso   1.000  C
  C371     1.0000 0.27705  0.02900  0.01228  Biso   1.000  C
  H402     1.0000 0.03502  0.03300  0.31169  Biso   1.000  H
  C372     1.0000 0.97100  0.98772  0.27705  Biso   1.000  C
  H403     1.0000 0.05648  0.98220  0.27540  Biso   1.000  H
  N75      1.0000 0.04939  0.22983  0.03687  Biso   1.000  N
  H404     1.0000 0.01141  0.21101  0.10299  Biso   1.000  H
  H405     1.0000 0.31169  0.03502  0.03300  Biso   1.000  H
  C373     1.0000 0.27705  0.97100  0.98772  Biso   1.000  C
  H406     1.0000 0.27540  0.05648  0.98220  Biso   1.000  H
  N76      1.0000 0.96313  0.95061  0.22983  Biso   1.000  N
  H407     1.0000 0.96498  0.96700  0.31169  Biso   1.000  H
  H408     1.0000 0.94352  0.01780  0.27540  Biso   1.000  H
  C374     1.0000 0.01228  0.27705  0.02900  Biso   1.000  C
  N77      1.0000 0.22983  0.96313  0.95061  Biso   1.000  N
  H409     1.0000 0.31169  0.96498  0.96700  Biso   1.000  H
  H410     1.0000 0.27540  0.94352  0.01780  Biso   1.000  H
  C375     1.0000 0.92078  0.95909  0.20133  Biso   1.000  C
  H411     1.0000 0.03300  0.31169  0.03502  Biso   1.000  H
  C376     1.0000 0.98772  0.27705  0.97100  Biso   1.000  C
  H412     1.0000 0.98220  0.27540  0.05648  Biso   1.000  H
  C377     1.0000 0.20133  0.92078  0.95909  Biso   1.000  C
  C378     1.0000 0.90690  0.92457  0.15313  Biso   1.000  C
  H413     1.0000 0.89701  0.98859  0.21101  Biso   1.000  H
  N78      1.0000 0.95061  0.22983  0.96313  Biso   1.000  N
  H414     1.0000 0.96700  0.31169  0.96498  Biso   1.000  H
  H415     1.0000 0.01780  0.27540  0.94352  Biso   1.000  H
  C379     1.0000 0.15313  0.90690  0.92457  Biso   1.000  C
  H416     1.0000 0.21101  0.89701  0.98859  Biso   1.000  H
  C380     1.0000 0.86076  0.93804  0.12153  Biso   1.000  C
  C381     1.0000 0.93804  0.87847  0.13924  Biso   1.000  C
  C382     1.0000 0.95909  0.20133  0.92078  Biso   1.000  C
  C383     1.0000 0.13924  0.93804  0.87847  Biso   1.000  C
  C384     1.0000 0.12153  0.86076  0.93804  Biso   1.000  C
  H417     1.0000 0.83859  0.96869  0.13158  Biso   1.000  H
  C385     1.0000 0.84687  0.90690  0.07543  Biso   1.000  C
  C386     1.0000 0.92457  0.84687  0.09310  Biso   1.000  C
  H418     1.0000 0.96869  0.86842  0.16141  Biso   1.000  H
  C387     1.0000 0.92457  0.15313  0.90690  Biso   1.000  C
  H419     1.0000 0.98859  0.21101  0.89701  Biso   1.000  H
  C388     1.0000 0.09310  0.92457  0.84687  Biso   1.000  C
  H420     1.0000 0.16141  0.96869  0.86842  Biso   1.000  H
  C389     1.0000 0.07543  0.84687  0.90690  Biso   1.000  C
  H421     1.0000 0.13158  0.83859  0.96869  Biso   1.000  H
  C390     1.0000 0.79867  0.92078  0.04091  Biso   1.000  C
  C391     1.0000 0.87847  0.86076  0.06196  Biso   1.000  C
  C392     1.0000 0.95909  0.79867  0.07922  Biso   1.000  C
  C393     1.0000 0.87847  0.13924  0.93804  Biso   1.000  C
  C394     1.0000 0.93804  0.12153  0.86076  Biso   1.000  C
  C395     1.0000 0.07922  0.95909  0.79867  Biso   1.000  C
  C396     1.0000 0.06196  0.87847  0.86076  Biso   1.000  C
  C397     1.0000 0.04091  0.79867  0.92078  Biso   1.000  C
  N79      1.0000 0.77017  0.96313  0.04939  Biso   1.000  N
  H422     1.0000 0.78899  0.89701  0.01141  Biso   1.000  H
  H423     1.0000 0.86842  0.83859  0.03131  Biso   1.000  H
  N80      1.0000 0.95061  0.77017  0.03687  Biso   1.000  N
  H424     1.0000 0.98859  0.78899  0.10299  Biso   1.000  H
  C398     1.0000 0.84687  0.09310  0.92457  Biso   1.000  C
  H425     1.0000 0.86842  0.16141  0.96869  Biso   1.000  H
  C399     1.0000 0.90690  0.07543  0.84687  Biso   1.000  C
  H426     1.0000 0.96869  0.13158  0.83859  Biso   1.000  H
  N81      1.0000 0.03687  0.95061  0.77017  Biso   1.000  N
  H427     1.0000 0.10299  0.98859  0.78899  Biso   1.000  H
  H428     1.0000 0.03131  0.86842  0.83859  Biso   1.000  H
  N82      1.0000 0.04939  0.77017  0.96313  Biso   1.000  N
  H429     1.0000 0.01141  0.78899  0.89701  Biso   1.000  H
  C400     1.0000 0.72295  0.97100  0.01228  Biso   1.000  C
  C401     1.0000 0.98772  0.72295  0.02900  Biso   1.000  C
  C402     1.0000 0.79867  0.07922  0.95909  Biso   1.000  C
  C403     1.0000 0.86076  0.06196  0.87847  Biso   1.000  C
  C404     1.0000 0.92078  0.04091  0.79867  Biso   1.000  C
  C405     1.0000 0.02900  0.98772  0.72295  Biso   1.000  C
  C406     1.0000 0.01228  0.72295  0.97100  Biso   1.000  C
  H430     1.0000 0.72460  0.94352  0.98220  Biso   1.000  H
  H431     1.0000 0.68831  0.96498  0.03300  Biso   1.000  H
  C407     1.0000 0.72295  0.02900  0.98772  Biso   1.000  C
  H432     1.0000 0.96700  0.68831  0.03502  Biso   1.000  H
  H433     1.0000 0.01780  0.72460  0.05648  Biso   1.000  H
  N83      1.0000 0.77017  0.03687  0.95061  Biso   1.000  N
  H434     1.0000 0.78899  0.10299  0.98859  Biso   1.000  H
  H435     1.0000 0.83859  0.03131  0.86842  Biso   1.000  H
  N84      1.0000 0.96313  0.04939  0.77017  Biso   1.000  N
  H436     1.0000 0.89701  0.01141  0.78899  Biso   1.000  H
  C408     1.0000 0.97100  0.01228  0.72295  Biso   1.000  C
  H437     1.0000 0.03502  0.96700  0.68831  Biso   1.000  H
  H438     1.0000 0.05648  0.01780  0.72460  Biso   1.000  H
  H439     1.0000 0.98220  0.72460  0.94352  Biso   1.000  H
  H440     1.0000 0.03300  0.68831  0.96498  Biso   1.000  H
  H441     1.0000 0.68831  0.03502  0.96700  Biso   1.000  H
  H442     1.0000 0.72460  0.05648  0.01780  Biso   1.000  H
  H443     1.0000 0.94352  0.98220  0.72460  Biso   1.000  H
  H444     1.0000 0.96498  0.03300  0.68831  Biso   1.000  H
  C409     1.0000 0.13924  0.06196  0.12153  Biso   1.000  C
  C410     1.0000 0.09310  0.07543  0.15313  Biso   1.000  C
  C411     1.0000 0.15313  0.09310  0.07543  Biso   1.000  C
  H445     1.0000 0.16141  0.03131  0.13158  Biso   1.000  H
  C412     1.0000 0.07922  0.04091  0.20133  Biso   1.000  C
  C413     1.0000 0.06196  0.12153  0.13924  Biso   1.000  C
  C414     1.0000 0.20133  0.07922  0.04091  Biso   1.000  C
  C415     1.0000 0.12153  0.13924  0.06196  Biso   1.000  C
  N85      1.0000 0.03687  0.04939  0.22983  Biso   1.000  N
  H446     1.0000 0.10299  0.01141  0.21101  Biso   1.000  H
  C416     1.0000 0.07543  0.15313  0.09310  Biso   1.000  C
  H447     1.0000 0.03131  0.13158  0.16141  Biso   1.000  H
  N86      1.0000 0.22983  0.03687  0.04939  Biso   1.000  N
  H448     1.0000 0.21101  0.10299  0.01141  Biso   1.000  H
  H449     1.0000 0.13158  0.16141  0.03131  Biso   1.000  H
  C417     1.0000 0.02900  0.01228  0.27705  Biso   1.000  C
  C418     1.0000 0.04091  0.20133  0.07922  Biso   1.000  C
  C419     1.0000 0.27705  0.02900  0.01228  Biso   1.000  C
  H450     1.0000 0.03502  0.03300  0.31169  Biso   1.000  H
  C420     1.0000 0.97100  0.98772  0.27705  Biso   1.000  C
  H451     1.0000 0.05648  0.98220  0.27540  Biso   1.000  H
  N87      1.0000 0.04939  0.22983  0.03687  Biso   1.000  N
  H452     1.0000 0.01141  0.21101  0.10299  Biso   1.000  H
  H453     1.0000 0.31169  0.03502  0.03300  Biso   1.000  H
  C421     1.0000 0.27705  0.97100  0.98772  Biso   1.000  C
  H454     1.0000 0.27540  0.05648  0.98220  Biso   1.000  H
  N88      1.0000 0.96313  0.95061  0.22983  Biso   1.000  N
  H455     1.0000 0.96498  0.96700  0.31169  Biso   1.000  H
  H456     1.0000 0.94352  0.01780  0.27540  Biso   1.000  H
  C422     1.0000 0.01228  0.27705  0.02900  Biso   1.000  C
  N89      1.0000 0.22983  0.96313  0.95061  Biso   1.000  N
  H457     1.0000 0.31169  0.96498  0.96700  Biso   1.000  H
  H458     1.0000 0.27540  0.94352  0.01780  Biso   1.000  H
  C423     1.0000 0.92078  0.95909  0.20133  Biso   1.000  C
  H459     1.0000 0.03300  0.31169  0.03502  Biso   1.000  H
  C424     1.0000 0.98772  0.27705  0.97100  Biso   1.000  C
  H460     1.0000 0.98220  0.27540  0.05648  Biso   1.000  H
  C425     1.0000 0.20133  0.92078  0.95909  Biso   1.000  C
  C426     1.0000 0.90690  0.92457  0.15313  Biso   1.000  C
  H461     1.0000 0.89701  0.98859  0.21101  Biso   1.000  H
  N90      1.0000 0.95061  0.22983  0.96313  Biso   1.000  N
  H462     1.0000 0.96700  0.31169  0.96498  Biso   1.000  H
  H463     1.0000 0.01780  0.27540  0.94352  Biso   1.000  H
  C427     1.0000 0.15313  0.90690  0.92457  Biso   1.000  C
  H464     1.0000 0.21101  0.89701  0.98859  Biso   1.000  H
  C428     1.0000 0.86076  0.93804  0.12153  Biso   1.000  C
  C429     1.0000 0.93804  0.87847  0.13924  Biso   1.000  C
  C430     1.0000 0.95909  0.20133  0.92078  Biso   1.000  C
  C431     1.0000 0.13924  0.93804  0.87847  Biso   1.000  C
  C432     1.0000 0.12153  0.86076  0.93804  Biso   1.000  C
  H465     1.0000 0.83859  0.96869  0.13158  Biso   1.000  H
  C433     1.0000 0.84687  0.90690  0.07543  Biso   1.000  C
  C434     1.0000 0.92457  0.84687  0.09310  Biso   1.000  C
  H466     1.0000 0.96869  0.86842  0.16141  Biso   1.000  H
  C435     1.0000 0.92457  0.15313  0.90690  Biso   1.000  C
  H467     1.0000 0.98859  0.21101  0.89701  Biso   1.000  H
  C436     1.0000 0.09310  0.92457  0.84687  Biso   1.000  C
  H468     1.0000 0.16141  0.96869  0.86842  Biso   1.000  H
  C437     1.0000 0.07543  0.84687  0.90690  Biso   1.000  C
  H469     1.0000 0.13158  0.83859  0.96869  Biso   1.000  H
  C438     1.0000 0.79867  0.92078  0.04091  Biso   1.000  C
  C439     1.0000 0.87847  0.86076  0.06196  Biso   1.000  C
  C440     1.0000 0.95909  0.79867  0.07922  Biso   1.000  C
  C441     1.0000 0.87847  0.13924  0.93804  Biso   1.000  C
  C442     1.0000 0.93804  0.12153  0.86076  Biso   1.000  C
  C443     1.0000 0.07922  0.95909  0.79867  Biso   1.000  C
  C444     1.0000 0.06196  0.87847  0.86076  Biso   1.000  C
  C445     1.0000 0.04091  0.79867  0.92078  Biso   1.000  C
  N91      1.0000 0.77017  0.96313  0.04939  Biso   1.000  N
  H470     1.0000 0.78899  0.89701  0.01141  Biso   1.000  H
  H471     1.0000 0.86842  0.83859  0.03131  Biso   1.000  H
  N92      1.0000 0.95061  0.77017  0.03687  Biso   1.000  N
  H472     1.0000 0.98859  0.78899  0.10299  Biso   1.000  H
  C446     1.0000 0.84687  0.09310  0.92457  Biso   1.000  C
  H473     1.0000 0.86842  0.16141  0.96869  Biso   1.000  H
  C447     1.0000 0.90690  0.07543  0.84687  Biso   1.000  C
  H474     1.0000 0.96869  0.13158  0.83859  Biso   1.000  H
  N93      1.0000 0.03687  0.95061  0.77017  Biso   1.000  N
  H475     1.0000 0.10299  0.98859  0.78899  Biso   1.000  H
  H476     1.0000 0.03131  0.86842  0.83859  Biso   1.000  H
  N94      1.0000 0.04939  0.77017  0.96313  Biso   1.000  N
  H477     1.0000 0.01141  0.78899  0.89701  Biso   1.000  H
  C448     1.0000 0.72295  0.97100  0.01228  Biso   1.000  C
  C449     1.0000 0.98772  0.72295  0.02900  Biso   1.000  C
  C450     1.0000 0.79867  0.07922  0.95909  Biso   1.000  C
  C451     1.0000 0.86076  0.06196  0.87847  Biso   1.000  C
  C452     1.0000 0.92078  0.04091  0.79867  Biso   1.000  C
  C453     1.0000 0.02900  0.98772  0.72295  Biso   1.000  C
  C454     1.0000 0.01228  0.72295  0.97100  Biso   1.000  C
  H478     1.0000 0.72460  0.94352  0.98220  Biso   1.000  H
  H479     1.0000 0.68831  0.96498  0.03300  Biso   1.000  H
  C455     1.0000 0.72295  0.02900  0.98772  Biso   1.000  C
  H480     1.0000 0.96700  0.68831  0.03502  Biso   1.000  H
  H481     1.0000 0.01780  0.72460  0.05648  Biso   1.000  H
  N95      1.0000 0.77017  0.03687  0.95061  Biso   1.000  N
  H482     1.0000 0.78899  0.10299  0.98859  Biso   1.000  H
  H483     1.0000 0.83859  0.03131  0.86842  Biso   1.000  H
  N96      1.0000 0.96313  0.04939  0.77017  Biso   1.000  N
  H484     1.0000 0.89701  0.01141  0.78899  Biso   1.000  H
  C456     1.0000 0.97100  0.01228  0.72295  Biso   1.000  C
  H485     1.0000 0.03502  0.96700  0.68831  Biso   1.000  H
  H486     1.0000 0.05648  0.01780  0.72460  Biso   1.000  H
  H487     1.0000 0.98220  0.72460  0.94352  Biso   1.000  H
  H488     1.0000 0.03300  0.68831  0.96498  Biso   1.000  H
  H489     1.0000 0.68831  0.03502  0.96700  Biso   1.000  H
  H490     1.0000 0.72460  0.05648  0.01780  Biso   1.000  H
  H491     1.0000 0.94352  0.98220  0.72460  Biso   1.000  H
  H492     1.0000 0.96498  0.03300  0.68831  Biso   1.000  H
  C457     1.0000 0.13924  0.06196  0.12153  Biso   1.000  C
  C458     1.0000 0.09310  0.07543  0.15313  Biso   1.000  C
  C459     1.0000 0.15313  0.09310  0.07543  Biso   1.000  C
  H493     1.0000 0.16141  0.03131  0.13158  Biso   1.000  H
  C460     1.0000 0.07922  0.04091  0.20133  Biso   1.000  C
  C461     1.0000 0.06196  0.12153  0.13924  Biso   1.000  C
  C462     1.0000 0.20133  0.07922  0.04091  Biso   1.000  C
  C463     1.0000 0.12153  0.13924  0.06196  Biso   1.000  C
  N97      1.0000 0.03687  0.04939  0.22983  Biso   1.000  N
  H494     1.0000 0.10299  0.01141  0.21101  Biso   1.000  H
  C464     1.0000 0.07543  0.15313  0.09310  Biso   1.000  C
  H495     1.0000 0.03131  0.13158  0.16141  Biso   1.000  H
  N98      1.0000 0.22983  0.03687  0.04939  Biso   1.000  N
  H496     1.0000 0.21101  0.10299  0.01141  Biso   1.000  H
  H497     1.0000 0.13158  0.16141  0.03131  Biso   1.000  H
  C465     1.0000 0.02900  0.01228  0.27705  Biso   1.000  C
  C466     1.0000 0.04091  0.20133  0.07922  Biso   1.000  C
  C467     1.0000 0.27705  0.02900  0.01228  Biso   1.000  C
  H498     1.0000 0.03502  0.03300  0.31169  Biso   1.000  H
  C468     1.0000 0.97100  0.98772  0.27705  Biso   1.000  C
  H499     1.0000 0.05648  0.98220  0.27540  Biso   1.000  H
  N99      1.0000 0.04939  0.22983  0.03687  Biso   1.000  N
  H500     1.0000 0.01141  0.21101  0.10299  Biso   1.000  H
  H501     1.0000 0.31169  0.03502  0.03300  Biso   1.000  H
  C469     1.0000 0.27705  0.97100  0.98772  Biso   1.000  C
  H502     1.0000 0.27540  0.05648  0.98220  Biso   1.000  H
  N100     1.0000 0.96313  0.95061  0.22983  Biso   1.000  N
  H503     1.0000 0.96498  0.96700  0.31169  Biso   1.000  H
  H504     1.0000 0.94352  0.01780  0.27540  Biso   1.000  H
  C470     1.0000 0.01228  0.27705  0.02900  Biso   1.000  C
  N101     1.0000 0.22983  0.96313  0.95061  Biso   1.000  N
  H505     1.0000 0.31169  0.96498  0.96700  Biso   1.000  H
  H506     1.0000 0.27540  0.94352  0.01780  Biso   1.000  H
  C471     1.0000 0.92078  0.95909  0.20133  Biso   1.000  C
  H507     1.0000 0.03300  0.31169  0.03502  Biso   1.000  H
  C472     1.0000 0.98772  0.27705  0.97100  Biso   1.000  C
  H508     1.0000 0.98220  0.27540  0.05648  Biso   1.000  H
  C473     1.0000 0.20133  0.92078  0.95909  Biso   1.000  C
  C474     1.0000 0.90690  0.92457  0.15313  Biso   1.000  C
  H509     1.0000 0.89701  0.98859  0.21101  Biso   1.000  H
  N102     1.0000 0.95061  0.22983  0.96313  Biso   1.000  N
  H510     1.0000 0.96700  0.31169  0.96498  Biso   1.000  H
  H511     1.0000 0.01780  0.27540  0.94352  Biso   1.000  H
  C475     1.0000 0.15313  0.90690  0.92457  Biso   1.000  C
  H512     1.0000 0.21101  0.89701  0.98859  Biso   1.000  H
  C476     1.0000 0.86076  0.93804  0.12153  Biso   1.000  C
  C477     1.0000 0.93804  0.87847  0.13924  Biso   1.000  C
  C478     1.0000 0.95909  0.20133  0.92078  Biso   1.000  C
  C479     1.0000 0.13924  0.93804  0.87847  Biso   1.000  C
  C480     1.0000 0.12153  0.86076  0.93804  Biso   1.000  C
  H513     1.0000 0.83859  0.96869  0.13158  Biso   1.000  H
  C481     1.0000 0.84687  0.90690  0.07543  Biso   1.000  C
  C482     1.0000 0.92457  0.84687  0.09310  Biso   1.000  C
  H514     1.0000 0.96869  0.86842  0.16141  Biso   1.000  H
  C483     1.0000 0.92457  0.15313  0.90690  Biso   1.000  C
  H515     1.0000 0.98859  0.21101  0.89701  Biso   1.000  H
  C484     1.0000 0.09310  0.92457  0.84687  Biso   1.000  C
  H516     1.0000 0.16141  0.96869  0.86842  Biso   1.000  H
  C485     1.0000 0.07543  0.84687  0.90690  Biso   1.000  C
  H517     1.0000 0.13158  0.83859  0.96869  Biso   1.000  H
  C486     1.0000 0.79867  0.92078  0.04091  Biso   1.000  C
  C487     1.0000 0.87847  0.86076  0.06196  Biso   1.000  C
  C488     1.0000 0.95909  0.79867  0.07922  Biso   1.000  C
  C489     1.0000 0.87847  0.13924  0.93804  Biso   1.000  C
  C490     1.0000 0.93804  0.12153  0.86076  Biso   1.000  C
  C491     1.0000 0.07922  0.95909  0.79867  Biso   1.000  C
  C492     1.0000 0.06196  0.87847  0.86076  Biso   1.000  C
  C493     1.0000 0.04091  0.79867  0.92078  Biso   1.000  C
  N103     1.0000 0.77017  0.96313  0.04939  Biso   1.000  N
  H518     1.0000 0.78899  0.89701  0.01141  Biso   1.000  H
  H519     1.0000 0.86842  0.83859  0.03131  Biso   1.000  H
  N104     1.0000 0.95061  0.77017  0.03687  Biso   1.000  N
  H520     1.0000 0.98859  0.78899  0.10299  Biso   1.000  H
  C494     1.0000 0.84687  0.09310  0.92457  Biso   1.000  C
  H521     1.0000 0.86842  0.16141  0.96869  Biso   1.000  H
  C495     1.0000 0.90690  0.07543  0.84687  Biso   1.000  C
  H522     1.0000 0.96869  0.13158  0.83859  Biso   1.000  H
  N105     1.0000 0.03687  0.95061  0.77017  Biso   1.000  N
  H523     1.0000 0.10299  0.98859  0.78899  Biso   1.000  H
  H524     1.0000 0.03131  0.86842  0.83859  Biso   1.000  H
  N106     1.0000 0.04939  0.77017  0.96313  Biso   1.000  N
  H525     1.0000 0.01141  0.78899  0.89701  Biso   1.000  H
  C496     1.0000 0.72295  0.97100  0.01228  Biso   1.000  C
  C497     1.0000 0.98772  0.72295  0.02900  Biso   1.000  C
  C498     1.0000 0.79867  0.07922  0.95909  Biso   1.000  C
  C499     1.0000 0.86076  0.06196  0.87847  Biso   1.000  C
  C500     1.0000 0.92078  0.04091  0.79867  Biso   1.000  C
  C501     1.0000 0.02900  0.98772  0.72295  Biso   1.000  C
  C502     1.0000 0.01228  0.72295  0.97100  Biso   1.000  C
  H526     1.0000 0.72460  0.94352  0.98220  Biso   1.000  H
  H527     1.0000 0.68831  0.96498  0.03300  Biso   1.000  H
  C503     1.0000 0.72295  0.02900  0.98772  Biso   1.000  C
  H528     1.0000 0.96700  0.68831  0.03502  Biso   1.000  H
  H529     1.0000 0.01780  0.72460  0.05648  Biso   1.000  H
  N107     1.0000 0.77017  0.03687  0.95061  Biso   1.000  N
  H530     1.0000 0.78899  0.10299  0.98859  Biso   1.000  H
  H531     1.0000 0.83859  0.03131  0.86842  Biso   1.000  H
  N108     1.0000 0.96313  0.04939  0.77017  Biso   1.000  N
  H532     1.0000 0.89701  0.01141  0.78899  Biso   1.000  H
  C504     1.0000 0.97100  0.01228  0.72295  Biso   1.000  C
  H533     1.0000 0.03502  0.96700  0.68831  Biso   1.000  H
  H534     1.0000 0.05648  0.01780  0.72460  Biso   1.000  H
  H535     1.0000 0.98220  0.72460  0.94352  Biso   1.000  H
  H536     1.0000 0.03300  0.68831  0.96498  Biso   1.000  H
  H537     1.0000 0.68831  0.03502  0.96700  Biso   1.000  H
  H538     1.0000 0.72460  0.05648  0.01780  Biso   1.000  H
  H539     1.0000 0.94352  0.98220  0.72460  Biso   1.000  H
  H540     1.0000 0.96498  0.03300  0.68831  Biso   1.000  H
  C505     1.0000 0.13924  0.06196  0.12153  Biso   1.000  C
  C506     1.0000 0.09310  0.07543  0.15313  Biso   1.000  C
  C507     1.0000 0.15313  0.09310  0.07543  Biso   1.000  C
  H541     1.0000 0.16141  0.03131  0.13158  Biso   1.000  H
  C508     1.0000 0.07922  0.04091  0.20133  Biso   1.000  C
  C509     1.0000 0.06196  0.12153  0.13924  Biso   1.000  C
  C510     1.0000 0.20133  0.07922  0.04091  Biso   1.000  C
  C511     1.0000 0.12153  0.13924  0.06196  Biso   1.000  C
  N109     1.0000 0.03687  0.04939  0.22983  Biso   1.000  N
  H542     1.0000 0.10299  0.01141  0.21101  Biso   1.000  H
  C512     1.0000 0.07543  0.15313  0.09310  Biso   1.000  C
  H543     1.0000 0.03131  0.13158  0.16141  Biso   1.000  H
  N110     1.0000 0.22983  0.03687  0.04939  Biso   1.000  N
  H544     1.0000 0.21101  0.10299  0.01141  Biso   1.000  H
  H545     1.0000 0.13158  0.16141  0.03131  Biso   1.000  H
  C513     1.0000 0.02900  0.01228  0.27705  Biso   1.000  C
  C514     1.0000 0.04091  0.20133  0.07922  Biso   1.000  C
  C515     1.0000 0.27705  0.02900  0.01228  Biso   1.000  C
  H546     1.0000 0.03502  0.03300  0.31169  Biso   1.000  H
  C516     1.0000 0.97100  0.98772  0.27705  Biso   1.000  C
  H547     1.0000 0.05648  0.98220  0.27540  Biso   1.000  H
  N111     1.0000 0.04939  0.22983  0.03687  Biso   1.000  N
  H548     1.0000 0.01141  0.21101  0.10299  Biso   1.000  H
  H549     1.0000 0.31169  0.03502  0.03300  Biso   1.000  H
  C517     1.0000 0.27705  0.97100  0.98772  Biso   1.000  C
  H550     1.0000 0.27540  0.05648  0.98220  Biso   1.000  H
  N112     1.0000 0.96313  0.95061  0.22983  Biso   1.000  N
  H551     1.0000 0.96498  0.96700  0.31169  Biso   1.000  H
  H552     1.0000 0.94352  0.01780  0.27540  Biso   1.000  H
  C518     1.0000 0.01228  0.27705  0.02900  Biso   1.000  C
  N113     1.0000 0.22983  0.96313  0.95061  Biso   1.000  N
  H553     1.0000 0.31169  0.96498  0.96700  Biso   1.000  H
  H554     1.0000 0.27540  0.94352  0.01780  Biso   1.000  H
  C519     1.0000 0.92078  0.95909  0.20133  Biso   1.000  C
  H555     1.0000 0.03300  0.31169  0.03502  Biso   1.000  H
  C520     1.0000 0.98772  0.27705  0.97100  Biso   1.000  C
  H556     1.0000 0.98220  0.27540  0.05648  Biso   1.000  H
  C521     1.0000 0.20133  0.92078  0.95909  Biso   1.000  C
  C522     1.0000 0.90690  0.92457  0.15313  Biso   1.000  C
  H557     1.0000 0.89701  0.98859  0.21101  Biso   1.000  H
  N114     1.0000 0.95061  0.22983  0.96313  Biso   1.000  N
  H558     1.0000 0.96700  0.31169  0.96498  Biso   1.000  H
  H559     1.0000 0.01780  0.27540  0.94352  Biso   1.000  H
  C523     1.0000 0.15313  0.90690  0.92457  Biso   1.000  C
  H560     1.0000 0.21101  0.89701  0.98859  Biso   1.000  H
  C524     1.0000 0.86076  0.93804  0.12153  Biso   1.000  C
  C525     1.0000 0.93804  0.87847  0.13924  Biso   1.000  C
  C526     1.0000 0.95909  0.20133  0.92078  Biso   1.000  C
  C527     1.0000 0.13924  0.93804  0.87847  Biso   1.000  C
  C528     1.0000 0.12153  0.86076  0.93804  Biso   1.000  C
  H561     1.0000 0.83859  0.96869  0.13158  Biso   1.000  H
  C529     1.0000 0.84687  0.90690  0.07543  Biso   1.000  C
  C530     1.0000 0.92457  0.84687  0.09310  Biso   1.000  C
  H562     1.0000 0.96869  0.86842  0.16141  Biso   1.000  H
  C531     1.0000 0.92457  0.15313  0.90690  Biso   1.000  C
  H563     1.0000 0.98859  0.21101  0.89701  Biso   1.000  H
  C532     1.0000 0.09310  0.92457  0.84687  Biso   1.000  C
  H564     1.0000 0.16141  0.96869  0.86842  Biso   1.000  H
  C533     1.0000 0.07543  0.84687  0.90690  Biso   1.000  C
  H565     1.0000 0.13158  0.83859  0.96869  Biso   1.000  H
  C534     1.0000 0.79867  0.92078  0.04091  Biso   1.000  C
  C535     1.0000 0.87847  0.86076  0.06196  Biso   1.000  C
  C536     1.0000 0.95909  0.79867  0.07922  Biso   1.000  C
  C537     1.0000 0.87847  0.13924  0.93804  Biso   1.000  C
  C538     1.0000 0.93804  0.12153  0.86076  Biso   1.000  C
  C539     1.0000 0.07922  0.95909  0.79867  Biso   1.000  C
  C540     1.0000 0.06196  0.87847  0.86076  Biso   1.000  C
  C541     1.0000 0.04091  0.79867  0.92078  Biso   1.000  C
  N115     1.0000 0.77017  0.96313  0.04939  Biso   1.000  N
  H566     1.0000 0.78899  0.89701  0.01141  Biso   1.000  H
  H567     1.0000 0.86842  0.83859  0.03131  Biso   1.000  H
  N116     1.0000 0.95061  0.77017  0.03687  Biso   1.000  N
  H568     1.0000 0.98859  0.78899  0.10299  Biso   1.000  H
  C542     1.0000 0.84687  0.09310  0.92457  Biso   1.000  C
  H569     1.0000 0.86842  0.16141  0.96869  Biso   1.000  H
  C543     1.0000 0.90690  0.07543  0.84687  Biso   1.000  C
  H570     1.0000 0.96869  0.13158  0.83859  Biso   1.000  H
  N117     1.0000 0.03687  0.95061  0.77017  Biso   1.000  N
  H571     1.0000 0.10299  0.98859  0.78899  Biso   1.000  H
  H572     1.0000 0.03131  0.86842  0.83859  Biso   1.000  H
  N118     1.0000 0.04939  0.77017  0.96313  Biso   1.000  N
  H573     1.0000 0.01141  0.78899  0.89701  Biso   1.000  H
  C544     1.0000 0.72295  0.97100  0.01228  Biso   1.000  C
  C545     1.0000 0.98772  0.72295  0.02900  Biso   1.000  C
  C546     1.0000 0.79867  0.07922  0.95909  Biso   1.000  C
  C547     1.0000 0.86076  0.06196  0.87847  Biso   1.000  C
  C548     1.0000 0.92078  0.04091  0.79867  Biso   1.000  C
  C549     1.0000 0.02900  0.98772  0.72295  Biso   1.000  C
  C550     1.0000 0.01228  0.72295  0.97100  Biso   1.000  C
  H574     1.0000 0.72460  0.94352  0.98220  Biso   1.000  H
  H575     1.0000 0.68831  0.96498  0.03300  Biso   1.000  H
  C551     1.0000 0.72295  0.02900  0.98772  Biso   1.000  C
  H576     1.0000 0.96700  0.68831  0.03502  Biso   1.000  H
  H577     1.0000 0.01780  0.72460  0.05648  Biso   1.000  H
  N119     1.0000 0.77017  0.03687  0.95061  Biso   1.000  N
  H578     1.0000 0.78899  0.10299  0.98859  Biso   1.000  H
  H579     1.0000 0.83859  0.03131  0.86842  Biso   1.000  H
  N120     1.0000 0.96313  0.04939  0.77017  Biso   1.000  N
  H580     1.0000 0.89701  0.01141  0.78899  Biso   1.000  H
  C552     1.0000 0.97100  0.01228  0.72295  Biso   1.000  C
  H581     1.0000 0.03502  0.96700  0.68831  Biso   1.000  H
  H582     1.0000 0.05648  0.01780  0.72460  Biso   1.000  H
  H583     1.0000 0.98220  0.72460  0.94352  Biso   1.000  H
  H584     1.0000 0.03300  0.68831  0.96498  Biso   1.000  H
  H585     1.0000 0.68831  0.03502  0.96700  Biso   1.000  H
  H586     1.0000 0.72460  0.05648  0.01780  Biso   1.000  H
  H587     1.0000 0.94352  0.98220  0.72460  Biso   1.000  H
  H588     1.0000 0.96498  0.03300  0.68831  Biso   1.000  H
  C553     1.0000 0.13924  0.06196  0.12153  Biso   1.000  C
  C554     1.0000 0.09310  0.07543  0.15313  Biso   1.000  C
  C555     1.0000 0.15313  0.09310  0.07543  Biso   1.000  C
  H589     1.0000 0.16141  0.03131  0.13158  Biso   1.000  H
  C556     1.0000 0.07922  0.04091  0.20133  Biso   1.000  C
  C557     1.0000 0.06196  0.12153  0.13924  Biso   1.000  C
  C558     1.0000 0.20133  0.07922  0.04091  Biso   1.000  C
  C559     1.0000 0.12153  0.13924  0.06196  Biso   1.000  C
  N121     1.0000 0.03687  0.04939  0.22983  Biso   1.000  N
  H590     1.0000 0.10299  0.01141  0.21101  Biso   1.000  H
  C560     1.0000 0.07543  0.15313  0.09310  Biso   1.000  C
  H591     1.0000 0.03131  0.13158  0.16141  Biso   1.000  H
  N122     1.0000 0.22983  0.03687  0.04939  Biso   1.000  N
  H592     1.0000 0.21101  0.10299  0.01141  Biso   1.000  H
  H593     1.0000 0.13158  0.16141  0.03131  Biso   1.000  H
  C561     1.0000 0.02900  0.01228  0.27705  Biso   1.000  C
  C562     1.0000 0.04091  0.20133  0.07922  Biso   1.000  C
  C563     1.0000 0.27705  0.02900  0.01228  Biso   1.000  C
  H594     1.0000 0.03502  0.03300  0.31169  Biso   1.000  H
  C564     1.0000 0.97100  0.98772  0.27705  Biso   1.000  C
  H595     1.0000 0.05648  0.98220  0.27540  Biso   1.000  H
  N123     1.0000 0.04939  0.22983  0.03687  Biso   1.000  N
  H596     1.0000 0.01141  0.21101  0.10299  Biso   1.000  H
  H597     1.0000 0.31169  0.03502  0.03300  Biso   1.000  H
  C565     1.0000 0.27705  0.97100  0.98772  Biso   1.000  C
  H598     1.0000 0.27540  0.05648  0.98220  Biso   1.000  H
  N124     1.0000 0.96313  0.95061  0.22983  Biso   1.000  N
  H599     1.0000 0.96498  0.96700  0.31169  Biso   1.000  H
  H600     1.0000 0.94352  0.01780  0.27540  Biso   1.000  H
  C566     1.0000 0.01228  0.27705  0.02900  Biso   1.000  C
  N125     1.0000 0.22983  0.96313  0.95061  Biso   1.000  N
  H601     1.0000 0.31169  0.96498  0.96700  Biso   1.000  H
  H602     1.0000 0.27540  0.94352  0.01780  Biso   1.000  H
  C567     1.0000 0.92078  0.95909  0.20133  Biso   1.000  C
  H603     1.0000 0.03300  0.31169  0.03502  Biso   1.000  H
  C568     1.0000 0.98772  0.27705  0.97100  Biso   1.000  C
  H604     1.0000 0.98220  0.27540  0.05648  Biso   1.000  H
  C569     1.0000 0.20133  0.92078  0.95909  Biso   1.000  C
  C570     1.0000 0.90690  0.92457  0.15313  Biso   1.000  C
  H605     1.0000 0.89701  0.98859  0.21101  Biso   1.000  H
  N126     1.0000 0.95061  0.22983  0.96313  Biso   1.000  N
  H606     1.0000 0.96700  0.31169  0.96498  Biso   1.000  H
  H607     1.0000 0.01780  0.27540  0.94352  Biso   1.000  H
  C571     1.0000 0.15313  0.90690  0.92457  Biso   1.000  C
  H608     1.0000 0.21101  0.89701  0.98859  Biso   1.000  H
  C572     1.0000 0.86076  0.93804  0.12153  Biso   1.000  C
  C573     1.0000 0.93804  0.87847  0.13924  Biso   1.000  C
  C574     1.0000 0.95909  0.20133  0.92078  Biso   1.000  C
  C575     1.0000 0.13924  0.93804  0.87847  Biso   1.000  C
  C576     1.0000 0.12153  0.86076  0.93804  Biso   1.000  C
  H609     1.0000 0.83859  0.96869  0.13158  Biso   1.000  H
  C577     1.0000 0.84687  0.90690  0.07543  Biso   1.000  C
  C578     1.0000 0.92457  0.84687  0.09310  Biso   1.000  C
  H610     1.0000 0.96869  0.86842  0.16141  Biso   1.000  H
  C579     1.0000 0.92457  0.15313  0.90690  Biso   1.000  C
  H611     1.0000 0.98859  0.21101  0.89701  Biso   1.000  H
  C580     1.0000 0.09310  0.92457  0.84687  Biso   1.000  C
  H612     1.0000 0.16141  0.96869  0.86842  Biso   1.000  H
  C581     1.0000 0.07543  0.84687  0.90690  Biso   1.000  C
  H613     1.0000 0.13158  0.83859  0.96869  Biso   1.000  H
  C582     1.0000 0.79867  0.92078  0.04091  Biso   1.000  C
  C583     1.0000 0.87847  0.86076  0.06196  Biso   1.000  C
  C584     1.0000 0.95909  0.79867  0.07922  Biso   1.000  C
  C585     1.0000 0.87847  0.13924  0.93804  Biso   1.000  C
  C586     1.0000 0.93804  0.12153  0.86076  Biso   1.000  C
  C587     1.0000 0.07922  0.95909  0.79867  Biso   1.000  C
  C588     1.0000 0.06196  0.87847  0.86076  Biso   1.000  C
  C589     1.0000 0.04091  0.79867  0.92078  Biso   1.000  C
  N127     1.0000 0.77017  0.96313  0.04939  Biso   1.000  N
  H614     1.0000 0.78899  0.89701  0.01141  Biso   1.000  H
  H615     1.0000 0.86842  0.83859  0.03131  Biso   1.000  H
  N128     1.0000 0.95061  0.77017  0.03687  Biso   1.000  N
  H616     1.0000 0.98859  0.78899  0.10299  Biso   1.000  H
  C590     1.0000 0.84687  0.09310  0.92457  Biso   1.000  C
  H617     1.0000 0.86842  0.16141  0.96869  Biso   1.000  H
  C591     1.0000 0.90690  0.07543  0.84687  Biso   1.000  C
  H618     1.0000 0.96869  0.13158  0.83859  Biso   1.000  H
  N129     1.0000 0.03687  0.95061  0.77017  Biso   1.000  N
  H619     1.0000 0.10299  0.98859  0.78899  Biso   1.000  H
  H620     1.0000 0.03131  0.86842  0.83859  Biso   1.000  H
  N130     1.0000 0.04939  0.77017  0.96313  Biso   1.000  N
  H621     1.0000 0.01141  0.78899  0.89701  Biso   1.000  H
  C592     1.0000 0.72295  0.97100  0.01228  Biso   1.000  C
  C593     1.0000 0.98772  0.72295  0.02900  Biso   1.000  C
  C594     1.0000 0.79867  0.07922  0.95909  Biso   1.000  C
  C595     1.0000 0.86076  0.06196  0.87847  Biso   1.000  C
  C596     1.0000 0.92078  0.04091  0.79867  Biso   1.000  C
  C597     1.0000 0.02900  0.98772  0.72295  Biso   1.000  C
  C598     1.0000 0.01228  0.72295  0.97100  Biso   1.000  C
  H622     1.0000 0.72460  0.94352  0.98220  Biso   1.000  H
  H623     1.0000 0.68831  0.96498  0.03300  Biso   1.000  H
  C599     1.0000 0.72295  0.02900  0.98772  Biso   1.000  C
  H624     1.0000 0.96700  0.68831  0.03502  Biso   1.000  H
  H625     1.0000 0.01780  0.72460  0.05648  Biso   1.000  H
  N131     1.0000 0.77017  0.03687  0.95061  Biso   1.000  N
  H626     1.0000 0.78899  0.10299  0.98859  Biso   1.000  H
  H627     1.0000 0.83859  0.03131  0.86842  Biso   1.000  H
  N132     1.0000 0.96313  0.04939  0.77017  Biso   1.000  N
  H628     1.0000 0.89701  0.01141  0.78899  Biso   1.000  H
  C600     1.0000 0.97100  0.01228  0.72295  Biso   1.000  C
  H629     1.0000 0.03502  0.96700  0.68831  Biso   1.000  H
  H630     1.0000 0.05648  0.01780  0.72460  Biso   1.000  H
  H631     1.0000 0.98220  0.72460  0.94352  Biso   1.000  H
  H632     1.0000 0.03300  0.68831  0.96498  Biso   1.000  H
  H633     1.0000 0.68831  0.03502  0.96700  Biso   1.000  H
  H634     1.0000 0.72460  0.05648  0.01780  Biso   1.000  H
  H635     1.0000 0.94352  0.98220  0.72460  Biso   1.000  H
  H636     1.0000 0.96498  0.03300  0.68831  Biso   1.000  H
  C601     1.0000 0.37748  0.05821  0.37303  Biso   1.000  C
  C602     1.0000 0.42041  0.07337  0.33905  Biso   1.000  C
  C603     1.0000 0.36558  0.08832  0.42181  Biso   1.000  C
  H637     1.0000 0.35561  0.02711  0.36368  Biso   1.000  H
  C604     1.0000 0.45081  0.12025  0.35305  Biso   1.000  C
  C605     1.0000 0.43149  0.04021  0.28899  Biso   1.000  C
  C606     1.0000 0.39796  0.13286  0.43495  Biso   1.000  C
  C607     1.0000 0.31861  0.07321  0.45724  Biso   1.000  C
  C608     1.0000 0.44047  0.14983  0.40105  Biso   1.000  C
  H638     1.0000 0.47940  0.13220  0.32912  Biso   1.000  H
  N133     1.0000 0.46951  0.05203  0.25550  Biso   1.000  N
  H639     1.0000 0.40920  0.00890  0.28178  Biso   1.000  H
  H640     1.0000 0.39099  0.15251  0.46811  Biso   1.000  H
  N134     1.0000 0.28578  0.03234  0.44780  Biso   1.000  N
  H641     1.0000 0.31210  0.09492  0.48908  Biso   1.000  H
  C609     1.0000 0.47211  0.19951  0.41629  Biso   1.000  C
  C610     1.0000 0.47265  0.01598  0.20825  Biso   1.000  C
  C611     1.0000 0.24001  0.02711  0.48472  Biso   1.000  C
  N135     1.0000 0.45781  0.22946  0.45728  Biso   1.000  N
  H642     1.0000 0.50358  0.20940  0.39532  Biso   1.000  H
  H643     1.0000 0.46980  0.03811  0.17410  Biso   1.000  H
  C612     1.0000 0.52735  0.98402  0.20825  Biso   1.000  C
  H644     1.0000 0.44142  0.98978  0.20899  Biso   1.000  H
  H645     1.0000 0.20540  0.03049  0.46350  Biso   1.000  H
  H646     1.0000 0.24108  0.05772  0.51170  Biso   1.000  H
  C613     1.0000 0.24001  0.97289  0.51528  Biso   1.000  C
  C614     1.0000 0.49209  0.27659  0.46960  Biso   1.000  C
  H647     1.0000 0.55858  0.01022  0.20899  Biso   1.000  H
  N136     1.0000 0.53049  0.94797  0.25550  Biso   1.000  N
  H648     1.0000 0.53020  0.96189  0.17410  Biso   1.000  H
  N137     1.0000 0.28578  0.96766  0.55220  Biso   1.000  N
  H649     1.0000 0.20540  0.96951  0.53650  Biso   1.000  H
  H650     1.0000 0.24108  0.94228  0.48830  Biso   1.000  H
  C615     1.0000 0.50791  0.27659  0.53040  Biso   1.000  C
  H651     1.0000 0.47190  0.31091  0.46078  Biso   1.000  H
  H652     1.0000 0.52579  0.27540  0.44669  Biso   1.000  H
  C616     1.0000 0.56851  0.95979  0.28899  Biso   1.000  C
  C617     1.0000 0.31861  0.92679  0.54276  Biso   1.000  C
  N138     1.0000 0.54219  0.22946  0.54272  Biso   1.000  N
  H653     1.0000 0.52810  0.31091  0.53922  Biso   1.000  H
  H654     1.0000 0.47421  0.27540  0.55331  Biso   1.000  H
  C618     1.0000 0.57959  0.92663  0.33905  Biso   1.000  C
  H655     1.0000 0.59080  0.99110  0.28178  Biso   1.000  H
  C619     1.0000 0.36558  0.91168  0.57819  Biso   1.000  C
  H656     1.0000 0.31210  0.90508  0.51092  Biso   1.000  H
  C620     1.0000 0.52789  0.19951  0.58371  Biso   1.000  C
  C621     1.0000 0.62252  0.94179  0.37303  Biso   1.000  C
  C622     1.0000 0.54919  0.87975  0.35305  Biso   1.000  C
  C623     1.0000 0.37748  0.94179  0.62697  Biso   1.000  C
  C624     1.0000 0.39796  0.86714  0.56505  Biso   1.000  C
  C625     1.0000 0.55953  0.14983  0.59895  Biso   1.000  C
  H657     1.0000 0.49642  0.20940  0.60468  Biso   1.000  H
  C626     1.0000 0.63442  0.91168  0.42181  Biso   1.000  C
  H658     1.0000 0.64439  0.97289  0.36368  Biso   1.000  H
  C627     1.0000 0.55953  0.85017  0.40105  Biso   1.000  C
  H659     1.0000 0.52060  0.86780  0.32912  Biso   1.000  H
  C628     1.0000 0.42041  0.92663  0.66095  Biso   1.000  C
  H660     1.0000 0.35561  0.97289  0.63632  Biso   1.000  H
  C629     1.0000 0.44047  0.85017  0.59895  Biso   1.000  C
  H661     1.0000 0.39099  0.84749  0.53189  Biso   1.000  H
  C630     1.0000 0.54919  0.12025  0.64695  Biso   1.000  C
  C631     1.0000 0.60204  0.13286  0.56505  Biso   1.000  C
  C632     1.0000 0.68139  0.92679  0.45724  Biso   1.000  C
  C633     1.0000 0.60204  0.86714  0.43495  Biso   1.000  C
  C634     1.0000 0.52789  0.80049  0.41629  Biso   1.000  C
  C635     1.0000 0.43149  0.95979  0.71101  Biso   1.000  C
  C636     1.0000 0.45081  0.87975  0.64695  Biso   1.000  C
  C637     1.0000 0.47211  0.80049  0.58371  Biso   1.000  C
  C638     1.0000 0.57959  0.07337  0.66095  Biso   1.000  C
  H662     1.0000 0.52060  0.13220  0.67088  Biso   1.000  H
  C639     1.0000 0.63442  0.08832  0.57819  Biso   1.000  C
  H663     1.0000 0.60901  0.15251  0.53189  Biso   1.000  H
  N139     1.0000 0.71422  0.96766  0.44780  Biso   1.000  N
  H664     1.0000 0.68790  0.90508  0.48908  Biso   1.000  H
  H665     1.0000 0.60901  0.84749  0.46811  Biso   1.000  H
  N140     1.0000 0.54219  0.77054  0.45728  Biso   1.000  N
  H666     1.0000 0.49642  0.79060  0.39532  Biso   1.000  H
  N141     1.0000 0.46951  0.94797  0.74450  Biso   1.000  N
  H667     1.0000 0.40920  0.99110  0.71822  Biso   1.000  H
  H668     1.0000 0.47940  0.86780  0.67088  Biso   1.000  H
  N142     1.0000 0.45781  0.77054  0.54272  Biso   1.000  N
  H669     1.0000 0.50358  0.79060  0.60468  Biso   1.000  H
  C640     1.0000 0.62252  0.05821  0.62697  Biso   1.000  C
  C641     1.0000 0.56851  0.04021  0.71101  Biso   1.000  C
  C642     1.0000 0.68139  0.07321  0.54276  Biso   1.000  C
  C643     1.0000 0.75999  0.97289  0.48472  Biso   1.000  C
  C644     1.0000 0.50791  0.72341  0.46960  Biso   1.000  C
  C645     1.0000 0.47265  0.98402  0.79175  Biso   1.000  C
  C646     1.0000 0.49209  0.72341  0.53040  Biso   1.000  C
  H670     1.0000 0.64439  0.02711  0.63632  Biso   1.000  H
  N143     1.0000 0.53049  0.05203  0.74450  Biso   1.000  N
  H671     1.0000 0.59080  0.00890  0.71822  Biso   1.000  H
  N144     1.0000 0.71422  0.03234  0.55220  Biso   1.000  N
  H672     1.0000 0.68790  0.09492  0.51092  Biso   1.000  H
  C647     1.0000 0.75999  0.02711  0.51528  Biso   1.000  C
  H673     1.0000 0.79460  0.96951  0.46350  Biso   1.000  H
  H674     1.0000 0.75892  0.94228  0.51170  Biso   1.000  H
  H675     1.0000 0.52810  0.68909  0.46078  Biso   1.000  H
  H676     1.0000 0.47421  0.72460  0.44669  Biso   1.000  H
  C648     1.0000 0.52735  0.01598  0.79175  Biso   1.000  C
  H677     1.0000 0.44142  0.01022  0.79101  Biso   1.000  H
  H678     1.0000 0.46980  0.96189  0.82590  Biso   1.000  H
  H679     1.0000 0.47190  0.68909  0.53922  Biso   1.000  H
  H680     1.0000 0.52579  0.72460  0.55331  Biso   1.000  H
  H681     1.0000 0.79460  0.03049  0.53650  Biso   1.000  H
  H682     1.0000 0.75892  0.05772  0.48830  Biso   1.000  H
  H683     1.0000 0.53020  0.03811  0.82590  Biso   1.000  H
  H684     1.0000 0.55858  0.98978  0.79101  Biso   1.000  H
  C649     1.0000 0.37748  0.05821  0.37303  Biso   1.000  C
  C650     1.0000 0.42041  0.07337  0.33905  Biso   1.000  C
  C651     1.0000 0.36558  0.08832  0.42181  Biso   1.000  C
  H685     1.0000 0.35561  0.02711  0.36368  Biso   1.000  H
  C652     1.0000 0.45081  0.12025  0.35305  Biso   1.000  C
  C653     1.0000 0.43149  0.04021  0.28899  Biso   1.000  C
  C654     1.0000 0.39796  0.13286  0.43495  Biso   1.000  C
  C655     1.0000 0.31861  0.07321  0.45724  Biso   1.000  C
  C656     1.0000 0.44047  0.14983  0.40105  Biso   1.000  C
  H686     1.0000 0.47940  0.13220  0.32912  Biso   1.000  H
  N145     1.0000 0.46951  0.05203  0.25550  Biso   1.000  N
  H687     1.0000 0.40920  0.00890  0.28178  Biso   1.000  H
  H688     1.0000 0.39099  0.15251  0.46811  Biso   1.000  H
  N146     1.0000 0.28578  0.03234  0.44780  Biso   1.000  N
  H689     1.0000 0.31210  0.09492  0.48908  Biso   1.000  H
  C657     1.0000 0.47211  0.19951  0.41629  Biso   1.000  C
  C658     1.0000 0.47265  0.01598  0.20825  Biso   1.000  C
  C659     1.0000 0.24001  0.02711  0.48472  Biso   1.000  C
  N147     1.0000 0.45781  0.22946  0.45728  Biso   1.000  N
  H690     1.0000 0.50358  0.20940  0.39532  Biso   1.000  H
  H691     1.0000 0.46980  0.03811  0.17410  Biso   1.000  H
  C660     1.0000 0.52735  0.98402  0.20825  Biso   1.000  C
  H692     1.0000 0.44142  0.98978  0.20899  Biso   1.000  H
  H693     1.0000 0.20540  0.03049  0.46350  Biso   1.000  H
  H694     1.0000 0.24108  0.05772  0.51170  Biso   1.000  H
  C661     1.0000 0.24001  0.97289  0.51528  Biso   1.000  C
  C662     1.0000 0.49209  0.27659  0.46960  Biso   1.000  C
  H695     1.0000 0.55858  0.01022  0.20899  Biso   1.000  H
  N148     1.0000 0.53049  0.94797  0.25550  Biso   1.000  N
  H696     1.0000 0.53020  0.96189  0.17410  Biso   1.000  H
  N149     1.0000 0.28578  0.96766  0.55220  Biso   1.000  N
  H697     1.0000 0.20540  0.96951  0.53650  Biso   1.000  H
  H698     1.0000 0.24108  0.94228  0.48830  Biso   1.000  H
  C663     1.0000 0.50791  0.27659  0.53040  Biso   1.000  C
  H699     1.0000 0.47190  0.31091  0.46078  Biso   1.000  H
  H700     1.0000 0.52579  0.27540  0.44669  Biso   1.000  H
  C664     1.0000 0.56851  0.95979  0.28899  Biso   1.000  C
  C665     1.0000 0.31861  0.92679  0.54276  Biso   1.000  C
  N150     1.0000 0.54219  0.22946  0.54272  Biso   1.000  N
  H701     1.0000 0.52810  0.31091  0.53922  Biso   1.000  H
  H702     1.0000 0.47421  0.27540  0.55331  Biso   1.000  H
  C666     1.0000 0.57959  0.92663  0.33905  Biso   1.000  C
  H703     1.0000 0.59080  0.99110  0.28178  Biso   1.000  H
  C667     1.0000 0.36558  0.91168  0.57819  Biso   1.000  C
  H704     1.0000 0.31210  0.90508  0.51092  Biso   1.000  H
  C668     1.0000 0.52789  0.19951  0.58371  Biso   1.000  C
  C669     1.0000 0.62252  0.94179  0.37303  Biso   1.000  C
  C670     1.0000 0.54919  0.87975  0.35305  Biso   1.000  C
  C671     1.0000 0.37748  0.94179  0.62697  Biso   1.000  C
  C672     1.0000 0.39796  0.86714  0.56505  Biso   1.000  C
  C673     1.0000 0.55953  0.14983  0.59895  Biso   1.000  C
  H705     1.0000 0.49642  0.20940  0.60468  Biso   1.000  H
  C674     1.0000 0.63442  0.91168  0.42181  Biso   1.000  C
  H706     1.0000 0.64439  0.97289  0.36368  Biso   1.000  H
  C675     1.0000 0.55953  0.85017  0.40105  Biso   1.000  C
  H707     1.0000 0.52060  0.86780  0.32912  Biso   1.000  H
  C676     1.0000 0.42041  0.92663  0.66095  Biso   1.000  C
  H708     1.0000 0.35561  0.97289  0.63632  Biso   1.000  H
  C677     1.0000 0.44047  0.85017  0.59895  Biso   1.000  C
  H709     1.0000 0.39099  0.84749  0.53189  Biso   1.000  H
  C678     1.0000 0.54919  0.12025  0.64695  Biso   1.000  C
  C679     1.0000 0.60204  0.13286  0.56505  Biso   1.000  C
  C680     1.0000 0.68139  0.92679  0.45724  Biso   1.000  C
  C681     1.0000 0.60204  0.86714  0.43495  Biso   1.000  C
  C682     1.0000 0.52789  0.80049  0.41629  Biso   1.000  C
  C683     1.0000 0.43149  0.95979  0.71101  Biso   1.000  C
  C684     1.0000 0.45081  0.87975  0.64695  Biso   1.000  C
  C685     1.0000 0.47211  0.80049  0.58371  Biso   1.000  C
  C686     1.0000 0.57959  0.07337  0.66095  Biso   1.000  C
  H710     1.0000 0.52060  0.13220  0.67088  Biso   1.000  H
  C687     1.0000 0.63442  0.08832  0.57819  Biso   1.000  C
  H711     1.0000 0.60901  0.15251  0.53189  Biso   1.000  H
  N151     1.0000 0.71422  0.96766  0.44780  Biso   1.000  N
  H712     1.0000 0.68790  0.90508  0.48908  Biso   1.000  H
  H713     1.0000 0.60901  0.84749  0.46811  Biso   1.000  H
  N152     1.0000 0.54219  0.77054  0.45728  Biso   1.000  N
  H714     1.0000 0.49642  0.79060  0.39532  Biso   1.000  H
  N153     1.0000 0.46951  0.94797  0.74450  Biso   1.000  N
  H715     1.0000 0.40920  0.99110  0.71822  Biso   1.000  H
  H716     1.0000 0.47940  0.86780  0.67088  Biso   1.000  H
  N154     1.0000 0.45781  0.77054  0.54272  Biso   1.000  N
  H717     1.0000 0.50358  0.79060  0.60468  Biso   1.000  H
  C688     1.0000 0.62252  0.05821  0.62697  Biso   1.000  C
  C689     1.0000 0.56851  0.04021  0.71101  Biso   1.000  C
  C690     1.0000 0.68139  0.07321  0.54276  Biso   1.000  C
  C691     1.0000 0.75999  0.97289  0.48472  Biso   1.000  C
  C692     1.0000 0.50791  0.72341  0.46960  Biso   1.000  C
  C693     1.0000 0.47265  0.98402  0.79175  Biso   1.000  C
  C694     1.0000 0.49209  0.72341  0.53040  Biso   1.000  C
  H718     1.0000 0.64439  0.02711  0.63632  Biso   1.000  H
  N155     1.0000 0.53049  0.05203  0.74450  Biso   1.000  N
  H719     1.0000 0.59080  0.00890  0.71822  Biso   1.000  H
  N156     1.0000 0.71422  0.03234  0.55220  Biso   1.000  N
  H720     1.0000 0.68790  0.09492  0.51092  Biso   1.000  H
  C695     1.0000 0.75999  0.02711  0.51528  Biso   1.000  C
  H721     1.0000 0.79460  0.96951  0.46350  Biso   1.000  H
  H722     1.0000 0.75892  0.94228  0.51170  Biso   1.000  H
  H723     1.0000 0.52810  0.68909  0.46078  Biso   1.000  H
  H724     1.0000 0.47421  0.72460  0.44669  Biso   1.000  H
  C696     1.0000 0.52735  0.01598  0.79175  Biso   1.000  C
  H725     1.0000 0.44142  0.01022  0.79101  Biso   1.000  H
  H726     1.0000 0.46980  0.96189  0.82590  Biso   1.000  H
  H727     1.0000 0.47190  0.68909  0.53922  Biso   1.000  H
  H728     1.0000 0.52579  0.72460  0.55331  Biso   1.000  H
  H729     1.0000 0.79460  0.03049  0.53650  Biso   1.000  H
  H730     1.0000 0.75892  0.05772  0.48830  Biso   1.000  H
  H731     1.0000 0.53020  0.03811  0.82590  Biso   1.000  H
  H732     1.0000 0.55858  0.98978  0.79101  Biso   1.000  H
  C697     1.0000 0.37303  0.37748  0.05821  Biso   1.000  C
  C698     1.0000 0.42181  0.36558  0.08832  Biso   1.000  C
  C699     1.0000 0.33905  0.42041  0.07337  Biso   1.000  C
  H733     1.0000 0.36368  0.35561  0.02711  Biso   1.000  H
  C700     1.0000 0.45724  0.31861  0.07321  Biso   1.000  C
  C701     1.0000 0.43495  0.39796  0.13286  Biso   1.000  C
  C702     1.0000 0.28899  0.43149  0.04021  Biso   1.000  C
  C703     1.0000 0.35305  0.45081  0.12025  Biso   1.000  C
  N157     1.0000 0.44780  0.28578  0.03234  Biso   1.000  N
  H734     1.0000 0.48908  0.31210  0.09492  Biso   1.000  H
  C704     1.0000 0.40105  0.44047  0.14983  Biso   1.000  C
  H735     1.0000 0.46811  0.39099  0.15251  Biso   1.000  H
  N158     1.0000 0.25550  0.46951  0.05203  Biso   1.000  N
  H736     1.0000 0.28178  0.40920  0.00890  Biso   1.000  H
  H737     1.0000 0.32912  0.47940  0.13220  Biso   1.000  H
  C705     1.0000 0.48472  0.24001  0.02711  Biso   1.000  C
  C706     1.0000 0.41629  0.47211  0.19951  Biso   1.000  C
  C707     1.0000 0.20825  0.47265  0.01598  Biso   1.000  C
  H738     1.0000 0.46350  0.20540  0.03049  Biso   1.000  H
  H739     1.0000 0.51170  0.24108  0.05772  Biso   1.000  H
  C708     1.0000 0.51528  0.24001  0.97289  Biso   1.000  C
  N159     1.0000 0.45728  0.45781  0.22946  Biso   1.000  N
  H740     1.0000 0.39532  0.50358  0.20940  Biso   1.000  H
  H741     1.0000 0.17410  0.46980  0.03811  Biso   1.000  H
  C709     1.0000 0.20825  0.52735  0.98402  Biso   1.000  C
  H742     1.0000 0.20899  0.44142  0.98978  Biso   1.000  H
  N160     1.0000 0.55220  0.28578  0.96766  Biso   1.000  N
  H743     1.0000 0.53650  0.20540  0.96951  Biso   1.000  H
  H744     1.0000 0.48830  0.24108  0.94228  Biso   1.000  H
  C710     1.0000 0.46960  0.49209  0.27659  Biso   1.000  C
  H745     1.0000 0.20899  0.55858  0.01022  Biso   1.000  H
  N161     1.0000 0.25550  0.53049  0.94797  Biso   1.000  N
  H746     1.0000 0.17410  0.53020  0.96189  Biso   1.000  H
  C711     1.0000 0.54276  0.31861  0.92679  Biso   1.000  C
  C712     1.0000 0.53040  0.50791  0.27659  Biso   1.000  C
  H747     1.0000 0.46078  0.47190  0.31091  Biso   1.000  H
  H748     1.0000 0.44669  0.52579  0.27540  Biso   1.000  H
  C713     1.0000 0.28899  0.56851  0.95979  Biso   1.000  C
  C714     1.0000 0.57819  0.36558  0.91168  Biso   1.000  C
  H749     1.0000 0.51092  0.31210  0.90508  Biso   1.000  H
  N162     1.0000 0.54272  0.54219  0.22946  Biso   1.000  N
  H750     1.0000 0.53922  0.52810  0.31091  Biso   1.000  H
  H751     1.0000 0.55331  0.47421  0.27540  Biso   1.000  H
  C715     1.0000 0.33905  0.57959  0.92663  Biso   1.000  C
  H752     1.0000 0.28178  0.59080  0.99110  Biso   1.000  H
  C716     1.0000 0.62697  0.37748  0.94179  Biso   1.000  C
  C717     1.0000 0.56505  0.39796  0.86714  Biso   1.000  C
  C718     1.0000 0.58371  0.52789  0.19951  Biso   1.000  C
  C719     1.0000 0.37303  0.62252  0.94179  Biso   1.000  C
  C720     1.0000 0.35305  0.54919  0.87975  Biso   1.000  C
  C721     1.0000 0.66095  0.42041  0.92663  Biso   1.000  C
  H753     1.0000 0.63632  0.35561  0.97289  Biso   1.000  H
  C722     1.0000 0.59895  0.44047  0.85017  Biso   1.000  C
  H754     1.0000 0.53189  0.39099  0.84749  Biso   1.000  H
  C723     1.0000 0.59895  0.55953  0.14983  Biso   1.000  C
  H755     1.0000 0.60468  0.49642  0.20940  Biso   1.000  H
  C724     1.0000 0.42181  0.63442  0.91168  Biso   1.000  C
  H756     1.0000 0.36368  0.64439  0.97289  Biso   1.000  H
  C725     1.0000 0.40105  0.55953  0.85017  Biso   1.000  C
  H757     1.0000 0.32912  0.52060  0.86780  Biso   1.000  H
  C726     1.0000 0.71101  0.43149  0.95979  Biso   1.000  C
  C727     1.0000 0.64695  0.45081  0.87975  Biso   1.000  C
  C728     1.0000 0.58371  0.47211  0.80049  Biso   1.000  C
  C729     1.0000 0.64695  0.54919  0.12025  Biso   1.000  C
  C730     1.0000 0.56505  0.60204  0.13286  Biso   1.000  C
  C731     1.0000 0.45724  0.68139  0.92679  Biso   1.000  C
  C732     1.0000 0.43495  0.60204  0.86714  Biso   1.000  C
  C733     1.0000 0.41629  0.52789  0.80049  Biso   1.000  C
  N163     1.0000 0.74450  0.46951  0.94797  Biso   1.000  N
  H758     1.0000 0.71822  0.40920  0.99110  Biso   1.000  H
  H759     1.0000 0.67088  0.47940  0.86780  Biso   1.000  H
  N164     1.0000 0.54272  0.45781  0.77054  Biso   1.000  N
  H760     1.0000 0.60468  0.50358  0.79060  Biso   1.000  H
  C734     1.0000 0.66095  0.57959  0.07337  Biso   1.000  C
  H761     1.0000 0.67088  0.52060  0.13220  Biso   1.000  H
  C735     1.0000 0.57819  0.63442  0.08832  Biso   1.000  C
  H762     1.0000 0.53189  0.60901  0.15251  Biso   1.000  H
  N165     1.0000 0.44780  0.71422  0.96766  Biso   1.000  N
  H763     1.0000 0.48908  0.68790  0.90508  Biso   1.000  H
  H764     1.0000 0.46811  0.60901  0.84749  Biso   1.000  H
  N166     1.0000 0.45728  0.54219  0.77054  Biso   1.000  N
  H765     1.0000 0.39532  0.49642  0.79060  Biso   1.000  H
  C736     1.0000 0.79175  0.47265  0.98402  Biso   1.000  C
  C737     1.0000 0.53040  0.49209  0.72341  Biso   1.000  C
  C738     1.0000 0.62697  0.62252  0.05821  Biso   1.000  C
  C739     1.0000 0.71101  0.56851  0.04021  Biso   1.000  C
  C740     1.0000 0.54276  0.68139  0.07321  Biso   1.000  C
  C741     1.0000 0.48472  0.75999  0.97289  Biso   1.000  C
  C742     1.0000 0.46960  0.50791  0.72341  Biso   1.000  C
  H766     1.0000 0.79101  0.44142  0.01022  Biso   1.000  H
  C743     1.0000 0.79175  0.52735  0.01598  Biso   1.000  C
  H767     1.0000 0.82590  0.46980  0.96189  Biso   1.000  H
  H768     1.0000 0.53922  0.47190  0.68909  Biso   1.000  H
  H769     1.0000 0.55331  0.52579  0.72460  Biso   1.000  H
  H770     1.0000 0.63632  0.64439  0.02711  Biso   1.000  H
  N167     1.0000 0.74450  0.53049  0.05203  Biso   1.000  N
  H771     1.0000 0.71822  0.59080  0.00890  Biso   1.000  H
  N168     1.0000 0.55220  0.71422  0.03234  Biso   1.000  N
  H772     1.0000 0.51092  0.68790  0.09492  Biso   1.000  H
  C744     1.0000 0.51528  0.75999  0.02711  Biso   1.000  C
  H773     1.0000 0.46350  0.79460  0.96951  Biso   1.000  H
  H774     1.0000 0.51170  0.75892  0.94228  Biso   1.000  H
  H775     1.0000 0.46078  0.52810  0.68909  Biso   1.000  H
  H776     1.0000 0.44669  0.47421  0.72460  Biso   1.000  H
  H777     1.0000 0.82590  0.53020  0.03811  Biso   1.000  H
  H778     1.0000 0.79101  0.55858  0.98978  Biso   1.000  H
  H779     1.0000 0.53650  0.79460  0.03049  Biso   1.000  H
  H780     1.0000 0.48830  0.75892  0.05772  Biso   1.000  H
  C745     1.0000 0.37303  0.37748  0.05821  Biso   1.000  C
  C746     1.0000 0.42181  0.36558  0.08832  Biso   1.000  C
  C747     1.0000 0.33905  0.42041  0.07337  Biso   1.000  C
  H781     1.0000 0.36368  0.35561  0.02711  Biso   1.000  H
  C748     1.0000 0.45724  0.31861  0.07321  Biso   1.000  C
  C749     1.0000 0.43495  0.39796  0.13286  Biso   1.000  C
  C750     1.0000 0.28899  0.43149  0.04021  Biso   1.000  C
  C751     1.0000 0.35305  0.45081  0.12025  Biso   1.000  C
  N169     1.0000 0.44780  0.28578  0.03234  Biso   1.000  N
  H782     1.0000 0.48908  0.31210  0.09492  Biso   1.000  H
  C752     1.0000 0.40105  0.44047  0.14983  Biso   1.000  C
  H783     1.0000 0.46811  0.39099  0.15251  Biso   1.000  H
  N170     1.0000 0.25550  0.46951  0.05203  Biso   1.000  N
  H784     1.0000 0.28178  0.40920  0.00890  Biso   1.000  H
  H785     1.0000 0.32912  0.47940  0.13220  Biso   1.000  H
  C753     1.0000 0.48472  0.24001  0.02711  Biso   1.000  C
  C754     1.0000 0.41629  0.47211  0.19951  Biso   1.000  C
  C755     1.0000 0.20825  0.47265  0.01598  Biso   1.000  C
  H786     1.0000 0.46350  0.20540  0.03049  Biso   1.000  H
  H787     1.0000 0.51170  0.24108  0.05772  Biso   1.000  H
  C756     1.0000 0.51528  0.24001  0.97289  Biso   1.000  C
  N171     1.0000 0.45728  0.45781  0.22946  Biso   1.000  N
  H788     1.0000 0.39532  0.50358  0.20940  Biso   1.000  H
  H789     1.0000 0.17410  0.46980  0.03811  Biso   1.000  H
  C757     1.0000 0.20825  0.52735  0.98402  Biso   1.000  C
  H790     1.0000 0.20899  0.44142  0.98978  Biso   1.000  H
  N172     1.0000 0.55220  0.28578  0.96766  Biso   1.000  N
  H791     1.0000 0.53650  0.20540  0.96951  Biso   1.000  H
  H792     1.0000 0.48830  0.24108  0.94228  Biso   1.000  H
  C758     1.0000 0.46960  0.49209  0.27659  Biso   1.000  C
  H793     1.0000 0.20899  0.55858  0.01022  Biso   1.000  H
  N173     1.0000 0.25550  0.53049  0.94797  Biso   1.000  N
  H794     1.0000 0.17410  0.53020  0.96189  Biso   1.000  H
  C759     1.0000 0.54276  0.31861  0.92679  Biso   1.000  C
  C760     1.0000 0.53040  0.50791  0.27659  Biso   1.000  C
  H795     1.0000 0.46078  0.47190  0.31091  Biso   1.000  H
  H796     1.0000 0.44669  0.52579  0.27540  Biso   1.000  H
  C761     1.0000 0.28899  0.56851  0.95979  Biso   1.000  C
  C762     1.0000 0.57819  0.36558  0.91168  Biso   1.000  C
  H797     1.0000 0.51092  0.31210  0.90508  Biso   1.000  H
  N174     1.0000 0.54272  0.54219  0.22946  Biso   1.000  N
  H798     1.0000 0.53922  0.52810  0.31091  Biso   1.000  H
  H799     1.0000 0.55331  0.47421  0.27540  Biso   1.000  H
  C763     1.0000 0.33905  0.57959  0.92663  Biso   1.000  C
  H800     1.0000 0.28178  0.59080  0.99110  Biso   1.000  H
  C764     1.0000 0.62697  0.37748  0.94179  Biso   1.000  C
  C765     1.0000 0.56505  0.39796  0.86714  Biso   1.000  C
  C766     1.0000 0.58371  0.52789  0.19951  Biso   1.000  C
  C767     1.0000 0.37303  0.62252  0.94179  Biso   1.000  C
  C768     1.0000 0.35305  0.54919  0.87975  Biso   1.000  C
  C769     1.0000 0.66095  0.42041  0.92663  Biso   1.000  C
  H801     1.0000 0.63632  0.35561  0.97289  Biso   1.000  H
  C770     1.0000 0.59895  0.44047  0.85017  Biso   1.000  C
  H802     1.0000 0.53189  0.39099  0.84749  Biso   1.000  H
  C771     1.0000 0.59895  0.55953  0.14983  Biso   1.000  C
  H803     1.0000 0.60468  0.49642  0.20940  Biso   1.000  H
  C772     1.0000 0.42181  0.63442  0.91168  Biso   1.000  C
  H804     1.0000 0.36368  0.64439  0.97289  Biso   1.000  H
  C773     1.0000 0.40105  0.55953  0.85017  Biso   1.000  C
  H805     1.0000 0.32912  0.52060  0.86780  Biso   1.000  H
  C774     1.0000 0.71101  0.43149  0.95979  Biso   1.000  C
  C775     1.0000 0.64695  0.45081  0.87975  Biso   1.000  C
  C776     1.0000 0.58371  0.47211  0.80049  Biso   1.000  C
  C777     1.0000 0.64695  0.54919  0.12025  Biso   1.000  C
  C778     1.0000 0.56505  0.60204  0.13286  Biso   1.000  C
  C779     1.0000 0.45724  0.68139  0.92679  Biso   1.000  C
  C780     1.0000 0.43495  0.60204  0.86714  Biso   1.000  C
  C781     1.0000 0.41629  0.52789  0.80049  Biso   1.000  C
  N175     1.0000 0.74450  0.46951  0.94797  Biso   1.000  N
  H806     1.0000 0.71822  0.40920  0.99110  Biso   1.000  H
  H807     1.0000 0.67088  0.47940  0.86780  Biso   1.000  H
  N176     1.0000 0.54272  0.45781  0.77054  Biso   1.000  N
  H808     1.0000 0.60468  0.50358  0.79060  Biso   1.000  H
  C782     1.0000 0.66095  0.57959  0.07337  Biso   1.000  C
  H809     1.0000 0.67088  0.52060  0.13220  Biso   1.000  H
  C783     1.0000 0.57819  0.63442  0.08832  Biso   1.000  C
  H810     1.0000 0.53189  0.60901  0.15251  Biso   1.000  H
  N177     1.0000 0.44780  0.71422  0.96766  Biso   1.000  N
  H811     1.0000 0.48908  0.68790  0.90508  Biso   1.000  H
  H812     1.0000 0.46811  0.60901  0.84749  Biso   1.000  H
  N178     1.0000 0.45728  0.54219  0.77054  Biso   1.000  N
  H813     1.0000 0.39532  0.49642  0.79060  Biso   1.000  H
  C784     1.0000 0.79175  0.47265  0.98402  Biso   1.000  C
  C785     1.0000 0.53040  0.49209  0.72341  Biso   1.000  C
  C786     1.0000 0.62697  0.62252  0.05821  Biso   1.000  C
  C787     1.0000 0.71101  0.56851  0.04021  Biso   1.000  C
  C788     1.0000 0.54276  0.68139  0.07321  Biso   1.000  C
  C789     1.0000 0.48472  0.75999  0.97289  Biso   1.000  C
  C790     1.0000 0.46960  0.50791  0.72341  Biso   1.000  C
  H814     1.0000 0.79101  0.44142  0.01022  Biso   1.000  H
  C791     1.0000 0.79175  0.52735  0.01598  Biso   1.000  C
  H815     1.0000 0.82590  0.46980  0.96189  Biso   1.000  H
  H816     1.0000 0.53922  0.47190  0.68909  Biso   1.000  H
  H817     1.0000 0.55331  0.52579  0.72460  Biso   1.000  H
  H818     1.0000 0.63632  0.64439  0.02711  Biso   1.000  H
  N179     1.0000 0.74450  0.53049  0.05203  Biso   1.000  N
  H819     1.0000 0.71822  0.59080  0.00890  Biso   1.000  H
  N180     1.0000 0.55220  0.71422  0.03234  Biso   1.000  N
  H820     1.0000 0.51092  0.68790  0.09492  Biso   1.000  H
  C792     1.0000 0.51528  0.75999  0.02711  Biso   1.000  C
  H821     1.0000 0.46350  0.79460  0.96951  Biso   1.000  H
  H822     1.0000 0.51170  0.75892  0.94228  Biso   1.000  H
  H823     1.0000 0.46078  0.52810  0.68909  Biso   1.000  H
  H824     1.0000 0.44669  0.47421  0.72460  Biso   1.000  H
  H825     1.0000 0.82590  0.53020  0.03811  Biso   1.000  H
  H826     1.0000 0.79101  0.55858  0.98978  Biso   1.000  H
  H827     1.0000 0.53650  0.79460  0.03049  Biso   1.000  H
  H828     1.0000 0.48830  0.75892  0.05772  Biso   1.000  H
  C793     1.0000 0.05821  0.37303  0.37748  Biso   1.000  C
  C794     1.0000 0.07337  0.33905  0.42041  Biso   1.000  C
  C795     1.0000 0.08832  0.42181  0.36558  Biso   1.000  C
  H829     1.0000 0.02711  0.36368  0.35561  Biso   1.000  H
  C796     1.0000 0.12025  0.35305  0.45081  Biso   1.000  C
  C797     1.0000 0.04021  0.28899  0.43149  Biso   1.000  C
  C798     1.0000 0.13286  0.43495  0.39796  Biso   1.000  C
  C799     1.0000 0.07321  0.45724  0.31861  Biso   1.000  C
  C800     1.0000 0.14983  0.40105  0.44047  Biso   1.000  C
  H830     1.0000 0.13220  0.32912  0.47940  Biso   1.000  H
  N181     1.0000 0.05203  0.25550  0.46951  Biso   1.000  N
  H831     1.0000 0.00890  0.28178  0.40920  Biso   1.000  H
  H832     1.0000 0.15251  0.46811  0.39099  Biso   1.000  H
  N182     1.0000 0.03234  0.44780  0.28578  Biso   1.000  N
  H833     1.0000 0.09492  0.48908  0.31210  Biso   1.000  H
  C801     1.0000 0.19951  0.41629  0.47211  Biso   1.000  C
  C802     1.0000 0.01598  0.20825  0.47265  Biso   1.000  C
  C803     1.0000 0.02711  0.48472  0.24001  Biso   1.000  C
  N183     1.0000 0.22946  0.45728  0.45781  Biso   1.000  N
  H834     1.0000 0.20940  0.39532  0.50358  Biso   1.000  H
  H835     1.0000 0.03811  0.17410  0.46980  Biso   1.000  H
  C804     1.0000 0.98402  0.20825  0.52735  Biso   1.000  C
  H836     1.0000 0.98978  0.20899  0.44142  Biso   1.000  H
  H837     1.0000 0.03049  0.46350  0.20540  Biso   1.000  H
  H838     1.0000 0.05772  0.51170  0.24108  Biso   1.000  H
  C805     1.0000 0.97289  0.51528  0.24001  Biso   1.000  C
  C806     1.0000 0.27659  0.46960  0.49209  Biso   1.000  C
  H839     1.0000 0.01022  0.20899  0.55858  Biso   1.000  H
  N184     1.0000 0.94797  0.25550  0.53049  Biso   1.000  N
  H840     1.0000 0.96189  0.17410  0.53020  Biso   1.000  H
  N185     1.0000 0.96766  0.55220  0.28578  Biso   1.000  N
  H841     1.0000 0.96951  0.53650  0.20540  Biso   1.000  H
  H842     1.0000 0.94228  0.48830  0.24108  Biso   1.000  H
  C807     1.0000 0.27659  0.53040  0.50791  Biso   1.000  C
  H843     1.0000 0.31091  0.46078  0.47190  Biso   1.000  H
  H844     1.0000 0.27540  0.44669  0.52579  Biso   1.000  H
  C808     1.0000 0.95979  0.28899  0.56851  Biso   1.000  C
  C809     1.0000 0.92679  0.54276  0.31861  Biso   1.000  C
  N186     1.0000 0.22946  0.54272  0.54219  Biso   1.000  N
  H845     1.0000 0.31091  0.53922  0.52810  Biso   1.000  H
  H846     1.0000 0.27540  0.55331  0.47421  Biso   1.000  H
  C810     1.0000 0.92663  0.33905  0.57959  Biso   1.000  C
  H847     1.0000 0.99110  0.28178  0.59080  Biso   1.000  H
  C811     1.0000 0.91168  0.57819  0.36558  Biso   1.000  C
  H848     1.0000 0.90508  0.51092  0.31210  Biso   1.000  H
  C812     1.0000 0.19951  0.58371  0.52789  Biso   1.000  C
  C813     1.0000 0.94179  0.37303  0.62252  Biso   1.000  C
  C814     1.0000 0.87975  0.35305  0.54919  Biso   1.000  C
  C815     1.0000 0.94179  0.62697  0.37748  Biso   1.000  C
  C816     1.0000 0.86714  0.56505  0.39796  Biso   1.000  C
  C817     1.0000 0.14983  0.59895  0.55953  Biso   1.000  C
  H849     1.0000 0.20940  0.60468  0.49642  Biso   1.000  H
  C818     1.0000 0.91168  0.42181  0.63442  Biso   1.000  C
  H850     1.0000 0.97289  0.36368  0.64439  Biso   1.000  H
  C819     1.0000 0.85017  0.40105  0.55953  Biso   1.000  C
  H851     1.0000 0.86780  0.32912  0.52060  Biso   1.000  H
  C820     1.0000 0.92663  0.66095  0.42041  Biso   1.000  C
  H852     1.0000 0.97289  0.63632  0.35561  Biso   1.000  H
  C821     1.0000 0.85017  0.59895  0.44047  Biso   1.000  C
  H853     1.0000 0.84749  0.53189  0.39099  Biso   1.000  H
  C822     1.0000 0.12025  0.64695  0.54919  Biso   1.000  C
  C823     1.0000 0.13286  0.56505  0.60204  Biso   1.000  C
  C824     1.0000 0.92679  0.45724  0.68139  Biso   1.000  C
  C825     1.0000 0.86714  0.43495  0.60204  Biso   1.000  C
  C826     1.0000 0.80049  0.41629  0.52789  Biso   1.000  C
  C827     1.0000 0.95979  0.71101  0.43149  Biso   1.000  C
  C828     1.0000 0.87975  0.64695  0.45081  Biso   1.000  C
  C829     1.0000 0.80049  0.58371  0.47211  Biso   1.000  C
  C830     1.0000 0.07337  0.66095  0.57959  Biso   1.000  C
  H854     1.0000 0.13220  0.67088  0.52060  Biso   1.000  H
  C831     1.0000 0.08832  0.57819  0.63442  Biso   1.000  C
  H855     1.0000 0.15251  0.53189  0.60901  Biso   1.000  H
  N187     1.0000 0.96766  0.44780  0.71422  Biso   1.000  N
  H856     1.0000 0.90508  0.48908  0.68790  Biso   1.000  H
  H857     1.0000 0.84749  0.46811  0.60901  Biso   1.000  H
  N188     1.0000 0.77054  0.45728  0.54219  Biso   1.000  N
  H858     1.0000 0.79060  0.39532  0.49642  Biso   1.000  H
  N189     1.0000 0.94797  0.74450  0.46951  Biso   1.000  N
  H859     1.0000 0.99110  0.71822  0.40920  Biso   1.000  H
  H860     1.0000 0.86780  0.67088  0.47940  Biso   1.000  H
  N190     1.0000 0.77054  0.54272  0.45781  Biso   1.000  N
  H861     1.0000 0.79060  0.60468  0.50358  Biso   1.000  H
  C832     1.0000 0.05821  0.62697  0.62252  Biso   1.000  C
  C833     1.0000 0.04021  0.71101  0.56851  Biso   1.000  C
  C834     1.0000 0.07321  0.54276  0.68139  Biso   1.000  C
  C835     1.0000 0.97289  0.48472  0.75999  Biso   1.000  C
  C836     1.0000 0.72341  0.46960  0.50791  Biso   1.000  C
  C837     1.0000 0.98402  0.79175  0.47265  Biso   1.000  C
  C838     1.0000 0.72341  0.53040  0.49209  Biso   1.000  C
  H862     1.0000 0.02711  0.63632  0.64439  Biso   1.000  H
  N191     1.0000 0.05203  0.74450  0.53049  Biso   1.000  N
  H863     1.0000 0.00890  0.71822  0.59080  Biso   1.000  H
  N192     1.0000 0.03234  0.55220  0.71422  Biso   1.000  N
  H864     1.0000 0.09492  0.51092  0.68790  Biso   1.000  H
  C839     1.0000 0.02711  0.51528  0.75999  Biso   1.000  C
  H865     1.0000 0.96951  0.46350  0.79460  Biso   1.000  H
  H866     1.0000 0.94228  0.51170  0.75892  Biso   1.000  H
  H867     1.0000 0.68909  0.46078  0.52810  Biso   1.000  H
  H868     1.0000 0.72460  0.44669  0.47421  Biso   1.000  H
  C840     1.0000 0.01598  0.79175  0.52735  Biso   1.000  C
  H869     1.0000 0.01022  0.79101  0.44142  Biso   1.000  H
  H870     1.0000 0.96189  0.82590  0.46980  Biso   1.000  H
  H871     1.0000 0.68909  0.53922  0.47190  Biso   1.000  H
  H872     1.0000 0.72460  0.55331  0.52579  Biso   1.000  H
  H873     1.0000 0.03049  0.53650  0.79460  Biso   1.000  H
  H874     1.0000 0.05772  0.48830  0.75892  Biso   1.000  H
  H875     1.0000 0.03811  0.82590  0.53020  Biso   1.000  H
  H876     1.0000 0.98978  0.79101  0.55858  Biso   1.000  H
  C841     1.0000 0.05821  0.37303  0.37748  Biso   1.000  C
  C842     1.0000 0.07337  0.33905  0.42041  Biso   1.000  C
  C843     1.0000 0.08832  0.42181  0.36558  Biso   1.000  C
  H877     1.0000 0.02711  0.36368  0.35561  Biso   1.000  H
  C844     1.0000 0.12025  0.35305  0.45081  Biso   1.000  C
  C845     1.0000 0.04021  0.28899  0.43149  Biso   1.000  C
  C846     1.0000 0.13286  0.43495  0.39796  Biso   1.000  C
  C847     1.0000 0.07321  0.45724  0.31861  Biso   1.000  C
  C848     1.0000 0.14983  0.40105  0.44047  Biso   1.000  C
  H878     1.0000 0.13220  0.32912  0.47940  Biso   1.000  H
  N193     1.0000 0.05203  0.25550  0.46951  Biso   1.000  N
  H879     1.0000 0.00890  0.28178  0.40920  Biso   1.000  H
  H880     1.0000 0.15251  0.46811  0.39099  Biso   1.000  H
  N194     1.0000 0.03234  0.44780  0.28578  Biso   1.000  N
  H881     1.0000 0.09492  0.48908  0.31210  Biso   1.000  H
  C849     1.0000 0.19951  0.41629  0.47211  Biso   1.000  C
  C850     1.0000 0.01598  0.20825  0.47265  Biso   1.000  C
  C851     1.0000 0.02711  0.48472  0.24001  Biso   1.000  C
  N195     1.0000 0.22946  0.45728  0.45781  Biso   1.000  N
  H882     1.0000 0.20940  0.39532  0.50358  Biso   1.000  H
  H883     1.0000 0.03811  0.17410  0.46980  Biso   1.000  H
  C852     1.0000 0.98402  0.20825  0.52735  Biso   1.000  C
  H884     1.0000 0.98978  0.20899  0.44142  Biso   1.000  H
  H885     1.0000 0.03049  0.46350  0.20540  Biso   1.000  H
  H886     1.0000 0.05772  0.51170  0.24108  Biso   1.000  H
  C853     1.0000 0.97289  0.51528  0.24001  Biso   1.000  C
  C854     1.0000 0.27659  0.46960  0.49209  Biso   1.000  C
  H887     1.0000 0.01022  0.20899  0.55858  Biso   1.000  H
  N196     1.0000 0.94797  0.25550  0.53049  Biso   1.000  N
  H888     1.0000 0.96189  0.17410  0.53020  Biso   1.000  H
  N197     1.0000 0.96766  0.55220  0.28578  Biso   1.000  N
  H889     1.0000 0.96951  0.53650  0.20540  Biso   1.000  H
  H890     1.0000 0.94228  0.48830  0.24108  Biso   1.000  H
  C855     1.0000 0.27659  0.53040  0.50791  Biso   1.000  C
  H891     1.0000 0.31091  0.46078  0.47190  Biso   1.000  H
  H892     1.0000 0.27540  0.44669  0.52579  Biso   1.000  H
  C856     1.0000 0.95979  0.28899  0.56851  Biso   1.000  C
  C857     1.0000 0.92679  0.54276  0.31861  Biso   1.000  C
  N198     1.0000 0.22946  0.54272  0.54219  Biso   1.000  N
  H893     1.0000 0.31091  0.53922  0.52810  Biso   1.000  H
  H894     1.0000 0.27540  0.55331  0.47421  Biso   1.000  H
  C858     1.0000 0.92663  0.33905  0.57959  Biso   1.000  C
  H895     1.0000 0.99110  0.28178  0.59080  Biso   1.000  H
  C859     1.0000 0.91168  0.57819  0.36558  Biso   1.000  C
  H896     1.0000 0.90508  0.51092  0.31210  Biso   1.000  H
  C860     1.0000 0.19951  0.58371  0.52789  Biso   1.000  C
  C861     1.0000 0.94179  0.37303  0.62252  Biso   1.000  C
  C862     1.0000 0.87975  0.35305  0.54919  Biso   1.000  C
  C863     1.0000 0.94179  0.62697  0.37748  Biso   1.000  C
  C864     1.0000 0.86714  0.56505  0.39796  Biso   1.000  C
  C865     1.0000 0.14983  0.59895  0.55953  Biso   1.000  C
  H897     1.0000 0.20940  0.60468  0.49642  Biso   1.000  H
  C866     1.0000 0.91168  0.42181  0.63442  Biso   1.000  C
  H898     1.0000 0.97289  0.36368  0.64439  Biso   1.000  H
  C867     1.0000 0.85017  0.40105  0.55953  Biso   1.000  C
  H899     1.0000 0.86780  0.32912  0.52060  Biso   1.000  H
  C868     1.0000 0.92663  0.66095  0.42041  Biso   1.000  C
  H900     1.0000 0.97289  0.63632  0.35561  Biso   1.000  H
  C869     1.0000 0.85017  0.59895  0.44047  Biso   1.000  C
  H901     1.0000 0.84749  0.53189  0.39099  Biso   1.000  H
  C870     1.0000 0.12025  0.64695  0.54919  Biso   1.000  C
  C871     1.0000 0.13286  0.56505  0.60204  Biso   1.000  C
  C872     1.0000 0.92679  0.45724  0.68139  Biso   1.000  C
  C873     1.0000 0.86714  0.43495  0.60204  Biso   1.000  C
  C874     1.0000 0.80049  0.41629  0.52789  Biso   1.000  C
  C875     1.0000 0.95979  0.71101  0.43149  Biso   1.000  C
  C876     1.0000 0.87975  0.64695  0.45081  Biso   1.000  C
  C877     1.0000 0.80049  0.58371  0.47211  Biso   1.000  C
  C878     1.0000 0.07337  0.66095  0.57959  Biso   1.000  C
  H902     1.0000 0.13220  0.67088  0.52060  Biso   1.000  H
  C879     1.0000 0.08832  0.57819  0.63442  Biso   1.000  C
  H903     1.0000 0.15251  0.53189  0.60901  Biso   1.000  H
  N199     1.0000 0.96766  0.44780  0.71422  Biso   1.000  N
  H904     1.0000 0.90508  0.48908  0.68790  Biso   1.000  H
  H905     1.0000 0.84749  0.46811  0.60901  Biso   1.000  H
  N200     1.0000 0.77054  0.45728  0.54219  Biso   1.000  N
  H906     1.0000 0.79060  0.39532  0.49642  Biso   1.000  H
  N201     1.0000 0.94797  0.74450  0.46951  Biso   1.000  N
  H907     1.0000 0.99110  0.71822  0.40920  Biso   1.000  H
  H908     1.0000 0.86780  0.67088  0.47940  Biso   1.000  H
  N202     1.0000 0.77054  0.54272  0.45781  Biso   1.000  N
  H909     1.0000 0.79060  0.60468  0.50358  Biso   1.000  H
  C880     1.0000 0.05821  0.62697  0.62252  Biso   1.000  C
  C881     1.0000 0.04021  0.71101  0.56851  Biso   1.000  C
  C882     1.0000 0.07321  0.54276  0.68139  Biso   1.000  C
  C883     1.0000 0.97289  0.48472  0.75999  Biso   1.000  C
  C884     1.0000 0.72341  0.46960  0.50791  Biso   1.000  C
  C885     1.0000 0.98402  0.79175  0.47265  Biso   1.000  C
  C886     1.0000 0.72341  0.53040  0.49209  Biso   1.000  C
  H910     1.0000 0.02711  0.63632  0.64439  Biso   1.000  H
  N203     1.0000 0.05203  0.74450  0.53049  Biso   1.000  N
  H911     1.0000 0.00890  0.71822  0.59080  Biso   1.000  H
  N204     1.0000 0.03234  0.55220  0.71422  Biso   1.000  N
  H912     1.0000 0.09492  0.51092  0.68790  Biso   1.000  H
  C887     1.0000 0.02711  0.51528  0.75999  Biso   1.000  C
  H913     1.0000 0.96951  0.46350  0.79460  Biso   1.000  H
  H914     1.0000 0.94228  0.51170  0.75892  Biso   1.000  H
  H915     1.0000 0.68909  0.46078  0.52810  Biso   1.000  H
  H916     1.0000 0.72460  0.44669  0.47421  Biso   1.000  H
  C888     1.0000 0.01598  0.79175  0.52735  Biso   1.000  C
  H917     1.0000 0.01022  0.79101  0.44142  Biso   1.000  H
  H918     1.0000 0.96189  0.82590  0.46980  Biso   1.000  H
  H919     1.0000 0.68909  0.53922  0.47190  Biso   1.000  H
  H920     1.0000 0.72460  0.55331  0.52579  Biso   1.000  H
  H921     1.0000 0.03049  0.53650  0.79460  Biso   1.000  H
  H922     1.0000 0.05772  0.48830  0.75892  Biso   1.000  H
  H923     1.0000 0.03811  0.82590  0.53020  Biso   1.000  H
  H924     1.0000 0.98978  0.79101  0.55858  Biso   1.000  H
  C889     1.0000 0.71986  0.42527  0.69132  Biso   1.000  C
  C890     1.0000 0.75245  0.47697  0.70553  Biso   1.000  C
  C891     1.0000 0.75571  0.37394  0.69593  Biso   1.000  C
  H925     1.0000 0.70540  0.42840  0.65329  Biso   1.000  H
  H926     1.0000 0.68810  0.42189  0.71669  Biso   1.000  H
  N205     1.0000 0.71579  0.52472  0.70532  Biso   1.000  N
  C892     1.0000 0.77890  0.47232  0.76238  Biso   1.000  C
  H927     1.0000 0.78199  0.48249  0.67731  Biso   1.000  H
  C893     1.0000 0.77639  0.36895  0.75311  Biso   1.000  C
  H928     1.0000 0.73379  0.34090  0.68621  Biso   1.000  H
  H929     1.0000 0.78710  0.37662  0.67002  Biso   1.000  H
  C894     1.0000 0.72407  0.55936  0.66792  Biso   1.000  C
  N206     1.0000 0.81581  0.51953  0.76992  Biso   1.000  N
  C895     1.0000 0.81198  0.41942  0.76819  Biso   1.000  C
  H930     1.0000 0.74949  0.47318  0.79122  Biso   1.000  H
  H931     1.0000 0.79871  0.33501  0.75669  Biso   1.000  H
  H932     1.0000 0.74491  0.36632  0.77890  Biso   1.000  H
  C896     1.0000 0.68851  0.60839  0.66104  Biso   1.000  C
  H933     1.0000 0.75402  0.55401  0.64328  Biso   1.000  H
  C897     1.0000 0.80930  0.54791  0.81214  Biso   1.000  C
  H934     1.0000 0.84448  0.42090  0.74372  Biso   1.000  H
  H935     1.0000 0.82520  0.41579  0.80658  Biso   1.000  H
  C898     1.0000 0.69655  0.64398  0.61757  Biso   1.000  C
  C899     1.0000 0.64398  0.61757  0.69655  Biso   1.000  C
  C900     1.0000 0.84234  0.59751  0.82475  Biso   1.000  C
  H936     1.0000 0.78162  0.53712  0.83760  Biso   1.000  H
  C901     1.0000 0.66104  0.68851  0.60839  Biso   1.000  C
  H937     1.0000 0.72670  0.63821  0.59331  Biso   1.000  H
  C902     1.0000 0.60839  0.66104  0.68851  Biso   1.000  C
  H938     1.0000 0.63821  0.59331  0.72670  Biso   1.000  H
  C903     1.0000 0.83072  0.62643  0.87307  Biso   1.000  C
  C904     1.0000 0.88288  0.61790  0.78945  Biso   1.000  C
  C905     1.0000 0.66792  0.72407  0.55936  Biso   1.000  C
  C906     1.0000 0.61757  0.69655  0.64398  Biso   1.000  C
  C907     1.0000 0.55936  0.66792  0.72407  Biso   1.000  C
  C908     1.0000 0.85911  0.67434  0.88580  Biso   1.000  C
  H939     1.0000 0.80308  0.61321  0.89738  Biso   1.000  H
  C909     1.0000 0.91184  0.66458  0.80197  Biso   1.000  C
  H940     1.0000 0.89050  0.59899  0.75599  Biso   1.000  H
  N207     1.0000 0.70532  0.71579  0.52472  Biso   1.000  N
  H941     1.0000 0.64328  0.75402  0.55401  Biso   1.000  H
  H942     1.0000 0.59331  0.72670  0.63821  Biso   1.000  H
  N208     1.0000 0.52472  0.70532  0.71579  Biso   1.000  N
  H943     1.0000 0.55401  0.64328  0.75402  Biso   1.000  H
  C910     1.0000 0.84745  0.70532  0.93701  Biso   1.000  C
  C911     1.0000 0.89989  0.69420  0.84988  Biso   1.000  C
  C912     1.0000 0.95650  0.68411  0.76547  Biso   1.000  C
  C913     1.0000 0.70553  0.75245  0.47697  Biso   1.000  C
  C914     1.0000 0.47697  0.70553  0.75245  Biso   1.000  C
  N209     1.0000 0.80959  0.68930  0.96980  Biso   1.000  N
  H944     1.0000 0.86830  0.73741  0.94550  Biso   1.000  H
  H945     1.0000 0.91909  0.72728  0.85812  Biso   1.000  H
  N210     1.0000 0.98385  0.72769  0.77532  Biso   1.000  N
  H946     1.0000 0.96511  0.66330  0.73342  Biso   1.000  H
  C915     1.0000 0.76238  0.77890  0.47232  Biso   1.000  C
  C916     1.0000 0.69132  0.71986  0.42527  Biso   1.000  C
  H947     1.0000 0.67731  0.78199  0.48249  Biso   1.000  H
  C917     1.0000 0.47232  0.76238  0.77890  Biso   1.000  C
  C918     1.0000 0.42527  0.69132  0.71986  Biso   1.000  C
  H948     1.0000 0.48249  0.67731  0.78199  Biso   1.000  H
  C919     1.0000 0.80374  0.72065  0.02019  Biso   1.000  C
  C920     1.0000 0.02801  0.74347  0.73762  Biso   1.000  C
  N211     1.0000 0.76992  0.81581  0.51953  Biso   1.000  N
  C921     1.0000 0.76819  0.81198  0.41942  Biso   1.000  C
  H949     1.0000 0.79122  0.74949  0.47318  Biso   1.000  H
  C922     1.0000 0.69593  0.75571  0.37394  Biso   1.000  C
  H950     1.0000 0.65329  0.70540  0.42840  Biso   1.000  H
  H951     1.0000 0.71669  0.68810  0.42189  Biso   1.000  H
  N212     1.0000 0.51953  0.76992  0.81581  Biso   1.000  N
  C923     1.0000 0.41942  0.76819  0.81198  Biso   1.000  C
  H952     1.0000 0.47318  0.79122  0.74949  Biso   1.000  H
  C924     1.0000 0.37394  0.69593  0.75571  Biso   1.000  C
  H953     1.0000 0.42840  0.65329  0.70540  Biso   1.000  H
  H954     1.0000 0.42189  0.71669  0.68810  Biso   1.000  H
  C925     1.0000 0.74347  0.73762  0.02801  Biso   1.000  C
  C926     1.0000 0.82376  0.68505  0.06843  Biso   1.000  C
  H955     1.0000 0.82710  0.75451  0.01780  Biso   1.000  H
  C927     1.0000 0.02019  0.80374  0.72065  Biso   1.000  C
  C928     1.0000 0.08330  0.73535  0.76621  Biso   1.000  C
  H956     1.0000 0.02641  0.71962  0.70409  Biso   1.000  H
  C929     1.0000 0.81214  0.80930  0.54791  Biso   1.000  C
  C930     1.0000 0.75311  0.77639  0.36895  Biso   1.000  C
  H957     1.0000 0.74372  0.84448  0.42090  Biso   1.000  H
  H958     1.0000 0.80658  0.82520  0.41579  Biso   1.000  H
  H959     1.0000 0.68621  0.73379  0.34090  Biso   1.000  H
  H960     1.0000 0.67002  0.78710  0.37662  Biso   1.000  H
  C931     1.0000 0.54791  0.81214  0.80930  Biso   1.000  C
  C932     1.0000 0.36895  0.75311  0.77639  Biso   1.000  C
  H961     1.0000 0.42090  0.74372  0.84448  Biso   1.000  H
  H962     1.0000 0.41579  0.80658  0.82520  Biso   1.000  H
  H963     1.0000 0.34090  0.68621  0.73379  Biso   1.000  H
  H964     1.0000 0.37662  0.67002  0.78710  Biso   1.000  H
  N213     1.0000 0.72769  0.77532  0.98385  Biso   1.000  N
  C933     1.0000 0.73535  0.76621  0.08330  Biso   1.000  C
  H965     1.0000 0.71962  0.70409  0.02641  Biso   1.000  H
  C934     1.0000 0.81692  0.71488  0.12285  Biso   1.000  C
  H966     1.0000 0.80250  0.65020  0.06929  Biso   1.000  H
  H967     1.0000 0.86310  0.67570  0.06299  Biso   1.000  H
  N214     1.0000 0.96980  0.80959  0.68930  Biso   1.000  N
  C935     1.0000 0.06843  0.82376  0.68505  Biso   1.000  C
  H968     1.0000 0.01780  0.82710  0.75451  Biso   1.000  H
  C936     1.0000 0.13121  0.75645  0.73132  Biso   1.000  C
  H969     1.0000 0.08301  0.75501  0.80189  Biso   1.000  H
  H970     1.0000 0.08870  0.69560  0.77379  Biso   1.000  H
  C937     1.0000 0.82475  0.84234  0.59751  Biso   1.000  C
  H971     1.0000 0.83760  0.78162  0.53712  Biso   1.000  H
  H972     1.0000 0.75669  0.79871  0.33501  Biso   1.000  H
  H973     1.0000 0.77890  0.74491  0.36632  Biso   1.000  H
  C938     1.0000 0.59751  0.82475  0.84234  Biso   1.000  C
  H974     1.0000 0.53712  0.83760  0.78162  Biso   1.000  H
  H975     1.0000 0.33501  0.75669  0.79871  Biso   1.000  H
  H976     1.0000 0.36632  0.77890  0.74491  Biso   1.000  H
  C939     1.0000 0.68411  0.76547  0.95650  Biso   1.000  C
  C940     1.0000 0.75645  0.73132  0.13121  Biso   1.000  C
  H977     1.0000 0.75501  0.80189  0.08301  Biso   1.000  H
  H978     1.0000 0.69560  0.77379  0.08870  Biso   1.000  H
  H979     1.0000 0.82891  0.69062  0.15342  Biso   1.000  H
  H980     1.0000 0.84041  0.74821  0.12322  Biso   1.000  H
  C941     1.0000 0.93701  0.84745  0.70532  Biso   1.000  C
  C942     1.0000 0.12285  0.81692  0.71488  Biso   1.000  C
  H981     1.0000 0.06929  0.80250  0.65020  Biso   1.000  H
  H982     1.0000 0.06299  0.86310  0.67570  Biso   1.000  H
  H983     1.0000 0.13451  0.73358  0.69770  Biso   1.000  H
  H984     1.0000 0.16590  0.75290  0.75241  Biso   1.000  H
  C943     1.0000 0.78945  0.88288  0.61790  Biso   1.000  C
  C944     1.0000 0.87307  0.83072  0.62643  Biso   1.000  C
  C945     1.0000 0.62643  0.87307  0.83072  Biso   1.000  C
  C946     1.0000 0.61790  0.78945  0.88288  Biso   1.000  C
  C947     1.0000 0.66458  0.80197  0.91184  Biso   1.000  C
  H985     1.0000 0.66330  0.73342  0.96511  Biso   1.000  H
  H986     1.0000 0.73358  0.69770  0.13451  Biso   1.000  H
  H987     1.0000 0.75290  0.75241  0.16590  Biso   1.000  H
  C948     1.0000 0.88580  0.85911  0.67434  Biso   1.000  C
  H988     1.0000 0.94550  0.86830  0.73741  Biso   1.000  H
  H989     1.0000 0.15342  0.82891  0.69062  Biso   1.000  H
  H990     1.0000 0.12322  0.84041  0.74821  Biso   1.000  H
  C949     1.0000 0.80197  0.91184  0.66458  Biso   1.000  C
  H991     1.0000 0.75599  0.89050  0.59899  Biso   1.000  H
  H992     1.0000 0.89738  0.80308  0.61321  Biso   1.000  H
  C950     1.0000 0.67434  0.88580  0.85911  Biso   1.000  C
  H993     1.0000 0.61321  0.89738  0.80308  Biso   1.000  H
  H994     1.0000 0.59899  0.75599  0.89050  Biso   1.000  H
  C951     1.0000 0.69420  0.84988  0.89989  Biso   1.000  C
  C952     1.0000 0.84988  0.89989  0.69420  Biso   1.000  C
  C953     1.0000 0.76547  0.95650  0.68411  Biso   1.000  C
  C954     1.0000 0.70532  0.93701  0.84745  Biso   1.000  C
  H995     1.0000 0.72728  0.85812  0.91909  Biso   1.000  H
  H996     1.0000 0.85812  0.91909  0.72728  Biso   1.000  H
  N215     1.0000 0.77532  0.98385  0.72769  Biso   1.000  N
  H997     1.0000 0.73342  0.96511  0.66330  Biso   1.000  H
  N216     1.0000 0.68930  0.96980  0.80959  Biso   1.000  N
  H998     1.0000 0.73741  0.94550  0.86830  Biso   1.000  H
  C955     1.0000 0.73762  0.02801  0.74347  Biso   1.000  C
  C956     1.0000 0.72065  0.02019  0.80374  Biso   1.000  C
  C957     1.0000 0.76621  0.08330  0.73535  Biso   1.000  C
  H999     1.0000 0.70409  0.02641  0.71962  Biso   1.000  H
  C958     1.0000 0.68505  0.06843  0.82376  Biso   1.000  C
  H1000    1.0000 0.75451  0.01780  0.82710  Biso   1.000  H
  C959     1.0000 0.73132  0.13121  0.75645  Biso   1.000  C
  H1001    1.0000 0.80189  0.08301  0.75501  Biso   1.000  H
  H1002    1.0000 0.77379  0.08870  0.69560  Biso   1.000  H
  C960     1.0000 0.71488  0.12285  0.81692  Biso   1.000  C
  H1003    1.0000 0.65020  0.06929  0.80250  Biso   1.000  H
  H1004    1.0000 0.67570  0.06299  0.86310  Biso   1.000  H
  H1005    1.0000 0.69770  0.13451  0.73358  Biso   1.000  H
  H1006    1.0000 0.75241  0.16590  0.75290  Biso   1.000  H
  H1007    1.0000 0.69062  0.15342  0.82891  Biso   1.000  H
  H1008    1.0000 0.74821  0.12322  0.84041  Biso   1.000  H
