data_image0
_cell_length_a       38.668
_cell_length_b       38.668
_cell_length_c       13.497
_cell_angle_alpha    90
_cell_angle_beta     90
_cell_angle_gamma    120

_symmetry_space_group_name_H-M    "P 1"
_symmetry_int_tables_number       1

loop_
  _symmetry_equiv_pos_as_xyz
  'x, y, z'

loop_
  _atom_site_label
  _atom_site_occupancy
  _atom_site_fract_x
  _atom_site_fract_y
  _atom_site_fract_z
  _atom_site_thermal_displace_type
  _atom_site_B_iso_or_equiv
  _atom_site_type_symbol
  C1       1.0000 0.57801  0.37725  0.11291  Biso   1.000  C
  N1       1.0000 0.55261  0.38286  0.18100  Biso   1.000  N
  N2       1.0000 0.60366  0.41287  0.05653  Biso   1.000  N
  H1       1.0000 0.56119  0.35539  0.06661  Biso   1.000  H
  H2       1.0000 0.59481  0.36909  0.15048  Biso   1.000  H
  C2       1.0000 0.51206  0.36482  0.17189  Biso   1.000  C
  C3       1.0000 0.56600  0.40158  0.27628  Biso   1.000  C
  C4       1.0000 0.64334  0.44154  0.08750  Biso   1.000  C
  C5       1.0000 0.59780  0.41660  0.95658  Biso   1.000  C
  N3       1.0000 0.49748  0.37399  0.25206  Biso   1.000  N
  O1       1.0000 0.49199  0.34344  0.10224  Biso   1.000  O
  C6       1.0000 0.52749  0.39651  0.32652  Biso   1.000  C
  N4       1.0000 0.59201  0.44485  0.27317  Biso   1.000  N
  H3       1.0000 0.57811  0.38850  0.31592  Biso   1.000  H
  N5       1.0000 0.64627  0.47113  0.15611  Biso   1.000  N
  H4       1.0000 0.65791  0.42801  0.11262  Biso   1.000  H
  C7       1.0000 0.66307  0.46558  0.99192  Biso   1.000  C
  O2       1.0000 0.56730  0.39507  0.91124  Biso   1.000  O
  N6       1.0000 0.63215  0.44802  0.92087  Biso   1.000  N
  C8       1.0000 0.45451  0.35312  0.27510  Biso   1.000  C
  N7       1.0000 0.53636  0.43778  0.33963  Biso   1.000  N
  H5       1.0000 0.52170  0.38181  0.39090  Biso   1.000  H
  C9       1.0000 0.57478  0.46414  0.31792  Biso   1.000  C
  C10      1.0000 0.63411  0.46316  0.25739  Biso   1.000  C
  C11      1.0000 0.66442  0.50888  0.11610  Biso   1.000  C
  N8       1.0000 0.67408  0.50658  0.02008  Biso   1.000  N
  H6       1.0000 0.68690  0.46349  0.97207  Biso   1.000  H
  C12      1.0000 0.63846  0.45381  0.81337  Biso   1.000  C
  N9       1.0000 0.43812  0.37898  0.28310  Biso   1.000  N
  H7       1.0000 0.44000  0.33320  0.22249  Biso   1.000  H
  H8       1.0000 0.45011  0.33851  0.33830  Biso   1.000  H
  C13      1.0000 0.51486  0.44664  0.41380  Biso   1.000  C
  O3       1.0000 0.59253  0.50016  0.33733  Biso   1.000  O
  H9       1.0000 0.64750  0.48860  0.29458  Biso   1.000  H
  H10      1.0000 0.64351  0.44560  0.28532  Biso   1.000  H
  O4       1.0000 0.67189  0.53919  0.15833  Biso   1.000  O
  C14      1.0000 0.69654  0.54080  0.95903  Biso   1.000  C
  N10      1.0000 0.63550  0.48735  0.77899  Biso   1.000  N
  H11      1.0000 0.66520  0.45799  0.79677  Biso   1.000  H
  H12      1.0000 0.61830  0.42941  0.77877  Biso   1.000  H
  C15      1.0000 0.40733  0.37441  0.22286  Biso   1.000  C
  C16      1.0000 0.44094  0.40081  0.37223  Biso   1.000  C
  N11      1.0000 0.47646  0.44013  0.37727  Biso   1.000  N
  H13      1.0000 0.53139  0.47480  0.43476  Biso   1.000  H
  H14      1.0000 0.51029  0.42959  0.47248  Biso   1.000  H
  H15      1.0000 0.70880  0.56490  0.00148  Biso   1.000  H
  N12      1.0000 0.67348  0.54600  0.88309  Biso   1.000  N
  H16      1.0000 0.71850  0.53859  0.92732  Biso   1.000  H
  C17      1.0000 0.66765  0.52823  0.78543  Biso   1.000  C
  C18      1.0000 0.60669  0.48388  0.71594  Biso   1.000  C
  N13      1.0000 0.39069  0.39460  0.26384  Biso   1.000  N
  O5       1.0000 0.39622  0.35425  0.14855  Biso   1.000  O
  C19      1.0000 0.40735  0.41060  0.36208  Biso   1.000  C
  H17      1.0000 0.43770  0.38471  0.43299  Biso   1.000  H
  C20      1.0000 0.46699  0.47018  0.38031  Biso   1.000  C
  C21      1.0000 0.66509  0.57669  0.88479  Biso   1.000  C
  H18      1.0000 0.69310  0.53139  0.75809  Biso   1.000  H
  C22      1.0000 0.65255  0.55212  0.72342  Biso   1.000  C
  O6       1.0000 0.57766  0.45142  0.68689  Biso   1.000  O
  N14      1.0000 0.61372  0.52028  0.68897  Biso   1.000  N
  C23      1.0000 0.35093  0.38635  0.23709  Biso   1.000  C
  N15      1.0000 0.42648  0.45226  0.37082  Biso   1.000  N
  H19      1.0000 0.38679  0.39719  0.41513  Biso   1.000  H
  O7       1.0000 0.49018  0.50523  0.39068  Biso   1.000  O
  O8       1.0000 0.67083  0.59861  0.95443  Biso   1.000  O
  N16      1.0000 0.64965  0.57819  0.79381  Biso   1.000  N
  H20      1.0000 0.67101  0.56711  0.66733  Biso   1.000  H
  C24      1.0000 0.59398  0.52617  0.60428  Biso   1.000  C
  N17      1.0000 0.35034  0.42180  0.20619  Biso   1.000  N
  H21      1.0000 0.33300  0.37450  0.29473  Biso   1.000  H
  H22      1.0000 0.34060  0.36661  0.18263  Biso   1.000  H
  C25      1.0000 0.40602  0.47382  0.39572  Biso   1.000  C
  C26      1.0000 0.64906  0.61363  0.76291  Biso   1.000  C
  N18      1.0000 0.57352  0.54773  0.62918  Biso   1.000  N
  H23      1.0000 0.61409  0.54110  0.55242  Biso   1.000  H
  H24      1.0000 0.57441  0.49980  0.57657  Biso   1.000  H
  C27      1.0000 0.33490  0.42329  0.11521  Biso   1.000  C
  C28      1.0000 0.34745  0.44787  0.27658  Biso   1.000  C
  N19      1.0000 0.38629  0.47973  0.31103  Biso   1.000  N
  H25      1.0000 0.38590  0.45889  0.44758  Biso   1.000  H
  H26      1.0000 0.42559  0.50019  0.42343  Biso   1.000  H
  N20      1.0000 0.60931  0.60539  0.73616  Biso   1.000  N
  H27      1.0000 0.66699  0.62549  0.70527  Biso   1.000  H
  H28      1.0000 0.65941  0.63340  0.81737  Biso   1.000  H
  C29      1.0000 0.53301  0.52981  0.61969  Biso   1.000  C
  C30      1.0000 0.59265  0.58941  0.63792  Biso   1.000  C
  O9       1.0000 0.32918  0.40140  0.04557  Biso   1.000  O
  N21      1.0000 0.32652  0.45402  0.11691  Biso   1.000  N
  C31      1.0000 0.33234  0.47176  0.21457  Biso   1.000  C
  H29      1.0000 0.32900  0.43291  0.33267  Biso   1.000  H
  C32      1.0000 0.39331  0.51610  0.28406  Biso   1.000  C
  C33      1.0000 0.59267  0.62561  0.77714  Biso   1.000  C
  N22      1.0000 0.52354  0.55985  0.62273  Biso   1.000  N
  O10      1.0000 0.50983  0.49478  0.60932  Biso   1.000  O
  C34      1.0000 0.55905  0.59918  0.62777  Biso   1.000  C
  H30      1.0000 0.61320  0.60279  0.58487  Biso   1.000  H
  C35      1.0000 0.30347  0.45922  0.04097  Biso   1.000  C
  N23      1.0000 0.36450  0.51264  0.22101  Biso   1.000  N
  H31      1.0000 0.30689  0.46859  0.24191  Biso   1.000  H
  O11      1.0000 0.42234  0.54856  0.31311  Biso   1.000  O
  N24      1.0000 0.56187  0.62101  0.71690  Biso   1.000  N
  O12      1.0000 0.60379  0.64576  0.85145  Biso   1.000  O
  C36      1.0000 0.48514  0.55334  0.58620  Biso   1.000  C
  H32      1.0000 0.56231  0.61530  0.56701  Biso   1.000  H
  H33      1.0000 0.28149  0.46140  0.07268  Biso   1.000  H
  N25      1.0000 0.32593  0.49344  0.97992  Biso   1.000  N
  H34      1.0000 0.29120  0.43509  0.99852  Biso   1.000  H
  C37      1.0000 0.36155  0.54620  0.18663  Biso   1.000  C
  C38      1.0000 0.54549  0.64690  0.72490  Biso   1.000  C
  N26      1.0000 0.46365  0.56224  0.66037  Biso   1.000  N
  H35      1.0000 0.46862  0.52521  0.56524  Biso   1.000  H
  H36      1.0000 0.48971  0.57039  0.52752  Biso   1.000  H
  C39      1.0000 0.33694  0.53444  0.00808  Biso   1.000  C
  C40      1.0000 0.33558  0.49111  0.88390  Biso   1.000  C
  N27      1.0000 0.36784  0.55197  0.07913  Biso   1.000  N
  H37      1.0000 0.33480  0.54199  0.20323  Biso   1.000  H
  H38      1.0000 0.38171  0.57060  0.22123  Biso   1.000  H
  N28      1.0000 0.50252  0.62603  0.74794  Biso   1.000  N
  H39      1.0000 0.55999  0.66679  0.77751  Biso   1.000  H
  H40      1.0000 0.54990  0.66150  0.66170  Biso   1.000  H
  C41      1.0000 0.42521  0.53584  0.68208  Biso   1.000  C
  C42      1.0000 0.47252  0.60351  0.67348  Biso   1.000  C
  H41      1.0000 0.31309  0.53650  0.02793  Biso   1.000  H
  C43      1.0000 0.35665  0.55845  0.91250  Biso   1.000  C
  O13      1.0000 0.32810  0.46080  0.84167  Biso   1.000  O
  N29      1.0000 0.35374  0.52888  0.84389  Biso   1.000  N
  C44      1.0000 0.40221  0.58341  0.04342  Biso   1.000  C
  C45      1.0000 0.48794  0.63519  0.82811  Biso   1.000  C
  N30      1.0000 0.40798  0.55513  0.72683  Biso   1.000  N
  O14      1.0000 0.40746  0.49983  0.66267  Biso   1.000  O
  C46      1.0000 0.43400  0.59843  0.72372  Biso   1.000  C
  H42      1.0000 0.47831  0.61820  0.60910  Biso   1.000  H
  N31      1.0000 0.39633  0.58712  0.94347  Biso   1.000  N
  H43      1.0000 0.34210  0.57200  0.88738  Biso   1.000  H
  C47      1.0000 0.36588  0.53683  0.74261  Biso   1.000  C
  O15      1.0000 0.43271  0.60494  0.08876  Biso   1.000  O
  N32      1.0000 0.44740  0.61716  0.81900  Biso   1.000  N
  O16      1.0000 0.50802  0.65657  0.89776  Biso   1.000  O
  H44      1.0000 0.42190  0.61151  0.68408  Biso   1.000  H
  C48      1.0000 0.42198  0.62274  0.88709  Biso   1.000  C
  H45      1.0000 0.35249  0.51139  0.70542  Biso   1.000  H
  H46      1.0000 0.35648  0.55439  0.71468  Biso   1.000  H
  H47      1.0000 0.43880  0.64460  0.93339  Biso   1.000  H
  H48      1.0000 0.40518  0.63089  0.84952  Biso   1.000  H
  C49      1.0000 0.57801  0.37725  0.11291  Biso   1.000  C
  N33      1.0000 0.55261  0.38286  0.18100  Biso   1.000  N
  N34      1.0000 0.60366  0.41287  0.05653  Biso   1.000  N
  H49      1.0000 0.56119  0.35539  0.06661  Biso   1.000  H
  H50      1.0000 0.59481  0.36909  0.15048  Biso   1.000  H
  C50      1.0000 0.51206  0.36482  0.17189  Biso   1.000  C
  C51      1.0000 0.56600  0.40158  0.27628  Biso   1.000  C
  C52      1.0000 0.64334  0.44154  0.08750  Biso   1.000  C
  C53      1.0000 0.59780  0.41660  0.95658  Biso   1.000  C
  N35      1.0000 0.49748  0.37399  0.25206  Biso   1.000  N
  O17      1.0000 0.49199  0.34344  0.10224  Biso   1.000  O
  C54      1.0000 0.52749  0.39651  0.32652  Biso   1.000  C
  N36      1.0000 0.59201  0.44485  0.27317  Biso   1.000  N
  H51      1.0000 0.57811  0.38850  0.31592  Biso   1.000  H
  N37      1.0000 0.64627  0.47113  0.15611  Biso   1.000  N
  H52      1.0000 0.65791  0.42801  0.11262  Biso   1.000  H
  C55      1.0000 0.66307  0.46558  0.99192  Biso   1.000  C
  O18      1.0000 0.56730  0.39507  0.91124  Biso   1.000  O
  N38      1.0000 0.63215  0.44802  0.92087  Biso   1.000  N
  C56      1.0000 0.45451  0.35312  0.27510  Biso   1.000  C
  N39      1.0000 0.53636  0.43778  0.33963  Biso   1.000  N
  H53      1.0000 0.52170  0.38181  0.39090  Biso   1.000  H
  C57      1.0000 0.57478  0.46414  0.31792  Biso   1.000  C
  C58      1.0000 0.63411  0.46316  0.25739  Biso   1.000  C
  C59      1.0000 0.66442  0.50888  0.11610  Biso   1.000  C
  N40      1.0000 0.67408  0.50658  0.02008  Biso   1.000  N
  H54      1.0000 0.68690  0.46349  0.97207  Biso   1.000  H
  C60      1.0000 0.63846  0.45381  0.81337  Biso   1.000  C
  N41      1.0000 0.43812  0.37898  0.28310  Biso   1.000  N
  H55      1.0000 0.44000  0.33320  0.22249  Biso   1.000  H
  H56      1.0000 0.45011  0.33851  0.33830  Biso   1.000  H
  C61      1.0000 0.51486  0.44664  0.41380  Biso   1.000  C
  O19      1.0000 0.59253  0.50016  0.33733  Biso   1.000  O
  H57      1.0000 0.64750  0.48860  0.29458  Biso   1.000  H
  H58      1.0000 0.64351  0.44560  0.28532  Biso   1.000  H
  O20      1.0000 0.67189  0.53919  0.15833  Biso   1.000  O
  C62      1.0000 0.69654  0.54080  0.95903  Biso   1.000  C
  N42      1.0000 0.63550  0.48735  0.77899  Biso   1.000  N
  H59      1.0000 0.66520  0.45799  0.79677  Biso   1.000  H
  H60      1.0000 0.61830  0.42941  0.77877  Biso   1.000  H
  C63      1.0000 0.40733  0.37441  0.22286  Biso   1.000  C
  C64      1.0000 0.44094  0.40081  0.37223  Biso   1.000  C
  N43      1.0000 0.47646  0.44013  0.37727  Biso   1.000  N
  H61      1.0000 0.53139  0.47480  0.43476  Biso   1.000  H
  H62      1.0000 0.51029  0.42959  0.47248  Biso   1.000  H
  H63      1.0000 0.70880  0.56490  0.00148  Biso   1.000  H
  N44      1.0000 0.67348  0.54600  0.88309  Biso   1.000  N
  H64      1.0000 0.71850  0.53859  0.92732  Biso   1.000  H
  C65      1.0000 0.66765  0.52823  0.78543  Biso   1.000  C
  C66      1.0000 0.60669  0.48388  0.71594  Biso   1.000  C
  N45      1.0000 0.39069  0.39460  0.26384  Biso   1.000  N
  O21      1.0000 0.39622  0.35425  0.14855  Biso   1.000  O
  C67      1.0000 0.40735  0.41060  0.36208  Biso   1.000  C
  H65      1.0000 0.43770  0.38471  0.43299  Biso   1.000  H
  C68      1.0000 0.46699  0.47018  0.38031  Biso   1.000  C
  C69      1.0000 0.66509  0.57669  0.88479  Biso   1.000  C
  H66      1.0000 0.69310  0.53139  0.75809  Biso   1.000  H
  C70      1.0000 0.65255  0.55212  0.72342  Biso   1.000  C
  O22      1.0000 0.57766  0.45142  0.68689  Biso   1.000  O
  N46      1.0000 0.61372  0.52028  0.68897  Biso   1.000  N
  C71      1.0000 0.35093  0.38635  0.23709  Biso   1.000  C
  N47      1.0000 0.42648  0.45226  0.37082  Biso   1.000  N
  H67      1.0000 0.38679  0.39719  0.41513  Biso   1.000  H
  O23      1.0000 0.49018  0.50523  0.39068  Biso   1.000  O
  O24      1.0000 0.67083  0.59861  0.95443  Biso   1.000  O
  N48      1.0000 0.64965  0.57819  0.79381  Biso   1.000  N
  H68      1.0000 0.67101  0.56711  0.66733  Biso   1.000  H
  C72      1.0000 0.59398  0.52617  0.60428  Biso   1.000  C
  N49      1.0000 0.35034  0.42180  0.20619  Biso   1.000  N
  H69      1.0000 0.33300  0.37450  0.29473  Biso   1.000  H
  H70      1.0000 0.34060  0.36661  0.18263  Biso   1.000  H
  C73      1.0000 0.40602  0.47382  0.39572  Biso   1.000  C
  C74      1.0000 0.64906  0.61363  0.76291  Biso   1.000  C
  N50      1.0000 0.57352  0.54773  0.62918  Biso   1.000  N
  H71      1.0000 0.61409  0.54110  0.55242  Biso   1.000  H
  H72      1.0000 0.57441  0.49980  0.57657  Biso   1.000  H
  C75      1.0000 0.33490  0.42329  0.11521  Biso   1.000  C
  C76      1.0000 0.34745  0.44787  0.27658  Biso   1.000  C
  N51      1.0000 0.38629  0.47973  0.31103  Biso   1.000  N
  H73      1.0000 0.38590  0.45889  0.44758  Biso   1.000  H
  H74      1.0000 0.42559  0.50019  0.42343  Biso   1.000  H
  N52      1.0000 0.60931  0.60539  0.73616  Biso   1.000  N
  H75      1.0000 0.66699  0.62549  0.70527  Biso   1.000  H
  H76      1.0000 0.65941  0.63340  0.81737  Biso   1.000  H
  C77      1.0000 0.53301  0.52981  0.61969  Biso   1.000  C
  C78      1.0000 0.59265  0.58941  0.63792  Biso   1.000  C
  O25      1.0000 0.32918  0.40140  0.04557  Biso   1.000  O
  N53      1.0000 0.32652  0.45402  0.11691  Biso   1.000  N
  C79      1.0000 0.33234  0.47176  0.21457  Biso   1.000  C
  H77      1.0000 0.32900  0.43291  0.33267  Biso   1.000  H
  C80      1.0000 0.39331  0.51610  0.28406  Biso   1.000  C
  C81      1.0000 0.59267  0.62561  0.77714  Biso   1.000  C
  N54      1.0000 0.52354  0.55985  0.62273  Biso   1.000  N
  O26      1.0000 0.50983  0.49478  0.60932  Biso   1.000  O
  C82      1.0000 0.55905  0.59918  0.62777  Biso   1.000  C
  H78      1.0000 0.61320  0.60279  0.58487  Biso   1.000  H
  C83      1.0000 0.30347  0.45922  0.04097  Biso   1.000  C
  N55      1.0000 0.36450  0.51264  0.22101  Biso   1.000  N
  H79      1.0000 0.30689  0.46859  0.24191  Biso   1.000  H
  O27      1.0000 0.42234  0.54856  0.31311  Biso   1.000  O
  N56      1.0000 0.56187  0.62101  0.71690  Biso   1.000  N
  O28      1.0000 0.60379  0.64576  0.85145  Biso   1.000  O
  C84      1.0000 0.48514  0.55334  0.58620  Biso   1.000  C
  H80      1.0000 0.56231  0.61530  0.56701  Biso   1.000  H
  H81      1.0000 0.28149  0.46140  0.07268  Biso   1.000  H
  N57      1.0000 0.32593  0.49344  0.97992  Biso   1.000  N
  H82      1.0000 0.29120  0.43509  0.99852  Biso   1.000  H
  C85      1.0000 0.36155  0.54620  0.18663  Biso   1.000  C
  C86      1.0000 0.54549  0.64690  0.72490  Biso   1.000  C
  N58      1.0000 0.46365  0.56224  0.66037  Biso   1.000  N
  H83      1.0000 0.46862  0.52521  0.56524  Biso   1.000  H
  H84      1.0000 0.48971  0.57039  0.52752  Biso   1.000  H
  C87      1.0000 0.33694  0.53444  0.00808  Biso   1.000  C
  C88      1.0000 0.33558  0.49111  0.88390  Biso   1.000  C
  N59      1.0000 0.36784  0.55197  0.07913  Biso   1.000  N
  H85      1.0000 0.33480  0.54199  0.20323  Biso   1.000  H
  H86      1.0000 0.38171  0.57060  0.22123  Biso   1.000  H
  N60      1.0000 0.50252  0.62603  0.74794  Biso   1.000  N
  H87      1.0000 0.55999  0.66679  0.77751  Biso   1.000  H
  H88      1.0000 0.54990  0.66150  0.66170  Biso   1.000  H
  C89      1.0000 0.42521  0.53584  0.68208  Biso   1.000  C
  C90      1.0000 0.47252  0.60351  0.67348  Biso   1.000  C
  H89      1.0000 0.31309  0.53650  0.02793  Biso   1.000  H
  C91      1.0000 0.35665  0.55845  0.91250  Biso   1.000  C
  O29      1.0000 0.32810  0.46080  0.84167  Biso   1.000  O
  N61      1.0000 0.35374  0.52888  0.84389  Biso   1.000  N
  C92      1.0000 0.40221  0.58341  0.04342  Biso   1.000  C
  C93      1.0000 0.48794  0.63519  0.82811  Biso   1.000  C
  N62      1.0000 0.40798  0.55513  0.72683  Biso   1.000  N
  O30      1.0000 0.40746  0.49983  0.66267  Biso   1.000  O
  C94      1.0000 0.43400  0.59843  0.72372  Biso   1.000  C
  H90      1.0000 0.47831  0.61820  0.60910  Biso   1.000  H
  N63      1.0000 0.39633  0.58712  0.94347  Biso   1.000  N
  H91      1.0000 0.34210  0.57200  0.88738  Biso   1.000  H
  C95      1.0000 0.36588  0.53683  0.74261  Biso   1.000  C
  O31      1.0000 0.43271  0.60494  0.08876  Biso   1.000  O
  N64      1.0000 0.44740  0.61716  0.81900  Biso   1.000  N
  O32      1.0000 0.50802  0.65657  0.89776  Biso   1.000  O
  H92      1.0000 0.42190  0.61151  0.68408  Biso   1.000  H
  C96      1.0000 0.42198  0.62274  0.88709  Biso   1.000  C
  H93      1.0000 0.35249  0.51139  0.70542  Biso   1.000  H
  H94      1.0000 0.35648  0.55439  0.71468  Biso   1.000  H
  H95      1.0000 0.43880  0.64460  0.93339  Biso   1.000  H
  H96      1.0000 0.40518  0.63089  0.84952  Biso   1.000  H
  C97      1.0000 0.55847  0.20181  0.08750  Biso   1.000  C
  N65      1.0000 0.52889  0.17514  0.15611  Biso   1.000  N
  C98      1.0000 0.53442  0.19748  0.99192  Biso   1.000  C
  C99      1.0000 0.53444  0.19751  0.99192  Biso   1.000  C
  N66      1.0000 0.58712  0.19079  0.05653  Biso   1.000  N
  H97      1.0000 0.57200  0.22991  0.11262  Biso   1.000  H
  C100     1.0000 0.49110  0.15552  0.11610  Biso   1.000  C
  C101     1.0000 0.49111  0.15555  0.11610  Biso   1.000  C
  C102     1.0000 0.53683  0.17096  0.25739  Biso   1.000  C
  C103     1.0000 0.55845  0.20178  0.08750  Biso   1.000  C
  N67      1.0000 0.49344  0.16750  0.02008  Biso   1.000  N
  N68      1.0000 0.49346  0.16753  0.02008  Biso   1.000  N
  N69      1.0000 0.55198  0.18413  0.92087  Biso   1.000  N
  H98      1.0000 0.53649  0.22340  0.97207  Biso   1.000  H
  N70      1.0000 0.55199  0.18416  0.92087  Biso   1.000  N
  H99      1.0000 0.53651  0.22343  0.97207  Biso   1.000  H
  C104     1.0000 0.62275  0.20076  0.11291  Biso   1.000  C
  C105     1.0000 0.58341  0.18120  0.95658  Biso   1.000  C
  O33      1.0000 0.46083  0.13274  0.15833  Biso   1.000  O
  O34      1.0000 0.46081  0.13271  0.15833  Biso   1.000  O
  N71      1.0000 0.55513  0.14713  0.27317  Biso   1.000  N
  H100     1.0000 0.51141  0.15890  0.29458  Biso   1.000  H
  H101     1.0000 0.55439  0.19789  0.28532  Biso   1.000  H
  N72      1.0000 0.55514  0.14716  0.27317  Biso   1.000  N
  H102     1.0000 0.51142  0.15893  0.29458  Biso   1.000  H
  H103     1.0000 0.55440  0.19792  0.28532  Biso   1.000  H
  C106     1.0000 0.45920  0.15576  0.95903  Biso   1.000  C
  C107     1.0000 0.54618  0.18464  0.81337  Biso   1.000  C
  C108     1.0000 0.54620  0.18467  0.81337  Biso   1.000  C
  N73      1.0000 0.61714  0.16974  0.18100  Biso   1.000  N
  N74      1.0000 0.61716  0.16976  0.18100  Biso   1.000  N
  H104     1.0000 0.64459  0.20581  0.06661  Biso   1.000  H
  H105     1.0000 0.63090  0.22570  0.15048  Biso   1.000  H
  H106     1.0000 0.63091  0.22573  0.15048  Biso   1.000  H
  O35      1.0000 0.60495  0.17224  0.91124  Biso   1.000  O
  C109     1.0000 0.53585  0.11064  0.31792  Biso   1.000  C
  C110     1.0000 0.59842  0.16442  0.27628  Biso   1.000  C
  C111     1.0000 0.53586  0.11067  0.31792  Biso   1.000  C
  H107     1.0000 0.43509  0.14390  0.00148  Biso   1.000  H
  N75      1.0000 0.45403  0.12751  0.88309  Biso   1.000  N
  H108     1.0000 0.46139  0.17989  0.92732  Biso   1.000  H
  H109     1.0000 0.46140  0.17992  0.92732  Biso   1.000  H
  N76      1.0000 0.51265  0.14814  0.77899  Biso   1.000  N
  H110     1.0000 0.54200  0.20721  0.79677  Biso   1.000  H
  H111     1.0000 0.57061  0.18891  0.77877  Biso   1.000  H
  N77      1.0000 0.51267  0.14817  0.77899  Biso   1.000  N
  C112     1.0000 0.63517  0.14725  0.17189  Biso   1.000  C
  C113     1.0000 0.63519  0.14728  0.17189  Biso   1.000  C
  O36      1.0000 0.49984  0.09236  0.33733  Biso   1.000  O
  N78      1.0000 0.56222  0.09857  0.33963  Biso   1.000  N
  N79      1.0000 0.56223  0.09860  0.33963  Biso   1.000  N
  C114     1.0000 0.60352  0.13100  0.32652  Biso   1.000  C
  H112     1.0000 0.61150  0.18959  0.31592  Biso   1.000  H
  H113     1.0000 0.61152  0.18962  0.31592  Biso   1.000  H
  C115     1.0000 0.42329  0.08839  0.88479  Biso   1.000  C
  C116     1.0000 0.47178  0.13943  0.78543  Biso   1.000  C
  C117     1.0000 0.42331  0.08842  0.88479  Biso   1.000  C
  C118     1.0000 0.47179  0.13946  0.78543  Biso   1.000  C
  C119     1.0000 0.51611  0.12279  0.71594  Biso   1.000  C
  N80      1.0000 0.62600  0.12348  0.25206  Biso   1.000  N
  N81      1.0000 0.62602  0.12351  0.25206  Biso   1.000  N
  O37      1.0000 0.65656  0.14853  0.10224  Biso   1.000  O
  O38      1.0000 0.65657  0.14856  0.10224  Biso   1.000  O
  C120     1.0000 0.55336  0.06823  0.41380  Biso   1.000  C
  H114     1.0000 0.61821  0.13990  0.39090  Biso   1.000  H
  O39      1.0000 0.40139  0.07221  0.95443  Biso   1.000  O
  N82      1.0000 0.42181  0.07146  0.79381  Biso   1.000  N
  O40      1.0000 0.40141  0.07224  0.95443  Biso   1.000  O
  H115     1.0000 0.46861  0.16170  0.75809  Biso   1.000  H
  C121     1.0000 0.44788  0.10043  0.72342  Biso   1.000  C
  C122     1.0000 0.44790  0.10046  0.72342  Biso   1.000  C
  N83      1.0000 0.47974  0.09344  0.68897  Biso   1.000  N
  O41      1.0000 0.54855  0.12623  0.68689  Biso   1.000  O
  O42      1.0000 0.54857  0.12626  0.68689  Biso   1.000  O
  C123     1.0000 0.64688  0.10141  0.27510  Biso   1.000  C
  N84      1.0000 0.55987  0.03631  0.37727  Biso   1.000  N
  H116     1.0000 0.52519  0.05659  0.43476  Biso   1.000  H
  H117     1.0000 0.57039  0.08069  0.47248  Biso   1.000  H
  H118     1.0000 0.52521  0.05662  0.43476  Biso   1.000  H
  H119     1.0000 0.57041  0.08072  0.47248  Biso   1.000  H
  C124     1.0000 0.38636  0.03542  0.76291  Biso   1.000  C
  C125     1.0000 0.38637  0.03545  0.76291  Biso   1.000  C
  H120     1.0000 0.43291  0.10389  0.66733  Biso   1.000  H
  H121     1.0000 0.43292  0.10392  0.66733  Biso   1.000  H
  C126     1.0000 0.47383  0.06782  0.60428  Biso   1.000  C
  N85      1.0000 0.62101  0.05913  0.28310  Biso   1.000  N
  H122     1.0000 0.66679  0.10679  0.22249  Biso   1.000  H
  H123     1.0000 0.66149  0.11159  0.33830  Biso   1.000  H
  N86      1.0000 0.62102  0.05916  0.28310  Biso   1.000  N
  H124     1.0000 0.66681  0.10682  0.22249  Biso   1.000  H
  H125     1.0000 0.66151  0.11162  0.33830  Biso   1.000  H
  C127     1.0000 0.59920  0.04013  0.37223  Biso   1.000  C
  C128     1.0000 0.52982  0.99680  0.38031  Biso   1.000  C
  H126     1.0000 0.37451  0.04151  0.70527  Biso   1.000  H
  H127     1.0000 0.36660  0.02601  0.81737  Biso   1.000  H
  N87      1.0000 0.39461  0.00391  0.73616  Biso   1.000  N
  H128     1.0000 0.45890  0.07301  0.55242  Biso   1.000  H
  H129     1.0000 0.50019  0.07460  0.57657  Biso   1.000  H
  N88      1.0000 0.45226  0.02580  0.62918  Biso   1.000  N
  H130     1.0000 0.50020  0.07462  0.57657  Biso   1.000  H
  C129     1.0000 0.62560  0.03294  0.22286  Biso   1.000  C
  C130     1.0000 0.62562  0.03297  0.22286  Biso   1.000  C
  H131     1.0000 0.61531  0.05300  0.43299  Biso   1.000  H
  C131     1.0000 0.58940  0.99675  0.36208  Biso   1.000  C
  C132     1.0000 0.58942  0.99677  0.36208  Biso   1.000  C
  O43      1.0000 0.49478  0.98495  0.39068  Biso   1.000  O
  N89      1.0000 0.54774  0.97420  0.37082  Biso   1.000  N
  N90      1.0000 0.54776  0.97423  0.37082  Biso   1.000  N
  C133     1.0000 0.37440  0.96706  0.77714  Biso   1.000  C
  C134     1.0000 0.41060  0.00325  0.63792  Biso   1.000  C
  C135     1.0000 0.47018  0.00320  0.61969  Biso   1.000  C
  C136     1.0000 0.47019  0.00323  0.61969  Biso   1.000  C
  N91      1.0000 0.60539  0.99609  0.26384  Biso   1.000  N
  N92      1.0000 0.60541  0.99612  0.26384  Biso   1.000  N
  O44      1.0000 0.64576  0.04196  0.14855  Biso   1.000  O
  O45      1.0000 0.64577  0.04199  0.14855  Biso   1.000  O
  H132     1.0000 0.60280  0.98961  0.41513  Biso   1.000  H
  C137     1.0000 0.52617  0.93218  0.39572  Biso   1.000  C
  C138     1.0000 0.52618  0.93221  0.39572  Biso   1.000  C
  O46      1.0000 0.35424  0.95804  0.85145  Biso   1.000  O
  N93      1.0000 0.37899  0.94087  0.71690  Biso   1.000  N
  C139     1.0000 0.40080  0.95987  0.62777  Biso   1.000  C
  C140     1.0000 0.40081  0.95990  0.62777  Biso   1.000  C
  H133     1.0000 0.39720  0.01039  0.58487  Biso   1.000  H
  H134     1.0000 0.39721  0.01042  0.58487  Biso   1.000  H
  N94      1.0000 0.44013  0.96369  0.62273  Biso   1.000  N
  N95      1.0000 0.44014  0.96372  0.62273  Biso   1.000  N
  O47      1.0000 0.50522  0.01505  0.60932  Biso   1.000  O
  C141     1.0000 0.61364  0.96458  0.23709  Biso   1.000  C
  N96      1.0000 0.52026  0.90656  0.31103  Biso   1.000  N
  H135     1.0000 0.54110  0.92699  0.44758  Biso   1.000  H
  H136     1.0000 0.49981  0.92540  0.42343  Biso   1.000  H
  N97      1.0000 0.52028  0.90659  0.31103  Biso   1.000  N
  H137     1.0000 0.54112  0.92702  0.44758  Biso   1.000  H
  C142     1.0000 0.35312  0.89859  0.72490  Biso   1.000  C
  C143     1.0000 0.35313  0.89862  0.72490  Biso   1.000  C
  H138     1.0000 0.38469  0.94700  0.56701  Biso   1.000  H
  H139     1.0000 0.38471  0.94702  0.56701  Biso   1.000  H
  C144     1.0000 0.44664  0.93177  0.58620  Biso   1.000  C
  C145     1.0000 0.44666  0.93180  0.58620  Biso   1.000  C
  N98      1.0000 0.57819  0.92854  0.20619  Biso   1.000  N
  H140     1.0000 0.62549  0.95849  0.29473  Biso   1.000  H
  H141     1.0000 0.63340  0.97399  0.18263  Biso   1.000  H
  N99      1.0000 0.57820  0.92857  0.20619  Biso   1.000  N
  H142     1.0000 0.62551  0.95852  0.29473  Biso   1.000  H
  H143     1.0000 0.63341  0.97402  0.18263  Biso   1.000  H
  C146     1.0000 0.55212  0.89957  0.27658  Biso   1.000  C
  C147     1.0000 0.48389  0.87721  0.28406  Biso   1.000  C
  C148     1.0000 0.48390  0.87724  0.28406  Biso   1.000  C
  N100     1.0000 0.37400  0.87652  0.74794  Biso   1.000  N
  H144     1.0000 0.33321  0.89321  0.77751  Biso   1.000  H
  H145     1.0000 0.33851  0.88841  0.66170  Biso   1.000  H
  N101     1.0000 0.43778  0.90143  0.66037  Biso   1.000  N
  H146     1.0000 0.47481  0.94341  0.56524  Biso   1.000  H
  H147     1.0000 0.42961  0.91931  0.52752  Biso   1.000  H
  C149     1.0000 0.57671  0.91161  0.11521  Biso   1.000  C
  C150     1.0000 0.52822  0.86057  0.21457  Biso   1.000  C
  H148     1.0000 0.56709  0.89611  0.33267  Biso   1.000  H
  O48      1.0000 0.45145  0.87377  0.31311  Biso   1.000  O
  N102     1.0000 0.48735  0.85186  0.22101  Biso   1.000  N
  C151     1.0000 0.39648  0.86900  0.67348  Biso   1.000  C
  C152     1.0000 0.36483  0.85275  0.82811  Biso   1.000  C
  C153     1.0000 0.39650  0.86903  0.67348  Biso   1.000  C
  C154     1.0000 0.46415  0.88936  0.68208  Biso   1.000  C
  O49      1.0000 0.59861  0.92779  0.04557  Biso   1.000  O
  N103     1.0000 0.54597  0.87249  0.11691  Biso   1.000  N
  N104     1.0000 0.54599  0.87252  0.11691  Biso   1.000  N
  H149     1.0000 0.53139  0.83830  0.24191  Biso   1.000  H
  H150     1.0000 0.53140  0.83833  0.24191  Biso   1.000  H
  C155     1.0000 0.45382  0.81536  0.18663  Biso   1.000  C
  H151     1.0000 0.38179  0.86010  0.60910  Biso   1.000  H
  C156     1.0000 0.40158  0.83558  0.72372  Biso   1.000  C
  H152     1.0000 0.38181  0.86013  0.60910  Biso   1.000  H
  O50      1.0000 0.34344  0.85147  0.89776  Biso   1.000  O
  N105     1.0000 0.38286  0.83026  0.81900  Biso   1.000  N
  N106     1.0000 0.44487  0.85287  0.72683  Biso   1.000  N
  O51      1.0000 0.50016  0.90764  0.66267  Biso   1.000  O
  O52      1.0000 0.50018  0.90767  0.66267  Biso   1.000  O
  C157     1.0000 0.54080  0.84424  0.04097  Biso   1.000  C
  C158     1.0000 0.54081  0.84427  0.04097  Biso   1.000  C
  N107     1.0000 0.44802  0.81587  0.07913  Biso   1.000  N
  H153     1.0000 0.45800  0.79279  0.20323  Biso   1.000  H
  H154     1.0000 0.42939  0.81109  0.22123  Biso   1.000  H
  H155     1.0000 0.45801  0.79282  0.20323  Biso   1.000  H
  H156     1.0000 0.42941  0.81112  0.22123  Biso   1.000  H
  H157     1.0000 0.38850  0.81041  0.68408  Biso   1.000  H
  C159     1.0000 0.37725  0.79924  0.88709  Biso   1.000  C
  C160     1.0000 0.37726  0.79927  0.88709  Biso   1.000  C
  C161     1.0000 0.46317  0.82904  0.74261  Biso   1.000  C
  C162     1.0000 0.46318  0.82907  0.74261  Biso   1.000  C
  N108     1.0000 0.50656  0.83250  0.97992  Biso   1.000  N
  H158     1.0000 0.56491  0.85610  0.99852  Biso   1.000  H
  H159     1.0000 0.56492  0.85613  0.99852  Biso   1.000  H
  H160     1.0000 0.53861  0.82011  0.07268  Biso   1.000  H
  C163     1.0000 0.46558  0.80252  0.00808  Biso   1.000  C
  C164     1.0000 0.41659  0.81880  0.04342  Biso   1.000  C
  C165     1.0000 0.41660  0.81883  0.04342  Biso   1.000  C
  N109     1.0000 0.41288  0.80921  0.94347  Biso   1.000  N
  H161     1.0000 0.35541  0.79419  0.93339  Biso   1.000  H
  H162     1.0000 0.36910  0.77430  0.84952  Biso   1.000  H
  N110     1.0000 0.41290  0.80924  0.94347  Biso   1.000  N
  H163     1.0000 0.35542  0.79422  0.93339  Biso   1.000  H
  N111     1.0000 0.47111  0.82486  0.84389  Biso   1.000  N
  H164     1.0000 0.48859  0.84110  0.70542  Biso   1.000  H
  H165     1.0000 0.44561  0.80211  0.71468  Biso   1.000  H
  N112     1.0000 0.47112  0.82489  0.84389  Biso   1.000  N
  C166     1.0000 0.50890  0.84448  0.88390  Biso   1.000  C
  C167     1.0000 0.44155  0.79822  0.91250  Biso   1.000  C
  H166     1.0000 0.46351  0.77660  0.02793  Biso   1.000  H
  O53      1.0000 0.39505  0.82776  0.08876  Biso   1.000  O
  O54      1.0000 0.39507  0.82779  0.08876  Biso   1.000  O
  O55      1.0000 0.53919  0.86729  0.84167  Biso   1.000  O
  H167     1.0000 0.42800  0.77009  0.88738  Biso   1.000  H
  H168     1.0000 0.42802  0.77012  0.88738  Biso   1.000  H
  C168     1.0000 0.55847  0.20181  0.08750  Biso   1.000  C
  N113     1.0000 0.52889  0.17514  0.15611  Biso   1.000  N
  C169     1.0000 0.53442  0.19748  0.99192  Biso   1.000  C
  C170     1.0000 0.53444  0.19751  0.99192  Biso   1.000  C
  N114     1.0000 0.58712  0.19079  0.05653  Biso   1.000  N
  H169     1.0000 0.57200  0.22991  0.11262  Biso   1.000  H
  C171     1.0000 0.49110  0.15552  0.11610  Biso   1.000  C
  C172     1.0000 0.49111  0.15555  0.11610  Biso   1.000  C
  C173     1.0000 0.53683  0.17096  0.25739  Biso   1.000  C
  C174     1.0000 0.55845  0.20178  0.08750  Biso   1.000  C
  N115     1.0000 0.49344  0.16750  0.02008  Biso   1.000  N
  N116     1.0000 0.49346  0.16753  0.02008  Biso   1.000  N
  N117     1.0000 0.55198  0.18413  0.92087  Biso   1.000  N
  H170     1.0000 0.53649  0.22340  0.97207  Biso   1.000  H
  N118     1.0000 0.55199  0.18416  0.92087  Biso   1.000  N
  H171     1.0000 0.53651  0.22343  0.97207  Biso   1.000  H
  C175     1.0000 0.62275  0.20076  0.11291  Biso   1.000  C
  C176     1.0000 0.58341  0.18120  0.95658  Biso   1.000  C
  O56      1.0000 0.46083  0.13274  0.15833  Biso   1.000  O
  O57      1.0000 0.46081  0.13271  0.15833  Biso   1.000  O
  N119     1.0000 0.55513  0.14713  0.27317  Biso   1.000  N
  H172     1.0000 0.51141  0.15890  0.29458  Biso   1.000  H
  H173     1.0000 0.55439  0.19789  0.28532  Biso   1.000  H
  N120     1.0000 0.55514  0.14716  0.27317  Biso   1.000  N
  H174     1.0000 0.51142  0.15893  0.29458  Biso   1.000  H
  H175     1.0000 0.55440  0.19792  0.28532  Biso   1.000  H
  C177     1.0000 0.45920  0.15576  0.95903  Biso   1.000  C
  C178     1.0000 0.54618  0.18464  0.81337  Biso   1.000  C
  C179     1.0000 0.54620  0.18467  0.81337  Biso   1.000  C
  N121     1.0000 0.61714  0.16974  0.18100  Biso   1.000  N
  N122     1.0000 0.61716  0.16976  0.18100  Biso   1.000  N
  H176     1.0000 0.64459  0.20581  0.06661  Biso   1.000  H
  H177     1.0000 0.63090  0.22570  0.15048  Biso   1.000  H
  H178     1.0000 0.63091  0.22573  0.15048  Biso   1.000  H
  O58      1.0000 0.60495  0.17224  0.91124  Biso   1.000  O
  C180     1.0000 0.53585  0.11064  0.31792  Biso   1.000  C
  C181     1.0000 0.59842  0.16442  0.27628  Biso   1.000  C
  C182     1.0000 0.53586  0.11067  0.31792  Biso   1.000  C
  H179     1.0000 0.43509  0.14390  0.00148  Biso   1.000  H
  N123     1.0000 0.45403  0.12751  0.88309  Biso   1.000  N
  H180     1.0000 0.46139  0.17989  0.92732  Biso   1.000  H
  H181     1.0000 0.46140  0.17992  0.92732  Biso   1.000  H
  N124     1.0000 0.51265  0.14814  0.77899  Biso   1.000  N
  H182     1.0000 0.54200  0.20721  0.79677  Biso   1.000  H
  H183     1.0000 0.57061  0.18891  0.77877  Biso   1.000  H
  N125     1.0000 0.51267  0.14817  0.77899  Biso   1.000  N
  C183     1.0000 0.63517  0.14725  0.17189  Biso   1.000  C
  C184     1.0000 0.63519  0.14728  0.17189  Biso   1.000  C
  O59      1.0000 0.49984  0.09236  0.33733  Biso   1.000  O
  N126     1.0000 0.56222  0.09857  0.33963  Biso   1.000  N
  N127     1.0000 0.56223  0.09860  0.33963  Biso   1.000  N
  C185     1.0000 0.60352  0.13100  0.32652  Biso   1.000  C
  H184     1.0000 0.61150  0.18959  0.31592  Biso   1.000  H
  H185     1.0000 0.61152  0.18962  0.31592  Biso   1.000  H
  C186     1.0000 0.42329  0.08839  0.88479  Biso   1.000  C
  C187     1.0000 0.47178  0.13943  0.78543  Biso   1.000  C
  C188     1.0000 0.42331  0.08842  0.88479  Biso   1.000  C
  C189     1.0000 0.47179  0.13946  0.78543  Biso   1.000  C
  C190     1.0000 0.51611  0.12279  0.71594  Biso   1.000  C
  N128     1.0000 0.62600  0.12348  0.25206  Biso   1.000  N
  N129     1.0000 0.62602  0.12351  0.25206  Biso   1.000  N
  O60      1.0000 0.65656  0.14853  0.10224  Biso   1.000  O
  O61      1.0000 0.65657  0.14856  0.10224  Biso   1.000  O
  C191     1.0000 0.55336  0.06823  0.41380  Biso   1.000  C
  H186     1.0000 0.61821  0.13990  0.39090  Biso   1.000  H
  O62      1.0000 0.40139  0.07221  0.95443  Biso   1.000  O
  N130     1.0000 0.42181  0.07146  0.79381  Biso   1.000  N
  O63      1.0000 0.40141  0.07224  0.95443  Biso   1.000  O
  H187     1.0000 0.46861  0.16170  0.75809  Biso   1.000  H
  C192     1.0000 0.44788  0.10043  0.72342  Biso   1.000  C
  C193     1.0000 0.44790  0.10046  0.72342  Biso   1.000  C
  N131     1.0000 0.47974  0.09344  0.68897  Biso   1.000  N
  O64      1.0000 0.54855  0.12623  0.68689  Biso   1.000  O
  O65      1.0000 0.54857  0.12626  0.68689  Biso   1.000  O
  C194     1.0000 0.64688  0.10141  0.27510  Biso   1.000  C
  N132     1.0000 0.55987  0.03631  0.37727  Biso   1.000  N
  H188     1.0000 0.52519  0.05659  0.43476  Biso   1.000  H
  H189     1.0000 0.57039  0.08069  0.47248  Biso   1.000  H
  H190     1.0000 0.52521  0.05662  0.43476  Biso   1.000  H
  H191     1.0000 0.57041  0.08072  0.47248  Biso   1.000  H
  C195     1.0000 0.38636  0.03542  0.76291  Biso   1.000  C
  C196     1.0000 0.38637  0.03545  0.76291  Biso   1.000  C
  H192     1.0000 0.43291  0.10389  0.66733  Biso   1.000  H
  H193     1.0000 0.43292  0.10392  0.66733  Biso   1.000  H
  C197     1.0000 0.47383  0.06782  0.60428  Biso   1.000  C
  N133     1.0000 0.62101  0.05913  0.28310  Biso   1.000  N
  H194     1.0000 0.66679  0.10679  0.22249  Biso   1.000  H
  H195     1.0000 0.66149  0.11159  0.33830  Biso   1.000  H
  N134     1.0000 0.62102  0.05916  0.28310  Biso   1.000  N
  H196     1.0000 0.66681  0.10682  0.22249  Biso   1.000  H
  H197     1.0000 0.66151  0.11162  0.33830  Biso   1.000  H
  C198     1.0000 0.59920  0.04013  0.37223  Biso   1.000  C
  C199     1.0000 0.52982  0.99680  0.38031  Biso   1.000  C
  H198     1.0000 0.37451  0.04151  0.70527  Biso   1.000  H
  H199     1.0000 0.36660  0.02601  0.81737  Biso   1.000  H
  N135     1.0000 0.39461  0.00391  0.73616  Biso   1.000  N
  H200     1.0000 0.45890  0.07301  0.55242  Biso   1.000  H
  H201     1.0000 0.50019  0.07460  0.57657  Biso   1.000  H
  N136     1.0000 0.45226  0.02580  0.62918  Biso   1.000  N
  H202     1.0000 0.50020  0.07462  0.57657  Biso   1.000  H
  C200     1.0000 0.62560  0.03294  0.22286  Biso   1.000  C
  C201     1.0000 0.62562  0.03297  0.22286  Biso   1.000  C
  H203     1.0000 0.61531  0.05300  0.43299  Biso   1.000  H
  C202     1.0000 0.58940  0.99675  0.36208  Biso   1.000  C
  C203     1.0000 0.58942  0.99677  0.36208  Biso   1.000  C
  O66      1.0000 0.49478  0.98495  0.39068  Biso   1.000  O
  N137     1.0000 0.54774  0.97420  0.37082  Biso   1.000  N
  N138     1.0000 0.54776  0.97423  0.37082  Biso   1.000  N
  C204     1.0000 0.37440  0.96706  0.77714  Biso   1.000  C
  C205     1.0000 0.41060  0.00325  0.63792  Biso   1.000  C
  C206     1.0000 0.47018  0.00320  0.61969  Biso   1.000  C
  C207     1.0000 0.47019  0.00323  0.61969  Biso   1.000  C
  N139     1.0000 0.60539  0.99609  0.26384  Biso   1.000  N
  N140     1.0000 0.60541  0.99612  0.26384  Biso   1.000  N
  O67      1.0000 0.64576  0.04196  0.14855  Biso   1.000  O
  O68      1.0000 0.64577  0.04199  0.14855  Biso   1.000  O
  H204     1.0000 0.60280  0.98961  0.41513  Biso   1.000  H
  C208     1.0000 0.52617  0.93218  0.39572  Biso   1.000  C
  C209     1.0000 0.52618  0.93221  0.39572  Biso   1.000  C
  O69      1.0000 0.35424  0.95804  0.85145  Biso   1.000  O
  N141     1.0000 0.37899  0.94087  0.71690  Biso   1.000  N
  C210     1.0000 0.40080  0.95987  0.62777  Biso   1.000  C
  C211     1.0000 0.40081  0.95990  0.62777  Biso   1.000  C
  H205     1.0000 0.39720  0.01039  0.58487  Biso   1.000  H
  H206     1.0000 0.39721  0.01042  0.58487  Biso   1.000  H
  N142     1.0000 0.44013  0.96369  0.62273  Biso   1.000  N
  N143     1.0000 0.44014  0.96372  0.62273  Biso   1.000  N
  O70      1.0000 0.50522  0.01505  0.60932  Biso   1.000  O
  C212     1.0000 0.61364  0.96458  0.23709  Biso   1.000  C
  N144     1.0000 0.52026  0.90656  0.31103  Biso   1.000  N
  H207     1.0000 0.54110  0.92699  0.44758  Biso   1.000  H
  H208     1.0000 0.49981  0.92540  0.42343  Biso   1.000  H
  N145     1.0000 0.52028  0.90659  0.31103  Biso   1.000  N
  H209     1.0000 0.54112  0.92702  0.44758  Biso   1.000  H
  C213     1.0000 0.35312  0.89859  0.72490  Biso   1.000  C
  C214     1.0000 0.35313  0.89862  0.72490  Biso   1.000  C
  H210     1.0000 0.38469  0.94700  0.56701  Biso   1.000  H
  H211     1.0000 0.38471  0.94702  0.56701  Biso   1.000  H
  C215     1.0000 0.44664  0.93177  0.58620  Biso   1.000  C
  C216     1.0000 0.44666  0.93180  0.58620  Biso   1.000  C
  N146     1.0000 0.57819  0.92854  0.20619  Biso   1.000  N
  H212     1.0000 0.62549  0.95849  0.29473  Biso   1.000  H
  H213     1.0000 0.63340  0.97399  0.18263  Biso   1.000  H
  N147     1.0000 0.57820  0.92857  0.20619  Biso   1.000  N
  H214     1.0000 0.62551  0.95852  0.29473  Biso   1.000  H
  H215     1.0000 0.63341  0.97402  0.18263  Biso   1.000  H
  C217     1.0000 0.55212  0.89957  0.27658  Biso   1.000  C
  C218     1.0000 0.48389  0.87721  0.28406  Biso   1.000  C
  C219     1.0000 0.48390  0.87724  0.28406  Biso   1.000  C
  N148     1.0000 0.37400  0.87652  0.74794  Biso   1.000  N
  H216     1.0000 0.33321  0.89321  0.77751  Biso   1.000  H
  H217     1.0000 0.33851  0.88841  0.66170  Biso   1.000  H
  N149     1.0000 0.43778  0.90143  0.66037  Biso   1.000  N
  H218     1.0000 0.47481  0.94341  0.56524  Biso   1.000  H
  H219     1.0000 0.42961  0.91931  0.52752  Biso   1.000  H
  C220     1.0000 0.57671  0.91161  0.11521  Biso   1.000  C
  C221     1.0000 0.52822  0.86057  0.21457  Biso   1.000  C
  H220     1.0000 0.56709  0.89611  0.33267  Biso   1.000  H
  O71      1.0000 0.45145  0.87377  0.31311  Biso   1.000  O
  N150     1.0000 0.48735  0.85186  0.22101  Biso   1.000  N
  C222     1.0000 0.39648  0.86900  0.67348  Biso   1.000  C
  C223     1.0000 0.36483  0.85275  0.82811  Biso   1.000  C
  C224     1.0000 0.39650  0.86903  0.67348  Biso   1.000  C
  C225     1.0000 0.46415  0.88936  0.68208  Biso   1.000  C
  O72      1.0000 0.59861  0.92779  0.04557  Biso   1.000  O
  N151     1.0000 0.54597  0.87249  0.11691  Biso   1.000  N
  N152     1.0000 0.54599  0.87252  0.11691  Biso   1.000  N
  H221     1.0000 0.53139  0.83830  0.24191  Biso   1.000  H
  H222     1.0000 0.53140  0.83833  0.24191  Biso   1.000  H
  C226     1.0000 0.45382  0.81536  0.18663  Biso   1.000  C
  H223     1.0000 0.38179  0.86010  0.60910  Biso   1.000  H
  C227     1.0000 0.40158  0.83558  0.72372  Biso   1.000  C
  H224     1.0000 0.38181  0.86013  0.60910  Biso   1.000  H
  O73      1.0000 0.34344  0.85147  0.89776  Biso   1.000  O
  N153     1.0000 0.38286  0.83026  0.81900  Biso   1.000  N
  N154     1.0000 0.44487  0.85287  0.72683  Biso   1.000  N
  O74      1.0000 0.50016  0.90764  0.66267  Biso   1.000  O
  O75      1.0000 0.50018  0.90767  0.66267  Biso   1.000  O
  C228     1.0000 0.54080  0.84424  0.04097  Biso   1.000  C
  C229     1.0000 0.54081  0.84427  0.04097  Biso   1.000  C
  N155     1.0000 0.44802  0.81587  0.07913  Biso   1.000  N
  H225     1.0000 0.45800  0.79279  0.20323  Biso   1.000  H
  H226     1.0000 0.42939  0.81109  0.22123  Biso   1.000  H
  H227     1.0000 0.45801  0.79282  0.20323  Biso   1.000  H
  H228     1.0000 0.42941  0.81112  0.22123  Biso   1.000  H
  H229     1.0000 0.38850  0.81041  0.68408  Biso   1.000  H
  C230     1.0000 0.37725  0.79924  0.88709  Biso   1.000  C
  C231     1.0000 0.37726  0.79927  0.88709  Biso   1.000  C
  C232     1.0000 0.46317  0.82904  0.74261  Biso   1.000  C
  C233     1.0000 0.46318  0.82907  0.74261  Biso   1.000  C
  N156     1.0000 0.50656  0.83250  0.97992  Biso   1.000  N
  H230     1.0000 0.56491  0.85610  0.99852  Biso   1.000  H
  H231     1.0000 0.56492  0.85613  0.99852  Biso   1.000  H
  H232     1.0000 0.53861  0.82011  0.07268  Biso   1.000  H
  C234     1.0000 0.46558  0.80252  0.00808  Biso   1.000  C
  C235     1.0000 0.41659  0.81880  0.04342  Biso   1.000  C
  C236     1.0000 0.41660  0.81883  0.04342  Biso   1.000  C
  N157     1.0000 0.41288  0.80921  0.94347  Biso   1.000  N
  H233     1.0000 0.35541  0.79419  0.93339  Biso   1.000  H
  H234     1.0000 0.36910  0.77430  0.84952  Biso   1.000  H
  N158     1.0000 0.41290  0.80924  0.94347  Biso   1.000  N
  H235     1.0000 0.35542  0.79422  0.93339  Biso   1.000  H
  N159     1.0000 0.47111  0.82486  0.84389  Biso   1.000  N
  H236     1.0000 0.48859  0.84110  0.70542  Biso   1.000  H
  H237     1.0000 0.44561  0.80211  0.71468  Biso   1.000  H
  N160     1.0000 0.47112  0.82489  0.84389  Biso   1.000  N
  C237     1.0000 0.50890  0.84448  0.88390  Biso   1.000  C
  C238     1.0000 0.44155  0.79822  0.91250  Biso   1.000  C
  H238     1.0000 0.46351  0.77660  0.02793  Biso   1.000  H
  O76      1.0000 0.39505  0.82776  0.08876  Biso   1.000  O
  O77      1.0000 0.39507  0.82779  0.08876  Biso   1.000  O
  O78      1.0000 0.53919  0.86729  0.84167  Biso   1.000  O
  H239     1.0000 0.42800  0.77009  0.88738  Biso   1.000  H
  H240     1.0000 0.42802  0.77012  0.88738  Biso   1.000  H
  C239     1.0000 0.55847  0.20181  0.08750  Biso   1.000  C
  N161     1.0000 0.52889  0.17514  0.15611  Biso   1.000  N
  N162     1.0000 0.58712  0.19079  0.05653  Biso   1.000  N
  H241     1.0000 0.57200  0.22991  0.11262  Biso   1.000  H
  C240     1.0000 0.53442  0.19748  0.99192  Biso   1.000  C
  C241     1.0000 0.53444  0.19751  0.99192  Biso   1.000  C
  C242     1.0000 0.53683  0.17096  0.25739  Biso   1.000  C
  C243     1.0000 0.49110  0.15552  0.11610  Biso   1.000  C
  C244     1.0000 0.55845  0.20178  0.08750  Biso   1.000  C
  C245     1.0000 0.49111  0.15555  0.11610  Biso   1.000  C
  C246     1.0000 0.62275  0.20076  0.11291  Biso   1.000  C
  C247     1.0000 0.58341  0.18120  0.95658  Biso   1.000  C
  N163     1.0000 0.49344  0.16750  0.02008  Biso   1.000  N
  N164     1.0000 0.49346  0.16753  0.02008  Biso   1.000  N
  N165     1.0000 0.55198  0.18413  0.92087  Biso   1.000  N
  H242     1.0000 0.53649  0.22340  0.97207  Biso   1.000  H
  N166     1.0000 0.55199  0.18416  0.92087  Biso   1.000  N
  H243     1.0000 0.53651  0.22343  0.97207  Biso   1.000  H
  N167     1.0000 0.55513  0.14713  0.27317  Biso   1.000  N
  H244     1.0000 0.51141  0.15890  0.29458  Biso   1.000  H
  H245     1.0000 0.55439  0.19789  0.28532  Biso   1.000  H
  N168     1.0000 0.55514  0.14716  0.27317  Biso   1.000  N
  H246     1.0000 0.51142  0.15893  0.29458  Biso   1.000  H
  H247     1.0000 0.55440  0.19792  0.28532  Biso   1.000  H
  O79      1.0000 0.46081  0.13271  0.15833  Biso   1.000  O
  O80      1.0000 0.46083  0.13274  0.15833  Biso   1.000  O
  N169     1.0000 0.61714  0.16974  0.18100  Biso   1.000  N
  N170     1.0000 0.61716  0.16976  0.18100  Biso   1.000  N
  H248     1.0000 0.64459  0.20581  0.06661  Biso   1.000  H
  H249     1.0000 0.63090  0.22570  0.15048  Biso   1.000  H
  H250     1.0000 0.63091  0.22573  0.15048  Biso   1.000  H
  O81      1.0000 0.60495  0.17224  0.91124  Biso   1.000  O
  C248     1.0000 0.45920  0.15576  0.95903  Biso   1.000  C
  C249     1.0000 0.54618  0.18464  0.81337  Biso   1.000  C
  C250     1.0000 0.54620  0.18467  0.81337  Biso   1.000  C
  C251     1.0000 0.59842  0.16442  0.27628  Biso   1.000  C
  C252     1.0000 0.53585  0.11064  0.31792  Biso   1.000  C
  C253     1.0000 0.53586  0.11067  0.31792  Biso   1.000  C
  C254     1.0000 0.63517  0.14725  0.17189  Biso   1.000  C
  C255     1.0000 0.63519  0.14728  0.17189  Biso   1.000  C
  H251     1.0000 0.43509  0.14390  0.00148  Biso   1.000  H
  N171     1.0000 0.45403  0.12751  0.88309  Biso   1.000  N
  H252     1.0000 0.46139  0.17989  0.92732  Biso   1.000  H
  H253     1.0000 0.46140  0.17992  0.92732  Biso   1.000  H
  N172     1.0000 0.51265  0.14814  0.77899  Biso   1.000  N
  H254     1.0000 0.54200  0.20721  0.79677  Biso   1.000  H
  H255     1.0000 0.57061  0.18891  0.77877  Biso   1.000  H
  N173     1.0000 0.51267  0.14817  0.77899  Biso   1.000  N
  C256     1.0000 0.60352  0.13100  0.32652  Biso   1.000  C
  H256     1.0000 0.61150  0.18959  0.31592  Biso   1.000  H
  H257     1.0000 0.61152  0.18962  0.31592  Biso   1.000  H
  O82      1.0000 0.49984  0.09236  0.33733  Biso   1.000  O
  N174     1.0000 0.56222  0.09857  0.33963  Biso   1.000  N
  N175     1.0000 0.56223  0.09860  0.33963  Biso   1.000  N
  N176     1.0000 0.62600  0.12348  0.25206  Biso   1.000  N
  N177     1.0000 0.62602  0.12351  0.25206  Biso   1.000  N
  O83      1.0000 0.65656  0.14853  0.10224  Biso   1.000  O
  O84      1.0000 0.65657  0.14856  0.10224  Biso   1.000  O
  C257     1.0000 0.42329  0.08839  0.88479  Biso   1.000  C
  C258     1.0000 0.47178  0.13943  0.78543  Biso   1.000  C
  C259     1.0000 0.42331  0.08842  0.88479  Biso   1.000  C
  C260     1.0000 0.47179  0.13946  0.78543  Biso   1.000  C
  C261     1.0000 0.51611  0.12279  0.71594  Biso   1.000  C
  H258     1.0000 0.61821  0.13990  0.39090  Biso   1.000  H
  C262     1.0000 0.55336  0.06823  0.41380  Biso   1.000  C
  C263     1.0000 0.64688  0.10141  0.27510  Biso   1.000  C
  O85      1.0000 0.40139  0.07221  0.95443  Biso   1.000  O
  N178     1.0000 0.42181  0.07146  0.79381  Biso   1.000  N
  O86      1.0000 0.40141  0.07224  0.95443  Biso   1.000  O
  H259     1.0000 0.46861  0.16170  0.75809  Biso   1.000  H
  C264     1.0000 0.44788  0.10043  0.72342  Biso   1.000  C
  C265     1.0000 0.44790  0.10046  0.72342  Biso   1.000  C
  N179     1.0000 0.47974  0.09344  0.68897  Biso   1.000  N
  O87      1.0000 0.54855  0.12623  0.68689  Biso   1.000  O
  O88      1.0000 0.54857  0.12626  0.68689  Biso   1.000  O
  N180     1.0000 0.55987  0.03631  0.37727  Biso   1.000  N
  H260     1.0000 0.52519  0.05659  0.43476  Biso   1.000  H
  H261     1.0000 0.57039  0.08069  0.47248  Biso   1.000  H
  H262     1.0000 0.52521  0.05662  0.43476  Biso   1.000  H
  H263     1.0000 0.57041  0.08072  0.47248  Biso   1.000  H
  N181     1.0000 0.62101  0.05913  0.28310  Biso   1.000  N
  H264     1.0000 0.66679  0.10679  0.22249  Biso   1.000  H
  H265     1.0000 0.66149  0.11159  0.33830  Biso   1.000  H
  N182     1.0000 0.62102  0.05916  0.28310  Biso   1.000  N
  H266     1.0000 0.66681  0.10682  0.22249  Biso   1.000  H
  H267     1.0000 0.66151  0.11162  0.33830  Biso   1.000  H
  C266     1.0000 0.38636  0.03542  0.76291  Biso   1.000  C
  C267     1.0000 0.38637  0.03545  0.76291  Biso   1.000  C
  H268     1.0000 0.43291  0.10389  0.66733  Biso   1.000  H
  H269     1.0000 0.43292  0.10392  0.66733  Biso   1.000  H
  C268     1.0000 0.47383  0.06782  0.60428  Biso   1.000  C
  C269     1.0000 0.59920  0.04013  0.37223  Biso   1.000  C
  C270     1.0000 0.52982  0.99680  0.38031  Biso   1.000  C
  C271     1.0000 0.62560  0.03294  0.22286  Biso   1.000  C
  C272     1.0000 0.62562  0.03297  0.22286  Biso   1.000  C
  H270     1.0000 0.37451  0.04151  0.70527  Biso   1.000  H
  H271     1.0000 0.36660  0.02601  0.81737  Biso   1.000  H
  N183     1.0000 0.39461  0.00391  0.73616  Biso   1.000  N
  H272     1.0000 0.45890  0.07301  0.55242  Biso   1.000  H
  H273     1.0000 0.50019  0.07460  0.57657  Biso   1.000  H
  N184     1.0000 0.45226  0.02580  0.62918  Biso   1.000  N
  H274     1.0000 0.50020  0.07462  0.57657  Biso   1.000  H
  H275     1.0000 0.61531  0.05300  0.43299  Biso   1.000  H
  C273     1.0000 0.58940  0.99675  0.36208  Biso   1.000  C
  C274     1.0000 0.58942  0.99677  0.36208  Biso   1.000  C
  O89      1.0000 0.49478  0.98495  0.39068  Biso   1.000  O
  N185     1.0000 0.54774  0.97420  0.37082  Biso   1.000  N
  N186     1.0000 0.54776  0.97423  0.37082  Biso   1.000  N
  N187     1.0000 0.60539  0.99609  0.26384  Biso   1.000  N
  N188     1.0000 0.60541  0.99612  0.26384  Biso   1.000  N
  O90      1.0000 0.64576  0.04196  0.14855  Biso   1.000  O
  O91      1.0000 0.64577  0.04199  0.14855  Biso   1.000  O
  C275     1.0000 0.37440  0.96706  0.77714  Biso   1.000  C
  C276     1.0000 0.41060  0.00325  0.63792  Biso   1.000  C
  C277     1.0000 0.47018  0.00320  0.61969  Biso   1.000  C
  C278     1.0000 0.47019  0.00323  0.61969  Biso   1.000  C
  H276     1.0000 0.60280  0.98961  0.41513  Biso   1.000  H
  C279     1.0000 0.52617  0.93218  0.39572  Biso   1.000  C
  C280     1.0000 0.52618  0.93221  0.39572  Biso   1.000  C
  C281     1.0000 0.61364  0.96458  0.23709  Biso   1.000  C
  O92      1.0000 0.35424  0.95804  0.85145  Biso   1.000  O
  N189     1.0000 0.37899  0.94087  0.71690  Biso   1.000  N
  C282     1.0000 0.40080  0.95987  0.62777  Biso   1.000  C
  C283     1.0000 0.40081  0.95990  0.62777  Biso   1.000  C
  H277     1.0000 0.39720  0.01039  0.58487  Biso   1.000  H
  H278     1.0000 0.39721  0.01042  0.58487  Biso   1.000  H
  N190     1.0000 0.44013  0.96369  0.62273  Biso   1.000  N
  N191     1.0000 0.44014  0.96372  0.62273  Biso   1.000  N
  O93      1.0000 0.50522  0.01505  0.60932  Biso   1.000  O
  N192     1.0000 0.52026  0.90656  0.31103  Biso   1.000  N
  H279     1.0000 0.54110  0.92699  0.44758  Biso   1.000  H
  H280     1.0000 0.49981  0.92540  0.42343  Biso   1.000  H
  N193     1.0000 0.52028  0.90659  0.31103  Biso   1.000  N
  H281     1.0000 0.54112  0.92702  0.44758  Biso   1.000  H
  N194     1.0000 0.57819  0.92854  0.20619  Biso   1.000  N
  H282     1.0000 0.62549  0.95849  0.29473  Biso   1.000  H
  H283     1.0000 0.63340  0.97399  0.18263  Biso   1.000  H
  N195     1.0000 0.57820  0.92857  0.20619  Biso   1.000  N
  H284     1.0000 0.62551  0.95852  0.29473  Biso   1.000  H
  H285     1.0000 0.63341  0.97402  0.18263  Biso   1.000  H
  C284     1.0000 0.35312  0.89859  0.72490  Biso   1.000  C
  C285     1.0000 0.35313  0.89862  0.72490  Biso   1.000  C
  H286     1.0000 0.38469  0.94700  0.56701  Biso   1.000  H
  H287     1.0000 0.38471  0.94702  0.56701  Biso   1.000  H
  C286     1.0000 0.44664  0.93177  0.58620  Biso   1.000  C
  C287     1.0000 0.44666  0.93180  0.58620  Biso   1.000  C
  C288     1.0000 0.55212  0.89957  0.27658  Biso   1.000  C
  C289     1.0000 0.48389  0.87721  0.28406  Biso   1.000  C
  C290     1.0000 0.48390  0.87724  0.28406  Biso   1.000  C
  C291     1.0000 0.57671  0.91161  0.11521  Biso   1.000  C
  N196     1.0000 0.37400  0.87652  0.74794  Biso   1.000  N
  H288     1.0000 0.33321  0.89321  0.77751  Biso   1.000  H
  H289     1.0000 0.33851  0.88841  0.66170  Biso   1.000  H
  N197     1.0000 0.43778  0.90143  0.66037  Biso   1.000  N
  H290     1.0000 0.47481  0.94341  0.56524  Biso   1.000  H
  H291     1.0000 0.42961  0.91931  0.52752  Biso   1.000  H
  C292     1.0000 0.52822  0.86057  0.21457  Biso   1.000  C
  H292     1.0000 0.56709  0.89611  0.33267  Biso   1.000  H
  O94      1.0000 0.45145  0.87377  0.31311  Biso   1.000  O
  N198     1.0000 0.48735  0.85186  0.22101  Biso   1.000  N
  O95      1.0000 0.59861  0.92779  0.04557  Biso   1.000  O
  N199     1.0000 0.54597  0.87249  0.11691  Biso   1.000  N
  N200     1.0000 0.54599  0.87252  0.11691  Biso   1.000  N
  C293     1.0000 0.39648  0.86900  0.67348  Biso   1.000  C
  C294     1.0000 0.36483  0.85275  0.82811  Biso   1.000  C
  C295     1.0000 0.39650  0.86903  0.67348  Biso   1.000  C
  C296     1.0000 0.46415  0.88936  0.68208  Biso   1.000  C
  H293     1.0000 0.53139  0.83830  0.24191  Biso   1.000  H
  H294     1.0000 0.53140  0.83833  0.24191  Biso   1.000  H
  C297     1.0000 0.45382  0.81536  0.18663  Biso   1.000  C
  C298     1.0000 0.54080  0.84424  0.04097  Biso   1.000  C
  C299     1.0000 0.54081  0.84427  0.04097  Biso   1.000  C
  H295     1.0000 0.38179  0.86010  0.60910  Biso   1.000  H
  C300     1.0000 0.40158  0.83558  0.72372  Biso   1.000  C
  H296     1.0000 0.38181  0.86013  0.60910  Biso   1.000  H
  O96      1.0000 0.34344  0.85147  0.89776  Biso   1.000  O
  N201     1.0000 0.38286  0.83026  0.81900  Biso   1.000  N
  N202     1.0000 0.44487  0.85287  0.72683  Biso   1.000  N
  O97      1.0000 0.50016  0.90764  0.66267  Biso   1.000  O
  O98      1.0000 0.50018  0.90767  0.66267  Biso   1.000  O
  N203     1.0000 0.44802  0.81587  0.07913  Biso   1.000  N
  H297     1.0000 0.45800  0.79279  0.20323  Biso   1.000  H
  H298     1.0000 0.42939  0.81109  0.22123  Biso   1.000  H
  H299     1.0000 0.45801  0.79282  0.20323  Biso   1.000  H
  H300     1.0000 0.42941  0.81112  0.22123  Biso   1.000  H
  N204     1.0000 0.50656  0.83250  0.97992  Biso   1.000  N
  H301     1.0000 0.56491  0.85610  0.99852  Biso   1.000  H
  H302     1.0000 0.56492  0.85613  0.99852  Biso   1.000  H
  H303     1.0000 0.53861  0.82011  0.07268  Biso   1.000  H
  H304     1.0000 0.38850  0.81041  0.68408  Biso   1.000  H
  C301     1.0000 0.37725  0.79924  0.88709  Biso   1.000  C
  C302     1.0000 0.37726  0.79927  0.88709  Biso   1.000  C
  C303     1.0000 0.46317  0.82904  0.74261  Biso   1.000  C
  C304     1.0000 0.46318  0.82907  0.74261  Biso   1.000  C
  C305     1.0000 0.46558  0.80252  0.00808  Biso   1.000  C
  C306     1.0000 0.41659  0.81880  0.04342  Biso   1.000  C
  C307     1.0000 0.41660  0.81883  0.04342  Biso   1.000  C
  C308     1.0000 0.50890  0.84448  0.88390  Biso   1.000  C
  N205     1.0000 0.41288  0.80921  0.94347  Biso   1.000  N
  N206     1.0000 0.41290  0.80924  0.94347  Biso   1.000  N
  H305     1.0000 0.35541  0.79419  0.93339  Biso   1.000  H
  H306     1.0000 0.36910  0.77430  0.84952  Biso   1.000  H
  H307     1.0000 0.35542  0.79422  0.93339  Biso   1.000  H
  N207     1.0000 0.47111  0.82486  0.84389  Biso   1.000  N
  N208     1.0000 0.47112  0.82489  0.84389  Biso   1.000  N
  H308     1.0000 0.48859  0.84110  0.70542  Biso   1.000  H
  H309     1.0000 0.44561  0.80211  0.71468  Biso   1.000  H
  C309     1.0000 0.44155  0.79822  0.91250  Biso   1.000  C
  H310     1.0000 0.46351  0.77660  0.02793  Biso   1.000  H
  O99      1.0000 0.39505  0.82776  0.08876  Biso   1.000  O
  O100     1.0000 0.39507  0.82779  0.08876  Biso   1.000  O
  O101     1.0000 0.53919  0.86729  0.84167  Biso   1.000  O
  H311     1.0000 0.42800  0.77009  0.88738  Biso   1.000  H
  H312     1.0000 0.42802  0.77012  0.88738  Biso   1.000  H
  C310     1.0000 0.55847  0.20181  0.08750  Biso   1.000  C
  N209     1.0000 0.52889  0.17514  0.15611  Biso   1.000  N
  N210     1.0000 0.58712  0.19079  0.05653  Biso   1.000  N
  H313     1.0000 0.57200  0.22991  0.11262  Biso   1.000  H
  C311     1.0000 0.53442  0.19748  0.99192  Biso   1.000  C
  C312     1.0000 0.53444  0.19751  0.99192  Biso   1.000  C
  C313     1.0000 0.53683  0.17096  0.25739  Biso   1.000  C
  C314     1.0000 0.49110  0.15552  0.11610  Biso   1.000  C
  C315     1.0000 0.55845  0.20178  0.08750  Biso   1.000  C
  C316     1.0000 0.49111  0.15555  0.11610  Biso   1.000  C
  C317     1.0000 0.62275  0.20076  0.11291  Biso   1.000  C
  C318     1.0000 0.58341  0.18120  0.95658  Biso   1.000  C
  N211     1.0000 0.49344  0.16750  0.02008  Biso   1.000  N
  N212     1.0000 0.49346  0.16753  0.02008  Biso   1.000  N
  N213     1.0000 0.55198  0.18413  0.92087  Biso   1.000  N
  H314     1.0000 0.53649  0.22340  0.97207  Biso   1.000  H
  N214     1.0000 0.55199  0.18416  0.92087  Biso   1.000  N
  H315     1.0000 0.53651  0.22343  0.97207  Biso   1.000  H
  N215     1.0000 0.55513  0.14713  0.27317  Biso   1.000  N
  H316     1.0000 0.51141  0.15890  0.29458  Biso   1.000  H
  H317     1.0000 0.55439  0.19789  0.28532  Biso   1.000  H
  N216     1.0000 0.55514  0.14716  0.27317  Biso   1.000  N
  H318     1.0000 0.51142  0.15893  0.29458  Biso   1.000  H
  H319     1.0000 0.55440  0.19792  0.28532  Biso   1.000  H
  O102     1.0000 0.46081  0.13271  0.15833  Biso   1.000  O
  O103     1.0000 0.46083  0.13274  0.15833  Biso   1.000  O
  N217     1.0000 0.61714  0.16974  0.18100  Biso   1.000  N
  N218     1.0000 0.61716  0.16976  0.18100  Biso   1.000  N
  H320     1.0000 0.64459  0.20581  0.06661  Biso   1.000  H
  H321     1.0000 0.63090  0.22570  0.15048  Biso   1.000  H
  H322     1.0000 0.63091  0.22573  0.15048  Biso   1.000  H
  O104     1.0000 0.60495  0.17224  0.91124  Biso   1.000  O
  C319     1.0000 0.45920  0.15576  0.95903  Biso   1.000  C
  C320     1.0000 0.54618  0.18464  0.81337  Biso   1.000  C
  C321     1.0000 0.54620  0.18467  0.81337  Biso   1.000  C
  C322     1.0000 0.59842  0.16442  0.27628  Biso   1.000  C
  C323     1.0000 0.53585  0.11064  0.31792  Biso   1.000  C
  C324     1.0000 0.53586  0.11067  0.31792  Biso   1.000  C
  C325     1.0000 0.63517  0.14725  0.17189  Biso   1.000  C
  C326     1.0000 0.63519  0.14728  0.17189  Biso   1.000  C
  H323     1.0000 0.43509  0.14390  0.00148  Biso   1.000  H
  N219     1.0000 0.45403  0.12751  0.88309  Biso   1.000  N
  H324     1.0000 0.46139  0.17989  0.92732  Biso   1.000  H
  H325     1.0000 0.46140  0.17992  0.92732  Biso   1.000  H
  N220     1.0000 0.51265  0.14814  0.77899  Biso   1.000  N
  H326     1.0000 0.54200  0.20721  0.79677  Biso   1.000  H
  H327     1.0000 0.57061  0.18891  0.77877  Biso   1.000  H
  N221     1.0000 0.51267  0.14817  0.77899  Biso   1.000  N
  C327     1.0000 0.60352  0.13100  0.32652  Biso   1.000  C
  H328     1.0000 0.61150  0.18959  0.31592  Biso   1.000  H
  H329     1.0000 0.61152  0.18962  0.31592  Biso   1.000  H
  O105     1.0000 0.49984  0.09236  0.33733  Biso   1.000  O
  N222     1.0000 0.56222  0.09857  0.33963  Biso   1.000  N
  N223     1.0000 0.56223  0.09860  0.33963  Biso   1.000  N
  N224     1.0000 0.62600  0.12348  0.25206  Biso   1.000  N
  N225     1.0000 0.62602  0.12351  0.25206  Biso   1.000  N
  O106     1.0000 0.65656  0.14853  0.10224  Biso   1.000  O
  O107     1.0000 0.65657  0.14856  0.10224  Biso   1.000  O
  C328     1.0000 0.42329  0.08839  0.88479  Biso   1.000  C
  C329     1.0000 0.47178  0.13943  0.78543  Biso   1.000  C
  C330     1.0000 0.42331  0.08842  0.88479  Biso   1.000  C
  C331     1.0000 0.47179  0.13946  0.78543  Biso   1.000  C
  C332     1.0000 0.51611  0.12279  0.71594  Biso   1.000  C
  H330     1.0000 0.61821  0.13990  0.39090  Biso   1.000  H
  C333     1.0000 0.55336  0.06823  0.41380  Biso   1.000  C
  C334     1.0000 0.64688  0.10141  0.27510  Biso   1.000  C
  O108     1.0000 0.40139  0.07221  0.95443  Biso   1.000  O
  N226     1.0000 0.42181  0.07146  0.79381  Biso   1.000  N
  O109     1.0000 0.40141  0.07224  0.95443  Biso   1.000  O
  H331     1.0000 0.46861  0.16170  0.75809  Biso   1.000  H
  C335     1.0000 0.44788  0.10043  0.72342  Biso   1.000  C
  C336     1.0000 0.44790  0.10046  0.72342  Biso   1.000  C
  N227     1.0000 0.47974  0.09344  0.68897  Biso   1.000  N
  O110     1.0000 0.54855  0.12623  0.68689  Biso   1.000  O
  O111     1.0000 0.54857  0.12626  0.68689  Biso   1.000  O
  N228     1.0000 0.55987  0.03631  0.37727  Biso   1.000  N
  H332     1.0000 0.52519  0.05659  0.43476  Biso   1.000  H
  H333     1.0000 0.57039  0.08069  0.47248  Biso   1.000  H
  H334     1.0000 0.52521  0.05662  0.43476  Biso   1.000  H
  H335     1.0000 0.57041  0.08072  0.47248  Biso   1.000  H
  N229     1.0000 0.62101  0.05913  0.28310  Biso   1.000  N
  H336     1.0000 0.66679  0.10679  0.22249  Biso   1.000  H
  H337     1.0000 0.66149  0.11159  0.33830  Biso   1.000  H
  N230     1.0000 0.62102  0.05916  0.28310  Biso   1.000  N
  H338     1.0000 0.66681  0.10682  0.22249  Biso   1.000  H
  H339     1.0000 0.66151  0.11162  0.33830  Biso   1.000  H
  C337     1.0000 0.38636  0.03542  0.76291  Biso   1.000  C
  C338     1.0000 0.38637  0.03545  0.76291  Biso   1.000  C
  H340     1.0000 0.43291  0.10389  0.66733  Biso   1.000  H
  H341     1.0000 0.43292  0.10392  0.66733  Biso   1.000  H
  C339     1.0000 0.47383  0.06782  0.60428  Biso   1.000  C
  C340     1.0000 0.59920  0.04013  0.37223  Biso   1.000  C
  C341     1.0000 0.52982  0.99680  0.38031  Biso   1.000  C
  C342     1.0000 0.62560  0.03294  0.22286  Biso   1.000  C
  C343     1.0000 0.62562  0.03297  0.22286  Biso   1.000  C
  H342     1.0000 0.37451  0.04151  0.70527  Biso   1.000  H
  H343     1.0000 0.36660  0.02601  0.81737  Biso   1.000  H
  N231     1.0000 0.39461  0.00391  0.73616  Biso   1.000  N
  H344     1.0000 0.45890  0.07301  0.55242  Biso   1.000  H
  H345     1.0000 0.50019  0.07460  0.57657  Biso   1.000  H
  N232     1.0000 0.45226  0.02580  0.62918  Biso   1.000  N
  H346     1.0000 0.50020  0.07462  0.57657  Biso   1.000  H
  H347     1.0000 0.61531  0.05300  0.43299  Biso   1.000  H
  C344     1.0000 0.58940  0.99675  0.36208  Biso   1.000  C
  C345     1.0000 0.58942  0.99677  0.36208  Biso   1.000  C
  O112     1.0000 0.49478  0.98495  0.39068  Biso   1.000  O
  N233     1.0000 0.54774  0.97420  0.37082  Biso   1.000  N
  N234     1.0000 0.54776  0.97423  0.37082  Biso   1.000  N
  N235     1.0000 0.60539  0.99609  0.26384  Biso   1.000  N
  N236     1.0000 0.60541  0.99612  0.26384  Biso   1.000  N
  O113     1.0000 0.64576  0.04196  0.14855  Biso   1.000  O
  O114     1.0000 0.64577  0.04199  0.14855  Biso   1.000  O
  C346     1.0000 0.37440  0.96706  0.77714  Biso   1.000  C
  C347     1.0000 0.41060  0.00325  0.63792  Biso   1.000  C
  C348     1.0000 0.47018  0.00320  0.61969  Biso   1.000  C
  C349     1.0000 0.47019  0.00323  0.61969  Biso   1.000  C
  H348     1.0000 0.60280  0.98961  0.41513  Biso   1.000  H
  C350     1.0000 0.52617  0.93218  0.39572  Biso   1.000  C
  C351     1.0000 0.52618  0.93221  0.39572  Biso   1.000  C
  C352     1.0000 0.61364  0.96458  0.23709  Biso   1.000  C
  O115     1.0000 0.35424  0.95804  0.85145  Biso   1.000  O
  N237     1.0000 0.37899  0.94087  0.71690  Biso   1.000  N
  C353     1.0000 0.40080  0.95987  0.62777  Biso   1.000  C
  C354     1.0000 0.40081  0.95990  0.62777  Biso   1.000  C
  H349     1.0000 0.39720  0.01039  0.58487  Biso   1.000  H
  H350     1.0000 0.39721  0.01042  0.58487  Biso   1.000  H
  N238     1.0000 0.44013  0.96369  0.62273  Biso   1.000  N
  N239     1.0000 0.44014  0.96372  0.62273  Biso   1.000  N
  O116     1.0000 0.50522  0.01505  0.60932  Biso   1.000  O
  N240     1.0000 0.52026  0.90656  0.31103  Biso   1.000  N
  H351     1.0000 0.54110  0.92699  0.44758  Biso   1.000  H
  H352     1.0000 0.49981  0.92540  0.42343  Biso   1.000  H
  N241     1.0000 0.52028  0.90659  0.31103  Biso   1.000  N
  H353     1.0000 0.54112  0.92702  0.44758  Biso   1.000  H
  N242     1.0000 0.57819  0.92854  0.20619  Biso   1.000  N
  H354     1.0000 0.62549  0.95849  0.29473  Biso   1.000  H
  H355     1.0000 0.63340  0.97399  0.18263  Biso   1.000  H
  N243     1.0000 0.57820  0.92857  0.20619  Biso   1.000  N
  H356     1.0000 0.62551  0.95852  0.29473  Biso   1.000  H
  H357     1.0000 0.63341  0.97402  0.18263  Biso   1.000  H
  C355     1.0000 0.35312  0.89859  0.72490  Biso   1.000  C
  C356     1.0000 0.35313  0.89862  0.72490  Biso   1.000  C
  H358     1.0000 0.38469  0.94700  0.56701  Biso   1.000  H
  H359     1.0000 0.38471  0.94702  0.56701  Biso   1.000  H
  C357     1.0000 0.44664  0.93177  0.58620  Biso   1.000  C
  C358     1.0000 0.44666  0.93180  0.58620  Biso   1.000  C
  C359     1.0000 0.55212  0.89957  0.27658  Biso   1.000  C
  C360     1.0000 0.48389  0.87721  0.28406  Biso   1.000  C
  C361     1.0000 0.48390  0.87724  0.28406  Biso   1.000  C
  C362     1.0000 0.57671  0.91161  0.11521  Biso   1.000  C
  N244     1.0000 0.37400  0.87652  0.74794  Biso   1.000  N
  H360     1.0000 0.33321  0.89321  0.77751  Biso   1.000  H
  H361     1.0000 0.33851  0.88841  0.66170  Biso   1.000  H
  N245     1.0000 0.43778  0.90143  0.66037  Biso   1.000  N
  H362     1.0000 0.47481  0.94341  0.56524  Biso   1.000  H
  H363     1.0000 0.42961  0.91931  0.52752  Biso   1.000  H
  C363     1.0000 0.52822  0.86057  0.21457  Biso   1.000  C
  H364     1.0000 0.56709  0.89611  0.33267  Biso   1.000  H
  O117     1.0000 0.45145  0.87377  0.31311  Biso   1.000  O
  N246     1.0000 0.48735  0.85186  0.22101  Biso   1.000  N
  O118     1.0000 0.59861  0.92779  0.04557  Biso   1.000  O
  N247     1.0000 0.54597  0.87249  0.11691  Biso   1.000  N
  N248     1.0000 0.54599  0.87252  0.11691  Biso   1.000  N
  C364     1.0000 0.39648  0.86900  0.67348  Biso   1.000  C
  C365     1.0000 0.36483  0.85275  0.82811  Biso   1.000  C
  C366     1.0000 0.39650  0.86903  0.67348  Biso   1.000  C
  C367     1.0000 0.46415  0.88936  0.68208  Biso   1.000  C
  H365     1.0000 0.53139  0.83830  0.24191  Biso   1.000  H
  H366     1.0000 0.53140  0.83833  0.24191  Biso   1.000  H
  C368     1.0000 0.45382  0.81536  0.18663  Biso   1.000  C
  C369     1.0000 0.54080  0.84424  0.04097  Biso   1.000  C
  C370     1.0000 0.54081  0.84427  0.04097  Biso   1.000  C
  H367     1.0000 0.38179  0.86010  0.60910  Biso   1.000  H
  C371     1.0000 0.40158  0.83558  0.72372  Biso   1.000  C
  H368     1.0000 0.38181  0.86013  0.60910  Biso   1.000  H
  O119     1.0000 0.34344  0.85147  0.89776  Biso   1.000  O
  N249     1.0000 0.38286  0.83026  0.81900  Biso   1.000  N
  N250     1.0000 0.44487  0.85287  0.72683  Biso   1.000  N
  O120     1.0000 0.50016  0.90764  0.66267  Biso   1.000  O
  O121     1.0000 0.50018  0.90767  0.66267  Biso   1.000  O
  N251     1.0000 0.44802  0.81587  0.07913  Biso   1.000  N
  H369     1.0000 0.45800  0.79279  0.20323  Biso   1.000  H
  H370     1.0000 0.42939  0.81109  0.22123  Biso   1.000  H
  H371     1.0000 0.45801  0.79282  0.20323  Biso   1.000  H
  H372     1.0000 0.42941  0.81112  0.22123  Biso   1.000  H
  N252     1.0000 0.50656  0.83250  0.97992  Biso   1.000  N
  H373     1.0000 0.56491  0.85610  0.99852  Biso   1.000  H
  H374     1.0000 0.56492  0.85613  0.99852  Biso   1.000  H
  H375     1.0000 0.53861  0.82011  0.07268  Biso   1.000  H
  H376     1.0000 0.38850  0.81041  0.68408  Biso   1.000  H
  C372     1.0000 0.37725  0.79924  0.88709  Biso   1.000  C
  C373     1.0000 0.37726  0.79927  0.88709  Biso   1.000  C
  C374     1.0000 0.46317  0.82904  0.74261  Biso   1.000  C
  C375     1.0000 0.46318  0.82907  0.74261  Biso   1.000  C
  C376     1.0000 0.46558  0.80252  0.00808  Biso   1.000  C
  C377     1.0000 0.41659  0.81880  0.04342  Biso   1.000  C
  C378     1.0000 0.41660  0.81883  0.04342  Biso   1.000  C
  C379     1.0000 0.50890  0.84448  0.88390  Biso   1.000  C
  N253     1.0000 0.41288  0.80921  0.94347  Biso   1.000  N
  N254     1.0000 0.41290  0.80924  0.94347  Biso   1.000  N
  H377     1.0000 0.35541  0.79419  0.93339  Biso   1.000  H
  H378     1.0000 0.36910  0.77430  0.84952  Biso   1.000  H
  H379     1.0000 0.35542  0.79422  0.93339  Biso   1.000  H
  N255     1.0000 0.47111  0.82486  0.84389  Biso   1.000  N
  N256     1.0000 0.47112  0.82489  0.84389  Biso   1.000  N
  H380     1.0000 0.48859  0.84110  0.70542  Biso   1.000  H
  H381     1.0000 0.44561  0.80211  0.71468  Biso   1.000  H
  C380     1.0000 0.44155  0.79822  0.91250  Biso   1.000  C
  H382     1.0000 0.46351  0.77660  0.02793  Biso   1.000  H
  O122     1.0000 0.39505  0.82776  0.08876  Biso   1.000  O
  O123     1.0000 0.39507  0.82779  0.08876  Biso   1.000  O
  O124     1.0000 0.53919  0.86729  0.84167  Biso   1.000  O
  H383     1.0000 0.42800  0.77009  0.88738  Biso   1.000  H
  H384     1.0000 0.42802  0.77012  0.88738  Biso   1.000  H
  C381     1.0000 0.50428  0.30080  0.40928  Biso   1.000  C
  N257     1.0000 0.48048  0.25866  0.39349  Biso   1.000  N
  N258     1.0000 0.50846  0.31292  0.51056  Biso   1.000  N
  H385     1.0000 0.49225  0.31418  0.37208  Biso   1.000  H
  H386     1.0000 0.53124  0.31018  0.38134  Biso   1.000  H
  C382     1.0000 0.44397  0.24146  0.34874  Biso   1.000  C
  C383     1.0000 0.49775  0.23265  0.39038  Biso   1.000  C
  C384     1.0000 0.48886  0.33108  0.55057  Biso   1.000  C
  C385     1.0000 0.53513  0.31000  0.57917  Biso   1.000  C
  N259     1.0000 0.43192  0.20303  0.32704  Biso   1.000  N
  O125     1.0000 0.42569  0.25920  0.32933  Biso   1.000  O
  C386     1.0000 0.46434  0.19416  0.34015  Biso   1.000  C
  N260     1.0000 0.50308  0.21925  0.48566  Biso   1.000  N
  H387     1.0000 0.52293  0.24478  0.35074  Biso   1.000  H
  O126     1.0000 0.46604  0.33857  0.50834  Biso   1.000  O
  N261     1.0000 0.50082  0.34072  0.64659  Biso   1.000  N
  N262     1.0000 0.52412  0.27034  0.61014  Biso   1.000  N
  H388     1.0000 0.56324  0.32457  0.55405  Biso   1.000  H
  C387     1.0000 0.53083  0.32974  0.67474  Biso   1.000  C
  C388     1.0000 0.40154  0.18153  0.25287  Biso   1.000  C
  N263     1.0000 0.45683  0.16415  0.41461  Biso   1.000  N
  H389     1.0000 0.47323  0.18837  0.27576  Biso   1.000  H
  C389     1.0000 0.48059  0.17872  0.49478  Biso   1.000  C
  C390     1.0000 0.53408  0.24469  0.55375  Biso   1.000  C
  C391     1.0000 0.48909  0.36321  0.70764  Biso   1.000  C
  C392     1.0000 0.51453  0.26446  0.71008  Biso   1.000  C
  N264     1.0000 0.51747  0.29883  0.74580  Biso   1.000  N
  H390     1.0000 0.55673  0.35357  0.69460  Biso   1.000  H
  N265     1.0000 0.36964  0.14313  0.28940  Biso   1.000  N
  H391     1.0000 0.38995  0.19807  0.23190  Biso   1.000  H
  H392     1.0000 0.41402  0.17696  0.19419  Biso   1.000  H
  C393     1.0000 0.43472  0.12118  0.39157  Biso   1.000  C
  O127     1.0000 0.48188  0.15866  0.56442  Biso   1.000  O
  H393     1.0000 0.53915  0.22788  0.60006  Biso   1.000  H
  H394     1.0000 0.55905  0.26147  0.51619  Biso   1.000  H
  N266     1.0000 0.46084  0.34016  0.78358  Biso   1.000  N
  H395     1.0000 0.51323  0.38516  0.73935  Biso   1.000  H
  H396     1.0000 0.47722  0.37545  0.66518  Biso   1.000  H
  O128     1.0000 0.50557  0.23397  0.75543  Biso   1.000  O
  C394     1.0000 0.51798  0.30513  0.85330  Biso   1.000  C
  C395     1.0000 0.33013  0.13363  0.28636  Biso   1.000  C
  C396     1.0000 0.37344  0.10759  0.29444  Biso   1.000  C
  N267     1.0000 0.39247  0.10479  0.38357  Biso   1.000  N
  H397     1.0000 0.44014  0.10667  0.44417  Biso   1.000  H
  H398     1.0000 0.44493  0.11676  0.32837  Biso   1.000  H
  C397     1.0000 0.42173  0.33177  0.78188  Biso   1.000  C
  C398     1.0000 0.47277  0.33433  0.88123  Biso   1.000  C
  N268     1.0000 0.48149  0.30217  0.88768  Biso   1.000  N
  H399     1.0000 0.54053  0.33186  0.86990  Biso   1.000  H
  H400     1.0000 0.52223  0.28497  0.88790  Biso   1.000  H
  O129     1.0000 0.31828  0.15683  0.27599  Biso   1.000  O
  N269     1.0000 0.30753  0.09314  0.29584  Biso   1.000  N
  C399     1.0000 0.33008  0.07400  0.30459  Biso   1.000  C
  H401     1.0000 0.38634  0.10437  0.23368  Biso   1.000  H
  C400     1.0000 0.36626  0.07400  0.44380  Biso   1.000  C
  O130     1.0000 0.40556  0.33750  0.71223  Biso   1.000  O
  N270     1.0000 0.40479  0.31630  0.87286  Biso   1.000  N
  H402     1.0000 0.49503  0.35978  0.90857  Biso   1.000  H
  C401     1.0000 0.43377  0.31922  0.94325  Biso   1.000  C
  C402     1.0000 0.45612  0.27336  0.95073  Biso   1.000  C
  C403     1.0000 0.26552  0.07268  0.27095  Biso   1.000  C
  N271     1.0000 0.32942  0.05736  0.40283  Biso   1.000  N
  H403     1.0000 0.32291  0.05345  0.25154  Biso   1.000  H
  O131     1.0000 0.37529  0.06289  0.51812  Biso   1.000  O
  C404     1.0000 0.36876  0.31573  0.90376  Biso   1.000  C
  N272     1.0000 0.42675  0.28037  0.97770  Biso   1.000  N
  H404     1.0000 0.43723  0.33768  0.99933  Biso   1.000  H
  O132     1.0000 0.45958  0.24433  0.97977  Biso   1.000  O
  N273     1.0000 0.23992  0.05298  0.35563  Biso   1.000  N
  H405     1.0000 0.26032  0.05256  0.21909  Biso   1.000  H
  H406     1.0000 0.25874  0.09227  0.24324  Biso   1.000  H
  C405     1.0000 0.29791  0.01762  0.42958  Biso   1.000  C
  N274     1.0000 0.33725  0.27598  0.93050  Biso   1.000  N
  H407     1.0000 0.37484  0.33368  0.96140  Biso   1.000  H
  H408     1.0000 0.35934  0.32606  0.84930  Biso   1.000  H
  C406     1.0000 0.40114  0.26063  0.06238  Biso   1.000  C
  C407     1.0000 0.23289  0.01409  0.39009  Biso   1.000  C
  C408     1.0000 0.21056  0.05999  0.38260  Biso   1.000  C
  N275     1.0000 0.26187  0.01702  0.46047  Biso   1.000  N
  H409     1.0000 0.30732  0.00726  0.48403  Biso   1.000  H
  H410     1.0000 0.29183  0.99967  0.37193  Biso   1.000  H
  C409     1.0000 0.30040  0.25932  0.88953  Biso   1.000  C
  C410     1.0000 0.33658  0.25932  0.02875  Biso   1.000  C
  N276     1.0000 0.35914  0.24021  0.03749  Biso   1.000  N
  H411     1.0000 0.40634  0.28076  0.11425  Biso   1.000  H
  H412     1.0000 0.40793  0.24108  0.09009  Biso   1.000  H
  C411     1.0000 0.19391  0.99901  0.45210  Biso   1.000  C
  H413     1.0000 0.22945  0.99567  0.33400  Biso   1.000  H
  O133     1.0000 0.20708  0.08899  0.35356  Biso   1.000  O
  N277     1.0000 0.18519  0.03118  0.44565  Biso   1.000  N
  C412     1.0000 0.24493  0.00155  0.55146  Biso   1.000  C
  N278     1.0000 0.27421  0.22856  0.94977  Biso   1.000  N
  O134     1.0000 0.29138  0.27046  0.81522  Biso   1.000  O
  C413     1.0000 0.29322  0.22573  0.03890  Biso   1.000  C
  H414     1.0000 0.34374  0.27987  0.08180  Biso   1.000  H
  C414     1.0000 0.33652  0.19969  0.04697  Biso   1.000  C
  N279     1.0000 0.20584  0.99319  0.54975  Biso   1.000  N
  H415     1.0000 0.17164  0.97357  0.42476  Biso   1.000  H
  C415     1.0000 0.14869  0.02822  0.48003  Biso   1.000  C
  O135     1.0000 0.26111  0.99585  0.62110  Biso   1.000  O
  C416     1.0000 0.23195  0.21217  0.94176  Biso   1.000  C
  N280     1.0000 0.29703  0.19022  0.04394  Biso   1.000  N
  H416     1.0000 0.28034  0.22898  0.09965  Biso   1.000  H
  O136     1.0000 0.34838  0.17648  0.05735  Biso   1.000  O
  C417     1.0000 0.17758  0.97014  0.62569  Biso   1.000  C
  N281     1.0000 0.14920  0.03452  0.58754  Biso   1.000  N
  H417     1.0000 0.12613  0.00146  0.46344  Biso   1.000  H
  H418     1.0000 0.14444  0.04838  0.44543  Biso   1.000  H
  N282     1.0000 0.20984  0.16920  0.91872  Biso   1.000  N
  H419     1.0000 0.22652  0.22665  0.88916  Biso   1.000  H
  H420     1.0000 0.22173  0.21656  0.00496  Biso   1.000  H
  C418     1.0000 0.26512  0.15179  0.08046  Biso   1.000  C
  N283     1.0000 0.16584  0.99259  0.68675  Biso   1.000  N
  H421     1.0000 0.15343  0.94816  0.59398  Biso   1.000  H
  H422     1.0000 0.18944  0.95786  0.66815  Biso   1.000  H
  C419     1.0000 0.13585  0.00361  0.65859  Biso   1.000  C
  C420     1.0000 0.15214  0.06889  0.62325  Biso   1.000  C
  C421     1.0000 0.18607  0.15460  0.83856  Biso   1.000  C
  C422     1.0000 0.20234  0.13919  0.99318  Biso   1.000  C
  N284     1.0000 0.23476  0.13032  0.00630  Biso   1.000  N
  H423     1.0000 0.27672  0.13527  0.10143  Biso   1.000  H
  H424     1.0000 0.25264  0.15636  0.13914  Biso   1.000  H
  C423     1.0000 0.17780  0.00224  0.78277  Biso   1.000  C
  C424     1.0000 0.13153  0.02332  0.75417  Biso   1.000  C
  H425     1.0000 0.10992  0.97975  0.63873  Biso   1.000  H
  O137     1.0000 0.16110  0.09938  0.57791  Biso   1.000  O
  N285     1.0000 0.14255  0.06301  0.72320  Biso   1.000  N
  N286     1.0000 0.16358  0.11407  0.84767  Biso   1.000  N
  O138     1.0000 0.18479  0.17469  0.76891  Biso   1.000  O
  C425     1.0000 0.16891  0.10066  0.94295  Biso   1.000  C
  H426     1.0000 0.19344  0.14498  0.05757  Biso   1.000  H
  C426     1.0000 0.22269  0.09186  0.98459  Biso   1.000  C
  N287     1.0000 0.15822  0.02043  0.82278  Biso   1.000  N
  O139     1.0000 0.20063  0.99477  0.82500  Biso   1.000  O
  H427     1.0000 0.10344  0.00878  0.77928  Biso   1.000  H
  C427     1.0000 0.13259  0.08866  0.77958  Biso   1.000  C
  N288     1.0000 0.18618  0.07465  0.93984  Biso   1.000  N
  H428     1.0000 0.14375  0.08857  0.98259  Biso   1.000  H
  O140     1.0000 0.24099  0.07415  0.00400  Biso   1.000  O
  C428     1.0000 0.16239  0.03255  0.92406  Biso   1.000  C
  H429     1.0000 0.12753  0.10547  0.73327  Biso   1.000  H
  H430     1.0000 0.10763  0.07188  0.81714  Biso   1.000  H
  H431     1.0000 0.17442  0.01917  0.96125  Biso   1.000  H
  H432     1.0000 0.13544  0.02317  0.95199  Biso   1.000  H
  C429     1.0000 0.79925  0.42198  0.11291  Biso   1.000  C
  N289     1.0000 0.83026  0.44742  0.18100  Biso   1.000  N
  N290     1.0000 0.80921  0.39633  0.05653  Biso   1.000  N
  H433     1.0000 0.79419  0.43879  0.06661  Biso   1.000  H
  H434     1.0000 0.77429  0.40520  0.15048  Biso   1.000  H
  C430     1.0000 0.83558  0.43401  0.27628  Biso   1.000  C
  C431     1.0000 0.85274  0.48794  0.17189  Biso   1.000  C
  C432     1.0000 0.79820  0.35667  0.08750  Biso   1.000  C
  C433     1.0000 0.81880  0.40221  0.95658  Biso   1.000  C
  N291     1.0000 0.85286  0.40800  0.27317  Biso   1.000  N
  C434     1.0000 0.86900  0.47251  0.32652  Biso   1.000  C
  H435     1.0000 0.81041  0.42189  0.31592  Biso   1.000  H
  O141     1.0000 0.85145  0.50801  0.10224  Biso   1.000  O
  N292     1.0000 0.87650  0.50252  0.25206  Biso   1.000  N
  N293     1.0000 0.82488  0.35374  0.15611  Biso   1.000  N
  H436     1.0000 0.77010  0.34210  0.11262  Biso   1.000  H
  C435     1.0000 0.80250  0.33693  0.99192  Biso   1.000  C
  O142     1.0000 0.82776  0.43270  0.91124  Biso   1.000  O
  N294     1.0000 0.81586  0.36784  0.92087  Biso   1.000  N
  C436     1.0000 0.88936  0.42520  0.31792  Biso   1.000  C
  C437     1.0000 0.82905  0.36587  0.25739  Biso   1.000  C
  N295     1.0000 0.90142  0.46364  0.33963  Biso   1.000  N
  H437     1.0000 0.86010  0.47830  0.39090  Biso   1.000  H
  C438     1.0000 0.89861  0.54549  0.27510  Biso   1.000  C
  C439     1.0000 0.84448  0.33559  0.11610  Biso   1.000  C
  N296     1.0000 0.83252  0.32594  0.02008  Biso   1.000  N
  H438     1.0000 0.77660  0.31310  0.97207  Biso   1.000  H
  C440     1.0000 0.81535  0.36154  0.81337  Biso   1.000  C
  O143     1.0000 0.90765  0.40747  0.33733  Biso   1.000  O
  H439     1.0000 0.84108  0.35249  0.29458  Biso   1.000  H
  H440     1.0000 0.80209  0.35649  0.28532  Biso   1.000  H
  C441     1.0000 0.93179  0.48514  0.41380  Biso   1.000  C
  N297     1.0000 0.94087  0.56188  0.28310  Biso   1.000  N
  H441     1.0000 0.89319  0.56000  0.22249  Biso   1.000  H
  H442     1.0000 0.88841  0.54991  0.33830  Biso   1.000  H
  O144     1.0000 0.86729  0.32809  0.15833  Biso   1.000  O
  C442     1.0000 0.84424  0.30346  0.95903  Biso   1.000  C
  N298     1.0000 0.85184  0.36449  0.77899  Biso   1.000  N
  H443     1.0000 0.79281  0.33481  0.79677  Biso   1.000  H
  H444     1.0000 0.81110  0.38170  0.77877  Biso   1.000  H
  N299     1.0000 0.96369  0.52354  0.37727  Biso   1.000  N
  H445     1.0000 0.94338  0.46859  0.43476  Biso   1.000  H
  H446     1.0000 0.91931  0.48971  0.47248  Biso   1.000  H
  C443     1.0000 0.95989  0.55907  0.37223  Biso   1.000  C
  C444     1.0000 0.96707  0.59267  0.22286  Biso   1.000  C
  H447     1.0000 0.85612  0.29121  0.00148  Biso   1.000  H
  N300     1.0000 0.87250  0.32651  0.88309  Biso   1.000  N
  H448     1.0000 0.82010  0.28151  0.92732  Biso   1.000  H
  C445     1.0000 0.86057  0.33233  0.78543  Biso   1.000  C
  C446     1.0000 0.87722  0.39331  0.71594  Biso   1.000  C
  C447     1.0000 0.00318  0.53301  0.38031  Biso   1.000  C
  H449     1.0000 0.94700  0.56230  0.43299  Biso   1.000  H
  C448     1.0000 0.00325  0.59267  0.36208  Biso   1.000  C
  O145     1.0000 0.95804  0.60378  0.14855  Biso   1.000  O
  N301     1.0000 0.00391  0.60930  0.26384  Biso   1.000  N
  C449     1.0000 0.91161  0.33490  0.88479  Biso   1.000  C
  H450     1.0000 0.83830  0.30689  0.75809  Biso   1.000  H
  C450     1.0000 0.89957  0.34744  0.72342  Biso   1.000  C
  O146     1.0000 0.87376  0.42234  0.68689  Biso   1.000  O
  N302     1.0000 0.90658  0.38629  0.68897  Biso   1.000  N
  O147     1.0000 0.01505  0.50983  0.39068  Biso   1.000  O
  N303     1.0000 0.02580  0.57353  0.37082  Biso   1.000  N
  H451     1.0000 0.01042  0.61321  0.41513  Biso   1.000  H
  C451     1.0000 0.03542  0.64905  0.23709  Biso   1.000  C
  O148     1.0000 0.92777  0.32917  0.95443  Biso   1.000  O
  N304     1.0000 0.92855  0.35037  0.79381  Biso   1.000  N
  H452     1.0000 0.89611  0.32899  0.66733  Biso   1.000  H
  C452     1.0000 0.93220  0.40603  0.60428  Biso   1.000  C
  C453     1.0000 0.06781  0.59398  0.39572  Biso   1.000  C
  N305     1.0000 0.07146  0.64965  0.20619  Biso   1.000  N
  H453     1.0000 0.04150  0.66700  0.29473  Biso   1.000  H
  H454     1.0000 0.02602  0.65941  0.18263  Biso   1.000  H
  C454     1.0000 0.96457  0.35094  0.76291  Biso   1.000  C
  H455     1.0000 0.92700  0.38591  0.55242  Biso   1.000  H
  H456     1.0000 0.92540  0.42559  0.57657  Biso   1.000  H
  N306     1.0000 0.97419  0.42646  0.62918  Biso   1.000  N
  N307     1.0000 0.09341  0.61369  0.31103  Biso   1.000  N
  H457     1.0000 0.07301  0.61411  0.44758  Biso   1.000  H
  H458     1.0000 0.07459  0.57439  0.42343  Biso   1.000  H
  C455     1.0000 0.08840  0.66511  0.11521  Biso   1.000  C
  C456     1.0000 0.10044  0.65257  0.27658  Biso   1.000  C
  H459     1.0000 0.95849  0.33299  0.70527  Biso   1.000  H
  H460     1.0000 0.97399  0.34061  0.81737  Biso   1.000  H
  N308     1.0000 0.99608  0.39068  0.73616  Biso   1.000  N
  C457     1.0000 0.99681  0.46698  0.61969  Biso   1.000  C
  C458     1.0000 0.99676  0.40735  0.63792  Biso   1.000  C
  C459     1.0000 0.12277  0.60667  0.28406  Biso   1.000  C
  O149     1.0000 0.07222  0.67082  0.04557  Biso   1.000  O
  N309     1.0000 0.12750  0.67348  0.11691  Biso   1.000  N
  C460     1.0000 0.13943  0.66765  0.21457  Biso   1.000  C
  H461     1.0000 0.10389  0.67100  0.33267  Biso   1.000  H
  C461     1.0000 0.03294  0.40735  0.77714  Biso   1.000  C
  O150     1.0000 0.98495  0.49018  0.60932  Biso   1.000  O
  N310     1.0000 0.03630  0.47645  0.62273  Biso   1.000  N
  H462     1.0000 0.98959  0.38680  0.58487  Biso   1.000  H
  C462     1.0000 0.04011  0.44094  0.62777  Biso   1.000  C
  O151     1.0000 0.12625  0.57768  0.31311  Biso   1.000  O
  N311     1.0000 0.14815  0.63549  0.22101  Biso   1.000  N
  C463     1.0000 0.15575  0.69653  0.04097  Biso   1.000  C
  H463     1.0000 0.16169  0.69310  0.24191  Biso   1.000  H
  O152     1.0000 0.04195  0.39621  0.85145  Biso   1.000  O
  N312     1.0000 0.05913  0.43810  0.71690  Biso   1.000  N
  C464     1.0000 0.06821  0.51488  0.58620  Biso   1.000  C
  H464     1.0000 0.05300  0.43769  0.56701  Biso   1.000  H
  C465     1.0000 0.18464  0.63845  0.18663  Biso   1.000  C
  N313     1.0000 0.16749  0.67407  0.97992  Biso   1.000  N
  H465     1.0000 0.14389  0.70880  0.99852  Biso   1.000  H
  H466     1.0000 0.17991  0.71851  0.07268  Biso   1.000  H
  C466     1.0000 0.10138  0.45450  0.72490  Biso   1.000  C
  N314     1.0000 0.09858  0.53635  0.66037  Biso   1.000  N
  H467     1.0000 0.05661  0.53139  0.56524  Biso   1.000  H
  H468     1.0000 0.08070  0.51031  0.52752  Biso   1.000  H
  N315     1.0000 0.18413  0.63215  0.07913  Biso   1.000  N
  H469     1.0000 0.20720  0.66520  0.20323  Biso   1.000  H
  H470     1.0000 0.18889  0.61829  0.22123  Biso   1.000  H
  C467     1.0000 0.15553  0.66443  0.88390  Biso   1.000  C
  C468     1.0000 0.19749  0.66305  0.00808  Biso   1.000  C
  N316     1.0000 0.12349  0.49747  0.74794  Biso   1.000  N
  H471     1.0000 0.10680  0.43999  0.77751  Biso   1.000  H
  H472     1.0000 0.11160  0.45011  0.66170  Biso   1.000  H
  C469     1.0000 0.11064  0.57481  0.68208  Biso   1.000  C
  C470     1.0000 0.13100  0.52748  0.67348  Biso   1.000  C
  C471     1.0000 0.18119  0.59778  0.04342  Biso   1.000  C
  O153     1.0000 0.13270  0.67189  0.84167  Biso   1.000  O
  N317     1.0000 0.17512  0.64624  0.84389  Biso   1.000  N
  C472     1.0000 0.20179  0.64332  0.91250  Biso   1.000  C
  H473     1.0000 0.22341  0.68691  0.02793  Biso   1.000  H
  C473     1.0000 0.14726  0.51207  0.82811  Biso   1.000  C
  O154     1.0000 0.09234  0.59252  0.66267  Biso   1.000  O
  N318     1.0000 0.14715  0.59201  0.72683  Biso   1.000  N
  H474     1.0000 0.13989  0.52169  0.60910  Biso   1.000  H
  C474     1.0000 0.16443  0.56600  0.72372  Biso   1.000  C
  N319     1.0000 0.19078  0.60366  0.94347  Biso   1.000  N
  O155     1.0000 0.17223  0.56729  0.08876  Biso   1.000  O
  C475     1.0000 0.17094  0.63412  0.74261  Biso   1.000  C
  H475     1.0000 0.22990  0.65789  0.88738  Biso   1.000  H
  O156     1.0000 0.14854  0.49198  0.89776  Biso   1.000  O
  N320     1.0000 0.16975  0.55259  0.81900  Biso   1.000  N
  H476     1.0000 0.18959  0.57810  0.68408  Biso   1.000  H
  C476     1.0000 0.20074  0.57801  0.88709  Biso   1.000  C
  H477     1.0000 0.15891  0.64750  0.70542  Biso   1.000  H
  H478     1.0000 0.19790  0.64349  0.71468  Biso   1.000  H
  H479     1.0000 0.20581  0.56119  0.93339  Biso   1.000  H
  H480     1.0000 0.22571  0.59479  0.84952  Biso   1.000  H
  C477     1.0000 0.79925  0.42198  0.11291  Biso   1.000  C
  N321     1.0000 0.83026  0.44742  0.18100  Biso   1.000  N
  N322     1.0000 0.80921  0.39633  0.05653  Biso   1.000  N
  H481     1.0000 0.79419  0.43879  0.06661  Biso   1.000  H
  H482     1.0000 0.77429  0.40520  0.15048  Biso   1.000  H
  C478     1.0000 0.83558  0.43401  0.27628  Biso   1.000  C
  C479     1.0000 0.85274  0.48794  0.17189  Biso   1.000  C
  C480     1.0000 0.79820  0.35667  0.08750  Biso   1.000  C
  C481     1.0000 0.81880  0.40221  0.95658  Biso   1.000  C
  N323     1.0000 0.85286  0.40800  0.27317  Biso   1.000  N
  C482     1.0000 0.86900  0.47251  0.32652  Biso   1.000  C
  H483     1.0000 0.81041  0.42189  0.31592  Biso   1.000  H
  O157     1.0000 0.85145  0.50801  0.10224  Biso   1.000  O
  N324     1.0000 0.87650  0.50252  0.25206  Biso   1.000  N
  N325     1.0000 0.82488  0.35374  0.15611  Biso   1.000  N
  H484     1.0000 0.77010  0.34210  0.11262  Biso   1.000  H
  C483     1.0000 0.80250  0.33693  0.99192  Biso   1.000  C
  O158     1.0000 0.82776  0.43270  0.91124  Biso   1.000  O
  N326     1.0000 0.81586  0.36784  0.92087  Biso   1.000  N
  C484     1.0000 0.88936  0.42520  0.31792  Biso   1.000  C
  C485     1.0000 0.82905  0.36587  0.25739  Biso   1.000  C
  N327     1.0000 0.90142  0.46364  0.33963  Biso   1.000  N
  H485     1.0000 0.86010  0.47830  0.39090  Biso   1.000  H
  C486     1.0000 0.89861  0.54549  0.27510  Biso   1.000  C
  C487     1.0000 0.84448  0.33559  0.11610  Biso   1.000  C
  N328     1.0000 0.83252  0.32594  0.02008  Biso   1.000  N
  H486     1.0000 0.77660  0.31310  0.97207  Biso   1.000  H
  C488     1.0000 0.81535  0.36154  0.81337  Biso   1.000  C
  O159     1.0000 0.90765  0.40747  0.33733  Biso   1.000  O
  H487     1.0000 0.84108  0.35249  0.29458  Biso   1.000  H
  H488     1.0000 0.80209  0.35649  0.28532  Biso   1.000  H
  C489     1.0000 0.93179  0.48514  0.41380  Biso   1.000  C
  N329     1.0000 0.94087  0.56188  0.28310  Biso   1.000  N
  H489     1.0000 0.89319  0.56000  0.22249  Biso   1.000  H
  H490     1.0000 0.88841  0.54991  0.33830  Biso   1.000  H
  O160     1.0000 0.86729  0.32809  0.15833  Biso   1.000  O
  C490     1.0000 0.84424  0.30346  0.95903  Biso   1.000  C
  N330     1.0000 0.85184  0.36449  0.77899  Biso   1.000  N
  H491     1.0000 0.79281  0.33481  0.79677  Biso   1.000  H
  H492     1.0000 0.81110  0.38170  0.77877  Biso   1.000  H
  N331     1.0000 0.96369  0.52354  0.37727  Biso   1.000  N
  H493     1.0000 0.94338  0.46859  0.43476  Biso   1.000  H
  H494     1.0000 0.91931  0.48971  0.47248  Biso   1.000  H
  C491     1.0000 0.95989  0.55907  0.37223  Biso   1.000  C
  C492     1.0000 0.96707  0.59267  0.22286  Biso   1.000  C
  H495     1.0000 0.85612  0.29121  0.00148  Biso   1.000  H
  N332     1.0000 0.87250  0.32651  0.88309  Biso   1.000  N
  H496     1.0000 0.82010  0.28151  0.92732  Biso   1.000  H
  C493     1.0000 0.86057  0.33233  0.78543  Biso   1.000  C
  C494     1.0000 0.87722  0.39331  0.71594  Biso   1.000  C
  C495     1.0000 0.00318  0.53301  0.38031  Biso   1.000  C
  H497     1.0000 0.94700  0.56230  0.43299  Biso   1.000  H
  C496     1.0000 0.00325  0.59267  0.36208  Biso   1.000  C
  O161     1.0000 0.95804  0.60378  0.14855  Biso   1.000  O
  N333     1.0000 0.00391  0.60930  0.26384  Biso   1.000  N
  C497     1.0000 0.91161  0.33490  0.88479  Biso   1.000  C
  H498     1.0000 0.83830  0.30689  0.75809  Biso   1.000  H
  C498     1.0000 0.89957  0.34744  0.72342  Biso   1.000  C
  O162     1.0000 0.87376  0.42234  0.68689  Biso   1.000  O
  N334     1.0000 0.90658  0.38629  0.68897  Biso   1.000  N
  O163     1.0000 0.01505  0.50983  0.39068  Biso   1.000  O
  N335     1.0000 0.02580  0.57353  0.37082  Biso   1.000  N
  H499     1.0000 0.01042  0.61321  0.41513  Biso   1.000  H
  C499     1.0000 0.03542  0.64905  0.23709  Biso   1.000  C
  O164     1.0000 0.92777  0.32917  0.95443  Biso   1.000  O
  N336     1.0000 0.92855  0.35037  0.79381  Biso   1.000  N
  H500     1.0000 0.89611  0.32899  0.66733  Biso   1.000  H
  C500     1.0000 0.93220  0.40603  0.60428  Biso   1.000  C
  C501     1.0000 0.06781  0.59398  0.39572  Biso   1.000  C
  N337     1.0000 0.07146  0.64965  0.20619  Biso   1.000  N
  H501     1.0000 0.04150  0.66700  0.29473  Biso   1.000  H
  H502     1.0000 0.02602  0.65941  0.18263  Biso   1.000  H
  C502     1.0000 0.96457  0.35094  0.76291  Biso   1.000  C
  H503     1.0000 0.92700  0.38591  0.55242  Biso   1.000  H
  H504     1.0000 0.92540  0.42559  0.57657  Biso   1.000  H
  N338     1.0000 0.97419  0.42646  0.62918  Biso   1.000  N
  N339     1.0000 0.09341  0.61369  0.31103  Biso   1.000  N
  H505     1.0000 0.07301  0.61411  0.44758  Biso   1.000  H
  H506     1.0000 0.07459  0.57439  0.42343  Biso   1.000  H
  C503     1.0000 0.08840  0.66511  0.11521  Biso   1.000  C
  C504     1.0000 0.10044  0.65257  0.27658  Biso   1.000  C
  H507     1.0000 0.95849  0.33299  0.70527  Biso   1.000  H
  H508     1.0000 0.97399  0.34061  0.81737  Biso   1.000  H
  N340     1.0000 0.99608  0.39068  0.73616  Biso   1.000  N
  C505     1.0000 0.99681  0.46698  0.61969  Biso   1.000  C
  C506     1.0000 0.99676  0.40735  0.63792  Biso   1.000  C
  C507     1.0000 0.12277  0.60667  0.28406  Biso   1.000  C
  O165     1.0000 0.07222  0.67082  0.04557  Biso   1.000  O
  N341     1.0000 0.12750  0.67348  0.11691  Biso   1.000  N
  C508     1.0000 0.13943  0.66765  0.21457  Biso   1.000  C
  H509     1.0000 0.10389  0.67100  0.33267  Biso   1.000  H
  C509     1.0000 0.03294  0.40735  0.77714  Biso   1.000  C
  O166     1.0000 0.98495  0.49018  0.60932  Biso   1.000  O
  N342     1.0000 0.03630  0.47645  0.62273  Biso   1.000  N
  H510     1.0000 0.98959  0.38680  0.58487  Biso   1.000  H
  C510     1.0000 0.04011  0.44094  0.62777  Biso   1.000  C
  O167     1.0000 0.12625  0.57768  0.31311  Biso   1.000  O
  N343     1.0000 0.14815  0.63549  0.22101  Biso   1.000  N
  C511     1.0000 0.15575  0.69653  0.04097  Biso   1.000  C
  H511     1.0000 0.16169  0.69310  0.24191  Biso   1.000  H
  O168     1.0000 0.04195  0.39621  0.85145  Biso   1.000  O
  N344     1.0000 0.05913  0.43810  0.71690  Biso   1.000  N
  C512     1.0000 0.06821  0.51488  0.58620  Biso   1.000  C
  H512     1.0000 0.05300  0.43769  0.56701  Biso   1.000  H
  C513     1.0000 0.18464  0.63845  0.18663  Biso   1.000  C
  N345     1.0000 0.16749  0.67407  0.97992  Biso   1.000  N
  H513     1.0000 0.14389  0.70880  0.99852  Biso   1.000  H
  H514     1.0000 0.17991  0.71851  0.07268  Biso   1.000  H
  C514     1.0000 0.10138  0.45450  0.72490  Biso   1.000  C
  N346     1.0000 0.09858  0.53635  0.66037  Biso   1.000  N
  H515     1.0000 0.05661  0.53139  0.56524  Biso   1.000  H
  H516     1.0000 0.08070  0.51031  0.52752  Biso   1.000  H
  N347     1.0000 0.18413  0.63215  0.07913  Biso   1.000  N
  H517     1.0000 0.20720  0.66520  0.20323  Biso   1.000  H
  H518     1.0000 0.18889  0.61829  0.22123  Biso   1.000  H
  C515     1.0000 0.15553  0.66443  0.88390  Biso   1.000  C
  C516     1.0000 0.19749  0.66305  0.00808  Biso   1.000  C
  N348     1.0000 0.12349  0.49747  0.74794  Biso   1.000  N
  H519     1.0000 0.10680  0.43999  0.77751  Biso   1.000  H
  H520     1.0000 0.11160  0.45011  0.66170  Biso   1.000  H
  C517     1.0000 0.11064  0.57481  0.68208  Biso   1.000  C
  C518     1.0000 0.13100  0.52748  0.67348  Biso   1.000  C
  C519     1.0000 0.18119  0.59778  0.04342  Biso   1.000  C
  O169     1.0000 0.13270  0.67189  0.84167  Biso   1.000  O
  N349     1.0000 0.17512  0.64624  0.84389  Biso   1.000  N
  C520     1.0000 0.20179  0.64332  0.91250  Biso   1.000  C
  H521     1.0000 0.22341  0.68691  0.02793  Biso   1.000  H
  C521     1.0000 0.14726  0.51207  0.82811  Biso   1.000  C
  O170     1.0000 0.09234  0.59252  0.66267  Biso   1.000  O
  N350     1.0000 0.14715  0.59201  0.72683  Biso   1.000  N
  H522     1.0000 0.13989  0.52169  0.60910  Biso   1.000  H
  C522     1.0000 0.16443  0.56600  0.72372  Biso   1.000  C
  N351     1.0000 0.19078  0.60366  0.94347  Biso   1.000  N
  O171     1.0000 0.17223  0.56729  0.08876  Biso   1.000  O
  C523     1.0000 0.17094  0.63412  0.74261  Biso   1.000  C
  H523     1.0000 0.22990  0.65789  0.88738  Biso   1.000  H
  O172     1.0000 0.14854  0.49198  0.89776  Biso   1.000  O
  N352     1.0000 0.16975  0.55259  0.81900  Biso   1.000  N
  H524     1.0000 0.18959  0.57810  0.68408  Biso   1.000  H
  C524     1.0000 0.20074  0.57801  0.88709  Biso   1.000  C
  H525     1.0000 0.15891  0.64750  0.70542  Biso   1.000  H
  H526     1.0000 0.19790  0.64349  0.71468  Biso   1.000  H
  H527     1.0000 0.20581  0.56119  0.93339  Biso   1.000  H
  H528     1.0000 0.22571  0.59479  0.84952  Biso   1.000  H
  C525     1.0000 0.79925  0.42198  0.11291  Biso   1.000  C
  N353     1.0000 0.83026  0.44742  0.18100  Biso   1.000  N
  N354     1.0000 0.80921  0.39633  0.05653  Biso   1.000  N
  H529     1.0000 0.79419  0.43879  0.06661  Biso   1.000  H
  H530     1.0000 0.77429  0.40520  0.15048  Biso   1.000  H
  C526     1.0000 0.83558  0.43401  0.27628  Biso   1.000  C
  C527     1.0000 0.85274  0.48794  0.17189  Biso   1.000  C
  C528     1.0000 0.79820  0.35667  0.08750  Biso   1.000  C
  C529     1.0000 0.81880  0.40221  0.95658  Biso   1.000  C
  N355     1.0000 0.85286  0.40800  0.27317  Biso   1.000  N
  C530     1.0000 0.86900  0.47251  0.32652  Biso   1.000  C
  H531     1.0000 0.81041  0.42189  0.31592  Biso   1.000  H
  O173     1.0000 0.85145  0.50801  0.10224  Biso   1.000  O
  N356     1.0000 0.87650  0.50252  0.25206  Biso   1.000  N
  N357     1.0000 0.82488  0.35374  0.15611  Biso   1.000  N
  H532     1.0000 0.77010  0.34210  0.11262  Biso   1.000  H
  C531     1.0000 0.80250  0.33693  0.99192  Biso   1.000  C
  O174     1.0000 0.82776  0.43270  0.91124  Biso   1.000  O
  N358     1.0000 0.81586  0.36784  0.92087  Biso   1.000  N
  C532     1.0000 0.88936  0.42520  0.31792  Biso   1.000  C
  C533     1.0000 0.82905  0.36587  0.25739  Biso   1.000  C
  N359     1.0000 0.90142  0.46364  0.33963  Biso   1.000  N
  H533     1.0000 0.86010  0.47830  0.39090  Biso   1.000  H
  C534     1.0000 0.89861  0.54549  0.27510  Biso   1.000  C
  C535     1.0000 0.84448  0.33559  0.11610  Biso   1.000  C
  N360     1.0000 0.83252  0.32594  0.02008  Biso   1.000  N
  H534     1.0000 0.77660  0.31310  0.97207  Biso   1.000  H
  C536     1.0000 0.81535  0.36154  0.81337  Biso   1.000  C
  O175     1.0000 0.90765  0.40747  0.33733  Biso   1.000  O
  H535     1.0000 0.84108  0.35249  0.29458  Biso   1.000  H
  H536     1.0000 0.80209  0.35649  0.28532  Biso   1.000  H
  C537     1.0000 0.93179  0.48514  0.41380  Biso   1.000  C
  N361     1.0000 0.94087  0.56188  0.28310  Biso   1.000  N
  H537     1.0000 0.89319  0.56000  0.22249  Biso   1.000  H
  H538     1.0000 0.88841  0.54991  0.33830  Biso   1.000  H
  O176     1.0000 0.86729  0.32809  0.15833  Biso   1.000  O
  C538     1.0000 0.84424  0.30346  0.95903  Biso   1.000  C
  N362     1.0000 0.85184  0.36449  0.77899  Biso   1.000  N
  H539     1.0000 0.79281  0.33481  0.79677  Biso   1.000  H
  H540     1.0000 0.81110  0.38170  0.77877  Biso   1.000  H
  N363     1.0000 0.96369  0.52354  0.37727  Biso   1.000  N
  H541     1.0000 0.94338  0.46859  0.43476  Biso   1.000  H
  H542     1.0000 0.91931  0.48971  0.47248  Biso   1.000  H
  C539     1.0000 0.95989  0.55907  0.37223  Biso   1.000  C
  C540     1.0000 0.96707  0.59267  0.22286  Biso   1.000  C
  H543     1.0000 0.85612  0.29121  0.00148  Biso   1.000  H
  N364     1.0000 0.87250  0.32651  0.88309  Biso   1.000  N
  H544     1.0000 0.82010  0.28151  0.92732  Biso   1.000  H
  C541     1.0000 0.86057  0.33233  0.78543  Biso   1.000  C
  C542     1.0000 0.87722  0.39331  0.71594  Biso   1.000  C
  C543     1.0000 0.00318  0.53301  0.38031  Biso   1.000  C
  H545     1.0000 0.94700  0.56230  0.43299  Biso   1.000  H
  C544     1.0000 0.00325  0.59267  0.36208  Biso   1.000  C
  O177     1.0000 0.95804  0.60378  0.14855  Biso   1.000  O
  N365     1.0000 0.00391  0.60930  0.26384  Biso   1.000  N
  C545     1.0000 0.91161  0.33490  0.88479  Biso   1.000  C
  H546     1.0000 0.83830  0.30689  0.75809  Biso   1.000  H
  C546     1.0000 0.89957  0.34744  0.72342  Biso   1.000  C
  O178     1.0000 0.87376  0.42234  0.68689  Biso   1.000  O
  N366     1.0000 0.90658  0.38629  0.68897  Biso   1.000  N
  O179     1.0000 0.01505  0.50983  0.39068  Biso   1.000  O
  N367     1.0000 0.02580  0.57353  0.37082  Biso   1.000  N
  H547     1.0000 0.01042  0.61321  0.41513  Biso   1.000  H
  C547     1.0000 0.03542  0.64905  0.23709  Biso   1.000  C
  O180     1.0000 0.92777  0.32917  0.95443  Biso   1.000  O
  N368     1.0000 0.92855  0.35037  0.79381  Biso   1.000  N
  H548     1.0000 0.89611  0.32899  0.66733  Biso   1.000  H
  C548     1.0000 0.93220  0.40603  0.60428  Biso   1.000  C
  C549     1.0000 0.06781  0.59398  0.39572  Biso   1.000  C
  N369     1.0000 0.07146  0.64965  0.20619  Biso   1.000  N
  H549     1.0000 0.04150  0.66700  0.29473  Biso   1.000  H
  H550     1.0000 0.02602  0.65941  0.18263  Biso   1.000  H
  C550     1.0000 0.96457  0.35094  0.76291  Biso   1.000  C
  H551     1.0000 0.92700  0.38591  0.55242  Biso   1.000  H
  H552     1.0000 0.92540  0.42559  0.57657  Biso   1.000  H
  N370     1.0000 0.97419  0.42646  0.62918  Biso   1.000  N
  N371     1.0000 0.09341  0.61369  0.31103  Biso   1.000  N
  H553     1.0000 0.07301  0.61411  0.44758  Biso   1.000  H
  H554     1.0000 0.07459  0.57439  0.42343  Biso   1.000  H
  C551     1.0000 0.08840  0.66511  0.11521  Biso   1.000  C
  C552     1.0000 0.10044  0.65257  0.27658  Biso   1.000  C
  H555     1.0000 0.95849  0.33299  0.70527  Biso   1.000  H
  H556     1.0000 0.97399  0.34061  0.81737  Biso   1.000  H
  N372     1.0000 0.99608  0.39068  0.73616  Biso   1.000  N
  C553     1.0000 0.99681  0.46698  0.61969  Biso   1.000  C
  C554     1.0000 0.99676  0.40735  0.63792  Biso   1.000  C
  C555     1.0000 0.12277  0.60667  0.28406  Biso   1.000  C
  O181     1.0000 0.07222  0.67082  0.04557  Biso   1.000  O
  N373     1.0000 0.12750  0.67348  0.11691  Biso   1.000  N
  C556     1.0000 0.13943  0.66765  0.21457  Biso   1.000  C
  H557     1.0000 0.10389  0.67100  0.33267  Biso   1.000  H
  C557     1.0000 0.03294  0.40735  0.77714  Biso   1.000  C
  O182     1.0000 0.98495  0.49018  0.60932  Biso   1.000  O
  N374     1.0000 0.03630  0.47645  0.62273  Biso   1.000  N
  H558     1.0000 0.98959  0.38680  0.58487  Biso   1.000  H
  C558     1.0000 0.04011  0.44094  0.62777  Biso   1.000  C
  O183     1.0000 0.12625  0.57768  0.31311  Biso   1.000  O
  N375     1.0000 0.14815  0.63549  0.22101  Biso   1.000  N
  C559     1.0000 0.15575  0.69653  0.04097  Biso   1.000  C
  H559     1.0000 0.16169  0.69310  0.24191  Biso   1.000  H
  O184     1.0000 0.04195  0.39621  0.85145  Biso   1.000  O
  N376     1.0000 0.05913  0.43810  0.71690  Biso   1.000  N
  C560     1.0000 0.06821  0.51488  0.58620  Biso   1.000  C
  H560     1.0000 0.05300  0.43769  0.56701  Biso   1.000  H
  C561     1.0000 0.18464  0.63845  0.18663  Biso   1.000  C
  N377     1.0000 0.16749  0.67407  0.97992  Biso   1.000  N
  H561     1.0000 0.14389  0.70880  0.99852  Biso   1.000  H
  H562     1.0000 0.17991  0.71851  0.07268  Biso   1.000  H
  C562     1.0000 0.10138  0.45450  0.72490  Biso   1.000  C
  N378     1.0000 0.09858  0.53635  0.66037  Biso   1.000  N
  H563     1.0000 0.05661  0.53139  0.56524  Biso   1.000  H
  H564     1.0000 0.08070  0.51031  0.52752  Biso   1.000  H
  N379     1.0000 0.18413  0.63215  0.07913  Biso   1.000  N
  H565     1.0000 0.20720  0.66520  0.20323  Biso   1.000  H
  H566     1.0000 0.18889  0.61829  0.22123  Biso   1.000  H
  C563     1.0000 0.15553  0.66443  0.88390  Biso   1.000  C
  C564     1.0000 0.19749  0.66305  0.00808  Biso   1.000  C
  N380     1.0000 0.12349  0.49747  0.74794  Biso   1.000  N
  H567     1.0000 0.10680  0.43999  0.77751  Biso   1.000  H
  H568     1.0000 0.11160  0.45011  0.66170  Biso   1.000  H
  C565     1.0000 0.11064  0.57481  0.68208  Biso   1.000  C
  C566     1.0000 0.13100  0.52748  0.67348  Biso   1.000  C
  C567     1.0000 0.18119  0.59778  0.04342  Biso   1.000  C
  O185     1.0000 0.13270  0.67189  0.84167  Biso   1.000  O
  N381     1.0000 0.17512  0.64624  0.84389  Biso   1.000  N
  C568     1.0000 0.20179  0.64332  0.91250  Biso   1.000  C
  H569     1.0000 0.22341  0.68691  0.02793  Biso   1.000  H
  C569     1.0000 0.14726  0.51207  0.82811  Biso   1.000  C
  O186     1.0000 0.09234  0.59252  0.66267  Biso   1.000  O
  N382     1.0000 0.14715  0.59201  0.72683  Biso   1.000  N
  H570     1.0000 0.13989  0.52169  0.60910  Biso   1.000  H
  C570     1.0000 0.16443  0.56600  0.72372  Biso   1.000  C
  N383     1.0000 0.19078  0.60366  0.94347  Biso   1.000  N
  O187     1.0000 0.17223  0.56729  0.08876  Biso   1.000  O
  C571     1.0000 0.17094  0.63412  0.74261  Biso   1.000  C
  H571     1.0000 0.22990  0.65789  0.88738  Biso   1.000  H
  O188     1.0000 0.14854  0.49198  0.89776  Biso   1.000  O
  N384     1.0000 0.16975  0.55259  0.81900  Biso   1.000  N
  H572     1.0000 0.18959  0.57810  0.68408  Biso   1.000  H
  C572     1.0000 0.20074  0.57801  0.88709  Biso   1.000  C
  H573     1.0000 0.15891  0.64750  0.70542  Biso   1.000  H
  H574     1.0000 0.19790  0.64349  0.71468  Biso   1.000  H
  H575     1.0000 0.20581  0.56119  0.93339  Biso   1.000  H
  H576     1.0000 0.22571  0.59479  0.84952  Biso   1.000  H
  C573     1.0000 0.79925  0.42198  0.11291  Biso   1.000  C
  N385     1.0000 0.83026  0.44742  0.18100  Biso   1.000  N
  N386     1.0000 0.80921  0.39633  0.05653  Biso   1.000  N
  H577     1.0000 0.79419  0.43879  0.06661  Biso   1.000  H
  H578     1.0000 0.77429  0.40520  0.15048  Biso   1.000  H
  C574     1.0000 0.83558  0.43401  0.27628  Biso   1.000  C
  C575     1.0000 0.85274  0.48794  0.17189  Biso   1.000  C
  C576     1.0000 0.79820  0.35667  0.08750  Biso   1.000  C
  C577     1.0000 0.81880  0.40221  0.95658  Biso   1.000  C
  N387     1.0000 0.85286  0.40800  0.27317  Biso   1.000  N
  C578     1.0000 0.86900  0.47251  0.32652  Biso   1.000  C
  H579     1.0000 0.81041  0.42189  0.31592  Biso   1.000  H
  O189     1.0000 0.85145  0.50801  0.10224  Biso   1.000  O
  N388     1.0000 0.87650  0.50252  0.25206  Biso   1.000  N
  N389     1.0000 0.82488  0.35374  0.15611  Biso   1.000  N
  H580     1.0000 0.77010  0.34210  0.11262  Biso   1.000  H
  C579     1.0000 0.80250  0.33693  0.99192  Biso   1.000  C
  O190     1.0000 0.82776  0.43270  0.91124  Biso   1.000  O
  N390     1.0000 0.81586  0.36784  0.92087  Biso   1.000  N
  C580     1.0000 0.88936  0.42520  0.31792  Biso   1.000  C
  C581     1.0000 0.82905  0.36587  0.25739  Biso   1.000  C
  N391     1.0000 0.90142  0.46364  0.33963  Biso   1.000  N
  H581     1.0000 0.86010  0.47830  0.39090  Biso   1.000  H
  C582     1.0000 0.89861  0.54549  0.27510  Biso   1.000  C
  C583     1.0000 0.84448  0.33559  0.11610  Biso   1.000  C
  N392     1.0000 0.83252  0.32594  0.02008  Biso   1.000  N
  H582     1.0000 0.77660  0.31310  0.97207  Biso   1.000  H
  C584     1.0000 0.81535  0.36154  0.81337  Biso   1.000  C
  O191     1.0000 0.90765  0.40747  0.33733  Biso   1.000  O
  H583     1.0000 0.84108  0.35249  0.29458  Biso   1.000  H
  H584     1.0000 0.80209  0.35649  0.28532  Biso   1.000  H
  C585     1.0000 0.93179  0.48514  0.41380  Biso   1.000  C
  N393     1.0000 0.94087  0.56188  0.28310  Biso   1.000  N
  H585     1.0000 0.89319  0.56000  0.22249  Biso   1.000  H
  H586     1.0000 0.88841  0.54991  0.33830  Biso   1.000  H
  O192     1.0000 0.86729  0.32809  0.15833  Biso   1.000  O
  C586     1.0000 0.84424  0.30346  0.95903  Biso   1.000  C
  N394     1.0000 0.85184  0.36449  0.77899  Biso   1.000  N
  H587     1.0000 0.79281  0.33481  0.79677  Biso   1.000  H
  H588     1.0000 0.81110  0.38170  0.77877  Biso   1.000  H
  N395     1.0000 0.96369  0.52354  0.37727  Biso   1.000  N
  H589     1.0000 0.94338  0.46859  0.43476  Biso   1.000  H
  H590     1.0000 0.91931  0.48971  0.47248  Biso   1.000  H
  C587     1.0000 0.95989  0.55907  0.37223  Biso   1.000  C
  C588     1.0000 0.96707  0.59267  0.22286  Biso   1.000  C
  H591     1.0000 0.85612  0.29121  0.00148  Biso   1.000  H
  N396     1.0000 0.87250  0.32651  0.88309  Biso   1.000  N
  H592     1.0000 0.82010  0.28151  0.92732  Biso   1.000  H
  C589     1.0000 0.86057  0.33233  0.78543  Biso   1.000  C
  C590     1.0000 0.87722  0.39331  0.71594  Biso   1.000  C
  C591     1.0000 0.00318  0.53301  0.38031  Biso   1.000  C
  H593     1.0000 0.94700  0.56230  0.43299  Biso   1.000  H
  C592     1.0000 0.00325  0.59267  0.36208  Biso   1.000  C
  O193     1.0000 0.95804  0.60378  0.14855  Biso   1.000  O
  N397     1.0000 0.00391  0.60930  0.26384  Biso   1.000  N
  C593     1.0000 0.91161  0.33490  0.88479  Biso   1.000  C
  H594     1.0000 0.83830  0.30689  0.75809  Biso   1.000  H
  C594     1.0000 0.89957  0.34744  0.72342  Biso   1.000  C
  O194     1.0000 0.87376  0.42234  0.68689  Biso   1.000  O
  N398     1.0000 0.90658  0.38629  0.68897  Biso   1.000  N
  O195     1.0000 0.01505  0.50983  0.39068  Biso   1.000  O
  N399     1.0000 0.02580  0.57353  0.37082  Biso   1.000  N
  H595     1.0000 0.01042  0.61321  0.41513  Biso   1.000  H
  C595     1.0000 0.03542  0.64905  0.23709  Biso   1.000  C
  O196     1.0000 0.92777  0.32917  0.95443  Biso   1.000  O
  N400     1.0000 0.92855  0.35037  0.79381  Biso   1.000  N
  H596     1.0000 0.89611  0.32899  0.66733  Biso   1.000  H
  C596     1.0000 0.93220  0.40603  0.60428  Biso   1.000  C
  C597     1.0000 0.06781  0.59398  0.39572  Biso   1.000  C
  N401     1.0000 0.07146  0.64965  0.20619  Biso   1.000  N
  H597     1.0000 0.04150  0.66700  0.29473  Biso   1.000  H
  H598     1.0000 0.02602  0.65941  0.18263  Biso   1.000  H
  C598     1.0000 0.96457  0.35094  0.76291  Biso   1.000  C
  H599     1.0000 0.92700  0.38591  0.55242  Biso   1.000  H
  H600     1.0000 0.92540  0.42559  0.57657  Biso   1.000  H
  N402     1.0000 0.97419  0.42646  0.62918  Biso   1.000  N
  N403     1.0000 0.09341  0.61369  0.31103  Biso   1.000  N
  H601     1.0000 0.07301  0.61411  0.44758  Biso   1.000  H
  H602     1.0000 0.07459  0.57439  0.42343  Biso   1.000  H
  C599     1.0000 0.08840  0.66511  0.11521  Biso   1.000  C
  C600     1.0000 0.10044  0.65257  0.27658  Biso   1.000  C
  H603     1.0000 0.95849  0.33299  0.70527  Biso   1.000  H
  H604     1.0000 0.97399  0.34061  0.81737  Biso   1.000  H
  N404     1.0000 0.99608  0.39068  0.73616  Biso   1.000  N
  C601     1.0000 0.99681  0.46698  0.61969  Biso   1.000  C
  C602     1.0000 0.99676  0.40735  0.63792  Biso   1.000  C
  C603     1.0000 0.12277  0.60667  0.28406  Biso   1.000  C
  O197     1.0000 0.07222  0.67082  0.04557  Biso   1.000  O
  N405     1.0000 0.12750  0.67348  0.11691  Biso   1.000  N
  C604     1.0000 0.13943  0.66765  0.21457  Biso   1.000  C
  H605     1.0000 0.10389  0.67100  0.33267  Biso   1.000  H
  C605     1.0000 0.03294  0.40735  0.77714  Biso   1.000  C
  O198     1.0000 0.98495  0.49018  0.60932  Biso   1.000  O
  N406     1.0000 0.03630  0.47645  0.62273  Biso   1.000  N
  H606     1.0000 0.98959  0.38680  0.58487  Biso   1.000  H
  C606     1.0000 0.04011  0.44094  0.62777  Biso   1.000  C
  O199     1.0000 0.12625  0.57768  0.31311  Biso   1.000  O
  N407     1.0000 0.14815  0.63549  0.22101  Biso   1.000  N
  C607     1.0000 0.15575  0.69653  0.04097  Biso   1.000  C
  H607     1.0000 0.16169  0.69310  0.24191  Biso   1.000  H
  O200     1.0000 0.04195  0.39621  0.85145  Biso   1.000  O
  N408     1.0000 0.05913  0.43810  0.71690  Biso   1.000  N
  C608     1.0000 0.06821  0.51488  0.58620  Biso   1.000  C
  H608     1.0000 0.05300  0.43769  0.56701  Biso   1.000  H
  C609     1.0000 0.18464  0.63845  0.18663  Biso   1.000  C
  N409     1.0000 0.16749  0.67407  0.97992  Biso   1.000  N
  H609     1.0000 0.14389  0.70880  0.99852  Biso   1.000  H
  H610     1.0000 0.17991  0.71851  0.07268  Biso   1.000  H
  C610     1.0000 0.10138  0.45450  0.72490  Biso   1.000  C
  N410     1.0000 0.09858  0.53635  0.66037  Biso   1.000  N
  H611     1.0000 0.05661  0.53139  0.56524  Biso   1.000  H
  H612     1.0000 0.08070  0.51031  0.52752  Biso   1.000  H
  N411     1.0000 0.18413  0.63215  0.07913  Biso   1.000  N
  H613     1.0000 0.20720  0.66520  0.20323  Biso   1.000  H
  H614     1.0000 0.18889  0.61829  0.22123  Biso   1.000  H
  C611     1.0000 0.15553  0.66443  0.88390  Biso   1.000  C
  C612     1.0000 0.19749  0.66305  0.00808  Biso   1.000  C
  N412     1.0000 0.12349  0.49747  0.74794  Biso   1.000  N
  H615     1.0000 0.10680  0.43999  0.77751  Biso   1.000  H
  H616     1.0000 0.11160  0.45011  0.66170  Biso   1.000  H
  C613     1.0000 0.11064  0.57481  0.68208  Biso   1.000  C
  C614     1.0000 0.13100  0.52748  0.67348  Biso   1.000  C
  C615     1.0000 0.18119  0.59778  0.04342  Biso   1.000  C
  O201     1.0000 0.13270  0.67189  0.84167  Biso   1.000  O
  N413     1.0000 0.17512  0.64624  0.84389  Biso   1.000  N
  C616     1.0000 0.20179  0.64332  0.91250  Biso   1.000  C
  H617     1.0000 0.22341  0.68691  0.02793  Biso   1.000  H
  C617     1.0000 0.14726  0.51207  0.82811  Biso   1.000  C
  O202     1.0000 0.09234  0.59252  0.66267  Biso   1.000  O
  N414     1.0000 0.14715  0.59201  0.72683  Biso   1.000  N
  H618     1.0000 0.13989  0.52169  0.60910  Biso   1.000  H
  C618     1.0000 0.16443  0.56600  0.72372  Biso   1.000  C
  N415     1.0000 0.19078  0.60366  0.94347  Biso   1.000  N
  O203     1.0000 0.17223  0.56729  0.08876  Biso   1.000  O
  C619     1.0000 0.17094  0.63412  0.74261  Biso   1.000  C
  H619     1.0000 0.22990  0.65789  0.88738  Biso   1.000  H
  O204     1.0000 0.14854  0.49198  0.89776  Biso   1.000  O
  N416     1.0000 0.16975  0.55259  0.81900  Biso   1.000  N
  H620     1.0000 0.18959  0.57810  0.68408  Biso   1.000  H
  C620     1.0000 0.20074  0.57801  0.88709  Biso   1.000  C
  H621     1.0000 0.15891  0.64750  0.70542  Biso   1.000  H
  H622     1.0000 0.19790  0.64349  0.71468  Biso   1.000  H
  H623     1.0000 0.20581  0.56119  0.93339  Biso   1.000  H
  H624     1.0000 0.22571  0.59479  0.84952  Biso   1.000  H
  C621     1.0000 0.73491  0.50225  0.39038  Biso   1.000  C
  N417     1.0000 0.71619  0.49693  0.48566  Biso   1.000  N
  C622     1.0000 0.72982  0.53566  0.34015  Biso   1.000  C
  N418     1.0000 0.77821  0.51954  0.39349  Biso   1.000  N
  H625     1.0000 0.72183  0.47707  0.35074  Biso   1.000  H
  C623     1.0000 0.69816  0.51942  0.49478  Biso   1.000  C
  C624     1.0000 0.71058  0.46591  0.55375  Biso   1.000  C
  N419     1.0000 0.70733  0.54319  0.41461  Biso   1.000  N
  N420     1.0000 0.77112  0.56809  0.32704  Biso   1.000  N
  H626     1.0000 0.71513  0.52676  0.27576  Biso   1.000  H
  C625     1.0000 0.79749  0.55603  0.34874  Biso   1.000  C
  C626     1.0000 0.79650  0.49571  0.40928  Biso   1.000  C
  O205     1.0000 0.67678  0.51813  0.56442  Biso   1.000  O
  N421     1.0000 0.74622  0.47588  0.61014  Biso   1.000  N
  H627     1.0000 0.68874  0.46086  0.60006  Biso   1.000  H
  H628     1.0000 0.70243  0.44097  0.51619  Biso   1.000  H
  C627     1.0000 0.68645  0.56526  0.39157  Biso   1.000  C
  C628     1.0000 0.77998  0.59843  0.25287  Biso   1.000  C
  O206     1.0000 0.83350  0.57430  0.32933  Biso   1.000  O
  N422     1.0000 0.80444  0.49153  0.51056  Biso   1.000  N
  H629     1.0000 0.82193  0.50777  0.37208  Biso   1.000  H
  H630     1.0000 0.77894  0.46877  0.38134  Biso   1.000  H
  C629     1.0000 0.77488  0.46489  0.57917  Biso   1.000  C
  C630     1.0000 0.74992  0.48547  0.71008  Biso   1.000  C
  N423     1.0000 0.71233  0.60754  0.38357  Biso   1.000  N
  H631     1.0000 0.66654  0.55988  0.44417  Biso   1.000  H
  H632     1.0000 0.67184  0.55507  0.32837  Biso   1.000  H
  N424     1.0000 0.77346  0.63036  0.28940  Biso   1.000  N
  H633     1.0000 0.80814  0.61008  0.23190  Biso   1.000  H
  H634     1.0000 0.76294  0.58598  0.19419  Biso   1.000  H
  C631     1.0000 0.84223  0.51115  0.55057  Biso   1.000  C
  H635     1.0000 0.76134  0.43676  0.55405  Biso   1.000  H
  C632     1.0000 0.79891  0.46919  0.67474  Biso   1.000  C
  O207     1.0000 0.72838  0.49442  0.75543  Biso   1.000  O
  N425     1.0000 0.78135  0.48254  0.74580  Biso   1.000  N
  C633     1.0000 0.73413  0.62653  0.29444  Biso   1.000  C
  C634     1.0000 0.70773  0.63373  0.44380  Biso   1.000  C
  C635     1.0000 0.80351  0.66986  0.28636  Biso   1.000  C
  N426     1.0000 0.83989  0.49917  0.64659  Biso   1.000  N
  O208     1.0000 0.87252  0.53396  0.50834  Biso   1.000  O
  H636     1.0000 0.79684  0.44327  0.69460  Biso   1.000  H
  C636     1.0000 0.78715  0.48203  0.85330  Biso   1.000  C
  C637     1.0000 0.74393  0.66992  0.30459  Biso   1.000  C
  H637     1.0000 0.71802  0.61366  0.23368  Biso   1.000  H
  O209     1.0000 0.68758  0.62471  0.51812  Biso   1.000  O
  N427     1.0000 0.72794  0.67058  0.40283  Biso   1.000  N
  N428     1.0000 0.78559  0.69247  0.29584  Biso   1.000  N
  O210     1.0000 0.83856  0.68172  0.27599  Biso   1.000  O
  C638     1.0000 0.87413  0.51091  0.70764  Biso   1.000  C
  N429     1.0000 0.82068  0.51852  0.88768  Biso   1.000  N
  H638     1.0000 0.79133  0.45946  0.86990  Biso   1.000  H
  H639     1.0000 0.76272  0.47776  0.88790  Biso   1.000  H
  H640     1.0000 0.73053  0.67706  0.25154  Biso   1.000  H
  C639     1.0000 0.71969  0.70208  0.42958  Biso   1.000  C
  C640     1.0000 0.80717  0.73448  0.27095  Biso   1.000  C
  N430     1.0000 0.87931  0.53916  0.78358  Biso   1.000  N
  H641     1.0000 0.87195  0.48678  0.73935  Biso   1.000  H
  H642     1.0000 0.89824  0.52276  0.66518  Biso   1.000  H
  C641     1.0000 0.86156  0.52724  0.88123  Biso   1.000  C
  C642     1.0000 0.81722  0.54388  0.95073  Biso   1.000  C
  N431     1.0000 0.75514  0.73813  0.46047  Biso   1.000  N
  H643     1.0000 0.70784  0.70818  0.37193  Biso   1.000  H
  H644     1.0000 0.69994  0.69268  0.48403  Biso   1.000  H
  N432     1.0000 0.81307  0.76011  0.35563  Biso   1.000  N
  H645     1.0000 0.79223  0.73968  0.21909  Biso   1.000  H
  H646     1.0000 0.83352  0.74126  0.24324  Biso   1.000  H
  C643     1.0000 0.91004  0.57828  0.78188  Biso   1.000  C
  H647     1.0000 0.86472  0.50496  0.90857  Biso   1.000  H
  C644     1.0000 0.88545  0.56624  0.94325  Biso   1.000  C
  O211     1.0000 0.78478  0.54044  0.97977  Biso   1.000  O
  N433     1.0000 0.85360  0.57323  0.97770  Biso   1.000  N
  C645     1.0000 0.75663  0.75506  0.55146  Biso   1.000  C
  C646     1.0000 0.78121  0.76709  0.39009  Biso   1.000  C
  C647     1.0000 0.84945  0.78946  0.38260  Biso   1.000  C
  O212     1.0000 0.93194  0.59446  0.71223  Biso   1.000  O
  N434     1.0000 0.91152  0.59521  0.87286  Biso   1.000  N
  H648     1.0000 0.90043  0.56278  0.99933  Biso   1.000  H
  C648     1.0000 0.85950  0.59885  0.06238  Biso   1.000  C
  O213     1.0000 0.73473  0.73887  0.62110  Biso   1.000  O
  N435     1.0000 0.78736  0.79418  0.54975  Biso   1.000  N
  C649     1.0000 0.80511  0.80609  0.45210  Biso   1.000  C
  H649     1.0000 0.76624  0.77056  0.33400  Biso   1.000  H
  O214     1.0000 0.88189  0.79289  0.35356  Biso   1.000  O
  N436     1.0000 0.84599  0.81481  0.44565  Biso   1.000  N
  C650     1.0000 0.94697  0.63125  0.90376  Biso   1.000  C
  N437     1.0000 0.88108  0.64087  0.03749  Biso   1.000  N
  H650     1.0000 0.87444  0.59365  0.11425  Biso   1.000  H
  H651     1.0000 0.83315  0.59207  0.09009  Biso   1.000  H
  C651     1.0000 0.79254  0.82243  0.62569  Biso   1.000  C
  H652     1.0000 0.80195  0.82837  0.42476  Biso   1.000  H
  C652     1.0000 0.87952  0.85130  0.48003  Biso   1.000  C
  N438     1.0000 0.93873  0.66276  0.93050  Biso   1.000  N
  H653     1.0000 0.95882  0.62516  0.96140  Biso   1.000  H
  H654     1.0000 0.96673  0.64066  0.84930  Biso   1.000  H
  C653     1.0000 0.86316  0.66347  0.04697  Biso   1.000  C
  C654     1.0000 0.92274  0.66341  0.02875  Biso   1.000  C
  N439     1.0000 0.82677  0.83416  0.68675  Biso   1.000  N
  H655     1.0000 0.79472  0.84656  0.59398  Biso   1.000  H
  H656     1.0000 0.76843  0.81057  0.66815  Biso   1.000  H
  N440     1.0000 0.88531  0.85080  0.58754  Biso   1.000  N
  H657     1.0000 0.87534  0.87388  0.46344  Biso   1.000  H
  H658     1.0000 0.90394  0.85557  0.44543  Biso   1.000  H
  C655     1.0000 0.95894  0.69960  0.88953  Biso   1.000  C
  O215     1.0000 0.82811  0.65162  0.05735  Biso   1.000  O
  N441     1.0000 0.89320  0.70298  0.04394  Biso   1.000  N
  H659     1.0000 0.93613  0.65628  0.08180  Biso   1.000  H
  C656     1.0000 0.93252  0.70677  0.03890  Biso   1.000  C
  C657     1.0000 0.82443  0.82219  0.78277  Biso   1.000  C
  C658     1.0000 0.86776  0.86414  0.65859  Biso   1.000  C
  C659     1.0000 0.91675  0.84787  0.62325  Biso   1.000  C
  O216     1.0000 0.97909  0.70862  0.81522  Biso   1.000  O
  N442     1.0000 0.95434  0.72579  0.94977  Biso   1.000  N
  C660     1.0000 0.88668  0.73487  0.08046  Biso   1.000  C
  H660     1.0000 0.94864  0.71967  0.09965  Biso   1.000  H
  O217     1.0000 0.79415  0.79937  0.82500  Biso   1.000  O
  N443     1.0000 0.86222  0.84181  0.82278  Biso   1.000  N
  C661     1.0000 0.89178  0.86844  0.75417  Biso   1.000  C
  H661     1.0000 0.86983  0.89006  0.63873  Biso   1.000  H
  O218     1.0000 0.93828  0.83891  0.57791  Biso   1.000  O
  N444     1.0000 0.92045  0.85746  0.72320  Biso   1.000  N
  C662     1.0000 0.98022  0.76808  0.94176  Biso   1.000  C
  N445     1.0000 0.89555  0.76524  0.00630  Biso   1.000  N
  H662     1.0000 0.85852  0.72326  0.10143  Biso   1.000  H
  H663     1.0000 0.90373  0.74735  0.13914  Biso   1.000  H
  C663     1.0000 0.87017  0.83763  0.92406  Biso   1.000  C
  H664     1.0000 0.90533  0.89657  0.77928  Biso   1.000  H
  C664     1.0000 0.95608  0.86743  0.77958  Biso   1.000  C
  N446     1.0000 0.95934  0.79015  0.91872  Biso   1.000  N
  H665     1.0000 0.99483  0.77826  0.00496  Biso   1.000  H
  H666     1.0000 0.00013  0.77345  0.88916  Biso   1.000  H
  C665     1.0000 0.86918  0.77731  0.98459  Biso   1.000  C
  C666     1.0000 0.93685  0.79767  0.99318  Biso   1.000  C
  N447     1.0000 0.88846  0.81380  0.93984  Biso   1.000  N
  H667     1.0000 0.84474  0.82556  0.96125  Biso   1.000  H
  H668     1.0000 0.88772  0.86456  0.95199  Biso   1.000  H
  N448     1.0000 0.95048  0.83640  0.84767  Biso   1.000  N
  H669     1.0000 0.97793  0.87248  0.73327  Biso   1.000  H
  H670     1.0000 0.96423  0.89236  0.81714  Biso   1.000  H
  C667     1.0000 0.96851  0.81392  0.83856  Biso   1.000  C
  O219     1.0000 0.83317  0.75903  0.00400  Biso   1.000  O
  C668     1.0000 0.93176  0.83109  0.94295  Biso   1.000  C
  H671     1.0000 0.95154  0.80657  0.05757  Biso   1.000  H
  O220     1.0000 0.98989  0.81520  0.76891  Biso   1.000  O
  H672     1.0000 0.94484  0.85626  0.98259  Biso   1.000  H
  C669     1.0000 0.69923  0.20351  0.40928  Biso   1.000  C
  N449     1.0000 0.68707  0.19554  0.51056  Biso   1.000  N
  N450     1.0000 0.74133  0.22181  0.39349  Biso   1.000  N
  H673     1.0000 0.68583  0.17807  0.37208  Biso   1.000  H
  H674     1.0000 0.68982  0.22107  0.38134  Biso   1.000  H
  C670     1.0000 0.68999  0.22513  0.57917  Biso   1.000  C
  C671     1.0000 0.66892  0.15779  0.55057  Biso   1.000  C
  C672     1.0000 0.75855  0.20252  0.34874  Biso   1.000  C
  C673     1.0000 0.76733  0.26508  0.39038  Biso   1.000  C
  N451     1.0000 0.72967  0.25380  0.61014  Biso   1.000  N
  H675     1.0000 0.67542  0.23866  0.55405  Biso   1.000  H
  C674     1.0000 0.67027  0.20109  0.67474  Biso   1.000  C
  N452     1.0000 0.65926  0.16009  0.64659  Biso   1.000  N
  O221     1.0000 0.66144  0.12748  0.50834  Biso   1.000  O
  O222     1.0000 0.74080  0.16651  0.32933  Biso   1.000  O
  N453     1.0000 0.79697  0.22889  0.32704  Biso   1.000  N
  N454     1.0000 0.78073  0.28381  0.48566  Biso   1.000  N
  C675     1.0000 0.80584  0.27016  0.34015  Biso   1.000  C
  H676     1.0000 0.75522  0.27816  0.35074  Biso   1.000  H
  C676     1.0000 0.75530  0.28939  0.55375  Biso   1.000  C
  C677     1.0000 0.73554  0.25006  0.71008  Biso   1.000  C
  N455     1.0000 0.70118  0.21865  0.74580  Biso   1.000  N
  H677     1.0000 0.64643  0.20318  0.69460  Biso   1.000  H
  C678     1.0000 0.63679  0.12587  0.70764  Biso   1.000  C
  C679     1.0000 0.81848  0.22002  0.25287  Biso   1.000  C
  C680     1.0000 0.82127  0.30184  0.49478  Biso   1.000  C
  N456     1.0000 0.83585  0.29268  0.41461  Biso   1.000  N
  H678     1.0000 0.81164  0.28485  0.27576  Biso   1.000  H
  H679     1.0000 0.77214  0.31128  0.60006  Biso   1.000  H
  H680     1.0000 0.73853  0.29757  0.51619  Biso   1.000  H
  O223     1.0000 0.76603  0.27159  0.75543  Biso   1.000  O
  C681     1.0000 0.69487  0.21286  0.85330  Biso   1.000  C
  N457     1.0000 0.65985  0.12067  0.78358  Biso   1.000  N
  H681     1.0000 0.61483  0.12808  0.73935  Biso   1.000  H
  H682     1.0000 0.62454  0.10177  0.66518  Biso   1.000  H
  N458     1.0000 0.85688  0.22653  0.28940  Biso   1.000  N
  H683     1.0000 0.80194  0.19186  0.23190  Biso   1.000  H
  H684     1.0000 0.82305  0.23707  0.19419  Biso   1.000  H
  O224     1.0000 0.84135  0.32323  0.56442  Biso   1.000  O
  C682     1.0000 0.87882  0.31355  0.39157  Biso   1.000  C
  N459     1.0000 0.69784  0.17932  0.88768  Biso   1.000  N
  H685     1.0000 0.66814  0.20868  0.86990  Biso   1.000  H
  H686     1.0000 0.71504  0.23725  0.88790  Biso   1.000  H
  C683     1.0000 0.66824  0.08997  0.78188  Biso   1.000  C
  C684     1.0000 0.66568  0.13844  0.88123  Biso   1.000  C
  C685     1.0000 0.86635  0.19649  0.28636  Biso   1.000  C
  C686     1.0000 0.89240  0.26586  0.29444  Biso   1.000  C
  N460     1.0000 0.89522  0.28769  0.38357  Biso   1.000  N
  H687     1.0000 0.89333  0.33347  0.44417  Biso   1.000  H
  H688     1.0000 0.88322  0.32815  0.32837  Biso   1.000  H
  C687     1.0000 0.72665  0.18278  0.95073  Biso   1.000  C
  O225     1.0000 0.66251  0.06806  0.71223  Biso   1.000  O
  N461     1.0000 0.68368  0.08848  0.87286  Biso   1.000  N
  H689     1.0000 0.64023  0.13527  0.90857  Biso   1.000  H
  C688     1.0000 0.68079  0.11455  0.94325  Biso   1.000  C
  O226     1.0000 0.84316  0.16143  0.27599  Biso   1.000  O
  N462     1.0000 0.90686  0.21441  0.29584  Biso   1.000  N
  C689     1.0000 0.92598  0.25607  0.30459  Biso   1.000  C
  H690     1.0000 0.89563  0.28196  0.23368  Biso   1.000  H
  C690     1.0000 0.92600  0.29226  0.44380  Biso   1.000  C
  O227     1.0000 0.75568  0.21524  0.97977  Biso   1.000  O
  N463     1.0000 0.71962  0.14638  0.97770  Biso   1.000  N
  C691     1.0000 0.68427  0.05303  0.90376  Biso   1.000  C
  H691     1.0000 0.66233  0.09956  0.99933  Biso   1.000  H
  C692     1.0000 0.92732  0.19285  0.27095  Biso   1.000  C
  N464     1.0000 0.94265  0.27207  0.40283  Biso   1.000  N
  H692     1.0000 0.94655  0.26947  0.25154  Biso   1.000  H
  O228     1.0000 0.93711  0.31242  0.51812  Biso   1.000  O
  C693     1.0000 0.73936  0.14050  0.06238  Biso   1.000  C
  N465     1.0000 0.72403  0.06128  0.93050  Biso   1.000  N
  H693     1.0000 0.66634  0.04118  0.96140  Biso   1.000  H
  H694     1.0000 0.67392  0.03327  0.84930  Biso   1.000  H
  N466     1.0000 0.94704  0.18694  0.35563  Biso   1.000  N
  H695     1.0000 0.94743  0.20778  0.21909  Biso   1.000  H
  H696     1.0000 0.90775  0.16648  0.24324  Biso   1.000  H
  C694     1.0000 0.98240  0.28031  0.42958  Biso   1.000  C
  N467     1.0000 0.75982  0.11894  0.03749  Biso   1.000  N
  H697     1.0000 0.71924  0.12557  0.11425  Biso   1.000  H
  H698     1.0000 0.75893  0.16687  0.09009  Biso   1.000  H
  C695     1.0000 0.74066  0.04106  0.88953  Biso   1.000  C
  C696     1.0000 0.74068  0.07725  0.02875  Biso   1.000  C
  C697     1.0000 0.98589  0.21880  0.39009  Biso   1.000  C
  C698     1.0000 0.94003  0.15056  0.38260  Biso   1.000  C
  N468     1.0000 0.98299  0.24487  0.46047  Biso   1.000  N
  H699     1.0000 0.99274  0.30005  0.48403  Biso   1.000  H
  H700     1.0000 0.00033  0.29217  0.37193  Biso   1.000  H
  C699     1.0000 0.80033  0.13686  0.04697  Biso   1.000  C
  O229     1.0000 0.72955  0.02090  0.81522  Biso   1.000  O
  N469     1.0000 0.77146  0.04566  0.94977  Biso   1.000  N
  H701     1.0000 0.72013  0.06387  0.08180  Biso   1.000  H
  C700     1.0000 0.77428  0.06749  0.03890  Biso   1.000  C
  C701     1.0000 0.00099  0.19491  0.45210  Biso   1.000  C
  H702     1.0000 0.00433  0.23376  0.33400  Biso   1.000  H
  O230     1.0000 0.91100  0.11810  0.35356  Biso   1.000  O
  N470     1.0000 0.96884  0.15403  0.44565  Biso   1.000  N
  C702     1.0000 0.99843  0.24337  0.55146  Biso   1.000  C
  O231     1.0000 0.82350  0.17189  0.05735  Biso   1.000  O
  N471     1.0000 0.80980  0.10682  0.04394  Biso   1.000  N
  C703     1.0000 0.78784  0.01977  0.94176  Biso   1.000  C
  H703     1.0000 0.77103  0.05136  0.09965  Biso   1.000  H
  N472     1.0000 0.00681  0.21265  0.54975  Biso   1.000  N
  H704     1.0000 0.02644  0.19807  0.42476  Biso   1.000  H
  C704     1.0000 0.97179  0.12046  0.48003  Biso   1.000  C
  O232     1.0000 0.00415  0.26526  0.62110  Biso   1.000  O
  C705     1.0000 0.84820  0.11333  0.08046  Biso   1.000  C
  N473     1.0000 0.83081  0.04064  0.91872  Biso   1.000  N
  H705     1.0000 0.77334  0.99988  0.88916  Biso   1.000  H
  H706     1.0000 0.78344  0.00517  0.00496  Biso   1.000  H
  C706     1.0000 0.02987  0.20745  0.62569  Biso   1.000  C
  N474     1.0000 0.96549  0.11470  0.58754  Biso   1.000  N
  H707     1.0000 0.99854  0.12467  0.46344  Biso   1.000  H
  H708     1.0000 0.95162  0.09607  0.44543  Biso   1.000  H
  N475     1.0000 0.86969  0.10443  0.00630  Biso   1.000  N
  H709     1.0000 0.86472  0.14146  0.10143  Biso   1.000  H
  H710     1.0000 0.84363  0.09627  0.13914  Biso   1.000  H
  C707     1.0000 0.86082  0.06316  0.99318  Biso   1.000  C
  C708     1.0000 0.84539  0.03147  0.83856  Biso   1.000  C
  N476     1.0000 0.00740  0.17323  0.68675  Biso   1.000  N
  H711     1.0000 0.05184  0.20527  0.59398  Biso   1.000  H
  H712     1.0000 0.04214  0.23158  0.66815  Biso   1.000  H
  C709     1.0000 0.99639  0.13223  0.65859  Biso   1.000  C
  C710     1.0000 0.93112  0.08326  0.62325  Biso   1.000  C
  C711     1.0000 0.90812  0.13083  0.98459  Biso   1.000  C
  C712     1.0000 0.89933  0.06823  0.94295  Biso   1.000  C
  H713     1.0000 0.85502  0.04847  0.05757  Biso   1.000  H
  O233     1.0000 0.82531  0.01009  0.76891  Biso   1.000  O
  N477     1.0000 0.88593  0.04951  0.84767  Biso   1.000  N
  C713     1.0000 0.99776  0.17556  0.78277  Biso   1.000  C
  C714     1.0000 0.97668  0.10822  0.75417  Biso   1.000  C
  H714     1.0000 0.02024  0.13017  0.63873  Biso   1.000  H
  N478     1.0000 0.93700  0.07955  0.72320  Biso   1.000  N
  O234     1.0000 0.90063  0.06172  0.57791  Biso   1.000  O
  N479     1.0000 0.92535  0.11153  0.93984  Biso   1.000  N
  O235     1.0000 0.92587  0.16684  0.00400  Biso   1.000  O
  H715     1.0000 0.91143  0.05515  0.98259  Biso   1.000  H
  C715     1.0000 0.91136  0.04393  0.77958  Biso   1.000  C
  N480     1.0000 0.97959  0.13778  0.82278  Biso   1.000  N
  O236     1.0000 0.00523  0.20587  0.82500  Biso   1.000  O
  H716     1.0000 0.99124  0.09466  0.77928  Biso   1.000  H
  C716     1.0000 0.96745  0.12984  0.92406  Biso   1.000  C
  H717     1.0000 0.89453  0.02207  0.73327  Biso   1.000  H
  H718     1.0000 0.92815  0.03577  0.81714  Biso   1.000  H
  H719     1.0000 0.98083  0.15525  0.96125  Biso   1.000  H
  H720     1.0000 0.97685  0.11228  0.95199  Biso   1.000  H
  O237     1.0000 0.26527  0.26111  0.37890  Biso   1.000  O
  C717     1.0000 0.24336  0.24493  0.44854  Biso   1.000  C
  N481     1.0000 0.21265  0.20584  0.45025  Biso   1.000  N
  N482     1.0000 0.24486  0.26189  0.53953  Biso   1.000  N
  C718     1.0000 0.20747  0.17759  0.37431  Biso   1.000  C
  C719     1.0000 0.19488  0.19389  0.54790  Biso   1.000  C
  C720     1.0000 0.21878  0.23289  0.60991  Biso   1.000  C
  C721     1.0000 0.28030  0.29790  0.57042  Biso   1.000  C
  N483     1.0000 0.17322  0.16582  0.31325  Biso   1.000  N
  H721     1.0000 0.20527  0.15343  0.40602  Biso   1.000  H
  H722     1.0000 0.23158  0.18944  0.33185  Biso   1.000  H
  N484     1.0000 0.15401  0.18517  0.55435  Biso   1.000  N
  H723     1.0000 0.19806  0.17165  0.57524  Biso   1.000  H
  N485     1.0000 0.18694  0.23991  0.64437  Biso   1.000  N
  H724     1.0000 0.23375  0.22943  0.66600  Biso   1.000  H
  N486     1.0000 0.27207  0.32944  0.59717  Biso   1.000  N
  H725     1.0000 0.29217  0.29184  0.62807  Biso   1.000  H
  H726     1.0000 0.30007  0.30734  0.51597  Biso   1.000  H
  C722     1.0000 0.17556  0.17780  0.21723  Biso   1.000  C
  C723     1.0000 0.13224  0.13584  0.34141  Biso   1.000  C
  C724     1.0000 0.12048  0.14868  0.51997  Biso   1.000  C
  C725     1.0000 0.15056  0.21056  0.61740  Biso   1.000  C
  C726     1.0000 0.19284  0.26553  0.72905  Biso   1.000  C
  C727     1.0000 0.25608  0.33009  0.69541  Biso   1.000  C
  C728     1.0000 0.29228  0.36629  0.55620  Biso   1.000  C
  O238     1.0000 0.20585  0.20061  0.17500  Biso   1.000  O
  N487     1.0000 0.13778  0.15821  0.17722  Biso   1.000  N
  N488     1.0000 0.11468  0.14919  0.41246  Biso   1.000  N
  C729     1.0000 0.10821  0.13154  0.24583  Biso   1.000  C
  H727     1.0000 0.13017  0.10992  0.36127  Biso   1.000  H
  H728     1.0000 0.12467  0.12614  0.53656  Biso   1.000  H
  H729     1.0000 0.09607  0.14444  0.55457  Biso   1.000  H
  O239     1.0000 0.11811  0.20709  0.64644  Biso   1.000  O
  N489     1.0000 0.21442  0.30755  0.70416  Biso   1.000  N
  H730     1.0000 0.20778  0.26034  0.78091  Biso   1.000  H
  H731     1.0000 0.16647  0.25872  0.75676  Biso   1.000  H
  H732     1.0000 0.26946  0.32293  0.74846  Biso   1.000  H
  C730     1.0000 0.26586  0.37345  0.70556  Biso   1.000  C
  O240     1.0000 0.31243  0.37530  0.48188  Biso   1.000  O
  N490     1.0000 0.28768  0.39248  0.61643  Biso   1.000  N
  C731     1.0000 0.12984  0.16239  0.07594  Biso   1.000  C
  C732     1.0000 0.08326  0.15215  0.37675  Biso   1.000  C
  N491     1.0000 0.07956  0.14256  0.27680  Biso   1.000  N
  H733     1.0000 0.09468  0.10344  0.22072  Biso   1.000  H
  C733     1.0000 0.19648  0.33012  0.71364  Biso   1.000  C
  N492     1.0000 0.22653  0.36963  0.71060  Biso   1.000  N
  H734     1.0000 0.28197  0.38632  0.76632  Biso   1.000  H
  C734     1.0000 0.31354  0.43473  0.60843  Biso   1.000  C
  N493     1.0000 0.11153  0.18619  0.06016  Biso   1.000  N
  H735     1.0000 0.15525  0.17442  0.03875  Biso   1.000  H
  H736     1.0000 0.11227  0.13542  0.04801  Biso   1.000  H
  O241     1.0000 0.06173  0.16111  0.42209  Biso   1.000  O
  C735     1.0000 0.04392  0.13259  0.22042  Biso   1.000  C
  O242     1.0000 0.16145  0.31830  0.72401  Biso   1.000  O
  C736     1.0000 0.22002  0.40155  0.74713  Biso   1.000  C
  N494     1.0000 0.29268  0.45683  0.58539  Biso   1.000  N
  H737     1.0000 0.33347  0.44013  0.55583  Biso   1.000  H
  H738     1.0000 0.32817  0.44494  0.67163  Biso   1.000  H
  C737     1.0000 0.13081  0.22268  0.01541  Biso   1.000  C
  C738     1.0000 0.06823  0.16890  0.05705  Biso   1.000  C
  N495     1.0000 0.04952  0.16358  0.15233  Biso   1.000  N
  H739     1.0000 0.02208  0.12754  0.26673  Biso   1.000  H
  H740     1.0000 0.03576  0.10762  0.18286  Biso   1.000  H
  N496     1.0000 0.22889  0.43192  0.67296  Biso   1.000  N
  H741     1.0000 0.19187  0.38994  0.76810  Biso   1.000  H
  H742     1.0000 0.23707  0.41404  0.80581  Biso   1.000  H
  C739     1.0000 0.27018  0.46432  0.65985  Biso   1.000  C
  C740     1.0000 0.30185  0.48060  0.50522  Biso   1.000  C
  O243     1.0000 0.16684  0.24099  0.99600  Biso   1.000  O
  N497     1.0000 0.10444  0.23474  0.99370  Biso   1.000  N
  C741     1.0000 0.06316  0.20234  0.00682  Biso   1.000  C
  H743     1.0000 0.05516  0.14373  0.01741  Biso   1.000  H
  C742     1.0000 0.03149  0.18607  0.16144  Biso   1.000  C
  C743     1.0000 0.20252  0.44399  0.65126  Biso   1.000  C
  H744     1.0000 0.28487  0.47322  0.72424  Biso   1.000  H
  C744     1.0000 0.26508  0.49774  0.60962  Biso   1.000  C
  O244     1.0000 0.32323  0.48188  0.43558  Biso   1.000  O
  N498     1.0000 0.28382  0.50308  0.51434  Biso   1.000  N
  C745     1.0000 0.11332  0.26511  0.91954  Biso   1.000  C
  N499     1.0000 0.04065  0.20984  0.08128  Biso   1.000  N
  H745     1.0000 0.04847  0.19345  0.94243  Biso   1.000  H
  O245     1.0000 0.01010  0.18479  0.23109  Biso   1.000  O
  O246     1.0000 0.16650  0.42568  0.67067  Biso   1.000  O
  N500     1.0000 0.22180  0.48048  0.60651  Biso   1.000  N
  H746     1.0000 0.27818  0.52294  0.64926  Biso   1.000  H
  C746     1.0000 0.28941  0.53408  0.44625  Biso   1.000  C
  N501     1.0000 0.10680  0.29704  0.95606  Biso   1.000  N
  H747     1.0000 0.14147  0.27673  0.89857  Biso   1.000  H
  H748     1.0000 0.09627  0.25263  0.86086  Biso   1.000  H
  C747     1.0000 0.01979  0.23194  0.05824  Biso   1.000  C
  C748     1.0000 0.20349  0.50428  0.59072  Biso   1.000  C
  N502     1.0000 0.25378  0.52411  0.38986  Biso   1.000  N
  H749     1.0000 0.31125  0.53913  0.39994  Biso   1.000  H
  H750     1.0000 0.29757  0.55904  0.48381  Biso   1.000  H
  C749     1.0000 0.13685  0.33654  0.95303  Biso   1.000  C
  C750     1.0000 0.06747  0.29321  0.96110  Biso   1.000  C
  N503     1.0000 0.04565  0.27419  0.05023  Biso   1.000  N
  H751     1.0000 0.99986  0.22653  0.11084  Biso   1.000  H
  H752     1.0000 0.00517  0.22172  0.99504  Biso   1.000  H
  N504     1.0000 0.19555  0.50846  0.48944  Biso   1.000  N
  H753     1.0000 0.17808  0.49224  0.62792  Biso   1.000  H
  H754     1.0000 0.22106  0.53124  0.61866  Biso   1.000  H
  C751     1.0000 0.22512  0.53513  0.42083  Biso   1.000  C
  C752     1.0000 0.25007  0.51452  0.28992  Biso   1.000  C
  O247     1.0000 0.17188  0.34837  0.94265  Biso   1.000  O
  N505     1.0000 0.11892  0.35912  0.96251  Biso   1.000  N
  C753     1.0000 0.07726  0.33657  0.97125  Biso   1.000  C
  H755     1.0000 0.05136  0.28034  0.90035  Biso   1.000  H
  C754     1.0000 0.04106  0.30038  0.11047  Biso   1.000  C
  C755     1.0000 0.15777  0.48887  0.44943  Biso   1.000  C
  H756     1.0000 0.23866  0.56323  0.44595  Biso   1.000  H
  C756     1.0000 0.20110  0.53083  0.32526  Biso   1.000  C
  O248     1.0000 0.27161  0.50556  0.24457  Biso   1.000  O
  N506     1.0000 0.21865  0.51748  0.25420  Biso   1.000  N
  C757     1.0000 0.14049  0.40114  0.93762  Biso   1.000  C
  N507     1.0000 0.06127  0.33723  0.06950  Biso   1.000  N
  H757     1.0000 0.06387  0.34374  0.91820  Biso   1.000  H
  O249     1.0000 0.02090  0.29136  0.18478  Biso   1.000  O
  O250     1.0000 0.12749  0.46605  0.49166  Biso   1.000  O
  N508     1.0000 0.16011  0.50084  0.35341  Biso   1.000  N
  H758     1.0000 0.20317  0.55675  0.30540  Biso   1.000  H
  C758     1.0000 0.21286  0.51798  0.14670  Biso   1.000  C
  N509     1.0000 0.14640  0.42676  0.02230  Biso   1.000  N
  H759     1.0000 0.12556  0.40633  0.88575  Biso   1.000  H
  H760     1.0000 0.16686  0.40794  0.90991  Biso   1.000  H
  C759     1.0000 0.05303  0.36876  0.09624  Biso   1.000  C
  C760     1.0000 0.12586  0.48908  0.29236  Biso   1.000  C
  N510     1.0000 0.17933  0.48149  0.11232  Biso   1.000  N
  H761     1.0000 0.20866  0.54053  0.13010  Biso   1.000  H
  H762     1.0000 0.23727  0.52223  0.11210  Biso   1.000  H
  C761     1.0000 0.11455  0.43377  0.05675  Biso   1.000  C
  C762     1.0000 0.18277  0.45611  0.04927  Biso   1.000  C
  N511     1.0000 0.08847  0.40478  0.12714  Biso   1.000  N
  H763     1.0000 0.04117  0.37483  0.03860  Biso   1.000  H
  H764     1.0000 0.03326  0.35933  0.15070  Biso   1.000  H
  N512     1.0000 0.12069  0.46083  0.21642  Biso   1.000  N
  H765     1.0000 0.12806  0.51324  0.26065  Biso   1.000  H
  H766     1.0000 0.10175  0.47722  0.33482  Biso   1.000  H
  C763     1.0000 0.13845  0.47277  0.11877  Biso   1.000  C
  H767     1.0000 0.09958  0.43724  0.00067  Biso   1.000  H
  O251     1.0000 0.21523  0.45957  0.02023  Biso   1.000  O
  C764     1.0000 0.08997  0.42174  0.21812  Biso   1.000  C
  H768     1.0000 0.13527  0.49502  0.09143  Biso   1.000  H
  O252     1.0000 0.06807  0.40555  0.28777  Biso   1.000  O
  O253     1.0000 0.59445  0.66252  0.28777  Biso   1.000  O
  C765     1.0000 0.57827  0.66822  0.21812  Biso   1.000  C
  N513     1.0000 0.53916  0.65983  0.21642  Biso   1.000  N
  N514     1.0000 0.59521  0.68369  0.12714  Biso   1.000  N
  C766     1.0000 0.51091  0.63681  0.29236  Biso   1.000  C
  C767     1.0000 0.52724  0.66568  0.11877  Biso   1.000  C
  C768     1.0000 0.56623  0.68076  0.05675  Biso   1.000  C
  C769     1.0000 0.63124  0.68429  0.09624  Biso   1.000  C
  N515     1.0000 0.49918  0.65926  0.35341  Biso   1.000  N
  H769     1.0000 0.48676  0.61483  0.26065  Biso   1.000  H
  H770     1.0000 0.52278  0.62453  0.33482  Biso   1.000  H
  N516     1.0000 0.51852  0.69784  0.11232  Biso   1.000  N
  H771     1.0000 0.50498  0.64024  0.09143  Biso   1.000  H
  N517     1.0000 0.57325  0.71964  0.02230  Biso   1.000  N
  H772     1.0000 0.56278  0.66234  0.00067  Biso   1.000  H
  H773     1.0000 0.62517  0.66634  0.03860  Biso   1.000  H
  H774     1.0000 0.64065  0.67392  0.15070  Biso   1.000  H
  N518     1.0000 0.66276  0.72403  0.06950  Biso   1.000  N
  C770     1.0000 0.51114  0.66891  0.44943  Biso   1.000  C
  C771     1.0000 0.46918  0.67028  0.32526  Biso   1.000  C
  C772     1.0000 0.48202  0.69489  0.14670  Biso   1.000  C
  C773     1.0000 0.54389  0.72666  0.04927  Biso   1.000  C
  C774     1.0000 0.59886  0.73935  0.93762  Biso   1.000  C
  C775     1.0000 0.69960  0.74067  0.11047  Biso   1.000  C
  C776     1.0000 0.66342  0.74067  0.97125  Biso   1.000  C
  O254     1.0000 0.53396  0.66144  0.49166  Biso   1.000  O
  N519     1.0000 0.49155  0.68709  0.48944  Biso   1.000  N
  N520     1.0000 0.48254  0.70119  0.25420  Biso   1.000  N
  C777     1.0000 0.46486  0.68999  0.42083  Biso   1.000  C
  H775     1.0000 0.44326  0.64642  0.30540  Biso   1.000  H
  H776     1.0000 0.45947  0.66813  0.13010  Biso   1.000  H
  H777     1.0000 0.47778  0.71504  0.11210  Biso   1.000  H
  O255     1.0000 0.54042  0.75566  0.02023  Biso   1.000  O
  H778     1.0000 0.59366  0.71922  0.88575  Biso   1.000  H
  H779     1.0000 0.59208  0.75894  0.90991  Biso   1.000  H
  N521     1.0000 0.64087  0.75981  0.96251  Biso   1.000  N
  O256     1.0000 0.70863  0.72956  0.18478  Biso   1.000  O
  N522     1.0000 0.72580  0.77145  0.05023  Biso   1.000  N
  H780     1.0000 0.65625  0.72012  0.91820  Biso   1.000  H
  C778     1.0000 0.70677  0.77426  0.96110  Biso   1.000  C
  C779     1.0000 0.49572  0.69922  0.59072  Biso   1.000  C
  C780     1.0000 0.48546  0.73553  0.28992  Biso   1.000  C
  N523     1.0000 0.47589  0.72968  0.38986  Biso   1.000  N
  H781     1.0000 0.43677  0.67545  0.44595  Biso   1.000  H
  C781     1.0000 0.66347  0.80030  0.95303  Biso   1.000  C
  C782     1.0000 0.76806  0.78785  0.05824  Biso   1.000  C
  N524     1.0000 0.70297  0.80980  0.95606  Biso   1.000  N
  H782     1.0000 0.71967  0.77103  0.90035  Biso   1.000  H
  N525     1.0000 0.51952  0.74132  0.60651  Biso   1.000  N
  H783     1.0000 0.50776  0.68584  0.62792  Biso   1.000  H
  H784     1.0000 0.46877  0.68984  0.61866  Biso   1.000  H
  O257     1.0000 0.49443  0.76605  0.24457  Biso   1.000  O
  C783     1.0000 0.46593  0.75533  0.44625  Biso   1.000  C
  O258     1.0000 0.65161  0.82350  0.94265  Biso   1.000  O
  N526     1.0000 0.79016  0.83082  0.08128  Biso   1.000  N
  H785     1.0000 0.77347  0.77333  0.11084  Biso   1.000  H
  H786     1.0000 0.77826  0.78343  0.99504  Biso   1.000  H
  C784     1.0000 0.73487  0.84820  0.91954  Biso   1.000  C
  C785     1.0000 0.55602  0.75852  0.65126  Biso   1.000  C
  C786     1.0000 0.50224  0.76733  0.60962  Biso   1.000  C
  N527     1.0000 0.49692  0.78074  0.51434  Biso   1.000  N
  H787     1.0000 0.46086  0.77214  0.39994  Biso   1.000  H
  H788     1.0000 0.44096  0.73854  0.48381  Biso   1.000  H
  C787     1.0000 0.79767  0.86083  0.00682  Biso   1.000  C
  C788     1.0000 0.81392  0.84539  0.16144  Biso   1.000  C
  N528     1.0000 0.76524  0.86967  0.99370  Biso   1.000  N
  H789     1.0000 0.72328  0.86474  0.89857  Biso   1.000  H
  H790     1.0000 0.74735  0.84363  0.86086  Biso   1.000  H
  O259     1.0000 0.57432  0.74081  0.67067  Biso   1.000  O
  N529     1.0000 0.56809  0.79698  0.67296  Biso   1.000  N
  C789     1.0000 0.53567  0.80585  0.65985  Biso   1.000  C
  H791     1.0000 0.47708  0.75524  0.64926  Biso   1.000  H
  C790     1.0000 0.51940  0.82126  0.50522  Biso   1.000  C
  C791     1.0000 0.83109  0.89932  0.05705  Biso   1.000  C
  H792     1.0000 0.80657  0.85504  0.94243  Biso   1.000  H
  O260     1.0000 0.81522  0.82532  0.23109  Biso   1.000  O
  N530     1.0000 0.83641  0.88591  0.15233  Biso   1.000  N
  C792     1.0000 0.77730  0.90813  0.01541  Biso   1.000  C
  C793     1.0000 0.59845  0.81846  0.74713  Biso   1.000  C
  N531     1.0000 0.54318  0.83586  0.58539  Biso   1.000  N
  H793     1.0000 0.52678  0.81165  0.72424  Biso   1.000  H
  O261     1.0000 0.51812  0.84136  0.43558  Biso   1.000  O
  N532     1.0000 0.81381  0.92533  0.06016  Biso   1.000  N
  H794     1.0000 0.85626  0.91145  0.01741  Biso   1.000  H
  C794     1.0000 0.86741  0.91136  0.22042  Biso   1.000  C
  O262     1.0000 0.75902  0.92587  0.99600  Biso   1.000  O
  N533     1.0000 0.63037  0.85689  0.71060  Biso   1.000  N
  H795     1.0000 0.61006  0.80194  0.76810  Biso   1.000  H
  H796     1.0000 0.58597  0.82302  0.80581  Biso   1.000  H
  C795     1.0000 0.56528  0.87884  0.60843  Biso   1.000  C
  C796     1.0000 0.83762  0.96747  0.07594  Biso   1.000  C
  N534     1.0000 0.85746  0.93701  0.27680  Biso   1.000  N
  H797     1.0000 0.87248  0.89454  0.26673  Biso   1.000  H
  H798     1.0000 0.89238  0.92814  0.18286  Biso   1.000  H
  C797     1.0000 0.66986  0.86635  0.71364  Biso   1.000  C
  C798     1.0000 0.62655  0.89239  0.70556  Biso   1.000  C
  N535     1.0000 0.60754  0.89523  0.61643  Biso   1.000  N
  H799     1.0000 0.55985  0.89332  0.55583  Biso   1.000  H
  H800     1.0000 0.55507  0.88323  0.67163  Biso   1.000  H
  N536     1.0000 0.84179  0.97959  0.17722  Biso   1.000  N
  H801     1.0000 0.82558  0.98084  0.03875  Biso   1.000  H
  H802     1.0000 0.86457  0.97684  0.04801  Biso   1.000  H
  C799     1.0000 0.86847  0.97666  0.24583  Biso   1.000  C
  C800     1.0000 0.84787  0.93112  0.37675  Biso   1.000  C
  O263     1.0000 0.68171  0.84315  0.72401  Biso   1.000  O
  N537     1.0000 0.69247  0.90688  0.70416  Biso   1.000  N
  C801     1.0000 0.66991  0.92599  0.69541  Biso   1.000  C
  H803     1.0000 0.61366  0.89562  0.76632  Biso   1.000  H
  C802     1.0000 0.63373  0.92599  0.55620  Biso   1.000  C
  C803     1.0000 0.82219  0.99775  0.21723  Biso   1.000  C
  H804     1.0000 0.89657  0.99124  0.22072  Biso   1.000  H
  C804     1.0000 0.86416  0.99640  0.34141  Biso   1.000  C
  O264     1.0000 0.83891  0.90064  0.42209  Biso   1.000  O
  N538     1.0000 0.85080  0.96550  0.41246  Biso   1.000  N
  C805     1.0000 0.73447  0.92730  0.72905  Biso   1.000  C
  N539     1.0000 0.67059  0.94265  0.59717  Biso   1.000  N
  H805     1.0000 0.67708  0.94653  0.74846  Biso   1.000  H
  O265     1.0000 0.62471  0.93713  0.48188  Biso   1.000  O
  O266     1.0000 0.79938  0.00524  0.17500  Biso   1.000  O
  N540     1.0000 0.83415  0.00739  0.31325  Biso   1.000  N
  H806     1.0000 0.89007  0.02023  0.36127  Biso   1.000  H
  C806     1.0000 0.85132  0.97180  0.51997  Biso   1.000  C
  N541     1.0000 0.76009  0.94704  0.64437  Biso   1.000  N
  H807     1.0000 0.73967  0.94743  0.78091  Biso   1.000  H
  H808     1.0000 0.74127  0.90774  0.75676  Biso   1.000  H
  C807     1.0000 0.70210  0.98240  0.57042  Biso   1.000  C
  C808     1.0000 0.82243  0.02988  0.37431  Biso   1.000  C
  N542     1.0000 0.81482  0.96884  0.55435  Biso   1.000  N
  H809     1.0000 0.87386  0.99852  0.53656  Biso   1.000  H
  H810     1.0000 0.85557  0.95164  0.55457  Biso   1.000  H
  C809     1.0000 0.76710  0.98589  0.60991  Biso   1.000  C
  C810     1.0000 0.78945  0.94002  0.61740  Biso   1.000  C
  N543     1.0000 0.73812  0.98296  0.53953  Biso   1.000  N
  H811     1.0000 0.69268  0.99273  0.51597  Biso   1.000  H
  H812     1.0000 0.70817  0.00034  0.62807  Biso   1.000  H
  N544     1.0000 0.79417  0.00682  0.45025  Biso   1.000  N
  H813     1.0000 0.84657  0.05183  0.40602  Biso   1.000  H
  H814     1.0000 0.81055  0.04212  0.33185  Biso   1.000  H
  C811     1.0000 0.80610  0.00100  0.54790  Biso   1.000  C
  H815     1.0000 0.77056  0.00435  0.66600  Biso   1.000  H
  O267     1.0000 0.79291  0.91100  0.64644  Biso   1.000  O
  C812     1.0000 0.75506  0.99843  0.44854  Biso   1.000  C
  H816     1.0000 0.82837  0.02644  0.57524  Biso   1.000  H
  O268     1.0000 0.73889  0.00417  0.37890  Biso   1.000  O
  C813     1.0000 0.24469  0.71059  0.44625  Biso   1.000  C
  N545     1.0000 0.21927  0.71618  0.51434  Biso   1.000  N
  N546     1.0000 0.27034  0.74622  0.38986  Biso   1.000  N
  H817     1.0000 0.22786  0.68874  0.39994  Biso   1.000  H
  H818     1.0000 0.26148  0.70244  0.48381  Biso   1.000  H
  C814     1.0000 0.23266  0.73490  0.60962  Biso   1.000  C
  C815     1.0000 0.17872  0.69814  0.50522  Biso   1.000  C
  C816     1.0000 0.31002  0.77489  0.42083  Biso   1.000  C
  C817     1.0000 0.26446  0.74992  0.28992  Biso   1.000  C
  N547     1.0000 0.25868  0.77820  0.60651  Biso   1.000  N
  C818     1.0000 0.19415  0.72983  0.65985  Biso   1.000  C
  H819     1.0000 0.24477  0.72182  0.64926  Biso   1.000  H
  O269     1.0000 0.15865  0.67676  0.43558  Biso   1.000  O
  N548     1.0000 0.16414  0.70731  0.58539  Biso   1.000  N
  N549     1.0000 0.31293  0.80445  0.48944  Biso   1.000  N
  H820     1.0000 0.32457  0.76133  0.44595  Biso   1.000  H
  C819     1.0000 0.32973  0.79890  0.32526  Biso   1.000  C
  O270     1.0000 0.23396  0.72839  0.24457  Biso   1.000  O
  N550     1.0000 0.29882  0.78137  0.25420  Biso   1.000  N
  C820     1.0000 0.24146  0.79749  0.65126  Biso   1.000  C
  C821     1.0000 0.30078  0.79651  0.59072  Biso   1.000  C
  N551     1.0000 0.20302  0.77109  0.67296  Biso   1.000  N
  H821     1.0000 0.18836  0.71513  0.72424  Biso   1.000  H
  C822     1.0000 0.12117  0.68644  0.60843  Biso   1.000  C
  C823     1.0000 0.33109  0.84223  0.44943  Biso   1.000  C
  N552     1.0000 0.34074  0.83990  0.35341  Biso   1.000  N
  H822     1.0000 0.35357  0.79684  0.30540  Biso   1.000  H
  C824     1.0000 0.30512  0.78713  0.14670  Biso   1.000  C
  O271     1.0000 0.25921  0.83351  0.67067  Biso   1.000  O
  H823     1.0000 0.31416  0.82192  0.62792  Biso   1.000  H
  H824     1.0000 0.31018  0.77895  0.61866  Biso   1.000  H
  C825     1.0000 0.18153  0.77999  0.74713  Biso   1.000  C
  N553     1.0000 0.10479  0.71233  0.61643  Biso   1.000  N
  H825     1.0000 0.10668  0.66655  0.55583  Biso   1.000  H
  H826     1.0000 0.11677  0.67183  0.67163  Biso   1.000  H
  O272     1.0000 0.33856  0.87254  0.49166  Biso   1.000  O
  C826     1.0000 0.36320  0.87412  0.29236  Biso   1.000  C
  N554     1.0000 0.30217  0.82070  0.11232  Biso   1.000  N
  H827     1.0000 0.33187  0.79134  0.13010  Biso   1.000  H
  H828     1.0000 0.28496  0.76273  0.11210  Biso   1.000  H
  N555     1.0000 0.14313  0.77348  0.71060  Biso   1.000  N
  H829     1.0000 0.19805  0.80812  0.76810  Biso   1.000  H
  H830     1.0000 0.17696  0.76294  0.80581  Biso   1.000  H
  C827     1.0000 0.10761  0.73416  0.70556  Biso   1.000  C
  C828     1.0000 0.07399  0.70773  0.55620  Biso   1.000  C
  N556     1.0000 0.34014  0.87931  0.21642  Biso   1.000  N
  H831     1.0000 0.38518  0.87194  0.26065  Biso   1.000  H
  H832     1.0000 0.37547  0.89825  0.33482  Biso   1.000  H
  C829     1.0000 0.33433  0.86158  0.11877  Biso   1.000  C
  C830     1.0000 0.27336  0.81723  0.04927  Biso   1.000  C
  C831     1.0000 0.13366  0.80352  0.71364  Biso   1.000  C
  C832     1.0000 0.07401  0.74392  0.69541  Biso   1.000  C
  H833     1.0000 0.10436  0.71803  0.76632  Biso   1.000  H
  O273     1.0000 0.06288  0.68757  0.48188  Biso   1.000  O
  N557     1.0000 0.05736  0.72794  0.59717  Biso   1.000  N
  C833     1.0000 0.33177  0.91004  0.21812  Biso   1.000  C
  H834     1.0000 0.35978  0.86474  0.09143  Biso   1.000  H
  C834     1.0000 0.31922  0.88547  0.05675  Biso   1.000  C
  O274     1.0000 0.24433  0.78477  0.02023  Biso   1.000  O
  N558     1.0000 0.28038  0.85360  0.02230  Biso   1.000  N
  O275     1.0000 0.15684  0.83855  0.72401  Biso   1.000  O
  N559     1.0000 0.09315  0.78561  0.70416  Biso   1.000  N
  H835     1.0000 0.05346  0.73054  0.74846  Biso   1.000  H
  C835     1.0000 0.01760  0.71970  0.57042  Biso   1.000  C
  O276     1.0000 0.33749  0.93193  0.28777  Biso   1.000  O
  N560     1.0000 0.31632  0.91153  0.12714  Biso   1.000  N
  H836     1.0000 0.33767  0.90043  0.00067  Biso   1.000  H
  C836     1.0000 0.26065  0.85952  0.93762  Biso   1.000  C
  C837     1.0000 0.07269  0.80717  0.72905  Biso   1.000  C
  N561     1.0000 0.01702  0.75515  0.53953  Biso   1.000  N
  H837     1.0000 0.00725  0.69993  0.51597  Biso   1.000  H
  H838     1.0000 0.99968  0.70785  0.62807  Biso   1.000  H
  C838     1.0000 0.31574  0.94698  0.09624  Biso   1.000  C
  H839     1.0000 0.28076  0.87445  0.88575  Biso   1.000  H
  H840     1.0000 0.24108  0.83315  0.90991  Biso   1.000  H
  N562     1.0000 0.24019  0.88108  0.96251  Biso   1.000  N
  N563     1.0000 0.05295  0.81305  0.64437  Biso   1.000  N
  H841     1.0000 0.05258  0.79224  0.78091  Biso   1.000  H
  H842     1.0000 0.09226  0.83354  0.75676  Biso   1.000  H
  C839     1.0000 0.00157  0.75664  0.44854  Biso   1.000  C
  C840     1.0000 0.01412  0.78122  0.60991  Biso   1.000  C
  H843     1.0000 0.33366  0.95884  0.03860  Biso   1.000  H
  H844     1.0000 0.32607  0.96672  0.15070  Biso   1.000  H
  N564     1.0000 0.27598  0.93874  0.06950  Biso   1.000  N
  C841     1.0000 0.19968  0.86316  0.95303  Biso   1.000  C
  C842     1.0000 0.25931  0.92273  0.97125  Biso   1.000  C
  C843     1.0000 0.05998  0.84945  0.61740  Biso   1.000  C
  O277     1.0000 0.99584  0.73472  0.37890  Biso   1.000  O
  N565     1.0000 0.99318  0.78734  0.45025  Biso   1.000  N
  C844     1.0000 0.99902  0.80511  0.54790  Biso   1.000  C
  H845     1.0000 0.99566  0.76623  0.66600  Biso   1.000  H
  C845     1.0000 0.25933  0.95893  0.11047  Biso   1.000  C
  O278     1.0000 0.17649  0.82810  0.94265  Biso   1.000  O
  N566     1.0000 0.19021  0.89320  0.95606  Biso   1.000  N
  H846     1.0000 0.27988  0.93614  0.91820  Biso   1.000  H
  C846     1.0000 0.22573  0.93253  0.96110  Biso   1.000  C
  O279     1.0000 0.08901  0.88191  0.64644  Biso   1.000  O
  N567     1.0000 0.03117  0.84599  0.55435  Biso   1.000  N
  C847     1.0000 0.97013  0.79254  0.37431  Biso   1.000  C
  H847     1.0000 0.97356  0.80194  0.57524  Biso   1.000  H
  O280     1.0000 0.27045  0.97908  0.18478  Biso   1.000  O
  N568     1.0000 0.22855  0.95436  0.05023  Biso   1.000  N
  C848     1.0000 0.15181  0.88669  0.91954  Biso   1.000  C
  H848     1.0000 0.22897  0.94862  0.90035  Biso   1.000  H
  C849     1.0000 0.02821  0.87952  0.51997  Biso   1.000  C
  N569     1.0000 0.99259  0.82676  0.31325  Biso   1.000  N
  H849     1.0000 0.94816  0.79475  0.40602  Biso   1.000  H
  H850     1.0000 0.95787  0.76844  0.33185  Biso   1.000  H
  C850     1.0000 0.21215  0.98022  0.05824  Biso   1.000  C
  N570     1.0000 0.13031  0.89556  0.99370  Biso   1.000  N
  H851     1.0000 0.13528  0.85853  0.89857  Biso   1.000  H
  H852     1.0000 0.15638  0.90374  0.86086  Biso   1.000  H
  N571     1.0000 0.03452  0.88532  0.41246  Biso   1.000  N
  H853     1.0000 0.00147  0.87534  0.53656  Biso   1.000  H
  H854     1.0000 0.04837  0.90392  0.55457  Biso   1.000  H
  C851     1.0000 0.00225  0.82446  0.21723  Biso   1.000  C
  C852     1.0000 0.00360  0.86776  0.34141  Biso   1.000  C
  N572     1.0000 0.16918  0.95934  0.08128  Biso   1.000  N
  H855     1.0000 0.21656  0.99482  0.99504  Biso   1.000  H
  H856     1.0000 0.22666  0.00014  0.11084  Biso   1.000  H
  C853     1.0000 0.09188  0.86919  0.01541  Biso   1.000  C
  C854     1.0000 0.13918  0.93683  0.00682  Biso   1.000  C
  C855     1.0000 0.06887  0.91673  0.37675  Biso   1.000  C
  N573     1.0000 0.02040  0.86220  0.17722  Biso   1.000  N
  O281     1.0000 0.99478  0.79415  0.17500  Biso   1.000  O
  C856     1.0000 0.02333  0.89180  0.24583  Biso   1.000  C
  H857     1.0000 0.97977  0.86985  0.36127  Biso   1.000  H
  C857     1.0000 0.15460  0.96851  0.16144  Biso   1.000  C
  N574     1.0000 0.07466  0.88848  0.06016  Biso   1.000  N
  O282     1.0000 0.07413  0.83318  0.99600  Biso   1.000  O
  C858     1.0000 0.10066  0.93175  0.05705  Biso   1.000  C
  H858     1.0000 0.14497  0.95152  0.94243  Biso   1.000  H
  O283     1.0000 0.09937  0.93826  0.42209  Biso   1.000  O
  N575     1.0000 0.06300  0.92046  0.27680  Biso   1.000  N
  C859     1.0000 0.03256  0.87018  0.07594  Biso   1.000  C
  H859     1.0000 0.00875  0.90532  0.22072  Biso   1.000  H
  O284     1.0000 0.17468  0.98989  0.23109  Biso   1.000  O
  N576     1.0000 0.11406  0.95047  0.15233  Biso   1.000  N
  H860     1.0000 0.08856  0.94483  0.01741  Biso   1.000  H
  C860     1.0000 0.08864  0.95606  0.22042  Biso   1.000  C
  H861     1.0000 0.01917  0.84473  0.03875  Biso   1.000  H
  H862     1.0000 0.02316  0.88774  0.04801  Biso   1.000  H
  H863     1.0000 0.10548  0.97795  0.26673  Biso   1.000  H
  H864     1.0000 0.07186  0.96424  0.18286  Biso   1.000  H
