data_image0
_cell_length_a       25.612
_cell_length_b       25.612
_cell_length_c       25.612
_cell_angle_alpha    90
_cell_angle_beta     90
_cell_angle_gamma    90

_symmetry_space_group_name_H-M    "P 1"
_symmetry_int_tables_number       1

loop_
  _symmetry_equiv_pos_as_xyz
  'x, y, z'

loop_
  _atom_site_label
  _atom_site_occupancy
  _atom_site_fract_x
  _atom_site_fract_y
  _atom_site_fract_z
  _atom_site_thermal_displace_type
  _atom_site_B_iso_or_equiv
  _atom_site_type_symbol
  C1       1.0000 0.38459  0.22579  0.27889  Biso   1.000  C
  C2       1.0000 0.42589  0.25000  0.25000  Biso   1.000  C
  H1       1.0000 0.36639  0.25180  0.29888  Biso   1.000  H
  H2       1.0000 0.39899  0.20010  0.30208  Biso   1.000  H
  H3       1.0000 0.36069  0.20932  0.25519  Biso   1.000  H
  N1       1.0000 0.46564  0.21654  0.21115  Biso   1.000  N
  N2       1.0000 0.46564  0.28346  0.28885  Biso   1.000  N
  C3       1.0000 0.38459  0.27421  0.22111  Biso   1.000  C
  H4       1.0000 0.44542  0.23302  0.23001  Biso   1.000  H
  H5       1.0000 0.44542  0.26698  0.26999  Biso   1.000  H
  C4       1.0000 0.45061  0.16168  0.20451  Biso   1.000  C
  C5       1.0000 0.51386  0.22275  0.23903  Biso   1.000  C
  C6       1.0000 0.45061  0.33832  0.29549  Biso   1.000  C
  C7       1.0000 0.51386  0.27725  0.26097  Biso   1.000  C
  H6       1.0000 0.36639  0.24820  0.20112  Biso   1.000  H
  H7       1.0000 0.39899  0.29990  0.19792  Biso   1.000  H
  H8       1.0000 0.36069  0.29068  0.24481  Biso   1.000  H
  C8       1.0000 0.40258  0.15188  0.17129  Biso   1.000  C
  H9       1.0000 0.44471  0.14669  0.23872  Biso   1.000  H
  H10      1.0000 0.47981  0.14310  0.18890  Biso   1.000  H
  C9       1.0000 0.56196  0.21388  0.20611  Biso   1.000  C
  H11      1.0000 0.51429  0.19792  0.26819  Biso   1.000  H
  C10      1.0000 0.40258  0.34812  0.32871  Biso   1.000  C
  H12      1.0000 0.44471  0.35331  0.26128  Biso   1.000  H
  H13      1.0000 0.47981  0.35690  0.31110  Biso   1.000  H
  C11      1.0000 0.56196  0.28612  0.29389  Biso   1.000  C
  H14      1.0000 0.51429  0.30208  0.23181  Biso   1.000  H
  C12      1.0000 0.39025  0.18316  0.12842  Biso   1.000  C
  C13      1.0000 0.37158  0.10975  0.18316  Biso   1.000  C
  H15      1.0000 0.56149  0.23731  0.17640  Biso   1.000  H
  H16      1.0000 0.56200  0.17831  0.19311  Biso   1.000  H
  C14      1.0000 0.61171  0.22345  0.23860  Biso   1.000  C
  C15      1.0000 0.39025  0.31684  0.37158  Biso   1.000  C
  C16      1.0000 0.37158  0.39025  0.31684  Biso   1.000  C
  H17      1.0000 0.56149  0.26269  0.32360  Biso   1.000  H
  H18      1.0000 0.56200  0.32169  0.30689  Biso   1.000  H
  C17      1.0000 0.61171  0.27655  0.26140  Biso   1.000  C
  C18      1.0000 0.34812  0.17129  0.09742  Biso   1.000  C
  H19      1.0000 0.41071  0.21221  0.12080  Biso   1.000  H
  C19      1.0000 0.32871  0.09742  0.15188  Biso   1.000  C
  H20      1.0000 0.37920  0.08929  0.21221  Biso   1.000  H
  H21      1.0000 0.61381  0.19780  0.26628  Biso   1.000  H
  H22      1.0000 0.64220  0.21931  0.21638  Biso   1.000  H
  C20      1.0000 0.34812  0.32871  0.40258  Biso   1.000  C
  H23      1.0000 0.41071  0.28779  0.37920  Biso   1.000  H
  C21      1.0000 0.32871  0.40258  0.34812  Biso   1.000  C
  H24      1.0000 0.37920  0.41071  0.28779  Biso   1.000  H
  H25      1.0000 0.61381  0.30220  0.23372  Biso   1.000  H
  H26      1.0000 0.64220  0.28069  0.28362  Biso   1.000  H
  C22      1.0000 0.33832  0.20451  0.04939  Biso   1.000  C
  C23      1.0000 0.31684  0.12842  0.10975  Biso   1.000  C
  C24      1.0000 0.29549  0.04939  0.16168  Biso   1.000  C
  C25      1.0000 0.31684  0.37158  0.39025  Biso   1.000  C
  C26      1.0000 0.33832  0.29549  0.45061  Biso   1.000  C
  C27      1.0000 0.29549  0.45061  0.33832  Biso   1.000  C
  N3       1.0000 0.28346  0.21115  0.03436  Biso   1.000  N
  H27      1.0000 0.35331  0.23872  0.05529  Biso   1.000  H
  H28      1.0000 0.35690  0.18890  0.02019  Biso   1.000  H
  H29      1.0000 0.28779  0.12080  0.08929  Biso   1.000  H
  N4       1.0000 0.28885  0.03436  0.21654  Biso   1.000  N
  H30      1.0000 0.26128  0.05529  0.14669  Biso   1.000  H
  H31      1.0000 0.31110  0.02019  0.14310  Biso   1.000  H
  H32      1.0000 0.28779  0.37920  0.41071  Biso   1.000  H
  N5       1.0000 0.28346  0.28885  0.46564  Biso   1.000  N
  H33      1.0000 0.35331  0.26128  0.44471  Biso   1.000  H
  H34      1.0000 0.35690  0.31110  0.47981  Biso   1.000  H
  N6       1.0000 0.28885  0.46564  0.28346  Biso   1.000  N
  H35      1.0000 0.26128  0.44471  0.35331  Biso   1.000  H
  H36      1.0000 0.31110  0.47981  0.35690  Biso   1.000  H
  C28      1.0000 0.25000  0.25000  0.07411  Biso   1.000  C
  H37      1.0000 0.26698  0.23001  0.05458  Biso   1.000  H
  C29      1.0000 0.27725  0.23903  0.98614  Biso   1.000  C
  C30      1.0000 0.25000  0.07411  0.25000  Biso   1.000  C
  H38      1.0000 0.26999  0.05458  0.23302  Biso   1.000  H
  C31      1.0000 0.26097  0.98614  0.22275  Biso   1.000  C
  C32      1.0000 0.25000  0.25000  0.42589  Biso   1.000  C
  C33      1.0000 0.27725  0.26097  0.51386  Biso   1.000  C
  H39      1.0000 0.26698  0.26999  0.44542  Biso   1.000  H
  C34      1.0000 0.25000  0.42589  0.25000  Biso   1.000  C
  C35      1.0000 0.26097  0.51386  0.27725  Biso   1.000  C
  H40      1.0000 0.26999  0.44542  0.26698  Biso   1.000  H
  N7       1.0000 0.21654  0.28885  0.03436  Biso   1.000  N
  C36      1.0000 0.22579  0.22111  0.11541  Biso   1.000  C
  C37      1.0000 0.27421  0.27889  0.11541  Biso   1.000  C
  H41      1.0000 0.23302  0.26999  0.05458  Biso   1.000  H
  C38      1.0000 0.22275  0.26097  0.98614  Biso   1.000  C
  C39      1.0000 0.28612  0.20611  0.93804  Biso   1.000  C
  H42      1.0000 0.30208  0.26819  0.98571  Biso   1.000  H
  C40      1.0000 0.22111  0.11541  0.22579  Biso   1.000  C
  N8       1.0000 0.21115  0.03436  0.28346  Biso   1.000  N
  C41      1.0000 0.27889  0.11541  0.27421  Biso   1.000  C
  H43      1.0000 0.23001  0.05458  0.26698  Biso   1.000  H
  C42      1.0000 0.29389  0.93804  0.21388  Biso   1.000  C
  H44      1.0000 0.23181  0.98571  0.19792  Biso   1.000  H
  C43      1.0000 0.23903  0.98614  0.27725  Biso   1.000  C
  N9       1.0000 0.21654  0.21115  0.46564  Biso   1.000  N
  C44      1.0000 0.22579  0.27889  0.38459  Biso   1.000  C
  C45      1.0000 0.27421  0.22111  0.38459  Biso   1.000  C
  H45      1.0000 0.23302  0.23001  0.44542  Biso   1.000  H
  C46      1.0000 0.22275  0.23903  0.51386  Biso   1.000  C
  C47      1.0000 0.28612  0.29389  0.56196  Biso   1.000  C
  H46      1.0000 0.30208  0.23181  0.51429  Biso   1.000  H
  N10      1.0000 0.21115  0.46564  0.21654  Biso   1.000  N
  C48      1.0000 0.27889  0.38459  0.22579  Biso   1.000  C
  C49      1.0000 0.22111  0.38459  0.27421  Biso   1.000  C
  H47      1.0000 0.23001  0.44542  0.23302  Biso   1.000  H
  C50      1.0000 0.23903  0.51386  0.22275  Biso   1.000  C
  C51      1.0000 0.29389  0.56196  0.28612  Biso   1.000  C
  H48      1.0000 0.23181  0.51429  0.30208  Biso   1.000  H
  C52      1.0000 0.16168  0.29549  0.04939  Biso   1.000  C
  H49      1.0000 0.25180  0.20112  0.13361  Biso   1.000  H
  H50      1.0000 0.20010  0.19792  0.10101  Biso   1.000  H
  H51      1.0000 0.20932  0.24481  0.13931  Biso   1.000  H
  H52      1.0000 0.24820  0.29888  0.13361  Biso   1.000  H
  H53      1.0000 0.29990  0.30208  0.10101  Biso   1.000  H
  H54      1.0000 0.29068  0.25519  0.13931  Biso   1.000  H
  C53      1.0000 0.21388  0.29389  0.93804  Biso   1.000  C
  H55      1.0000 0.19792  0.23181  0.98571  Biso   1.000  H
  H56      1.0000 0.26269  0.17640  0.93851  Biso   1.000  H
  H57      1.0000 0.32169  0.19311  0.93800  Biso   1.000  H
  C54      1.0000 0.27655  0.23860  0.88829  Biso   1.000  C
  H58      1.0000 0.20112  0.13361  0.25180  Biso   1.000  H
  H59      1.0000 0.19792  0.10101  0.20010  Biso   1.000  H
  H60      1.0000 0.24481  0.13931  0.20932  Biso   1.000  H
  C55      1.0000 0.20451  0.04939  0.33832  Biso   1.000  C
  H61      1.0000 0.29888  0.13361  0.24820  Biso   1.000  H
  H62      1.0000 0.30208  0.10101  0.29990  Biso   1.000  H
  H63      1.0000 0.25519  0.13931  0.29068  Biso   1.000  H
  H64      1.0000 0.32360  0.93851  0.23731  Biso   1.000  H
  H65      1.0000 0.30689  0.93800  0.17831  Biso   1.000  H
  C56      1.0000 0.26140  0.88829  0.22345  Biso   1.000  C
  C57      1.0000 0.20611  0.93804  0.28612  Biso   1.000  C
  H66      1.0000 0.26819  0.98571  0.30208  Biso   1.000  H
  C58      1.0000 0.16168  0.20451  0.45061  Biso   1.000  C
  H67      1.0000 0.25180  0.29888  0.36639  Biso   1.000  H
  H68      1.0000 0.20010  0.30208  0.39899  Biso   1.000  H
  H69      1.0000 0.20932  0.25519  0.36069  Biso   1.000  H
  H70      1.0000 0.24820  0.20112  0.36639  Biso   1.000  H
  H71      1.0000 0.29990  0.19792  0.39899  Biso   1.000  H
  H72      1.0000 0.29068  0.24481  0.36069  Biso   1.000  H
  C59      1.0000 0.21388  0.20611  0.56196  Biso   1.000  C
  H73      1.0000 0.19792  0.26819  0.51429  Biso   1.000  H
  H74      1.0000 0.26269  0.32360  0.56149  Biso   1.000  H
  H75      1.0000 0.32169  0.30689  0.56200  Biso   1.000  H
  C60      1.0000 0.27655  0.26140  0.61171  Biso   1.000  C
  C61      1.0000 0.20451  0.45061  0.16168  Biso   1.000  C
  H76      1.0000 0.29888  0.36639  0.25180  Biso   1.000  H
  H77      1.0000 0.30208  0.39899  0.20010  Biso   1.000  H
  H78      1.0000 0.25519  0.36069  0.20932  Biso   1.000  H
  H79      1.0000 0.20112  0.36639  0.24820  Biso   1.000  H
  H80      1.0000 0.19792  0.39899  0.29990  Biso   1.000  H
  H81      1.0000 0.24481  0.36069  0.29068  Biso   1.000  H
  C62      1.0000 0.20611  0.56196  0.21388  Biso   1.000  C
  H82      1.0000 0.26819  0.51429  0.19792  Biso   1.000  H
  H83      1.0000 0.32360  0.56149  0.26269  Biso   1.000  H
  H84      1.0000 0.30689  0.56200  0.32169  Biso   1.000  H
  C63      1.0000 0.26140  0.61171  0.27655  Biso   1.000  C
  C64      1.0000 0.15188  0.32871  0.09742  Biso   1.000  C
  H85      1.0000 0.14669  0.26128  0.05529  Biso   1.000  H
  H86      1.0000 0.14310  0.31110  0.02019  Biso   1.000  H
  H87      1.0000 0.23731  0.32360  0.93851  Biso   1.000  H
  H88      1.0000 0.17831  0.30689  0.93800  Biso   1.000  H
  C65      1.0000 0.22345  0.26140  0.88829  Biso   1.000  C
  H89      1.0000 0.30220  0.26628  0.88619  Biso   1.000  H
  H90      1.0000 0.28069  0.21638  0.85780  Biso   1.000  H
  C66      1.0000 0.17129  0.09742  0.34812  Biso   1.000  C
  H91      1.0000 0.23872  0.05529  0.35331  Biso   1.000  H
  H92      1.0000 0.18890  0.02019  0.35690  Biso   1.000  H
  H93      1.0000 0.23372  0.88619  0.19780  Biso   1.000  H
  H94      1.0000 0.28362  0.85780  0.21931  Biso   1.000  H
  C67      1.0000 0.23860  0.88829  0.27655  Biso   1.000  C
  H95      1.0000 0.17640  0.93851  0.26269  Biso   1.000  H
  H96      1.0000 0.19311  0.93800  0.32169  Biso   1.000  H
  C68      1.0000 0.15188  0.17129  0.40258  Biso   1.000  C
  H97      1.0000 0.14669  0.23872  0.44471  Biso   1.000  H
  H98      1.0000 0.14310  0.18890  0.47981  Biso   1.000  H
  H99      1.0000 0.23731  0.17640  0.56149  Biso   1.000  H
  H100     1.0000 0.17831  0.19311  0.56200  Biso   1.000  H
  C69      1.0000 0.22345  0.23860  0.61171  Biso   1.000  C
  H101     1.0000 0.30220  0.23372  0.61381  Biso   1.000  H
  H102     1.0000 0.28069  0.28362  0.64220  Biso   1.000  H
  C70      1.0000 0.17129  0.40258  0.15188  Biso   1.000  C
  H103     1.0000 0.23872  0.44471  0.14669  Biso   1.000  H
  H104     1.0000 0.18890  0.47981  0.14310  Biso   1.000  H
  H105     1.0000 0.17640  0.56149  0.23731  Biso   1.000  H
  H106     1.0000 0.19311  0.56200  0.17831  Biso   1.000  H
  C71      1.0000 0.23860  0.61171  0.22345  Biso   1.000  C
  H107     1.0000 0.23372  0.61381  0.30220  Biso   1.000  H
  H108     1.0000 0.28362  0.64220  0.28069  Biso   1.000  H
  C72      1.0000 0.10975  0.31684  0.12842  Biso   1.000  C
  C73      1.0000 0.18316  0.37158  0.10975  Biso   1.000  C
  H109     1.0000 0.19780  0.23372  0.88619  Biso   1.000  H
  H110     1.0000 0.21931  0.28362  0.85780  Biso   1.000  H
  C74      1.0000 0.12842  0.10975  0.31684  Biso   1.000  C
  C75      1.0000 0.18316  0.12842  0.39025  Biso   1.000  C
  H111     1.0000 0.26628  0.88619  0.30220  Biso   1.000  H
  H112     1.0000 0.21638  0.85780  0.28069  Biso   1.000  H
  C76      1.0000 0.10975  0.18316  0.37158  Biso   1.000  C
  H113     1.0000 0.19780  0.26628  0.61381  Biso   1.000  H
  H114     1.0000 0.21931  0.21638  0.64220  Biso   1.000  H
  C77      1.0000 0.12842  0.39025  0.18316  Biso   1.000  C
  H115     1.0000 0.26628  0.61381  0.19780  Biso   1.000  H
  H116     1.0000 0.21638  0.64220  0.21931  Biso   1.000  H
  H117     1.0000 0.08929  0.28779  0.12080  Biso   1.000  H
  C78      1.0000 0.09742  0.34812  0.17129  Biso   1.000  C
  H118     1.0000 0.21221  0.37920  0.08929  Biso   1.000  H
  C79      1.0000 0.09742  0.15188  0.32871  Biso   1.000  C
  H119     1.0000 0.12080  0.08929  0.28779  Biso   1.000  H
  H120     1.0000 0.21221  0.12080  0.41071  Biso   1.000  H
  H121     1.0000 0.08929  0.21221  0.37920  Biso   1.000  H
  H122     1.0000 0.12080  0.41071  0.21221  Biso   1.000  H
  C80      1.0000 0.04939  0.33832  0.20451  Biso   1.000  C
  C81      1.0000 0.04939  0.16168  0.29549  Biso   1.000  C
  N11      1.0000 0.03436  0.28346  0.21115  Biso   1.000  N
  H123     1.0000 0.05529  0.35331  0.23872  Biso   1.000  H
  H124     1.0000 0.02019  0.35690  0.18890  Biso   1.000  H
  N12      1.0000 0.03436  0.21654  0.28885  Biso   1.000  N
  H125     1.0000 0.05529  0.14669  0.26128  Biso   1.000  H
  H126     1.0000 0.02019  0.14310  0.31110  Biso   1.000  H
  C82      1.0000 0.07411  0.25000  0.25000  Biso   1.000  C
  H127     1.0000 0.05458  0.26698  0.23001  Biso   1.000  H
  C83      1.0000 0.98614  0.27725  0.23903  Biso   1.000  C
  H128     1.0000 0.05458  0.23302  0.26999  Biso   1.000  H
  C84      1.0000 0.98614  0.22275  0.26097  Biso   1.000  C
  C85      1.0000 0.11541  0.27421  0.27889  Biso   1.000  C
  C86      1.0000 0.11541  0.22579  0.22111  Biso   1.000  C
  C87      1.0000 0.93804  0.28612  0.20611  Biso   1.000  C
  H129     1.0000 0.98571  0.30208  0.26819  Biso   1.000  H
  C88      1.0000 0.93804  0.21388  0.29389  Biso   1.000  C
  H130     1.0000 0.98571  0.19792  0.23181  Biso   1.000  H
  H131     1.0000 0.13361  0.24820  0.29888  Biso   1.000  H
  H132     1.0000 0.10101  0.29990  0.30208  Biso   1.000  H
  H133     1.0000 0.13931  0.29068  0.25519  Biso   1.000  H
  H134     1.0000 0.13361  0.25180  0.20112  Biso   1.000  H
  H135     1.0000 0.10101  0.20010  0.19792  Biso   1.000  H
  H136     1.0000 0.13931  0.20932  0.24481  Biso   1.000  H
  H137     1.0000 0.93851  0.26269  0.17640  Biso   1.000  H
  H138     1.0000 0.93800  0.32169  0.19311  Biso   1.000  H
  C89      1.0000 0.88829  0.27655  0.23860  Biso   1.000  C
  H139     1.0000 0.93851  0.23731  0.32360  Biso   1.000  H
  H140     1.0000 0.93800  0.17831  0.30689  Biso   1.000  H
  C90      1.0000 0.88829  0.22345  0.26140  Biso   1.000  C
  H141     1.0000 0.88619  0.30220  0.26628  Biso   1.000  H
  H142     1.0000 0.85780  0.28069  0.21638  Biso   1.000  H
  H143     1.0000 0.88619  0.19780  0.23372  Biso   1.000  H
  H144     1.0000 0.85780  0.21931  0.28362  Biso   1.000  H
  C91      1.0000 0.38459  0.22579  0.27889  Biso   1.000  C
  C92      1.0000 0.42589  0.25000  0.25000  Biso   1.000  C
  H145     1.0000 0.36639  0.25180  0.29888  Biso   1.000  H
  H146     1.0000 0.39899  0.20010  0.30208  Biso   1.000  H
  H147     1.0000 0.36069  0.20932  0.25519  Biso   1.000  H
  N13      1.0000 0.46564  0.21654  0.21115  Biso   1.000  N
  H148     1.0000 0.44542  0.23302  0.23001  Biso   1.000  H
  N14      1.0000 0.46564  0.28346  0.28885  Biso   1.000  N
  C93      1.0000 0.38459  0.27421  0.22111  Biso   1.000  C
  H149     1.0000 0.44542  0.26698  0.26999  Biso   1.000  H
  C94      1.0000 0.45061  0.16168  0.20451  Biso   1.000  C
  C95      1.0000 0.51386  0.22275  0.23903  Biso   1.000  C
  C96      1.0000 0.51386  0.27725  0.26097  Biso   1.000  C
  C97      1.0000 0.45061  0.33832  0.29549  Biso   1.000  C
  H150     1.0000 0.36639  0.24820  0.20112  Biso   1.000  H
  H151     1.0000 0.39899  0.29990  0.19792  Biso   1.000  H
  H152     1.0000 0.36069  0.29068  0.24481  Biso   1.000  H
  H153     1.0000 0.44471  0.14669  0.23872  Biso   1.000  H
  H154     1.0000 0.47981  0.14310  0.18890  Biso   1.000  H
  C98      1.0000 0.40258  0.15188  0.17129  Biso   1.000  C
  H155     1.0000 0.51429  0.19792  0.26819  Biso   1.000  H
  C99      1.0000 0.56196  0.21388  0.20611  Biso   1.000  C
  H156     1.0000 0.51429  0.30208  0.23181  Biso   1.000  H
  C100     1.0000 0.56196  0.28612  0.29389  Biso   1.000  C
  H157     1.0000 0.44471  0.35331  0.26128  Biso   1.000  H
  H158     1.0000 0.47981  0.35690  0.31110  Biso   1.000  H
  C101     1.0000 0.40258  0.34812  0.32871  Biso   1.000  C
  C102     1.0000 0.39025  0.18316  0.12842  Biso   1.000  C
  C103     1.0000 0.37158  0.10975  0.18316  Biso   1.000  C
  H159     1.0000 0.56149  0.23731  0.17640  Biso   1.000  H
  H160     1.0000 0.56200  0.17831  0.19311  Biso   1.000  H
  C104     1.0000 0.61171  0.22345  0.23860  Biso   1.000  C
  C105     1.0000 0.61171  0.27655  0.26140  Biso   1.000  C
  H161     1.0000 0.56149  0.26269  0.32360  Biso   1.000  H
  H162     1.0000 0.56200  0.32169  0.30689  Biso   1.000  H
  C106     1.0000 0.39025  0.31684  0.37158  Biso   1.000  C
  C107     1.0000 0.37158  0.39025  0.31684  Biso   1.000  C
  C108     1.0000 0.34812  0.17129  0.09742  Biso   1.000  C
  H163     1.0000 0.41071  0.21221  0.12080  Biso   1.000  H
  C109     1.0000 0.32871  0.09742  0.15188  Biso   1.000  C
  H164     1.0000 0.37920  0.08929  0.21221  Biso   1.000  H
  H165     1.0000 0.61381  0.19780  0.26628  Biso   1.000  H
  H166     1.0000 0.64220  0.21931  0.21638  Biso   1.000  H
  H167     1.0000 0.61381  0.30220  0.23372  Biso   1.000  H
  H168     1.0000 0.64220  0.28069  0.28362  Biso   1.000  H
  C110     1.0000 0.34812  0.32871  0.40258  Biso   1.000  C
  H169     1.0000 0.41071  0.28779  0.37920  Biso   1.000  H
  C111     1.0000 0.32871  0.40258  0.34812  Biso   1.000  C
  H170     1.0000 0.37920  0.41071  0.28779  Biso   1.000  H
  C112     1.0000 0.33832  0.20451  0.04939  Biso   1.000  C
  C113     1.0000 0.31684  0.12842  0.10975  Biso   1.000  C
  C114     1.0000 0.29549  0.04939  0.16168  Biso   1.000  C
  C115     1.0000 0.31684  0.37158  0.39025  Biso   1.000  C
  C116     1.0000 0.33832  0.29549  0.45061  Biso   1.000  C
  C117     1.0000 0.29549  0.45061  0.33832  Biso   1.000  C
  N15      1.0000 0.28346  0.21115  0.03436  Biso   1.000  N
  H171     1.0000 0.35331  0.23872  0.05529  Biso   1.000  H
  H172     1.0000 0.35690  0.18890  0.02019  Biso   1.000  H
  H173     1.0000 0.28779  0.12080  0.08929  Biso   1.000  H
  N16      1.0000 0.28885  0.03436  0.21654  Biso   1.000  N
  H174     1.0000 0.26128  0.05529  0.14669  Biso   1.000  H
  H175     1.0000 0.31110  0.02019  0.14310  Biso   1.000  H
  H176     1.0000 0.28779  0.37920  0.41071  Biso   1.000  H
  N17      1.0000 0.28346  0.28885  0.46564  Biso   1.000  N
  H177     1.0000 0.35331  0.26128  0.44471  Biso   1.000  H
  H178     1.0000 0.35690  0.31110  0.47981  Biso   1.000  H
  N18      1.0000 0.28885  0.46564  0.28346  Biso   1.000  N
  H179     1.0000 0.26128  0.44471  0.35331  Biso   1.000  H
  H180     1.0000 0.31110  0.47981  0.35690  Biso   1.000  H
  C118     1.0000 0.27725  0.23903  0.98614  Biso   1.000  C
  C119     1.0000 0.25000  0.25000  0.07411  Biso   1.000  C
  H181     1.0000 0.26698  0.23001  0.05458  Biso   1.000  H
  C120     1.0000 0.26097  0.98614  0.22275  Biso   1.000  C
  C121     1.0000 0.25000  0.07411  0.25000  Biso   1.000  C
  H182     1.0000 0.26999  0.05458  0.23302  Biso   1.000  H
  C122     1.0000 0.25000  0.25000  0.42589  Biso   1.000  C
  C123     1.0000 0.27725  0.26097  0.51386  Biso   1.000  C
  H183     1.0000 0.26698  0.26999  0.44542  Biso   1.000  H
  C124     1.0000 0.25000  0.42589  0.25000  Biso   1.000  C
  C125     1.0000 0.26097  0.51386  0.27725  Biso   1.000  C
  H184     1.0000 0.26999  0.44542  0.26698  Biso   1.000  H
  C126     1.0000 0.22275  0.26097  0.98614  Biso   1.000  C
  C127     1.0000 0.28612  0.20611  0.93804  Biso   1.000  C
  H185     1.0000 0.30208  0.26819  0.98571  Biso   1.000  H
  N19      1.0000 0.21654  0.28885  0.03436  Biso   1.000  N
  C128     1.0000 0.22579  0.22111  0.11541  Biso   1.000  C
  C129     1.0000 0.27421  0.27889  0.11541  Biso   1.000  C
  H186     1.0000 0.23302  0.26999  0.05458  Biso   1.000  H
  C130     1.0000 0.29389  0.93804  0.21388  Biso   1.000  C
  H187     1.0000 0.23181  0.98571  0.19792  Biso   1.000  H
  C131     1.0000 0.23903  0.98614  0.27725  Biso   1.000  C
  N20      1.0000 0.21115  0.03436  0.28346  Biso   1.000  N
  C132     1.0000 0.22111  0.11541  0.22579  Biso   1.000  C
  C133     1.0000 0.27889  0.11541  0.27421  Biso   1.000  C
  H188     1.0000 0.23001  0.05458  0.26698  Biso   1.000  H
  N21      1.0000 0.21654  0.21115  0.46564  Biso   1.000  N
  C134     1.0000 0.22579  0.27889  0.38459  Biso   1.000  C
  C135     1.0000 0.27421  0.22111  0.38459  Biso   1.000  C
  H189     1.0000 0.23302  0.23001  0.44542  Biso   1.000  H
  H190     1.0000 0.30208  0.23181  0.51429  Biso   1.000  H
  C136     1.0000 0.22275  0.23903  0.51386  Biso   1.000  C
  C137     1.0000 0.28612  0.29389  0.56196  Biso   1.000  C
  N22      1.0000 0.21115  0.46564  0.21654  Biso   1.000  N
  C138     1.0000 0.27889  0.38459  0.22579  Biso   1.000  C
  C139     1.0000 0.22111  0.38459  0.27421  Biso   1.000  C
  H191     1.0000 0.23001  0.44542  0.23302  Biso   1.000  H
  H192     1.0000 0.23181  0.51429  0.30208  Biso   1.000  H
  C140     1.0000 0.23903  0.51386  0.22275  Biso   1.000  C
  C141     1.0000 0.29389  0.56196  0.28612  Biso   1.000  C
  C142     1.0000 0.21388  0.29389  0.93804  Biso   1.000  C
  H193     1.0000 0.19792  0.23181  0.98571  Biso   1.000  H
  H194     1.0000 0.26269  0.17640  0.93851  Biso   1.000  H
  H195     1.0000 0.32169  0.19311  0.93800  Biso   1.000  H
  C143     1.0000 0.27655  0.23860  0.88829  Biso   1.000  C
  C144     1.0000 0.16168  0.29549  0.04939  Biso   1.000  C
  H196     1.0000 0.25180  0.20112  0.13361  Biso   1.000  H
  H197     1.0000 0.20010  0.19792  0.10101  Biso   1.000  H
  H198     1.0000 0.20932  0.24481  0.13931  Biso   1.000  H
  H199     1.0000 0.24820  0.29888  0.13361  Biso   1.000  H
  H200     1.0000 0.29990  0.30208  0.10101  Biso   1.000  H
  H201     1.0000 0.29068  0.25519  0.13931  Biso   1.000  H
  H202     1.0000 0.32360  0.93851  0.23731  Biso   1.000  H
  H203     1.0000 0.30689  0.93800  0.17831  Biso   1.000  H
  C145     1.0000 0.26140  0.88829  0.22345  Biso   1.000  C
  C146     1.0000 0.20611  0.93804  0.28612  Biso   1.000  C
  H204     1.0000 0.26819  0.98571  0.30208  Biso   1.000  H
  C147     1.0000 0.20451  0.04939  0.33832  Biso   1.000  C
  H205     1.0000 0.20112  0.13361  0.25180  Biso   1.000  H
  H206     1.0000 0.19792  0.10101  0.20010  Biso   1.000  H
  H207     1.0000 0.24481  0.13931  0.20932  Biso   1.000  H
  H208     1.0000 0.29888  0.13361  0.24820  Biso   1.000  H
  H209     1.0000 0.30208  0.10101  0.29990  Biso   1.000  H
  H210     1.0000 0.25519  0.13931  0.29068  Biso   1.000  H
  C148     1.0000 0.16168  0.20451  0.45061  Biso   1.000  C
  H211     1.0000 0.25180  0.29888  0.36639  Biso   1.000  H
  H212     1.0000 0.20010  0.30208  0.39899  Biso   1.000  H
  H213     1.0000 0.20932  0.25519  0.36069  Biso   1.000  H
  H214     1.0000 0.24820  0.20112  0.36639  Biso   1.000  H
  H215     1.0000 0.29990  0.19792  0.39899  Biso   1.000  H
  H216     1.0000 0.29068  0.24481  0.36069  Biso   1.000  H
  H217     1.0000 0.19792  0.26819  0.51429  Biso   1.000  H
  C149     1.0000 0.21388  0.20611  0.56196  Biso   1.000  C
  H218     1.0000 0.26269  0.32360  0.56149  Biso   1.000  H
  H219     1.0000 0.32169  0.30689  0.56200  Biso   1.000  H
  C150     1.0000 0.27655  0.26140  0.61171  Biso   1.000  C
  C151     1.0000 0.20451  0.45061  0.16168  Biso   1.000  C
  H220     1.0000 0.29888  0.36639  0.25180  Biso   1.000  H
  H221     1.0000 0.30208  0.39899  0.20010  Biso   1.000  H
  H222     1.0000 0.25519  0.36069  0.20932  Biso   1.000  H
  H223     1.0000 0.20112  0.36639  0.24820  Biso   1.000  H
  H224     1.0000 0.19792  0.39899  0.29990  Biso   1.000  H
  H225     1.0000 0.24481  0.36069  0.29068  Biso   1.000  H
  H226     1.0000 0.26819  0.51429  0.19792  Biso   1.000  H
  C152     1.0000 0.20611  0.56196  0.21388  Biso   1.000  C
  H227     1.0000 0.32360  0.56149  0.26269  Biso   1.000  H
  H228     1.0000 0.30689  0.56200  0.32169  Biso   1.000  H
  C153     1.0000 0.26140  0.61171  0.27655  Biso   1.000  C
  H229     1.0000 0.23731  0.32360  0.93851  Biso   1.000  H
  H230     1.0000 0.17831  0.30689  0.93800  Biso   1.000  H
  C154     1.0000 0.22345  0.26140  0.88829  Biso   1.000  C
  H231     1.0000 0.30220  0.26628  0.88619  Biso   1.000  H
  H232     1.0000 0.28069  0.21638  0.85780  Biso   1.000  H
  H233     1.0000 0.14669  0.26128  0.05529  Biso   1.000  H
  H234     1.0000 0.14310  0.31110  0.02019  Biso   1.000  H
  C155     1.0000 0.15188  0.32871  0.09742  Biso   1.000  C
  H235     1.0000 0.23372  0.88619  0.19780  Biso   1.000  H
  H236     1.0000 0.28362  0.85780  0.21931  Biso   1.000  H
  C156     1.0000 0.23860  0.88829  0.27655  Biso   1.000  C
  H237     1.0000 0.17640  0.93851  0.26269  Biso   1.000  H
  H238     1.0000 0.19311  0.93800  0.32169  Biso   1.000  H
  H239     1.0000 0.23872  0.05529  0.35331  Biso   1.000  H
  H240     1.0000 0.18890  0.02019  0.35690  Biso   1.000  H
  C157     1.0000 0.17129  0.09742  0.34812  Biso   1.000  C
  C158     1.0000 0.15188  0.17129  0.40258  Biso   1.000  C
  H241     1.0000 0.14669  0.23872  0.44471  Biso   1.000  H
  H242     1.0000 0.14310  0.18890  0.47981  Biso   1.000  H
  H243     1.0000 0.23731  0.17640  0.56149  Biso   1.000  H
  H244     1.0000 0.17831  0.19311  0.56200  Biso   1.000  H
  C159     1.0000 0.22345  0.23860  0.61171  Biso   1.000  C
  H245     1.0000 0.30220  0.23372  0.61381  Biso   1.000  H
  H246     1.0000 0.28069  0.28362  0.64220  Biso   1.000  H
  C160     1.0000 0.17129  0.40258  0.15188  Biso   1.000  C
  H247     1.0000 0.23872  0.44471  0.14669  Biso   1.000  H
  H248     1.0000 0.18890  0.47981  0.14310  Biso   1.000  H
  H249     1.0000 0.17640  0.56149  0.23731  Biso   1.000  H
  H250     1.0000 0.19311  0.56200  0.17831  Biso   1.000  H
  C161     1.0000 0.23860  0.61171  0.22345  Biso   1.000  C
  H251     1.0000 0.23372  0.61381  0.30220  Biso   1.000  H
  H252     1.0000 0.28362  0.64220  0.28069  Biso   1.000  H
  H253     1.0000 0.19780  0.23372  0.88619  Biso   1.000  H
  H254     1.0000 0.21931  0.28362  0.85780  Biso   1.000  H
  C162     1.0000 0.10975  0.31684  0.12842  Biso   1.000  C
  C163     1.0000 0.18316  0.37158  0.10975  Biso   1.000  C
  H255     1.0000 0.26628  0.88619  0.30220  Biso   1.000  H
  H256     1.0000 0.21638  0.85780  0.28069  Biso   1.000  H
  C164     1.0000 0.12842  0.10975  0.31684  Biso   1.000  C
  C165     1.0000 0.18316  0.12842  0.39025  Biso   1.000  C
  C166     1.0000 0.10975  0.18316  0.37158  Biso   1.000  C
  H257     1.0000 0.19780  0.26628  0.61381  Biso   1.000  H
  H258     1.0000 0.21931  0.21638  0.64220  Biso   1.000  H
  C167     1.0000 0.12842  0.39025  0.18316  Biso   1.000  C
  H259     1.0000 0.26628  0.61381  0.19780  Biso   1.000  H
  H260     1.0000 0.21638  0.64220  0.21931  Biso   1.000  H
  H261     1.0000 0.08929  0.28779  0.12080  Biso   1.000  H
  C168     1.0000 0.09742  0.34812  0.17129  Biso   1.000  C
  H262     1.0000 0.21221  0.37920  0.08929  Biso   1.000  H
  C169     1.0000 0.09742  0.15188  0.32871  Biso   1.000  C
  H263     1.0000 0.12080  0.08929  0.28779  Biso   1.000  H
  H264     1.0000 0.21221  0.12080  0.41071  Biso   1.000  H
  H265     1.0000 0.08929  0.21221  0.37920  Biso   1.000  H
  H266     1.0000 0.12080  0.41071  0.21221  Biso   1.000  H
  C170     1.0000 0.04939  0.33832  0.20451  Biso   1.000  C
  C171     1.0000 0.04939  0.16168  0.29549  Biso   1.000  C
  N23      1.0000 0.03436  0.28346  0.21115  Biso   1.000  N
  H267     1.0000 0.05529  0.35331  0.23872  Biso   1.000  H
  H268     1.0000 0.02019  0.35690  0.18890  Biso   1.000  H
  N24      1.0000 0.03436  0.21654  0.28885  Biso   1.000  N
  H269     1.0000 0.05529  0.14669  0.26128  Biso   1.000  H
  H270     1.0000 0.02019  0.14310  0.31110  Biso   1.000  H
  C172     1.0000 0.98614  0.27725  0.23903  Biso   1.000  C
  C173     1.0000 0.07411  0.25000  0.25000  Biso   1.000  C
  H271     1.0000 0.05458  0.26698  0.23001  Biso   1.000  H
  C174     1.0000 0.98614  0.22275  0.26097  Biso   1.000  C
  H272     1.0000 0.05458  0.23302  0.26999  Biso   1.000  H
  C175     1.0000 0.93804  0.28612  0.20611  Biso   1.000  C
  H273     1.0000 0.98571  0.30208  0.26819  Biso   1.000  H
  C176     1.0000 0.11541  0.27421  0.27889  Biso   1.000  C
  C177     1.0000 0.11541  0.22579  0.22111  Biso   1.000  C
  C178     1.0000 0.93804  0.21388  0.29389  Biso   1.000  C
  H274     1.0000 0.98571  0.19792  0.23181  Biso   1.000  H
  H275     1.0000 0.93851  0.26269  0.17640  Biso   1.000  H
  H276     1.0000 0.93800  0.32169  0.19311  Biso   1.000  H
  C179     1.0000 0.88829  0.27655  0.23860  Biso   1.000  C
  H277     1.0000 0.13361  0.24820  0.29888  Biso   1.000  H
  H278     1.0000 0.10101  0.29990  0.30208  Biso   1.000  H
  H279     1.0000 0.13931  0.29068  0.25519  Biso   1.000  H
  H280     1.0000 0.13361  0.25180  0.20112  Biso   1.000  H
  H281     1.0000 0.10101  0.20010  0.19792  Biso   1.000  H
  H282     1.0000 0.13931  0.20932  0.24481  Biso   1.000  H
  H283     1.0000 0.93851  0.23731  0.32360  Biso   1.000  H
  H284     1.0000 0.93800  0.17831  0.30689  Biso   1.000  H
  C180     1.0000 0.88829  0.22345  0.26140  Biso   1.000  C
  H285     1.0000 0.88619  0.30220  0.26628  Biso   1.000  H
  H286     1.0000 0.85780  0.28069  0.21638  Biso   1.000  H
  H287     1.0000 0.88619  0.19780  0.23372  Biso   1.000  H
  H288     1.0000 0.85780  0.21931  0.28362  Biso   1.000  H
  C181     1.0000 0.51097  0.47275  0.26386  Biso   1.000  C
  N25      1.0000 0.53885  0.46654  0.21564  Biso   1.000  N
  C182     1.0000 0.54389  0.46388  0.31196  Biso   1.000  C
  H289     1.0000 0.48181  0.44792  0.26429  Biso   1.000  H
  C183     1.0000 0.48903  0.52725  0.26386  Biso   1.000  C
  C184     1.0000 0.54549  0.41168  0.20061  Biso   1.000  C
  C185     1.0000 0.50000  0.50000  0.17589  Biso   1.000  C
  H290     1.0000 0.51999  0.48302  0.19542  Biso   1.000  H
  H291     1.0000 0.57360  0.48731  0.31149  Biso   1.000  H
  H292     1.0000 0.55689  0.42831  0.31200  Biso   1.000  H
  C186     1.0000 0.51140  0.47345  0.36171  Biso   1.000  C
  N26      1.0000 0.46115  0.53346  0.21564  Biso   1.000  N
  C187     1.0000 0.45611  0.53612  0.31196  Biso   1.000  C
  H293     1.0000 0.51819  0.55208  0.26429  Biso   1.000  H
  C188     1.0000 0.57871  0.40188  0.15258  Biso   1.000  C
  H294     1.0000 0.51128  0.39669  0.19471  Biso   1.000  H
  H295     1.0000 0.56110  0.39310  0.22981  Biso   1.000  H
  C189     1.0000 0.47111  0.47579  0.13459  Biso   1.000  C
  C190     1.0000 0.52889  0.52421  0.13459  Biso   1.000  C
  H296     1.0000 0.48001  0.51698  0.19542  Biso   1.000  H
  H297     1.0000 0.48372  0.44780  0.36381  Biso   1.000  H
  H298     1.0000 0.53362  0.46931  0.39220  Biso   1.000  H
  C191     1.0000 0.48860  0.52655  0.36171  Biso   1.000  C
  C192     1.0000 0.45451  0.58832  0.20061  Biso   1.000  C
  H299     1.0000 0.42640  0.51269  0.31149  Biso   1.000  H
  H300     1.0000 0.44311  0.57169  0.31200  Biso   1.000  H
  C193     1.0000 0.56684  0.35975  0.12158  Biso   1.000  C
  C194     1.0000 0.62158  0.43316  0.14025  Biso   1.000  C
  H301     1.0000 0.45112  0.50180  0.11639  Biso   1.000  H
  H302     1.0000 0.44792  0.45010  0.14899  Biso   1.000  H
  H303     1.0000 0.49481  0.45932  0.11069  Biso   1.000  H
  H304     1.0000 0.54888  0.49820  0.11639  Biso   1.000  H
  H305     1.0000 0.55208  0.54990  0.14899  Biso   1.000  H
  H306     1.0000 0.50519  0.54068  0.11069  Biso   1.000  H
  H307     1.0000 0.51628  0.55220  0.36381  Biso   1.000  H
  H308     1.0000 0.46638  0.53069  0.39220  Biso   1.000  H
  C195     1.0000 0.42129  0.59812  0.15258  Biso   1.000  C
  H309     1.0000 0.48872  0.60331  0.19471  Biso   1.000  H
  H310     1.0000 0.43890  0.60690  0.22981  Biso   1.000  H
  C196     1.0000 0.59812  0.34742  0.07871  Biso   1.000  C
  H311     1.0000 0.53779  0.33929  0.12920  Biso   1.000  H
  C197     1.0000 0.65258  0.42129  0.09812  Biso   1.000  C
  H312     1.0000 0.62920  0.46221  0.16071  Biso   1.000  H
  C198     1.0000 0.37842  0.56684  0.14025  Biso   1.000  C
  C199     1.0000 0.43316  0.64025  0.12158  Biso   1.000  C
  C200     1.0000 0.58832  0.29939  0.04549  Biso   1.000  C
  C201     1.0000 0.64025  0.37842  0.06684  Biso   1.000  C
  C202     1.0000 0.70061  0.45451  0.08832  Biso   1.000  C
  C203     1.0000 0.34742  0.57871  0.09812  Biso   1.000  C
  H313     1.0000 0.37080  0.53779  0.16071  Biso   1.000  H
  C204     1.0000 0.40188  0.65258  0.07871  Biso   1.000  C
  H314     1.0000 0.46221  0.66071  0.12920  Biso   1.000  H
  N27      1.0000 0.53346  0.28436  0.03885  Biso   1.000  N
  H315     1.0000 0.60331  0.30529  0.01128  Biso   1.000  H
  H316     1.0000 0.60690  0.27019  0.06110  Biso   1.000  H
  H317     1.0000 0.66071  0.37080  0.03779  Biso   1.000  H
  N28      1.0000 0.71564  0.46115  0.03346  Biso   1.000  N
  H318     1.0000 0.69471  0.48872  0.10331  Biso   1.000  H
  H319     1.0000 0.72981  0.43890  0.10690  Biso   1.000  H
  C205     1.0000 0.29939  0.54549  0.08832  Biso   1.000  C
  C206     1.0000 0.35975  0.62158  0.06684  Biso   1.000  C
  C207     1.0000 0.41168  0.70061  0.04549  Biso   1.000  C
  C208     1.0000 0.50000  0.32411  0.00000  Biso   1.000  C
  H320     1.0000 0.51698  0.30458  0.01999  Biso   1.000  H
  C209     1.0000 0.52725  0.23614  0.01097  Biso   1.000  C
  C210     1.0000 0.76386  0.48903  0.02725  Biso   1.000  C
  C211     1.0000 0.67589  0.50000  0.00000  Biso   1.000  C
  H321     1.0000 0.69542  0.48001  0.01698  Biso   1.000  H
  N29      1.0000 0.28436  0.53885  0.03346  Biso   1.000  N
  H322     1.0000 0.30529  0.51128  0.10331  Biso   1.000  H
  H323     1.0000 0.27019  0.56110  0.10690  Biso   1.000  H
  H324     1.0000 0.33929  0.62920  0.03779  Biso   1.000  H
  N30      1.0000 0.46654  0.71564  0.03885  Biso   1.000  N
  H325     1.0000 0.39669  0.69471  0.01128  Biso   1.000  H
  H326     1.0000 0.39310  0.72981  0.06110  Biso   1.000  H
  C212     1.0000 0.47579  0.36541  0.02889  Biso   1.000  C
  N31      1.0000 0.46654  0.28436  0.96115  Biso   1.000  N
  C213     1.0000 0.52421  0.36541  0.97111  Biso   1.000  C
  H327     1.0000 0.48302  0.30458  0.98001  Biso   1.000  H
  C214     1.0000 0.47275  0.23614  0.98903  Biso   1.000  C
  C215     1.0000 0.53612  0.18804  0.04389  Biso   1.000  C
  H328     1.0000 0.55208  0.23571  0.98181  Biso   1.000  H
  C216     1.0000 0.81196  0.45611  0.03612  Biso   1.000  C
  H329     1.0000 0.76429  0.51819  0.05208  Biso   1.000  H
  C217     1.0000 0.76386  0.51097  0.97275  Biso   1.000  C
  C218     1.0000 0.63459  0.52889  0.02421  Biso   1.000  C
  N32      1.0000 0.71564  0.53885  0.96654  Biso   1.000  N
  C219     1.0000 0.63459  0.47111  0.97579  Biso   1.000  C
  H330     1.0000 0.69542  0.51999  0.98302  Biso   1.000  H
  C220     1.0000 0.32411  0.50000  0.00000  Biso   1.000  C
  H331     1.0000 0.30458  0.51999  0.01698  Biso   1.000  H
  C221     1.0000 0.23614  0.51097  0.02725  Biso   1.000  C
  C222     1.0000 0.50000  0.67589  0.00000  Biso   1.000  C
  C223     1.0000 0.47275  0.76386  0.01097  Biso   1.000  C
  H332     1.0000 0.48302  0.69542  0.01999  Biso   1.000  H
  H333     1.0000 0.50180  0.38361  0.04888  Biso   1.000  H
  H334     1.0000 0.45010  0.35101  0.05208  Biso   1.000  H
  H335     1.0000 0.45932  0.38931  0.00519  Biso   1.000  H
  C224     1.0000 0.41168  0.29939  0.95451  Biso   1.000  C
  H336     1.0000 0.49820  0.38361  0.95112  Biso   1.000  H
  H337     1.0000 0.54990  0.35101  0.94792  Biso   1.000  H
  H338     1.0000 0.54068  0.38931  0.99481  Biso   1.000  H
  H339     1.0000 0.44792  0.23571  0.01819  Biso   1.000  H
  C225     1.0000 0.46388  0.18804  0.95611  Biso   1.000  C
  H340     1.0000 0.51269  0.18851  0.07360  Biso   1.000  H
  H341     1.0000 0.57169  0.18800  0.05689  Biso   1.000  H
  C226     1.0000 0.52655  0.13829  0.01140  Biso   1.000  C
  H342     1.0000 0.81149  0.42640  0.01269  Biso   1.000  H
  H343     1.0000 0.81200  0.44311  0.07169  Biso   1.000  H
  C227     1.0000 0.86171  0.48860  0.02655  Biso   1.000  C
  C228     1.0000 0.81196  0.54389  0.96388  Biso   1.000  C
  H344     1.0000 0.76429  0.48181  0.94792  Biso   1.000  H
  H345     1.0000 0.64899  0.55208  0.04990  Biso   1.000  H
  H346     1.0000 0.61069  0.50519  0.04068  Biso   1.000  H
  H347     1.0000 0.61639  0.54888  0.99820  Biso   1.000  H
  C229     1.0000 0.70061  0.54549  0.91168  Biso   1.000  C
  H348     1.0000 0.61639  0.45112  0.00180  Biso   1.000  H
  H349     1.0000 0.64899  0.44792  0.95010  Biso   1.000  H
  H350     1.0000 0.61069  0.49481  0.95932  Biso   1.000  H
  N33      1.0000 0.28436  0.46115  0.96654  Biso   1.000  N
  H351     1.0000 0.30458  0.48001  0.98302  Biso   1.000  H
  C230     1.0000 0.36541  0.47111  0.02421  Biso   1.000  C
  C231     1.0000 0.36541  0.52889  0.97579  Biso   1.000  C
  C232     1.0000 0.23614  0.48903  0.97275  Biso   1.000  C
  C233     1.0000 0.18804  0.54389  0.03612  Biso   1.000  C
  H352     1.0000 0.23571  0.48181  0.05208  Biso   1.000  H
  N34      1.0000 0.53346  0.71564  0.96115  Biso   1.000  N
  H353     1.0000 0.51698  0.69542  0.98001  Biso   1.000  H
  C234     1.0000 0.52421  0.63459  0.02889  Biso   1.000  C
  C235     1.0000 0.47579  0.63459  0.97111  Biso   1.000  C
  C236     1.0000 0.52725  0.76386  0.98903  Biso   1.000  C
  C237     1.0000 0.46388  0.81196  0.04389  Biso   1.000  C
  H354     1.0000 0.44792  0.76429  0.98181  Biso   1.000  H
  C238     1.0000 0.40188  0.34742  0.92129  Biso   1.000  C
  H355     1.0000 0.39669  0.30529  0.98872  Biso   1.000  H
  H356     1.0000 0.39310  0.27019  0.93890  Biso   1.000  H
  H357     1.0000 0.48731  0.18851  0.92640  Biso   1.000  H
  H358     1.0000 0.42831  0.18800  0.94311  Biso   1.000  H
  C239     1.0000 0.47345  0.13829  0.98860  Biso   1.000  C
  H359     1.0000 0.53069  0.10780  0.03362  Biso   1.000  H
  H360     1.0000 0.55220  0.13619  0.98372  Biso   1.000  H
  H361     1.0000 0.86381  0.51628  0.05220  Biso   1.000  H
  H362     1.0000 0.89220  0.46638  0.03069  Biso   1.000  H
  C240     1.0000 0.86171  0.51140  0.97345  Biso   1.000  C
  H363     1.0000 0.81149  0.57360  0.98731  Biso   1.000  H
  H364     1.0000 0.81200  0.55689  0.92831  Biso   1.000  H
  C241     1.0000 0.65258  0.57871  0.90188  Biso   1.000  C
  H365     1.0000 0.69471  0.51128  0.89669  Biso   1.000  H
  H366     1.0000 0.72981  0.56110  0.89310  Biso   1.000  H
  C242     1.0000 0.29939  0.45451  0.91168  Biso   1.000  C
  H367     1.0000 0.35101  0.44792  0.04990  Biso   1.000  H
  H368     1.0000 0.38931  0.49481  0.04068  Biso   1.000  H
  H369     1.0000 0.38361  0.45112  0.99820  Biso   1.000  H
  H370     1.0000 0.38361  0.54888  0.00180  Biso   1.000  H
  H371     1.0000 0.35101  0.55208  0.95010  Biso   1.000  H
  H372     1.0000 0.38931  0.50519  0.95932  Biso   1.000  H
  C243     1.0000 0.18804  0.45611  0.96388  Biso   1.000  C
  H373     1.0000 0.23571  0.51819  0.94792  Biso   1.000  H
  H374     1.0000 0.18851  0.57360  0.01269  Biso   1.000  H
  H375     1.0000 0.18800  0.55689  0.07169  Biso   1.000  H
  C244     1.0000 0.13829  0.51140  0.02655  Biso   1.000  C
  C245     1.0000 0.58832  0.70061  0.95451  Biso   1.000  C
  H376     1.0000 0.49820  0.61639  0.04888  Biso   1.000  H
  H377     1.0000 0.54990  0.64899  0.05208  Biso   1.000  H
  H378     1.0000 0.54068  0.61069  0.00519  Biso   1.000  H
  H379     1.0000 0.50180  0.61639  0.95112  Biso   1.000  H
  H380     1.0000 0.45010  0.64899  0.94792  Biso   1.000  H
  H381     1.0000 0.45932  0.61069  0.99481  Biso   1.000  H
  H382     1.0000 0.55208  0.76429  0.01819  Biso   1.000  H
  C246     1.0000 0.53612  0.81196  0.95611  Biso   1.000  C
  H383     1.0000 0.48731  0.81149  0.07360  Biso   1.000  H
  H384     1.0000 0.42831  0.81200  0.05689  Biso   1.000  H
  C247     1.0000 0.47345  0.86171  0.01140  Biso   1.000  C
  C248     1.0000 0.35975  0.37842  0.93316  Biso   1.000  C
  C249     1.0000 0.43316  0.35975  0.87842  Biso   1.000  C
  H385     1.0000 0.44780  0.13619  0.01628  Biso   1.000  H
  H386     1.0000 0.46931  0.10780  0.96638  Biso   1.000  H
  H387     1.0000 0.86381  0.48372  0.94780  Biso   1.000  H
  H388     1.0000 0.89220  0.53362  0.96931  Biso   1.000  H
  C250     1.0000 0.64025  0.62158  0.93316  Biso   1.000  C
  C251     1.0000 0.62158  0.56684  0.85975  Biso   1.000  C
  C252     1.0000 0.34742  0.42129  0.90188  Biso   1.000  C
  H389     1.0000 0.30529  0.48872  0.89669  Biso   1.000  H
  H390     1.0000 0.27019  0.43890  0.89310  Biso   1.000  H
  H391     1.0000 0.18851  0.42640  0.98731  Biso   1.000  H
  H392     1.0000 0.18800  0.44311  0.92831  Biso   1.000  H
  C253     1.0000 0.13829  0.48860  0.97345  Biso   1.000  C
  H393     1.0000 0.13619  0.48372  0.05220  Biso   1.000  H
  H394     1.0000 0.10780  0.53362  0.03069  Biso   1.000  H
  C254     1.0000 0.59812  0.65258  0.92129  Biso   1.000  C
  H395     1.0000 0.60331  0.69471  0.98872  Biso   1.000  H
  H396     1.0000 0.60690  0.72981  0.93890  Biso   1.000  H
  H397     1.0000 0.51269  0.81149  0.92640  Biso   1.000  H
  H398     1.0000 0.57169  0.81200  0.94311  Biso   1.000  H
  C255     1.0000 0.52655  0.86171  0.98860  Biso   1.000  C
  H399     1.0000 0.46931  0.89220  0.03362  Biso   1.000  H
  H400     1.0000 0.44780  0.86381  0.98372  Biso   1.000  H
  H401     1.0000 0.33929  0.37080  0.96221  Biso   1.000  H
  C256     1.0000 0.42129  0.40188  0.84742  Biso   1.000  C
  H402     1.0000 0.46221  0.33929  0.87080  Biso   1.000  H
  H403     1.0000 0.66071  0.62920  0.96221  Biso   1.000  H
  C257     1.0000 0.57871  0.59812  0.84742  Biso   1.000  C
  H404     1.0000 0.62920  0.53779  0.83929  Biso   1.000  H
  C258     1.0000 0.37842  0.43316  0.85975  Biso   1.000  C
  H405     1.0000 0.13619  0.51628  0.94780  Biso   1.000  H
  H406     1.0000 0.10780  0.46638  0.96931  Biso   1.000  H
  C259     1.0000 0.56684  0.64025  0.87842  Biso   1.000  C
  H407     1.0000 0.55220  0.86381  0.01628  Biso   1.000  H
  H408     1.0000 0.53069  0.89220  0.96638  Biso   1.000  H
  C260     1.0000 0.45451  0.41168  0.79939  Biso   1.000  C
  C261     1.0000 0.54549  0.58832  0.79939  Biso   1.000  C
  H409     1.0000 0.37080  0.46221  0.83929  Biso   1.000  H
  H410     1.0000 0.53779  0.66071  0.87080  Biso   1.000  H
  N35      1.0000 0.46115  0.46654  0.78436  Biso   1.000  N
  H411     1.0000 0.48872  0.39669  0.80529  Biso   1.000  H
  H412     1.0000 0.43890  0.39310  0.77019  Biso   1.000  H
  N36      1.0000 0.53885  0.53346  0.78436  Biso   1.000  N
  H413     1.0000 0.51128  0.60331  0.80529  Biso   1.000  H
  H414     1.0000 0.56110  0.60690  0.77019  Biso   1.000  H
  C262     1.0000 0.48903  0.47275  0.73614  Biso   1.000  C
  C263     1.0000 0.50000  0.50000  0.82411  Biso   1.000  C
  H415     1.0000 0.48001  0.48302  0.80458  Biso   1.000  H
  C264     1.0000 0.51097  0.52725  0.73614  Biso   1.000  C
  H416     1.0000 0.51999  0.51698  0.80458  Biso   1.000  H
  C265     1.0000 0.45611  0.46388  0.68804  Biso   1.000  C
  H417     1.0000 0.51819  0.44792  0.73571  Biso   1.000  H
  C266     1.0000 0.52889  0.47579  0.86541  Biso   1.000  C
  C267     1.0000 0.47111  0.52421  0.86541  Biso   1.000  C
  C268     1.0000 0.54389  0.53612  0.68804  Biso   1.000  C
  H418     1.0000 0.48181  0.55208  0.73571  Biso   1.000  H
  H419     1.0000 0.42640  0.48731  0.68851  Biso   1.000  H
  H420     1.0000 0.44311  0.42831  0.68800  Biso   1.000  H
  C269     1.0000 0.48860  0.47345  0.63829  Biso   1.000  C
  H421     1.0000 0.54888  0.50180  0.88361  Biso   1.000  H
  H422     1.0000 0.55208  0.45010  0.85101  Biso   1.000  H
  H423     1.0000 0.50519  0.45932  0.88931  Biso   1.000  H
  H424     1.0000 0.45112  0.49820  0.88361  Biso   1.000  H
  H425     1.0000 0.44792  0.54990  0.85101  Biso   1.000  H
  H426     1.0000 0.49481  0.54068  0.88931  Biso   1.000  H
  C270     1.0000 0.51140  0.52655  0.63829  Biso   1.000  C
  H427     1.0000 0.57360  0.51269  0.68851  Biso   1.000  H
  H428     1.0000 0.55689  0.57169  0.68800  Biso   1.000  H
  H429     1.0000 0.51628  0.44780  0.63619  Biso   1.000  H
  H430     1.0000 0.46638  0.46931  0.60780  Biso   1.000  H
  H431     1.0000 0.48372  0.55220  0.63619  Biso   1.000  H
  H432     1.0000 0.53362  0.53069  0.60780  Biso   1.000  H
  C271     1.0000 0.51097  0.47275  0.26386  Biso   1.000  C
  N37      1.0000 0.53885  0.46654  0.21564  Biso   1.000  N
  C272     1.0000 0.54389  0.46388  0.31196  Biso   1.000  C
  H433     1.0000 0.48181  0.44792  0.26429  Biso   1.000  H
  C273     1.0000 0.48903  0.52725  0.26386  Biso   1.000  C
  C274     1.0000 0.54549  0.41168  0.20061  Biso   1.000  C
  C275     1.0000 0.50000  0.50000  0.17589  Biso   1.000  C
  H434     1.0000 0.51999  0.48302  0.19542  Biso   1.000  H
  H435     1.0000 0.57360  0.48731  0.31149  Biso   1.000  H
  H436     1.0000 0.55689  0.42831  0.31200  Biso   1.000  H
  C276     1.0000 0.51140  0.47345  0.36171  Biso   1.000  C
  N38      1.0000 0.46115  0.53346  0.21564  Biso   1.000  N
  C277     1.0000 0.45611  0.53612  0.31196  Biso   1.000  C
  H437     1.0000 0.51819  0.55208  0.26429  Biso   1.000  H
  C278     1.0000 0.57871  0.40188  0.15258  Biso   1.000  C
  H438     1.0000 0.51128  0.39669  0.19471  Biso   1.000  H
  H439     1.0000 0.56110  0.39310  0.22981  Biso   1.000  H
  C279     1.0000 0.47111  0.47579  0.13459  Biso   1.000  C
  C280     1.0000 0.52889  0.52421  0.13459  Biso   1.000  C
  H440     1.0000 0.48001  0.51698  0.19542  Biso   1.000  H
  H441     1.0000 0.48372  0.44780  0.36381  Biso   1.000  H
  H442     1.0000 0.53362  0.46931  0.39220  Biso   1.000  H
  C281     1.0000 0.48860  0.52655  0.36171  Biso   1.000  C
  C282     1.0000 0.45451  0.58832  0.20061  Biso   1.000  C
  H443     1.0000 0.42640  0.51269  0.31149  Biso   1.000  H
  H444     1.0000 0.44311  0.57169  0.31200  Biso   1.000  H
  C283     1.0000 0.56684  0.35975  0.12158  Biso   1.000  C
  C284     1.0000 0.62158  0.43316  0.14025  Biso   1.000  C
  H445     1.0000 0.45112  0.50180  0.11639  Biso   1.000  H
  H446     1.0000 0.44792  0.45010  0.14899  Biso   1.000  H
  H447     1.0000 0.49481  0.45932  0.11069  Biso   1.000  H
  H448     1.0000 0.54888  0.49820  0.11639  Biso   1.000  H
  H449     1.0000 0.55208  0.54990  0.14899  Biso   1.000  H
  H450     1.0000 0.50519  0.54068  0.11069  Biso   1.000  H
  H451     1.0000 0.51628  0.55220  0.36381  Biso   1.000  H
  H452     1.0000 0.46638  0.53069  0.39220  Biso   1.000  H
  C285     1.0000 0.42129  0.59812  0.15258  Biso   1.000  C
  H453     1.0000 0.48872  0.60331  0.19471  Biso   1.000  H
  H454     1.0000 0.43890  0.60690  0.22981  Biso   1.000  H
  C286     1.0000 0.59812  0.34742  0.07871  Biso   1.000  C
  H455     1.0000 0.53779  0.33929  0.12920  Biso   1.000  H
  C287     1.0000 0.65258  0.42129  0.09812  Biso   1.000  C
  H456     1.0000 0.62920  0.46221  0.16071  Biso   1.000  H
  C288     1.0000 0.37842  0.56684  0.14025  Biso   1.000  C
  C289     1.0000 0.43316  0.64025  0.12158  Biso   1.000  C
  C290     1.0000 0.58832  0.29939  0.04549  Biso   1.000  C
  C291     1.0000 0.64025  0.37842  0.06684  Biso   1.000  C
  C292     1.0000 0.70061  0.45451  0.08832  Biso   1.000  C
  C293     1.0000 0.34742  0.57871  0.09812  Biso   1.000  C
  H457     1.0000 0.37080  0.53779  0.16071  Biso   1.000  H
  C294     1.0000 0.40188  0.65258  0.07871  Biso   1.000  C
  H458     1.0000 0.46221  0.66071  0.12920  Biso   1.000  H
  N39      1.0000 0.53346  0.28436  0.03885  Biso   1.000  N
  H459     1.0000 0.60331  0.30529  0.01128  Biso   1.000  H
  H460     1.0000 0.60690  0.27019  0.06110  Biso   1.000  H
  H461     1.0000 0.66071  0.37080  0.03779  Biso   1.000  H
  N40      1.0000 0.71564  0.46115  0.03346  Biso   1.000  N
  H462     1.0000 0.69471  0.48872  0.10331  Biso   1.000  H
  H463     1.0000 0.72981  0.43890  0.10690  Biso   1.000  H
  C295     1.0000 0.29939  0.54549  0.08832  Biso   1.000  C
  C296     1.0000 0.35975  0.62158  0.06684  Biso   1.000  C
  C297     1.0000 0.41168  0.70061  0.04549  Biso   1.000  C
  C298     1.0000 0.50000  0.32411  0.00000  Biso   1.000  C
  H464     1.0000 0.51698  0.30458  0.01999  Biso   1.000  H
  C299     1.0000 0.52725  0.23614  0.01097  Biso   1.000  C
  C300     1.0000 0.76386  0.48903  0.02725  Biso   1.000  C
  C301     1.0000 0.67589  0.50000  0.00000  Biso   1.000  C
  H465     1.0000 0.69542  0.48001  0.01698  Biso   1.000  H
  N41      1.0000 0.28436  0.53885  0.03346  Biso   1.000  N
  H466     1.0000 0.30529  0.51128  0.10331  Biso   1.000  H
  H467     1.0000 0.27019  0.56110  0.10690  Biso   1.000  H
  H468     1.0000 0.33929  0.62920  0.03779  Biso   1.000  H
  N42      1.0000 0.46654  0.71564  0.03885  Biso   1.000  N
  H469     1.0000 0.39669  0.69471  0.01128  Biso   1.000  H
  H470     1.0000 0.39310  0.72981  0.06110  Biso   1.000  H
  C302     1.0000 0.47579  0.36541  0.02889  Biso   1.000  C
  N43      1.0000 0.46654  0.28436  0.96115  Biso   1.000  N
  C303     1.0000 0.52421  0.36541  0.97111  Biso   1.000  C
  H471     1.0000 0.48302  0.30458  0.98001  Biso   1.000  H
  C304     1.0000 0.47275  0.23614  0.98903  Biso   1.000  C
  C305     1.0000 0.53612  0.18804  0.04389  Biso   1.000  C
  H472     1.0000 0.55208  0.23571  0.98181  Biso   1.000  H
  C306     1.0000 0.81196  0.45611  0.03612  Biso   1.000  C
  H473     1.0000 0.76429  0.51819  0.05208  Biso   1.000  H
  C307     1.0000 0.76386  0.51097  0.97275  Biso   1.000  C
  C308     1.0000 0.63459  0.52889  0.02421  Biso   1.000  C
  N44      1.0000 0.71564  0.53885  0.96654  Biso   1.000  N
  C309     1.0000 0.63459  0.47111  0.97579  Biso   1.000  C
  H474     1.0000 0.69542  0.51999  0.98302  Biso   1.000  H
  C310     1.0000 0.32411  0.50000  0.00000  Biso   1.000  C
  H475     1.0000 0.30458  0.51999  0.01698  Biso   1.000  H
  C311     1.0000 0.23614  0.51097  0.02725  Biso   1.000  C
  C312     1.0000 0.50000  0.67589  0.00000  Biso   1.000  C
  C313     1.0000 0.47275  0.76386  0.01097  Biso   1.000  C
  H476     1.0000 0.48302  0.69542  0.01999  Biso   1.000  H
  H477     1.0000 0.50180  0.38361  0.04888  Biso   1.000  H
  H478     1.0000 0.45010  0.35101  0.05208  Biso   1.000  H
  H479     1.0000 0.45932  0.38931  0.00519  Biso   1.000  H
  C314     1.0000 0.41168  0.29939  0.95451  Biso   1.000  C
  H480     1.0000 0.49820  0.38361  0.95112  Biso   1.000  H
  H481     1.0000 0.54990  0.35101  0.94792  Biso   1.000  H
  H482     1.0000 0.54068  0.38931  0.99481  Biso   1.000  H
  H483     1.0000 0.44792  0.23571  0.01819  Biso   1.000  H
  C315     1.0000 0.46388  0.18804  0.95611  Biso   1.000  C
  H484     1.0000 0.51269  0.18851  0.07360  Biso   1.000  H
  H485     1.0000 0.57169  0.18800  0.05689  Biso   1.000  H
  C316     1.0000 0.52655  0.13829  0.01140  Biso   1.000  C
  H486     1.0000 0.81149  0.42640  0.01269  Biso   1.000  H
  H487     1.0000 0.81200  0.44311  0.07169  Biso   1.000  H
  C317     1.0000 0.86171  0.48860  0.02655  Biso   1.000  C
  C318     1.0000 0.81196  0.54389  0.96388  Biso   1.000  C
  H488     1.0000 0.76429  0.48181  0.94792  Biso   1.000  H
  H489     1.0000 0.64899  0.55208  0.04990  Biso   1.000  H
  H490     1.0000 0.61069  0.50519  0.04068  Biso   1.000  H
  H491     1.0000 0.61639  0.54888  0.99820  Biso   1.000  H
  C319     1.0000 0.70061  0.54549  0.91168  Biso   1.000  C
  H492     1.0000 0.61639  0.45112  0.00180  Biso   1.000  H
  H493     1.0000 0.64899  0.44792  0.95010  Biso   1.000  H
  H494     1.0000 0.61069  0.49481  0.95932  Biso   1.000  H
  N45      1.0000 0.28436  0.46115  0.96654  Biso   1.000  N
  H495     1.0000 0.30458  0.48001  0.98302  Biso   1.000  H
  C320     1.0000 0.36541  0.47111  0.02421  Biso   1.000  C
  C321     1.0000 0.36541  0.52889  0.97579  Biso   1.000  C
  C322     1.0000 0.23614  0.48903  0.97275  Biso   1.000  C
  C323     1.0000 0.18804  0.54389  0.03612  Biso   1.000  C
  H496     1.0000 0.23571  0.48181  0.05208  Biso   1.000  H
  N46      1.0000 0.53346  0.71564  0.96115  Biso   1.000  N
  H497     1.0000 0.51698  0.69542  0.98001  Biso   1.000  H
  C324     1.0000 0.52421  0.63459  0.02889  Biso   1.000  C
  C325     1.0000 0.47579  0.63459  0.97111  Biso   1.000  C
  C326     1.0000 0.52725  0.76386  0.98903  Biso   1.000  C
  C327     1.0000 0.46388  0.81196  0.04389  Biso   1.000  C
  H498     1.0000 0.44792  0.76429  0.98181  Biso   1.000  H
  C328     1.0000 0.40188  0.34742  0.92129  Biso   1.000  C
  H499     1.0000 0.39669  0.30529  0.98872  Biso   1.000  H
  H500     1.0000 0.39310  0.27019  0.93890  Biso   1.000  H
  H501     1.0000 0.48731  0.18851  0.92640  Biso   1.000  H
  H502     1.0000 0.42831  0.18800  0.94311  Biso   1.000  H
  C329     1.0000 0.47345  0.13829  0.98860  Biso   1.000  C
  H503     1.0000 0.53069  0.10780  0.03362  Biso   1.000  H
  H504     1.0000 0.55220  0.13619  0.98372  Biso   1.000  H
  H505     1.0000 0.86381  0.51628  0.05220  Biso   1.000  H
  H506     1.0000 0.89220  0.46638  0.03069  Biso   1.000  H
  C330     1.0000 0.86171  0.51140  0.97345  Biso   1.000  C
  H507     1.0000 0.81149  0.57360  0.98731  Biso   1.000  H
  H508     1.0000 0.81200  0.55689  0.92831  Biso   1.000  H
  C331     1.0000 0.65258  0.57871  0.90188  Biso   1.000  C
  H509     1.0000 0.69471  0.51128  0.89669  Biso   1.000  H
  H510     1.0000 0.72981  0.56110  0.89310  Biso   1.000  H
  C332     1.0000 0.29939  0.45451  0.91168  Biso   1.000  C
  H511     1.0000 0.35101  0.44792  0.04990  Biso   1.000  H
  H512     1.0000 0.38931  0.49481  0.04068  Biso   1.000  H
  H513     1.0000 0.38361  0.45112  0.99820  Biso   1.000  H
  H514     1.0000 0.38361  0.54888  0.00180  Biso   1.000  H
  H515     1.0000 0.35101  0.55208  0.95010  Biso   1.000  H
  H516     1.0000 0.38931  0.50519  0.95932  Biso   1.000  H
  C333     1.0000 0.18804  0.45611  0.96388  Biso   1.000  C
  H517     1.0000 0.23571  0.51819  0.94792  Biso   1.000  H
  H518     1.0000 0.18851  0.57360  0.01269  Biso   1.000  H
  H519     1.0000 0.18800  0.55689  0.07169  Biso   1.000  H
  C334     1.0000 0.13829  0.51140  0.02655  Biso   1.000  C
  C335     1.0000 0.58832  0.70061  0.95451  Biso   1.000  C
  H520     1.0000 0.49820  0.61639  0.04888  Biso   1.000  H
  H521     1.0000 0.54990  0.64899  0.05208  Biso   1.000  H
  H522     1.0000 0.54068  0.61069  0.00519  Biso   1.000  H
  H523     1.0000 0.50180  0.61639  0.95112  Biso   1.000  H
  H524     1.0000 0.45010  0.64899  0.94792  Biso   1.000  H
  H525     1.0000 0.45932  0.61069  0.99481  Biso   1.000  H
  H526     1.0000 0.55208  0.76429  0.01819  Biso   1.000  H
  C336     1.0000 0.53612  0.81196  0.95611  Biso   1.000  C
  H527     1.0000 0.48731  0.81149  0.07360  Biso   1.000  H
  H528     1.0000 0.42831  0.81200  0.05689  Biso   1.000  H
  C337     1.0000 0.47345  0.86171  0.01140  Biso   1.000  C
  C338     1.0000 0.35975  0.37842  0.93316  Biso   1.000  C
  C339     1.0000 0.43316  0.35975  0.87842  Biso   1.000  C
  H529     1.0000 0.44780  0.13619  0.01628  Biso   1.000  H
  H530     1.0000 0.46931  0.10780  0.96638  Biso   1.000  H
  H531     1.0000 0.86381  0.48372  0.94780  Biso   1.000  H
  H532     1.0000 0.89220  0.53362  0.96931  Biso   1.000  H
  C340     1.0000 0.64025  0.62158  0.93316  Biso   1.000  C
  C341     1.0000 0.62158  0.56684  0.85975  Biso   1.000  C
  C342     1.0000 0.34742  0.42129  0.90188  Biso   1.000  C
  H533     1.0000 0.30529  0.48872  0.89669  Biso   1.000  H
  H534     1.0000 0.27019  0.43890  0.89310  Biso   1.000  H
  H535     1.0000 0.18851  0.42640  0.98731  Biso   1.000  H
  H536     1.0000 0.18800  0.44311  0.92831  Biso   1.000  H
  C343     1.0000 0.13829  0.48860  0.97345  Biso   1.000  C
  H537     1.0000 0.13619  0.48372  0.05220  Biso   1.000  H
  H538     1.0000 0.10780  0.53362  0.03069  Biso   1.000  H
  C344     1.0000 0.59812  0.65258  0.92129  Biso   1.000  C
  H539     1.0000 0.60331  0.69471  0.98872  Biso   1.000  H
  H540     1.0000 0.60690  0.72981  0.93890  Biso   1.000  H
  H541     1.0000 0.51269  0.81149  0.92640  Biso   1.000  H
  H542     1.0000 0.57169  0.81200  0.94311  Biso   1.000  H
  C345     1.0000 0.52655  0.86171  0.98860  Biso   1.000  C
  H543     1.0000 0.46931  0.89220  0.03362  Biso   1.000  H
  H544     1.0000 0.44780  0.86381  0.98372  Biso   1.000  H
  H545     1.0000 0.33929  0.37080  0.96221  Biso   1.000  H
  C346     1.0000 0.42129  0.40188  0.84742  Biso   1.000  C
  H546     1.0000 0.46221  0.33929  0.87080  Biso   1.000  H
  H547     1.0000 0.66071  0.62920  0.96221  Biso   1.000  H
  C347     1.0000 0.57871  0.59812  0.84742  Biso   1.000  C
  H548     1.0000 0.62920  0.53779  0.83929  Biso   1.000  H
  C348     1.0000 0.37842  0.43316  0.85975  Biso   1.000  C
  H549     1.0000 0.13619  0.51628  0.94780  Biso   1.000  H
  H550     1.0000 0.10780  0.46638  0.96931  Biso   1.000  H
  C349     1.0000 0.56684  0.64025  0.87842  Biso   1.000  C
  H551     1.0000 0.55220  0.86381  0.01628  Biso   1.000  H
  H552     1.0000 0.53069  0.89220  0.96638  Biso   1.000  H
  C350     1.0000 0.45451  0.41168  0.79939  Biso   1.000  C
  C351     1.0000 0.54549  0.58832  0.79939  Biso   1.000  C
  H553     1.0000 0.37080  0.46221  0.83929  Biso   1.000  H
  H554     1.0000 0.53779  0.66071  0.87080  Biso   1.000  H
  N47      1.0000 0.46115  0.46654  0.78436  Biso   1.000  N
  H555     1.0000 0.48872  0.39669  0.80529  Biso   1.000  H
  H556     1.0000 0.43890  0.39310  0.77019  Biso   1.000  H
  N48      1.0000 0.53885  0.53346  0.78436  Biso   1.000  N
  H557     1.0000 0.51128  0.60331  0.80529  Biso   1.000  H
  H558     1.0000 0.56110  0.60690  0.77019  Biso   1.000  H
  C352     1.0000 0.48903  0.47275  0.73614  Biso   1.000  C
  C353     1.0000 0.50000  0.50000  0.82411  Biso   1.000  C
  H559     1.0000 0.48001  0.48302  0.80458  Biso   1.000  H
  C354     1.0000 0.51097  0.52725  0.73614  Biso   1.000  C
  H560     1.0000 0.51999  0.51698  0.80458  Biso   1.000  H
  C355     1.0000 0.45611  0.46388  0.68804  Biso   1.000  C
  H561     1.0000 0.51819  0.44792  0.73571  Biso   1.000  H
  C356     1.0000 0.52889  0.47579  0.86541  Biso   1.000  C
  C357     1.0000 0.47111  0.52421  0.86541  Biso   1.000  C
  C358     1.0000 0.54389  0.53612  0.68804  Biso   1.000  C
  H562     1.0000 0.48181  0.55208  0.73571  Biso   1.000  H
  H563     1.0000 0.42640  0.48731  0.68851  Biso   1.000  H
  H564     1.0000 0.44311  0.42831  0.68800  Biso   1.000  H
  C359     1.0000 0.48860  0.47345  0.63829  Biso   1.000  C
  H565     1.0000 0.54888  0.50180  0.88361  Biso   1.000  H
  H566     1.0000 0.55208  0.45010  0.85101  Biso   1.000  H
  H567     1.0000 0.50519  0.45932  0.88931  Biso   1.000  H
  H568     1.0000 0.45112  0.49820  0.88361  Biso   1.000  H
  H569     1.0000 0.44792  0.54990  0.85101  Biso   1.000  H
  H570     1.0000 0.49481  0.54068  0.88931  Biso   1.000  H
  C360     1.0000 0.51140  0.52655  0.63829  Biso   1.000  C
  H571     1.0000 0.57360  0.51269  0.68851  Biso   1.000  H
  H572     1.0000 0.55689  0.57169  0.68800  Biso   1.000  H
  H573     1.0000 0.51628  0.44780  0.63619  Biso   1.000  H
  H574     1.0000 0.46638  0.46931  0.60780  Biso   1.000  H
  H575     1.0000 0.48372  0.55220  0.63619  Biso   1.000  H
  H576     1.0000 0.53362  0.53069  0.60780  Biso   1.000  H
  C361     1.0000 0.51097  0.47275  0.26386  Biso   1.000  C
  N49      1.0000 0.53885  0.46654  0.21564  Biso   1.000  N
  H577     1.0000 0.48181  0.44792  0.26429  Biso   1.000  H
  C362     1.0000 0.54389  0.46388  0.31196  Biso   1.000  C
  C363     1.0000 0.48903  0.52725  0.26386  Biso   1.000  C
  C364     1.0000 0.54549  0.41168  0.20061  Biso   1.000  C
  C365     1.0000 0.50000  0.50000  0.17589  Biso   1.000  C
  H578     1.0000 0.51999  0.48302  0.19542  Biso   1.000  H
  H579     1.0000 0.57360  0.48731  0.31149  Biso   1.000  H
  H580     1.0000 0.55689  0.42831  0.31200  Biso   1.000  H
  C366     1.0000 0.51140  0.47345  0.36171  Biso   1.000  C
  N50      1.0000 0.46115  0.53346  0.21564  Biso   1.000  N
  H581     1.0000 0.51819  0.55208  0.26429  Biso   1.000  H
  C367     1.0000 0.45611  0.53612  0.31196  Biso   1.000  C
  C368     1.0000 0.57871  0.40188  0.15258  Biso   1.000  C
  H582     1.0000 0.51128  0.39669  0.19471  Biso   1.000  H
  H583     1.0000 0.56110  0.39310  0.22981  Biso   1.000  H
  C369     1.0000 0.47111  0.47579  0.13459  Biso   1.000  C
  C370     1.0000 0.52889  0.52421  0.13459  Biso   1.000  C
  H584     1.0000 0.48001  0.51698  0.19542  Biso   1.000  H
  H585     1.0000 0.48372  0.44780  0.36381  Biso   1.000  H
  H586     1.0000 0.53362  0.46931  0.39220  Biso   1.000  H
  C371     1.0000 0.48860  0.52655  0.36171  Biso   1.000  C
  C372     1.0000 0.45451  0.58832  0.20061  Biso   1.000  C
  H587     1.0000 0.42640  0.51269  0.31149  Biso   1.000  H
  H588     1.0000 0.44311  0.57169  0.31200  Biso   1.000  H
  C373     1.0000 0.56684  0.35975  0.12158  Biso   1.000  C
  C374     1.0000 0.62158  0.43316  0.14025  Biso   1.000  C
  H589     1.0000 0.45112  0.50180  0.11639  Biso   1.000  H
  H590     1.0000 0.44792  0.45010  0.14899  Biso   1.000  H
  H591     1.0000 0.49481  0.45932  0.11069  Biso   1.000  H
  H592     1.0000 0.54888  0.49820  0.11639  Biso   1.000  H
  H593     1.0000 0.55208  0.54990  0.14899  Biso   1.000  H
  H594     1.0000 0.50519  0.54068  0.11069  Biso   1.000  H
  H595     1.0000 0.51628  0.55220  0.36381  Biso   1.000  H
  H596     1.0000 0.46638  0.53069  0.39220  Biso   1.000  H
  H597     1.0000 0.48872  0.60331  0.19471  Biso   1.000  H
  H598     1.0000 0.43890  0.60690  0.22981  Biso   1.000  H
  C375     1.0000 0.42129  0.59812  0.15258  Biso   1.000  C
  C376     1.0000 0.59812  0.34742  0.07871  Biso   1.000  C
  H599     1.0000 0.53779  0.33929  0.12920  Biso   1.000  H
  C377     1.0000 0.65258  0.42129  0.09812  Biso   1.000  C
  H600     1.0000 0.62920  0.46221  0.16071  Biso   1.000  H
  C378     1.0000 0.37842  0.56684  0.14025  Biso   1.000  C
  C379     1.0000 0.43316  0.64025  0.12158  Biso   1.000  C
  C380     1.0000 0.58832  0.29939  0.04549  Biso   1.000  C
  C381     1.0000 0.64025  0.37842  0.06684  Biso   1.000  C
  C382     1.0000 0.70061  0.45451  0.08832  Biso   1.000  C
  C383     1.0000 0.34742  0.57871  0.09812  Biso   1.000  C
  H601     1.0000 0.37080  0.53779  0.16071  Biso   1.000  H
  C384     1.0000 0.40188  0.65258  0.07871  Biso   1.000  C
  H602     1.0000 0.46221  0.66071  0.12920  Biso   1.000  H
  N51      1.0000 0.53346  0.28436  0.03885  Biso   1.000  N
  H603     1.0000 0.60331  0.30529  0.01128  Biso   1.000  H
  H604     1.0000 0.60690  0.27019  0.06110  Biso   1.000  H
  H605     1.0000 0.66071  0.37080  0.03779  Biso   1.000  H
  N52      1.0000 0.71564  0.46115  0.03346  Biso   1.000  N
  H606     1.0000 0.69471  0.48872  0.10331  Biso   1.000  H
  H607     1.0000 0.72981  0.43890  0.10690  Biso   1.000  H
  C385     1.0000 0.29939  0.54549  0.08832  Biso   1.000  C
  C386     1.0000 0.35975  0.62158  0.06684  Biso   1.000  C
  C387     1.0000 0.41168  0.70061  0.04549  Biso   1.000  C
  C388     1.0000 0.50000  0.32411  0.00000  Biso   1.000  C
  C389     1.0000 0.52725  0.23614  0.01097  Biso   1.000  C
  H608     1.0000 0.51698  0.30458  0.01999  Biso   1.000  H
  C390     1.0000 0.76386  0.48903  0.02725  Biso   1.000  C
  C391     1.0000 0.67589  0.50000  0.00000  Biso   1.000  C
  H609     1.0000 0.69542  0.48001  0.01698  Biso   1.000  H
  N53      1.0000 0.28436  0.53885  0.03346  Biso   1.000  N
  H610     1.0000 0.30529  0.51128  0.10331  Biso   1.000  H
  H611     1.0000 0.27019  0.56110  0.10690  Biso   1.000  H
  H612     1.0000 0.33929  0.62920  0.03779  Biso   1.000  H
  N54      1.0000 0.46654  0.71564  0.03885  Biso   1.000  N
  H613     1.0000 0.39669  0.69471  0.01128  Biso   1.000  H
  H614     1.0000 0.39310  0.72981  0.06110  Biso   1.000  H
  N55      1.0000 0.46654  0.28436  0.96115  Biso   1.000  N
  C392     1.0000 0.52421  0.36541  0.97111  Biso   1.000  C
  H615     1.0000 0.48302  0.30458  0.98001  Biso   1.000  H
  C393     1.0000 0.47579  0.36541  0.02889  Biso   1.000  C
  C394     1.0000 0.47275  0.23614  0.98903  Biso   1.000  C
  H616     1.0000 0.55208  0.23571  0.98181  Biso   1.000  H
  C395     1.0000 0.53612  0.18804  0.04389  Biso   1.000  C
  H617     1.0000 0.76429  0.51819  0.05208  Biso   1.000  H
  C396     1.0000 0.76386  0.51097  0.97275  Biso   1.000  C
  C397     1.0000 0.81196  0.45611  0.03612  Biso   1.000  C
  N56      1.0000 0.71564  0.53885  0.96654  Biso   1.000  N
  C398     1.0000 0.63459  0.47111  0.97579  Biso   1.000  C
  H618     1.0000 0.69542  0.51999  0.98302  Biso   1.000  H
  C399     1.0000 0.63459  0.52889  0.02421  Biso   1.000  C
  C400     1.0000 0.32411  0.50000  0.00000  Biso   1.000  C
  C401     1.0000 0.23614  0.51097  0.02725  Biso   1.000  C
  H619     1.0000 0.30458  0.51999  0.01698  Biso   1.000  H
  C402     1.0000 0.50000  0.67589  0.00000  Biso   1.000  C
  C403     1.0000 0.47275  0.76386  0.01097  Biso   1.000  C
  H620     1.0000 0.48302  0.69542  0.01999  Biso   1.000  H
  C404     1.0000 0.41168  0.29939  0.95451  Biso   1.000  C
  H621     1.0000 0.49820  0.38361  0.95112  Biso   1.000  H
  H622     1.0000 0.54990  0.35101  0.94792  Biso   1.000  H
  H623     1.0000 0.54068  0.38931  0.99481  Biso   1.000  H
  H624     1.0000 0.50180  0.38361  0.04888  Biso   1.000  H
  H625     1.0000 0.45010  0.35101  0.05208  Biso   1.000  H
  H626     1.0000 0.45932  0.38931  0.00519  Biso   1.000  H
  H627     1.0000 0.44792  0.23571  0.01819  Biso   1.000  H
  C405     1.0000 0.46388  0.18804  0.95611  Biso   1.000  C
  H628     1.0000 0.51269  0.18851  0.07360  Biso   1.000  H
  H629     1.0000 0.57169  0.18800  0.05689  Biso   1.000  H
  C406     1.0000 0.52655  0.13829  0.01140  Biso   1.000  C
  C407     1.0000 0.81196  0.54389  0.96388  Biso   1.000  C
  H630     1.0000 0.76429  0.48181  0.94792  Biso   1.000  H
  H631     1.0000 0.81149  0.42640  0.01269  Biso   1.000  H
  H632     1.0000 0.81200  0.44311  0.07169  Biso   1.000  H
  C408     1.0000 0.86171  0.48860  0.02655  Biso   1.000  C
  C409     1.0000 0.70061  0.54549  0.91168  Biso   1.000  C
  H633     1.0000 0.64899  0.44792  0.95010  Biso   1.000  H
  H634     1.0000 0.61069  0.49481  0.95932  Biso   1.000  H
  H635     1.0000 0.61639  0.45112  0.00180  Biso   1.000  H
  H636     1.0000 0.61639  0.54888  0.99820  Biso   1.000  H
  H637     1.0000 0.64899  0.55208  0.04990  Biso   1.000  H
  H638     1.0000 0.61069  0.50519  0.04068  Biso   1.000  H
  N57      1.0000 0.28436  0.46115  0.96654  Biso   1.000  N
  H639     1.0000 0.30458  0.48001  0.98302  Biso   1.000  H
  C410     1.0000 0.36541  0.52889  0.97579  Biso   1.000  C
  C411     1.0000 0.36541  0.47111  0.02421  Biso   1.000  C
  C412     1.0000 0.23614  0.48903  0.97275  Biso   1.000  C
  H640     1.0000 0.23571  0.48181  0.05208  Biso   1.000  H
  C413     1.0000 0.18804  0.54389  0.03612  Biso   1.000  C
  N58      1.0000 0.53346  0.71564  0.96115  Biso   1.000  N
  H641     1.0000 0.51698  0.69542  0.98001  Biso   1.000  H
  C414     1.0000 0.47579  0.63459  0.97111  Biso   1.000  C
  C415     1.0000 0.52421  0.63459  0.02889  Biso   1.000  C
  C416     1.0000 0.52725  0.76386  0.98903  Biso   1.000  C
  H642     1.0000 0.44792  0.76429  0.98181  Biso   1.000  H
  C417     1.0000 0.46388  0.81196  0.04389  Biso   1.000  C
  C418     1.0000 0.40188  0.34742  0.92129  Biso   1.000  C
  H643     1.0000 0.39669  0.30529  0.98872  Biso   1.000  H
  H644     1.0000 0.39310  0.27019  0.93890  Biso   1.000  H
  H645     1.0000 0.48731  0.18851  0.92640  Biso   1.000  H
  H646     1.0000 0.42831  0.18800  0.94311  Biso   1.000  H
  C419     1.0000 0.47345  0.13829  0.98860  Biso   1.000  C
  H647     1.0000 0.55220  0.13619  0.98372  Biso   1.000  H
  H648     1.0000 0.53069  0.10780  0.03362  Biso   1.000  H
  H649     1.0000 0.81149  0.57360  0.98731  Biso   1.000  H
  H650     1.0000 0.81200  0.55689  0.92831  Biso   1.000  H
  C420     1.0000 0.86171  0.51140  0.97345  Biso   1.000  C
  H651     1.0000 0.86381  0.51628  0.05220  Biso   1.000  H
  H652     1.0000 0.89220  0.46638  0.03069  Biso   1.000  H
  C421     1.0000 0.65258  0.57871  0.90188  Biso   1.000  C
  H653     1.0000 0.69471  0.51128  0.89669  Biso   1.000  H
  H654     1.0000 0.72981  0.56110  0.89310  Biso   1.000  H
  C422     1.0000 0.29939  0.45451  0.91168  Biso   1.000  C
  H655     1.0000 0.35101  0.55208  0.95010  Biso   1.000  H
  H656     1.0000 0.38931  0.50519  0.95932  Biso   1.000  H
  H657     1.0000 0.38361  0.54888  0.00180  Biso   1.000  H
  H658     1.0000 0.38361  0.45112  0.99820  Biso   1.000  H
  H659     1.0000 0.35101  0.44792  0.04990  Biso   1.000  H
  H660     1.0000 0.38931  0.49481  0.04068  Biso   1.000  H
  C423     1.0000 0.18804  0.45611  0.96388  Biso   1.000  C
  H661     1.0000 0.23571  0.51819  0.94792  Biso   1.000  H
  C424     1.0000 0.13829  0.51140  0.02655  Biso   1.000  C
  H662     1.0000 0.18851  0.57360  0.01269  Biso   1.000  H
  H663     1.0000 0.18800  0.55689  0.07169  Biso   1.000  H
  C425     1.0000 0.58832  0.70061  0.95451  Biso   1.000  C
  H664     1.0000 0.50180  0.61639  0.95112  Biso   1.000  H
  H665     1.0000 0.45010  0.64899  0.94792  Biso   1.000  H
  H666     1.0000 0.45932  0.61069  0.99481  Biso   1.000  H
  H667     1.0000 0.49820  0.61639  0.04888  Biso   1.000  H
  H668     1.0000 0.54990  0.64899  0.05208  Biso   1.000  H
  H669     1.0000 0.54068  0.61069  0.00519  Biso   1.000  H
  H670     1.0000 0.55208  0.76429  0.01819  Biso   1.000  H
  C426     1.0000 0.53612  0.81196  0.95611  Biso   1.000  C
  H671     1.0000 0.48731  0.81149  0.07360  Biso   1.000  H
  H672     1.0000 0.42831  0.81200  0.05689  Biso   1.000  H
  C427     1.0000 0.47345  0.86171  0.01140  Biso   1.000  C
  C428     1.0000 0.35975  0.37842  0.93316  Biso   1.000  C
  C429     1.0000 0.43316  0.35975  0.87842  Biso   1.000  C
  H673     1.0000 0.46931  0.10780  0.96638  Biso   1.000  H
  H674     1.0000 0.44780  0.13619  0.01628  Biso   1.000  H
  H675     1.0000 0.86381  0.48372  0.94780  Biso   1.000  H
  H676     1.0000 0.89220  0.53362  0.96931  Biso   1.000  H
  C430     1.0000 0.64025  0.62158  0.93316  Biso   1.000  C
  C431     1.0000 0.62158  0.56684  0.85975  Biso   1.000  C
  C432     1.0000 0.34742  0.42129  0.90188  Biso   1.000  C
  H677     1.0000 0.30529  0.48872  0.89669  Biso   1.000  H
  H678     1.0000 0.27019  0.43890  0.89310  Biso   1.000  H
  H679     1.0000 0.18851  0.42640  0.98731  Biso   1.000  H
  H680     1.0000 0.18800  0.44311  0.92831  Biso   1.000  H
  C433     1.0000 0.13829  0.48860  0.97345  Biso   1.000  C
  H681     1.0000 0.13619  0.48372  0.05220  Biso   1.000  H
  H682     1.0000 0.10780  0.53362  0.03069  Biso   1.000  H
  C434     1.0000 0.59812  0.65258  0.92129  Biso   1.000  C
  H683     1.0000 0.60331  0.69471  0.98872  Biso   1.000  H
  H684     1.0000 0.60690  0.72981  0.93890  Biso   1.000  H
  H685     1.0000 0.51269  0.81149  0.92640  Biso   1.000  H
  H686     1.0000 0.57169  0.81200  0.94311  Biso   1.000  H
  C435     1.0000 0.52655  0.86171  0.98860  Biso   1.000  C
  H687     1.0000 0.44780  0.86381  0.98372  Biso   1.000  H
  H688     1.0000 0.46931  0.89220  0.03362  Biso   1.000  H
  H689     1.0000 0.33929  0.37080  0.96221  Biso   1.000  H
  C436     1.0000 0.42129  0.40188  0.84742  Biso   1.000  C
  H690     1.0000 0.46221  0.33929  0.87080  Biso   1.000  H
  H691     1.0000 0.66071  0.62920  0.96221  Biso   1.000  H
  C437     1.0000 0.57871  0.59812  0.84742  Biso   1.000  C
  H692     1.0000 0.62920  0.53779  0.83929  Biso   1.000  H
  C438     1.0000 0.37842  0.43316  0.85975  Biso   1.000  C
  H693     1.0000 0.13619  0.51628  0.94780  Biso   1.000  H
  H694     1.0000 0.10780  0.46638  0.96931  Biso   1.000  H
  C439     1.0000 0.56684  0.64025  0.87842  Biso   1.000  C
  H695     1.0000 0.53069  0.89220  0.96638  Biso   1.000  H
  H696     1.0000 0.55220  0.86381  0.01628  Biso   1.000  H
  C440     1.0000 0.45451  0.41168  0.79939  Biso   1.000  C
  C441     1.0000 0.54549  0.58832  0.79939  Biso   1.000  C
  H697     1.0000 0.37080  0.46221  0.83929  Biso   1.000  H
  H698     1.0000 0.53779  0.66071  0.87080  Biso   1.000  H
  N59      1.0000 0.46115  0.46654  0.78436  Biso   1.000  N
  H699     1.0000 0.48872  0.39669  0.80529  Biso   1.000  H
  H700     1.0000 0.43890  0.39310  0.77019  Biso   1.000  H
  N60      1.0000 0.53885  0.53346  0.78436  Biso   1.000  N
  H701     1.0000 0.51128  0.60331  0.80529  Biso   1.000  H
  H702     1.0000 0.56110  0.60690  0.77019  Biso   1.000  H
  C442     1.0000 0.48903  0.47275  0.73614  Biso   1.000  C
  C443     1.0000 0.50000  0.50000  0.82411  Biso   1.000  C
  H703     1.0000 0.48001  0.48302  0.80458  Biso   1.000  H
  C444     1.0000 0.51097  0.52725  0.73614  Biso   1.000  C
  H704     1.0000 0.51999  0.51698  0.80458  Biso   1.000  H
  C445     1.0000 0.45611  0.46388  0.68804  Biso   1.000  C
  H705     1.0000 0.51819  0.44792  0.73571  Biso   1.000  H
  C446     1.0000 0.52889  0.47579  0.86541  Biso   1.000  C
  C447     1.0000 0.47111  0.52421  0.86541  Biso   1.000  C
  C448     1.0000 0.54389  0.53612  0.68804  Biso   1.000  C
  H706     1.0000 0.48181  0.55208  0.73571  Biso   1.000  H
  H707     1.0000 0.42640  0.48731  0.68851  Biso   1.000  H
  H708     1.0000 0.44311  0.42831  0.68800  Biso   1.000  H
  C449     1.0000 0.48860  0.47345  0.63829  Biso   1.000  C
  H709     1.0000 0.54888  0.50180  0.88361  Biso   1.000  H
  H710     1.0000 0.55208  0.45010  0.85101  Biso   1.000  H
  H711     1.0000 0.50519  0.45932  0.88931  Biso   1.000  H
  H712     1.0000 0.45112  0.49820  0.88361  Biso   1.000  H
  H713     1.0000 0.44792  0.54990  0.85101  Biso   1.000  H
  H714     1.0000 0.49481  0.54068  0.88931  Biso   1.000  H
  C450     1.0000 0.51140  0.52655  0.63829  Biso   1.000  C
  H715     1.0000 0.57360  0.51269  0.68851  Biso   1.000  H
  H716     1.0000 0.55689  0.57169  0.68800  Biso   1.000  H
  H717     1.0000 0.51628  0.44780  0.63619  Biso   1.000  H
  H718     1.0000 0.46638  0.46931  0.60780  Biso   1.000  H
  H719     1.0000 0.48372  0.55220  0.63619  Biso   1.000  H
  H720     1.0000 0.53362  0.53069  0.60780  Biso   1.000  H
  C451     1.0000 0.47275  0.26386  0.51097  Biso   1.000  C
  N61      1.0000 0.46654  0.21564  0.53885  Biso   1.000  N
  C452     1.0000 0.52725  0.26386  0.48903  Biso   1.000  C
  C453     1.0000 0.46388  0.31196  0.54389  Biso   1.000  C
  H721     1.0000 0.44792  0.26429  0.48181  Biso   1.000  H
  C454     1.0000 0.50000  0.17589  0.50000  Biso   1.000  C
  H722     1.0000 0.48302  0.19542  0.51999  Biso   1.000  H
  C455     1.0000 0.41168  0.20061  0.54549  Biso   1.000  C
  N62      1.0000 0.53346  0.21564  0.46115  Biso   1.000  N
  C456     1.0000 0.53612  0.31196  0.45611  Biso   1.000  C
  H723     1.0000 0.55208  0.26429  0.51819  Biso   1.000  H
  H724     1.0000 0.48731  0.31149  0.57360  Biso   1.000  H
  H725     1.0000 0.42831  0.31200  0.55689  Biso   1.000  H
  C457     1.0000 0.47345  0.36171  0.51140  Biso   1.000  C
  C458     1.0000 0.47579  0.13459  0.47111  Biso   1.000  C
  C459     1.0000 0.52421  0.13459  0.52889  Biso   1.000  C
  H726     1.0000 0.51698  0.19542  0.48001  Biso   1.000  H
  C460     1.0000 0.40188  0.15258  0.57871  Biso   1.000  C
  H727     1.0000 0.39669  0.19471  0.51128  Biso   1.000  H
  H728     1.0000 0.39310  0.22981  0.56110  Biso   1.000  H
  C461     1.0000 0.58832  0.20061  0.45451  Biso   1.000  C
  H729     1.0000 0.51269  0.31149  0.42640  Biso   1.000  H
  H730     1.0000 0.57169  0.31200  0.44311  Biso   1.000  H
  C462     1.0000 0.52655  0.36171  0.48860  Biso   1.000  C
  H731     1.0000 0.44780  0.36381  0.48372  Biso   1.000  H
  H732     1.0000 0.46931  0.39220  0.53362  Biso   1.000  H
  H733     1.0000 0.50180  0.11639  0.45112  Biso   1.000  H
  H734     1.0000 0.45010  0.14899  0.44792  Biso   1.000  H
  H735     1.0000 0.45932  0.11069  0.49481  Biso   1.000  H
  H736     1.0000 0.49820  0.11639  0.54888  Biso   1.000  H
  H737     1.0000 0.54990  0.14899  0.55208  Biso   1.000  H
  H738     1.0000 0.54068  0.11069  0.50519  Biso   1.000  H
  C463     1.0000 0.35975  0.12158  0.56684  Biso   1.000  C
  C464     1.0000 0.43316  0.14025  0.62158  Biso   1.000  C
  C465     1.0000 0.59812  0.15258  0.42129  Biso   1.000  C
  H739     1.0000 0.60331  0.19471  0.48872  Biso   1.000  H
  H740     1.0000 0.60690  0.22981  0.43890  Biso   1.000  H
  H741     1.0000 0.55220  0.36381  0.51628  Biso   1.000  H
  H742     1.0000 0.53069  0.39220  0.46638  Biso   1.000  H
  H743     1.0000 0.33929  0.12920  0.53779  Biso   1.000  H
  C466     1.0000 0.34742  0.07871  0.59812  Biso   1.000  C
  C467     1.0000 0.42129  0.09812  0.65258  Biso   1.000  C
  H744     1.0000 0.46221  0.16071  0.62920  Biso   1.000  H
  C468     1.0000 0.56684  0.14025  0.37842  Biso   1.000  C
  C469     1.0000 0.64025  0.12158  0.43316  Biso   1.000  C
  C470     1.0000 0.37842  0.06684  0.64025  Biso   1.000  C
  C471     1.0000 0.29939  0.04549  0.58832  Biso   1.000  C
  C472     1.0000 0.45451  0.08832  0.70061  Biso   1.000  C
  C473     1.0000 0.57871  0.09812  0.34742  Biso   1.000  C
  H745     1.0000 0.53779  0.16071  0.37080  Biso   1.000  H
  H746     1.0000 0.66071  0.12920  0.46221  Biso   1.000  H
  C474     1.0000 0.65258  0.07871  0.40188  Biso   1.000  C
  H747     1.0000 0.37080  0.03779  0.66071  Biso   1.000  H
  N63      1.0000 0.28436  0.03885  0.53346  Biso   1.000  N
  H748     1.0000 0.30529  0.01128  0.60331  Biso   1.000  H
  H749     1.0000 0.27019  0.06110  0.60690  Biso   1.000  H
  N64      1.0000 0.46115  0.03346  0.71564  Biso   1.000  N
  H750     1.0000 0.48872  0.10331  0.69471  Biso   1.000  H
  H751     1.0000 0.43890  0.10690  0.72981  Biso   1.000  H
  C475     1.0000 0.54549  0.08832  0.29939  Biso   1.000  C
  C476     1.0000 0.62158  0.06684  0.35975  Biso   1.000  C
  C477     1.0000 0.70061  0.04549  0.41168  Biso   1.000  C
  C478     1.0000 0.32411  0.00000  0.50000  Biso   1.000  C
  C479     1.0000 0.23614  0.01097  0.52725  Biso   1.000  C
  H752     1.0000 0.30458  0.01999  0.51698  Biso   1.000  H
  C480     1.0000 0.48903  0.02725  0.76386  Biso   1.000  C
  C481     1.0000 0.50000  0.00000  0.67589  Biso   1.000  C
  H753     1.0000 0.48001  0.01698  0.69542  Biso   1.000  H
  N65      1.0000 0.53885  0.03346  0.28436  Biso   1.000  N
  H754     1.0000 0.51128  0.10331  0.30529  Biso   1.000  H
  H755     1.0000 0.56110  0.10690  0.27019  Biso   1.000  H
  H756     1.0000 0.62920  0.03779  0.33929  Biso   1.000  H
  N66      1.0000 0.71564  0.03885  0.46654  Biso   1.000  N
  H757     1.0000 0.69471  0.01128  0.39669  Biso   1.000  H
  H758     1.0000 0.72981  0.06110  0.39310  Biso   1.000  H
  C482     1.0000 0.36541  0.02889  0.47579  Biso   1.000  C
  N67      1.0000 0.28436  0.96115  0.46654  Biso   1.000  N
  C483     1.0000 0.36541  0.97111  0.52421  Biso   1.000  C
  H759     1.0000 0.30458  0.98001  0.48302  Biso   1.000  H
  C484     1.0000 0.18804  0.04389  0.53612  Biso   1.000  C
  C485     1.0000 0.23614  0.98903  0.47275  Biso   1.000  C
  H760     1.0000 0.23571  0.98181  0.55208  Biso   1.000  H
  C486     1.0000 0.45611  0.03612  0.81196  Biso   1.000  C
  H761     1.0000 0.51819  0.05208  0.76429  Biso   1.000  H
  C487     1.0000 0.51097  0.97275  0.76386  Biso   1.000  C
  C488     1.0000 0.52889  0.02421  0.63459  Biso   1.000  C
  N68      1.0000 0.53885  0.96654  0.71564  Biso   1.000  N
  C489     1.0000 0.47111  0.97579  0.63459  Biso   1.000  C
  H762     1.0000 0.51999  0.98302  0.69542  Biso   1.000  H
  C490     1.0000 0.51097  0.02725  0.23614  Biso   1.000  C
  C491     1.0000 0.50000  0.00000  0.32411  Biso   1.000  C
  H763     1.0000 0.51999  0.01698  0.30458  Biso   1.000  H
  C492     1.0000 0.76386  0.01097  0.47275  Biso   1.000  C
  C493     1.0000 0.67589  0.00000  0.50000  Biso   1.000  C
  H764     1.0000 0.69542  0.01999  0.48302  Biso   1.000  H
  H765     1.0000 0.38361  0.04888  0.50180  Biso   1.000  H
  H766     1.0000 0.35101  0.05208  0.45010  Biso   1.000  H
  H767     1.0000 0.38931  0.00519  0.45932  Biso   1.000  H
  C494     1.0000 0.29939  0.95451  0.41168  Biso   1.000  C
  H768     1.0000 0.38361  0.95112  0.49820  Biso   1.000  H
  H769     1.0000 0.35101  0.94792  0.54990  Biso   1.000  H
  H770     1.0000 0.38931  0.99481  0.54068  Biso   1.000  H
  H771     1.0000 0.18851  0.07360  0.51269  Biso   1.000  H
  H772     1.0000 0.18800  0.05689  0.57169  Biso   1.000  H
  C495     1.0000 0.13829  0.01140  0.52655  Biso   1.000  C
  H773     1.0000 0.23571  0.01819  0.44792  Biso   1.000  H
  C496     1.0000 0.18804  0.95611  0.46388  Biso   1.000  C
  H774     1.0000 0.42640  0.01269  0.81149  Biso   1.000  H
  H775     1.0000 0.44311  0.07169  0.81200  Biso   1.000  H
  C497     1.0000 0.48860  0.02655  0.86171  Biso   1.000  C
  C498     1.0000 0.54389  0.96388  0.81196  Biso   1.000  C
  H776     1.0000 0.48181  0.94792  0.76429  Biso   1.000  H
  H777     1.0000 0.55208  0.04990  0.64899  Biso   1.000  H
  H778     1.0000 0.50519  0.04068  0.61069  Biso   1.000  H
  H779     1.0000 0.54888  0.99820  0.61639  Biso   1.000  H
  C499     1.0000 0.54549  0.91168  0.70061  Biso   1.000  C
  H780     1.0000 0.45112  0.00180  0.61639  Biso   1.000  H
  H781     1.0000 0.44792  0.95010  0.64899  Biso   1.000  H
  H782     1.0000 0.49481  0.95932  0.61069  Biso   1.000  H
  C500     1.0000 0.54389  0.03612  0.18804  Biso   1.000  C
  H783     1.0000 0.48181  0.05208  0.23571  Biso   1.000  H
  C501     1.0000 0.48903  0.97275  0.23614  Biso   1.000  C
  C502     1.0000 0.47111  0.02421  0.36541  Biso   1.000  C
  N69      1.0000 0.46115  0.96654  0.28436  Biso   1.000  N
  C503     1.0000 0.52889  0.97579  0.36541  Biso   1.000  C
  H784     1.0000 0.48001  0.98302  0.30458  Biso   1.000  H
  C504     1.0000 0.81196  0.04389  0.46388  Biso   1.000  C
  H785     1.0000 0.76429  0.98181  0.44792  Biso   1.000  H
  C505     1.0000 0.76386  0.98903  0.52725  Biso   1.000  C
  C506     1.0000 0.63459  0.02889  0.52421  Biso   1.000  C
  C507     1.0000 0.63459  0.97111  0.47579  Biso   1.000  C
  N70      1.0000 0.71564  0.96115  0.53346  Biso   1.000  N
  H786     1.0000 0.69542  0.98001  0.51698  Biso   1.000  H
  C508     1.0000 0.34742  0.92129  0.40188  Biso   1.000  C
  H787     1.0000 0.30529  0.98872  0.39669  Biso   1.000  H
  H788     1.0000 0.27019  0.93890  0.39310  Biso   1.000  H
  H789     1.0000 0.10780  0.03362  0.53069  Biso   1.000  H
  C509     1.0000 0.13829  0.98860  0.47345  Biso   1.000  C
  H790     1.0000 0.13619  0.98372  0.55220  Biso   1.000  H
  H791     1.0000 0.18851  0.92640  0.48731  Biso   1.000  H
  H792     1.0000 0.18800  0.94311  0.42831  Biso   1.000  H
  H793     1.0000 0.51628  0.05220  0.86381  Biso   1.000  H
  H794     1.0000 0.46638  0.03069  0.89220  Biso   1.000  H
  C510     1.0000 0.51140  0.97345  0.86171  Biso   1.000  C
  H795     1.0000 0.57360  0.98731  0.81149  Biso   1.000  H
  H796     1.0000 0.55689  0.92831  0.81200  Biso   1.000  H
  C511     1.0000 0.57871  0.90188  0.65258  Biso   1.000  C
  H797     1.0000 0.51128  0.89669  0.69471  Biso   1.000  H
  H798     1.0000 0.56110  0.89310  0.72981  Biso   1.000  H
  H799     1.0000 0.57360  0.01269  0.18851  Biso   1.000  H
  H800     1.0000 0.55689  0.07169  0.18800  Biso   1.000  H
  C512     1.0000 0.51140  0.02655  0.13829  Biso   1.000  C
  C513     1.0000 0.45611  0.96388  0.18804  Biso   1.000  C
  H801     1.0000 0.51819  0.94792  0.23571  Biso   1.000  H
  H802     1.0000 0.44792  0.04990  0.35101  Biso   1.000  H
  H803     1.0000 0.49481  0.04068  0.38931  Biso   1.000  H
  H804     1.0000 0.45112  0.99820  0.38361  Biso   1.000  H
  C514     1.0000 0.45451  0.91168  0.29939  Biso   1.000  C
  H805     1.0000 0.54888  0.00180  0.38361  Biso   1.000  H
  H806     1.0000 0.55208  0.95010  0.35101  Biso   1.000  H
  H807     1.0000 0.50519  0.95932  0.38931  Biso   1.000  H
  H808     1.0000 0.81149  0.07360  0.48731  Biso   1.000  H
  H809     1.0000 0.81200  0.05689  0.42831  Biso   1.000  H
  C515     1.0000 0.86171  0.01140  0.47345  Biso   1.000  C
  H810     1.0000 0.76429  0.01819  0.55208  Biso   1.000  H
  C516     1.0000 0.81196  0.95611  0.53612  Biso   1.000  C
  H811     1.0000 0.61639  0.04888  0.49820  Biso   1.000  H
  H812     1.0000 0.64899  0.05208  0.54990  Biso   1.000  H
  H813     1.0000 0.61069  0.00519  0.54068  Biso   1.000  H
  H814     1.0000 0.61639  0.95112  0.50180  Biso   1.000  H
  H815     1.0000 0.64899  0.94792  0.45010  Biso   1.000  H
  H816     1.0000 0.61069  0.99481  0.45932  Biso   1.000  H
  C517     1.0000 0.70061  0.95451  0.58832  Biso   1.000  C
  C518     1.0000 0.37842  0.93316  0.35975  Biso   1.000  C
  C519     1.0000 0.35975  0.87842  0.43316  Biso   1.000  C
  H817     1.0000 0.13619  0.01628  0.44780  Biso   1.000  H
  H818     1.0000 0.10780  0.96638  0.46931  Biso   1.000  H
  H819     1.0000 0.48372  0.94780  0.86381  Biso   1.000  H
  H820     1.0000 0.53362  0.96931  0.89220  Biso   1.000  H
  C520     1.0000 0.62158  0.93316  0.64025  Biso   1.000  C
  C521     1.0000 0.56684  0.85975  0.62158  Biso   1.000  C
  H821     1.0000 0.48372  0.05220  0.13619  Biso   1.000  H
  H822     1.0000 0.53362  0.03069  0.10780  Biso   1.000  H
  C522     1.0000 0.48860  0.97345  0.13829  Biso   1.000  C
  H823     1.0000 0.42640  0.98731  0.18851  Biso   1.000  H
  H824     1.0000 0.44311  0.92831  0.18800  Biso   1.000  H
  C523     1.0000 0.42129  0.90188  0.34742  Biso   1.000  C
  H825     1.0000 0.48872  0.89669  0.30529  Biso   1.000  H
  H826     1.0000 0.43890  0.89310  0.27019  Biso   1.000  H
  H827     1.0000 0.89220  0.03362  0.46931  Biso   1.000  H
  H828     1.0000 0.86381  0.98372  0.44780  Biso   1.000  H
  C524     1.0000 0.86171  0.98860  0.52655  Biso   1.000  C
  H829     1.0000 0.81149  0.92640  0.51269  Biso   1.000  H
  H830     1.0000 0.81200  0.94311  0.57169  Biso   1.000  H
  C525     1.0000 0.65258  0.92129  0.59812  Biso   1.000  C
  H831     1.0000 0.69471  0.98872  0.60331  Biso   1.000  H
  H832     1.0000 0.72981  0.93890  0.60690  Biso   1.000  H
  H833     1.0000 0.37080  0.96221  0.33929  Biso   1.000  H
  C526     1.0000 0.40188  0.84742  0.42129  Biso   1.000  C
  H834     1.0000 0.33929  0.87080  0.46221  Biso   1.000  H
  H835     1.0000 0.62920  0.96221  0.66071  Biso   1.000  H
  C527     1.0000 0.59812  0.84742  0.57871  Biso   1.000  C
  H836     1.0000 0.53779  0.83929  0.62920  Biso   1.000  H
  H837     1.0000 0.51628  0.94780  0.13619  Biso   1.000  H
  H838     1.0000 0.46638  0.96931  0.10780  Biso   1.000  H
  C528     1.0000 0.43316  0.85975  0.37842  Biso   1.000  C
  H839     1.0000 0.86381  0.01628  0.55220  Biso   1.000  H
  H840     1.0000 0.89220  0.96638  0.53069  Biso   1.000  H
  C529     1.0000 0.64025  0.87842  0.56684  Biso   1.000  C
  C530     1.0000 0.41168  0.79939  0.45451  Biso   1.000  C
  C531     1.0000 0.58832  0.79939  0.54549  Biso   1.000  C
  H841     1.0000 0.46221  0.83929  0.37080  Biso   1.000  H
  H842     1.0000 0.66071  0.87080  0.53779  Biso   1.000  H
  N71      1.0000 0.46654  0.78436  0.46115  Biso   1.000  N
  H843     1.0000 0.39669  0.80529  0.48872  Biso   1.000  H
  H844     1.0000 0.39310  0.77019  0.43890  Biso   1.000  H
  N72      1.0000 0.53346  0.78436  0.53885  Biso   1.000  N
  H845     1.0000 0.60331  0.80529  0.51128  Biso   1.000  H
  H846     1.0000 0.60690  0.77019  0.56110  Biso   1.000  H
  C532     1.0000 0.47275  0.73614  0.48903  Biso   1.000  C
  C533     1.0000 0.50000  0.82411  0.50000  Biso   1.000  C
  H847     1.0000 0.48302  0.80458  0.48001  Biso   1.000  H
  C534     1.0000 0.52725  0.73614  0.51097  Biso   1.000  C
  H848     1.0000 0.51698  0.80458  0.51999  Biso   1.000  H
  C535     1.0000 0.46388  0.68804  0.45611  Biso   1.000  C
  H849     1.0000 0.44792  0.73571  0.51819  Biso   1.000  H
  C536     1.0000 0.47579  0.86541  0.52889  Biso   1.000  C
  C537     1.0000 0.52421  0.86541  0.47111  Biso   1.000  C
  C538     1.0000 0.53612  0.68804  0.54389  Biso   1.000  C
  H850     1.0000 0.55208  0.73571  0.48181  Biso   1.000  H
  H851     1.0000 0.48731  0.68851  0.42640  Biso   1.000  H
  H852     1.0000 0.42831  0.68800  0.44311  Biso   1.000  H
  C539     1.0000 0.47345  0.63829  0.48860  Biso   1.000  C
  H853     1.0000 0.50180  0.88361  0.54888  Biso   1.000  H
  H854     1.0000 0.45010  0.85101  0.55208  Biso   1.000  H
  H855     1.0000 0.45932  0.88931  0.50519  Biso   1.000  H
  H856     1.0000 0.49820  0.88361  0.45112  Biso   1.000  H
  H857     1.0000 0.54990  0.85101  0.44792  Biso   1.000  H
  H858     1.0000 0.54068  0.88931  0.49481  Biso   1.000  H
  H859     1.0000 0.51269  0.68851  0.57360  Biso   1.000  H
  H860     1.0000 0.57169  0.68800  0.55689  Biso   1.000  H
  C540     1.0000 0.52655  0.63829  0.51140  Biso   1.000  C
  H861     1.0000 0.44780  0.63619  0.51628  Biso   1.000  H
  H862     1.0000 0.46931  0.60780  0.46638  Biso   1.000  H
  H863     1.0000 0.55220  0.63619  0.48372  Biso   1.000  H
  H864     1.0000 0.53069  0.60780  0.53362  Biso   1.000  H
  C541     1.0000 0.47275  0.26386  0.51097  Biso   1.000  C
  N73      1.0000 0.46654  0.21564  0.53885  Biso   1.000  N
  C542     1.0000 0.52725  0.26386  0.48903  Biso   1.000  C
  C543     1.0000 0.46388  0.31196  0.54389  Biso   1.000  C
  H865     1.0000 0.44792  0.26429  0.48181  Biso   1.000  H
  C544     1.0000 0.50000  0.17589  0.50000  Biso   1.000  C
  H866     1.0000 0.48302  0.19542  0.51999  Biso   1.000  H
  C545     1.0000 0.41168  0.20061  0.54549  Biso   1.000  C
  N74      1.0000 0.53346  0.21564  0.46115  Biso   1.000  N
  C546     1.0000 0.53612  0.31196  0.45611  Biso   1.000  C
  H867     1.0000 0.55208  0.26429  0.51819  Biso   1.000  H
  H868     1.0000 0.48731  0.31149  0.57360  Biso   1.000  H
  H869     1.0000 0.42831  0.31200  0.55689  Biso   1.000  H
  C547     1.0000 0.47345  0.36171  0.51140  Biso   1.000  C
  C548     1.0000 0.47579  0.13459  0.47111  Biso   1.000  C
  C549     1.0000 0.52421  0.13459  0.52889  Biso   1.000  C
  H870     1.0000 0.51698  0.19542  0.48001  Biso   1.000  H
  C550     1.0000 0.40188  0.15258  0.57871  Biso   1.000  C
  H871     1.0000 0.39669  0.19471  0.51128  Biso   1.000  H
  H872     1.0000 0.39310  0.22981  0.56110  Biso   1.000  H
  C551     1.0000 0.58832  0.20061  0.45451  Biso   1.000  C
  H873     1.0000 0.51269  0.31149  0.42640  Biso   1.000  H
  H874     1.0000 0.57169  0.31200  0.44311  Biso   1.000  H
  C552     1.0000 0.52655  0.36171  0.48860  Biso   1.000  C
  H875     1.0000 0.44780  0.36381  0.48372  Biso   1.000  H
  H876     1.0000 0.46931  0.39220  0.53362  Biso   1.000  H
  H877     1.0000 0.50180  0.11639  0.45112  Biso   1.000  H
  H878     1.0000 0.45010  0.14899  0.44792  Biso   1.000  H
  H879     1.0000 0.45932  0.11069  0.49481  Biso   1.000  H
  H880     1.0000 0.49820  0.11639  0.54888  Biso   1.000  H
  H881     1.0000 0.54990  0.14899  0.55208  Biso   1.000  H
  H882     1.0000 0.54068  0.11069  0.50519  Biso   1.000  H
  C553     1.0000 0.35975  0.12158  0.56684  Biso   1.000  C
  C554     1.0000 0.43316  0.14025  0.62158  Biso   1.000  C
  C555     1.0000 0.59812  0.15258  0.42129  Biso   1.000  C
  H883     1.0000 0.60331  0.19471  0.48872  Biso   1.000  H
  H884     1.0000 0.60690  0.22981  0.43890  Biso   1.000  H
  H885     1.0000 0.55220  0.36381  0.51628  Biso   1.000  H
  H886     1.0000 0.53069  0.39220  0.46638  Biso   1.000  H
  H887     1.0000 0.33929  0.12920  0.53779  Biso   1.000  H
  C556     1.0000 0.34742  0.07871  0.59812  Biso   1.000  C
  C557     1.0000 0.42129  0.09812  0.65258  Biso   1.000  C
  H888     1.0000 0.46221  0.16071  0.62920  Biso   1.000  H
  C558     1.0000 0.56684  0.14025  0.37842  Biso   1.000  C
  C559     1.0000 0.64025  0.12158  0.43316  Biso   1.000  C
  C560     1.0000 0.37842  0.06684  0.64025  Biso   1.000  C
  C561     1.0000 0.29939  0.04549  0.58832  Biso   1.000  C
  C562     1.0000 0.45451  0.08832  0.70061  Biso   1.000  C
  C563     1.0000 0.57871  0.09812  0.34742  Biso   1.000  C
  H889     1.0000 0.53779  0.16071  0.37080  Biso   1.000  H
  H890     1.0000 0.66071  0.12920  0.46221  Biso   1.000  H
  C564     1.0000 0.65258  0.07871  0.40188  Biso   1.000  C
  H891     1.0000 0.37080  0.03779  0.66071  Biso   1.000  H
  N75      1.0000 0.28436  0.03885  0.53346  Biso   1.000  N
  H892     1.0000 0.30529  0.01128  0.60331  Biso   1.000  H
  H893     1.0000 0.27019  0.06110  0.60690  Biso   1.000  H
  N76      1.0000 0.46115  0.03346  0.71564  Biso   1.000  N
  H894     1.0000 0.48872  0.10331  0.69471  Biso   1.000  H
  H895     1.0000 0.43890  0.10690  0.72981  Biso   1.000  H
  C565     1.0000 0.54549  0.08832  0.29939  Biso   1.000  C
  C566     1.0000 0.62158  0.06684  0.35975  Biso   1.000  C
  C567     1.0000 0.70061  0.04549  0.41168  Biso   1.000  C
  C568     1.0000 0.32411  0.00000  0.50000  Biso   1.000  C
  C569     1.0000 0.23614  0.01097  0.52725  Biso   1.000  C
  H896     1.0000 0.30458  0.01999  0.51698  Biso   1.000  H
  C570     1.0000 0.48903  0.02725  0.76386  Biso   1.000  C
  C571     1.0000 0.50000  0.00000  0.67589  Biso   1.000  C
  H897     1.0000 0.48001  0.01698  0.69542  Biso   1.000  H
  N77      1.0000 0.53885  0.03346  0.28436  Biso   1.000  N
  H898     1.0000 0.51128  0.10331  0.30529  Biso   1.000  H
  H899     1.0000 0.56110  0.10690  0.27019  Biso   1.000  H
  H900     1.0000 0.62920  0.03779  0.33929  Biso   1.000  H
  N78      1.0000 0.71564  0.03885  0.46654  Biso   1.000  N
  H901     1.0000 0.69471  0.01128  0.39669  Biso   1.000  H
  H902     1.0000 0.72981  0.06110  0.39310  Biso   1.000  H
  C572     1.0000 0.36541  0.02889  0.47579  Biso   1.000  C
  N79      1.0000 0.28436  0.96115  0.46654  Biso   1.000  N
  C573     1.0000 0.36541  0.97111  0.52421  Biso   1.000  C
  H903     1.0000 0.30458  0.98001  0.48302  Biso   1.000  H
  C574     1.0000 0.18804  0.04389  0.53612  Biso   1.000  C
  C575     1.0000 0.23614  0.98903  0.47275  Biso   1.000  C
  H904     1.0000 0.23571  0.98181  0.55208  Biso   1.000  H
  C576     1.0000 0.45611  0.03612  0.81196  Biso   1.000  C
  H905     1.0000 0.51819  0.05208  0.76429  Biso   1.000  H
  C577     1.0000 0.51097  0.97275  0.76386  Biso   1.000  C
  C578     1.0000 0.52889  0.02421  0.63459  Biso   1.000  C
  N80      1.0000 0.53885  0.96654  0.71564  Biso   1.000  N
  C579     1.0000 0.47111  0.97579  0.63459  Biso   1.000  C
  H906     1.0000 0.51999  0.98302  0.69542  Biso   1.000  H
  C580     1.0000 0.51097  0.02725  0.23614  Biso   1.000  C
  C581     1.0000 0.50000  0.00000  0.32411  Biso   1.000  C
  H907     1.0000 0.51999  0.01698  0.30458  Biso   1.000  H
  C582     1.0000 0.76386  0.01097  0.47275  Biso   1.000  C
  C583     1.0000 0.67589  0.00000  0.50000  Biso   1.000  C
  H908     1.0000 0.69542  0.01999  0.48302  Biso   1.000  H
  H909     1.0000 0.38361  0.04888  0.50180  Biso   1.000  H
  H910     1.0000 0.35101  0.05208  0.45010  Biso   1.000  H
  H911     1.0000 0.38931  0.00519  0.45932  Biso   1.000  H
  C584     1.0000 0.29939  0.95451  0.41168  Biso   1.000  C
  H912     1.0000 0.38361  0.95112  0.49820  Biso   1.000  H
  H913     1.0000 0.35101  0.94792  0.54990  Biso   1.000  H
  H914     1.0000 0.38931  0.99481  0.54068  Biso   1.000  H
  H915     1.0000 0.18851  0.07360  0.51269  Biso   1.000  H
  H916     1.0000 0.18800  0.05689  0.57169  Biso   1.000  H
  C585     1.0000 0.13829  0.01140  0.52655  Biso   1.000  C
  H917     1.0000 0.23571  0.01819  0.44792  Biso   1.000  H
  C586     1.0000 0.18804  0.95611  0.46388  Biso   1.000  C
  H918     1.0000 0.42640  0.01269  0.81149  Biso   1.000  H
  H919     1.0000 0.44311  0.07169  0.81200  Biso   1.000  H
  C587     1.0000 0.48860  0.02655  0.86171  Biso   1.000  C
  C588     1.0000 0.54389  0.96388  0.81196  Biso   1.000  C
  H920     1.0000 0.48181  0.94792  0.76429  Biso   1.000  H
  H921     1.0000 0.55208  0.04990  0.64899  Biso   1.000  H
  H922     1.0000 0.50519  0.04068  0.61069  Biso   1.000  H
  H923     1.0000 0.54888  0.99820  0.61639  Biso   1.000  H
  C589     1.0000 0.54549  0.91168  0.70061  Biso   1.000  C
  H924     1.0000 0.45112  0.00180  0.61639  Biso   1.000  H
  H925     1.0000 0.44792  0.95010  0.64899  Biso   1.000  H
  H926     1.0000 0.49481  0.95932  0.61069  Biso   1.000  H
  C590     1.0000 0.54389  0.03612  0.18804  Biso   1.000  C
  H927     1.0000 0.48181  0.05208  0.23571  Biso   1.000  H
  C591     1.0000 0.48903  0.97275  0.23614  Biso   1.000  C
  C592     1.0000 0.47111  0.02421  0.36541  Biso   1.000  C
  N81      1.0000 0.46115  0.96654  0.28436  Biso   1.000  N
  C593     1.0000 0.52889  0.97579  0.36541  Biso   1.000  C
  H928     1.0000 0.48001  0.98302  0.30458  Biso   1.000  H
  C594     1.0000 0.81196  0.04389  0.46388  Biso   1.000  C
  H929     1.0000 0.76429  0.98181  0.44792  Biso   1.000  H
  C595     1.0000 0.76386  0.98903  0.52725  Biso   1.000  C
  C596     1.0000 0.63459  0.02889  0.52421  Biso   1.000  C
  C597     1.0000 0.63459  0.97111  0.47579  Biso   1.000  C
  N82      1.0000 0.71564  0.96115  0.53346  Biso   1.000  N
  H930     1.0000 0.69542  0.98001  0.51698  Biso   1.000  H
  C598     1.0000 0.34742  0.92129  0.40188  Biso   1.000  C
  H931     1.0000 0.30529  0.98872  0.39669  Biso   1.000  H
  H932     1.0000 0.27019  0.93890  0.39310  Biso   1.000  H
  H933     1.0000 0.10780  0.03362  0.53069  Biso   1.000  H
  C599     1.0000 0.13829  0.98860  0.47345  Biso   1.000  C
  H934     1.0000 0.13619  0.98372  0.55220  Biso   1.000  H
  H935     1.0000 0.18851  0.92640  0.48731  Biso   1.000  H
  H936     1.0000 0.18800  0.94311  0.42831  Biso   1.000  H
  H937     1.0000 0.51628  0.05220  0.86381  Biso   1.000  H
  H938     1.0000 0.46638  0.03069  0.89220  Biso   1.000  H
  C600     1.0000 0.51140  0.97345  0.86171  Biso   1.000  C
  H939     1.0000 0.57360  0.98731  0.81149  Biso   1.000  H
  H940     1.0000 0.55689  0.92831  0.81200  Biso   1.000  H
  C601     1.0000 0.57871  0.90188  0.65258  Biso   1.000  C
  H941     1.0000 0.51128  0.89669  0.69471  Biso   1.000  H
  H942     1.0000 0.56110  0.89310  0.72981  Biso   1.000  H
  H943     1.0000 0.57360  0.01269  0.18851  Biso   1.000  H
  H944     1.0000 0.55689  0.07169  0.18800  Biso   1.000  H
  C602     1.0000 0.51140  0.02655  0.13829  Biso   1.000  C
  C603     1.0000 0.45611  0.96388  0.18804  Biso   1.000  C
  H945     1.0000 0.51819  0.94792  0.23571  Biso   1.000  H
  H946     1.0000 0.44792  0.04990  0.35101  Biso   1.000  H
  H947     1.0000 0.49481  0.04068  0.38931  Biso   1.000  H
  H948     1.0000 0.45112  0.99820  0.38361  Biso   1.000  H
  C604     1.0000 0.45451  0.91168  0.29939  Biso   1.000  C
  H949     1.0000 0.54888  0.00180  0.38361  Biso   1.000  H
  H950     1.0000 0.55208  0.95010  0.35101  Biso   1.000  H
  H951     1.0000 0.50519  0.95932  0.38931  Biso   1.000  H
  H952     1.0000 0.81149  0.07360  0.48731  Biso   1.000  H
  H953     1.0000 0.81200  0.05689  0.42831  Biso   1.000  H
  C605     1.0000 0.86171  0.01140  0.47345  Biso   1.000  C
  H954     1.0000 0.76429  0.01819  0.55208  Biso   1.000  H
  C606     1.0000 0.81196  0.95611  0.53612  Biso   1.000  C
  H955     1.0000 0.61639  0.04888  0.49820  Biso   1.000  H
  H956     1.0000 0.64899  0.05208  0.54990  Biso   1.000  H
  H957     1.0000 0.61069  0.00519  0.54068  Biso   1.000  H
  H958     1.0000 0.61639  0.95112  0.50180  Biso   1.000  H
  H959     1.0000 0.64899  0.94792  0.45010  Biso   1.000  H
  H960     1.0000 0.61069  0.99481  0.45932  Biso   1.000  H
  C607     1.0000 0.70061  0.95451  0.58832  Biso   1.000  C
  C608     1.0000 0.37842  0.93316  0.35975  Biso   1.000  C
  C609     1.0000 0.35975  0.87842  0.43316  Biso   1.000  C
  H961     1.0000 0.13619  0.01628  0.44780  Biso   1.000  H
  H962     1.0000 0.10780  0.96638  0.46931  Biso   1.000  H
  H963     1.0000 0.48372  0.94780  0.86381  Biso   1.000  H
  H964     1.0000 0.53362  0.96931  0.89220  Biso   1.000  H
  C610     1.0000 0.62158  0.93316  0.64025  Biso   1.000  C
  C611     1.0000 0.56684  0.85975  0.62158  Biso   1.000  C
  H965     1.0000 0.48372  0.05220  0.13619  Biso   1.000  H
  H966     1.0000 0.53362  0.03069  0.10780  Biso   1.000  H
  C612     1.0000 0.48860  0.97345  0.13829  Biso   1.000  C
  H967     1.0000 0.42640  0.98731  0.18851  Biso   1.000  H
  H968     1.0000 0.44311  0.92831  0.18800  Biso   1.000  H
  C613     1.0000 0.42129  0.90188  0.34742  Biso   1.000  C
  H969     1.0000 0.48872  0.89669  0.30529  Biso   1.000  H
  H970     1.0000 0.43890  0.89310  0.27019  Biso   1.000  H
  H971     1.0000 0.89220  0.03362  0.46931  Biso   1.000  H
  H972     1.0000 0.86381  0.98372  0.44780  Biso   1.000  H
  C614     1.0000 0.86171  0.98860  0.52655  Biso   1.000  C
  H973     1.0000 0.81149  0.92640  0.51269  Biso   1.000  H
  H974     1.0000 0.81200  0.94311  0.57169  Biso   1.000  H
  C615     1.0000 0.65258  0.92129  0.59812  Biso   1.000  C
  H975     1.0000 0.69471  0.98872  0.60331  Biso   1.000  H
  H976     1.0000 0.72981  0.93890  0.60690  Biso   1.000  H
  H977     1.0000 0.37080  0.96221  0.33929  Biso   1.000  H
  C616     1.0000 0.40188  0.84742  0.42129  Biso   1.000  C
  H978     1.0000 0.33929  0.87080  0.46221  Biso   1.000  H
  H979     1.0000 0.62920  0.96221  0.66071  Biso   1.000  H
  C617     1.0000 0.59812  0.84742  0.57871  Biso   1.000  C
  H980     1.0000 0.53779  0.83929  0.62920  Biso   1.000  H
  H981     1.0000 0.51628  0.94780  0.13619  Biso   1.000  H
  H982     1.0000 0.46638  0.96931  0.10780  Biso   1.000  H
  C618     1.0000 0.43316  0.85975  0.37842  Biso   1.000  C
  H983     1.0000 0.86381  0.01628  0.55220  Biso   1.000  H
  H984     1.0000 0.89220  0.96638  0.53069  Biso   1.000  H
  C619     1.0000 0.64025  0.87842  0.56684  Biso   1.000  C
  C620     1.0000 0.41168  0.79939  0.45451  Biso   1.000  C
  C621     1.0000 0.58832  0.79939  0.54549  Biso   1.000  C
  H985     1.0000 0.46221  0.83929  0.37080  Biso   1.000  H
  H986     1.0000 0.66071  0.87080  0.53779  Biso   1.000  H
  N83      1.0000 0.46654  0.78436  0.46115  Biso   1.000  N
  H987     1.0000 0.39669  0.80529  0.48872  Biso   1.000  H
  H988     1.0000 0.39310  0.77019  0.43890  Biso   1.000  H
  N84      1.0000 0.53346  0.78436  0.53885  Biso   1.000  N
  H989     1.0000 0.60331  0.80529  0.51128  Biso   1.000  H
  H990     1.0000 0.60690  0.77019  0.56110  Biso   1.000  H
  C622     1.0000 0.47275  0.73614  0.48903  Biso   1.000  C
  C623     1.0000 0.50000  0.82411  0.50000  Biso   1.000  C
  H991     1.0000 0.48302  0.80458  0.48001  Biso   1.000  H
  C624     1.0000 0.52725  0.73614  0.51097  Biso   1.000  C
  H992     1.0000 0.51698  0.80458  0.51999  Biso   1.000  H
  C625     1.0000 0.46388  0.68804  0.45611  Biso   1.000  C
  H993     1.0000 0.44792  0.73571  0.51819  Biso   1.000  H
  C626     1.0000 0.47579  0.86541  0.52889  Biso   1.000  C
  C627     1.0000 0.52421  0.86541  0.47111  Biso   1.000  C
  C628     1.0000 0.53612  0.68804  0.54389  Biso   1.000  C
  H994     1.0000 0.55208  0.73571  0.48181  Biso   1.000  H
  H995     1.0000 0.48731  0.68851  0.42640  Biso   1.000  H
  H996     1.0000 0.42831  0.68800  0.44311  Biso   1.000  H
  C629     1.0000 0.47345  0.63829  0.48860  Biso   1.000  C
  H997     1.0000 0.50180  0.88361  0.54888  Biso   1.000  H
  H998     1.0000 0.45010  0.85101  0.55208  Biso   1.000  H
  H999     1.0000 0.45932  0.88931  0.50519  Biso   1.000  H
  H1000    1.0000 0.49820  0.88361  0.45112  Biso   1.000  H
  H1001    1.0000 0.54990  0.85101  0.44792  Biso   1.000  H
  H1002    1.0000 0.54068  0.88931  0.49481  Biso   1.000  H
  H1003    1.0000 0.51269  0.68851  0.57360  Biso   1.000  H
  H1004    1.0000 0.57169  0.68800  0.55689  Biso   1.000  H
  C630     1.0000 0.52655  0.63829  0.51140  Biso   1.000  C
  H1005    1.0000 0.44780  0.63619  0.51628  Biso   1.000  H
  H1006    1.0000 0.46931  0.60780  0.46638  Biso   1.000  H
  H1007    1.0000 0.55220  0.63619  0.48372  Biso   1.000  H
  H1008    1.0000 0.53069  0.60780  0.53362  Biso   1.000  H
  C631     1.0000 0.47275  0.26386  0.51097  Biso   1.000  C
  C632     1.0000 0.52725  0.26386  0.48903  Biso   1.000  C
  N85      1.0000 0.46654  0.21564  0.53885  Biso   1.000  N
  H1009    1.0000 0.44792  0.26429  0.48181  Biso   1.000  H
  C633     1.0000 0.46388  0.31196  0.54389  Biso   1.000  C
  N86      1.0000 0.53346  0.21564  0.46115  Biso   1.000  N
  H1010    1.0000 0.55208  0.26429  0.51819  Biso   1.000  H
  C634     1.0000 0.53612  0.31196  0.45611  Biso   1.000  C
  C635     1.0000 0.50000  0.17589  0.50000  Biso   1.000  C
  H1011    1.0000 0.48302  0.19542  0.51999  Biso   1.000  H
  C636     1.0000 0.41168  0.20061  0.54549  Biso   1.000  C
  C637     1.0000 0.47345  0.36171  0.51140  Biso   1.000  C
  H1012    1.0000 0.48731  0.31149  0.57360  Biso   1.000  H
  H1013    1.0000 0.42831  0.31200  0.55689  Biso   1.000  H
  C638     1.0000 0.58832  0.20061  0.45451  Biso   1.000  C
  H1014    1.0000 0.51698  0.19542  0.48001  Biso   1.000  H
  H1015    1.0000 0.51269  0.31149  0.42640  Biso   1.000  H
  H1016    1.0000 0.57169  0.31200  0.44311  Biso   1.000  H
  C639     1.0000 0.52655  0.36171  0.48860  Biso   1.000  C
  C640     1.0000 0.52421  0.13459  0.52889  Biso   1.000  C
  C641     1.0000 0.47579  0.13459  0.47111  Biso   1.000  C
  H1017    1.0000 0.39669  0.19471  0.51128  Biso   1.000  H
  H1018    1.0000 0.39310  0.22981  0.56110  Biso   1.000  H
  C642     1.0000 0.40188  0.15258  0.57871  Biso   1.000  C
  H1019    1.0000 0.44780  0.36381  0.48372  Biso   1.000  H
  H1020    1.0000 0.46931  0.39220  0.53362  Biso   1.000  H
  H1021    1.0000 0.60331  0.19471  0.48872  Biso   1.000  H
  H1022    1.0000 0.60690  0.22981  0.43890  Biso   1.000  H
  C643     1.0000 0.59812  0.15258  0.42129  Biso   1.000  C
  H1023    1.0000 0.55220  0.36381  0.51628  Biso   1.000  H
  H1024    1.0000 0.53069  0.39220  0.46638  Biso   1.000  H
  H1025    1.0000 0.49820  0.11639  0.54888  Biso   1.000  H
  H1026    1.0000 0.54990  0.14899  0.55208  Biso   1.000  H
  H1027    1.0000 0.54068  0.11069  0.50519  Biso   1.000  H
  H1028    1.0000 0.50180  0.11639  0.45112  Biso   1.000  H
  H1029    1.0000 0.45010  0.14899  0.44792  Biso   1.000  H
  H1030    1.0000 0.45932  0.11069  0.49481  Biso   1.000  H
  C644     1.0000 0.35975  0.12158  0.56684  Biso   1.000  C
  C645     1.0000 0.43316  0.14025  0.62158  Biso   1.000  C
  C646     1.0000 0.56684  0.14025  0.37842  Biso   1.000  C
  C647     1.0000 0.64025  0.12158  0.43316  Biso   1.000  C
  H1031    1.0000 0.33929  0.12920  0.53779  Biso   1.000  H
  C648     1.0000 0.34742  0.07871  0.59812  Biso   1.000  C
  C649     1.0000 0.42129  0.09812  0.65258  Biso   1.000  C
  H1032    1.0000 0.46221  0.16071  0.62920  Biso   1.000  H
  C650     1.0000 0.57871  0.09812  0.34742  Biso   1.000  C
  H1033    1.0000 0.53779  0.16071  0.37080  Biso   1.000  H
  H1034    1.0000 0.66071  0.12920  0.46221  Biso   1.000  H
  C651     1.0000 0.65258  0.07871  0.40188  Biso   1.000  C
  C652     1.0000 0.37842  0.06684  0.64025  Biso   1.000  C
  C653     1.0000 0.29939  0.04549  0.58832  Biso   1.000  C
  C654     1.0000 0.45451  0.08832  0.70061  Biso   1.000  C
  C655     1.0000 0.54549  0.08832  0.29939  Biso   1.000  C
  C656     1.0000 0.62158  0.06684  0.35975  Biso   1.000  C
  C657     1.0000 0.70061  0.04549  0.41168  Biso   1.000  C
  H1035    1.0000 0.37080  0.03779  0.66071  Biso   1.000  H
  N87      1.0000 0.28436  0.03885  0.53346  Biso   1.000  N
  H1036    1.0000 0.30529  0.01128  0.60331  Biso   1.000  H
  H1037    1.0000 0.27019  0.06110  0.60690  Biso   1.000  H
  N88      1.0000 0.46115  0.03346  0.71564  Biso   1.000  N
  H1038    1.0000 0.48872  0.10331  0.69471  Biso   1.000  H
  H1039    1.0000 0.43890  0.10690  0.72981  Biso   1.000  H
  N89      1.0000 0.53885  0.03346  0.28436  Biso   1.000  N
  H1040    1.0000 0.51128  0.10331  0.30529  Biso   1.000  H
  H1041    1.0000 0.56110  0.10690  0.27019  Biso   1.000  H
  H1042    1.0000 0.62920  0.03779  0.33929  Biso   1.000  H
  N90      1.0000 0.71564  0.03885  0.46654  Biso   1.000  N
  H1043    1.0000 0.69471  0.01128  0.39669  Biso   1.000  H
  H1044    1.0000 0.72981  0.06110  0.39310  Biso   1.000  H
  C658     1.0000 0.32411  0.00000  0.50000  Biso   1.000  C
  C659     1.0000 0.23614  0.01097  0.52725  Biso   1.000  C
  H1045    1.0000 0.30458  0.01999  0.51698  Biso   1.000  H
  C660     1.0000 0.48903  0.02725  0.76386  Biso   1.000  C
  C661     1.0000 0.50000  0.00000  0.67589  Biso   1.000  C
  H1046    1.0000 0.48001  0.01698  0.69542  Biso   1.000  H
  C662     1.0000 0.51097  0.02725  0.23614  Biso   1.000  C
  C663     1.0000 0.50000  0.00000  0.32411  Biso   1.000  C
  H1047    1.0000 0.51999  0.01698  0.30458  Biso   1.000  H
  C664     1.0000 0.76386  0.01097  0.47275  Biso   1.000  C
  C665     1.0000 0.67589  0.00000  0.50000  Biso   1.000  C
  H1048    1.0000 0.69542  0.01999  0.48302  Biso   1.000  H
  N91      1.0000 0.28436  0.96115  0.46654  Biso   1.000  N
  C666     1.0000 0.36541  0.97111  0.52421  Biso   1.000  C
  H1049    1.0000 0.30458  0.98001  0.48302  Biso   1.000  H
  C667     1.0000 0.36541  0.02889  0.47579  Biso   1.000  C
  C668     1.0000 0.23614  0.98903  0.47275  Biso   1.000  C
  H1050    1.0000 0.23571  0.98181  0.55208  Biso   1.000  H
  C669     1.0000 0.18804  0.04389  0.53612  Biso   1.000  C
  H1051    1.0000 0.51819  0.05208  0.76429  Biso   1.000  H
  C670     1.0000 0.51097  0.97275  0.76386  Biso   1.000  C
  C671     1.0000 0.45611  0.03612  0.81196  Biso   1.000  C
  N92      1.0000 0.53885  0.96654  0.71564  Biso   1.000  N
  C672     1.0000 0.47111  0.97579  0.63459  Biso   1.000  C
  H1052    1.0000 0.51999  0.98302  0.69542  Biso   1.000  H
  C673     1.0000 0.52889  0.02421  0.63459  Biso   1.000  C
  H1053    1.0000 0.48181  0.05208  0.23571  Biso   1.000  H
  C674     1.0000 0.48903  0.97275  0.23614  Biso   1.000  C
  C675     1.0000 0.54389  0.03612  0.18804  Biso   1.000  C
  N93      1.0000 0.46115  0.96654  0.28436  Biso   1.000  N
  C676     1.0000 0.52889  0.97579  0.36541  Biso   1.000  C
  H1054    1.0000 0.48001  0.98302  0.30458  Biso   1.000  H
  C677     1.0000 0.47111  0.02421  0.36541  Biso   1.000  C
  H1055    1.0000 0.76429  0.98181  0.44792  Biso   1.000  H
  C678     1.0000 0.76386  0.98903  0.52725  Biso   1.000  C
  C679     1.0000 0.81196  0.04389  0.46388  Biso   1.000  C
  C680     1.0000 0.63459  0.97111  0.47579  Biso   1.000  C
  N94      1.0000 0.71564  0.96115  0.53346  Biso   1.000  N
  H1056    1.0000 0.69542  0.98001  0.51698  Biso   1.000  H
  C681     1.0000 0.63459  0.02889  0.52421  Biso   1.000  C
  C682     1.0000 0.29939  0.95451  0.41168  Biso   1.000  C
  H1057    1.0000 0.38361  0.95112  0.49820  Biso   1.000  H
  H1058    1.0000 0.35101  0.94792  0.54990  Biso   1.000  H
  H1059    1.0000 0.38931  0.99481  0.54068  Biso   1.000  H
  H1060    1.0000 0.38361  0.04888  0.50180  Biso   1.000  H
  H1061    1.0000 0.35101  0.05208  0.45010  Biso   1.000  H
  H1062    1.0000 0.38931  0.00519  0.45932  Biso   1.000  H
  H1063    1.0000 0.23571  0.01819  0.44792  Biso   1.000  H
  C683     1.0000 0.18804  0.95611  0.46388  Biso   1.000  C
  H1064    1.0000 0.18851  0.07360  0.51269  Biso   1.000  H
  H1065    1.0000 0.18800  0.05689  0.57169  Biso   1.000  H
  C684     1.0000 0.13829  0.01140  0.52655  Biso   1.000  C
  C685     1.0000 0.54389  0.96388  0.81196  Biso   1.000  C
  H1066    1.0000 0.48181  0.94792  0.76429  Biso   1.000  H
  H1067    1.0000 0.42640  0.01269  0.81149  Biso   1.000  H
  H1068    1.0000 0.44311  0.07169  0.81200  Biso   1.000  H
  C686     1.0000 0.48860  0.02655  0.86171  Biso   1.000  C
  C687     1.0000 0.54549  0.91168  0.70061  Biso   1.000  C
  H1069    1.0000 0.44792  0.95010  0.64899  Biso   1.000  H
  H1070    1.0000 0.49481  0.95932  0.61069  Biso   1.000  H
  H1071    1.0000 0.45112  0.00180  0.61639  Biso   1.000  H
  H1072    1.0000 0.54888  0.99820  0.61639  Biso   1.000  H
  H1073    1.0000 0.55208  0.04990  0.64899  Biso   1.000  H
  H1074    1.0000 0.50519  0.04068  0.61069  Biso   1.000  H
  C688     1.0000 0.45611  0.96388  0.18804  Biso   1.000  C
  H1075    1.0000 0.51819  0.94792  0.23571  Biso   1.000  H
  H1076    1.0000 0.57360  0.01269  0.18851  Biso   1.000  H
  H1077    1.0000 0.55689  0.07169  0.18800  Biso   1.000  H
  C689     1.0000 0.51140  0.02655  0.13829  Biso   1.000  C
  C690     1.0000 0.45451  0.91168  0.29939  Biso   1.000  C
  H1078    1.0000 0.55208  0.95010  0.35101  Biso   1.000  H
  H1079    1.0000 0.50519  0.95932  0.38931  Biso   1.000  H
  H1080    1.0000 0.54888  0.00180  0.38361  Biso   1.000  H
  H1081    1.0000 0.45112  0.99820  0.38361  Biso   1.000  H
  H1082    1.0000 0.44792  0.04990  0.35101  Biso   1.000  H
  H1083    1.0000 0.49481  0.04068  0.38931  Biso   1.000  H
  H1084    1.0000 0.76429  0.01819  0.55208  Biso   1.000  H
  C691     1.0000 0.81196  0.95611  0.53612  Biso   1.000  C
  H1085    1.0000 0.81149  0.07360  0.48731  Biso   1.000  H
  H1086    1.0000 0.81200  0.05689  0.42831  Biso   1.000  H
  C692     1.0000 0.86171  0.01140  0.47345  Biso   1.000  C
  H1087    1.0000 0.61639  0.95112  0.50180  Biso   1.000  H
  H1088    1.0000 0.64899  0.94792  0.45010  Biso   1.000  H
  H1089    1.0000 0.61069  0.99481  0.45932  Biso   1.000  H
  C693     1.0000 0.70061  0.95451  0.58832  Biso   1.000  C
  H1090    1.0000 0.61639  0.04888  0.49820  Biso   1.000  H
  H1091    1.0000 0.64899  0.05208  0.54990  Biso   1.000  H
  H1092    1.0000 0.61069  0.00519  0.54068  Biso   1.000  H
  C694     1.0000 0.34742  0.92129  0.40188  Biso   1.000  C
  H1093    1.0000 0.30529  0.98872  0.39669  Biso   1.000  H
  H1094    1.0000 0.27019  0.93890  0.39310  Biso   1.000  H
  H1095    1.0000 0.18851  0.92640  0.48731  Biso   1.000  H
  H1096    1.0000 0.18800  0.94311  0.42831  Biso   1.000  H
  C695     1.0000 0.13829  0.98860  0.47345  Biso   1.000  C
  H1097    1.0000 0.13619  0.98372  0.55220  Biso   1.000  H
  H1098    1.0000 0.10780  0.03362  0.53069  Biso   1.000  H
  H1099    1.0000 0.57360  0.98731  0.81149  Biso   1.000  H
  H1100    1.0000 0.55689  0.92831  0.81200  Biso   1.000  H
  C696     1.0000 0.51140  0.97345  0.86171  Biso   1.000  C
  H1101    1.0000 0.51628  0.05220  0.86381  Biso   1.000  H
  H1102    1.0000 0.46638  0.03069  0.89220  Biso   1.000  H
  C697     1.0000 0.57871  0.90188  0.65258  Biso   1.000  C
  H1103    1.0000 0.51128  0.89669  0.69471  Biso   1.000  H
  H1104    1.0000 0.56110  0.89310  0.72981  Biso   1.000  H
  H1105    1.0000 0.42640  0.98731  0.18851  Biso   1.000  H
  H1106    1.0000 0.44311  0.92831  0.18800  Biso   1.000  H
  C698     1.0000 0.48860  0.97345  0.13829  Biso   1.000  C
  H1107    1.0000 0.48372  0.05220  0.13619  Biso   1.000  H
  H1108    1.0000 0.53362  0.03069  0.10780  Biso   1.000  H
  C699     1.0000 0.42129  0.90188  0.34742  Biso   1.000  C
  H1109    1.0000 0.48872  0.89669  0.30529  Biso   1.000  H
  H1110    1.0000 0.43890  0.89310  0.27019  Biso   1.000  H
  H1111    1.0000 0.81149  0.92640  0.51269  Biso   1.000  H
  H1112    1.0000 0.81200  0.94311  0.57169  Biso   1.000  H
  C700     1.0000 0.86171  0.98860  0.52655  Biso   1.000  C
  H1113    1.0000 0.86381  0.98372  0.44780  Biso   1.000  H
  H1114    1.0000 0.89220  0.03362  0.46931  Biso   1.000  H
  C701     1.0000 0.65258  0.92129  0.59812  Biso   1.000  C
  H1115    1.0000 0.69471  0.98872  0.60331  Biso   1.000  H
  H1116    1.0000 0.72981  0.93890  0.60690  Biso   1.000  H
  C702     1.0000 0.37842  0.93316  0.35975  Biso   1.000  C
  C703     1.0000 0.35975  0.87842  0.43316  Biso   1.000  C
  H1117    1.0000 0.10780  0.96638  0.46931  Biso   1.000  H
  H1118    1.0000 0.13619  0.01628  0.44780  Biso   1.000  H
  H1119    1.0000 0.48372  0.94780  0.86381  Biso   1.000  H
  H1120    1.0000 0.53362  0.96931  0.89220  Biso   1.000  H
  C704     1.0000 0.62158  0.93316  0.64025  Biso   1.000  C
  C705     1.0000 0.56684  0.85975  0.62158  Biso   1.000  C
  H1121    1.0000 0.51628  0.94780  0.13619  Biso   1.000  H
  H1122    1.0000 0.46638  0.96931  0.10780  Biso   1.000  H
  C706     1.0000 0.43316  0.85975  0.37842  Biso   1.000  C
  H1123    1.0000 0.89220  0.96638  0.53069  Biso   1.000  H
  H1124    1.0000 0.86381  0.01628  0.55220  Biso   1.000  H
  C707     1.0000 0.64025  0.87842  0.56684  Biso   1.000  C
  H1125    1.0000 0.37080  0.96221  0.33929  Biso   1.000  H
  C708     1.0000 0.40188  0.84742  0.42129  Biso   1.000  C
  H1126    1.0000 0.33929  0.87080  0.46221  Biso   1.000  H
  H1127    1.0000 0.62920  0.96221  0.66071  Biso   1.000  H
  C709     1.0000 0.59812  0.84742  0.57871  Biso   1.000  C
  H1128    1.0000 0.53779  0.83929  0.62920  Biso   1.000  H
  H1129    1.0000 0.46221  0.83929  0.37080  Biso   1.000  H
  H1130    1.0000 0.66071  0.87080  0.53779  Biso   1.000  H
  C710     1.0000 0.41168  0.79939  0.45451  Biso   1.000  C
  C711     1.0000 0.58832  0.79939  0.54549  Biso   1.000  C
  N95      1.0000 0.46654  0.78436  0.46115  Biso   1.000  N
  H1131    1.0000 0.39669  0.80529  0.48872  Biso   1.000  H
  H1132    1.0000 0.39310  0.77019  0.43890  Biso   1.000  H
  N96      1.0000 0.53346  0.78436  0.53885  Biso   1.000  N
  H1133    1.0000 0.60331  0.80529  0.51128  Biso   1.000  H
  H1134    1.0000 0.60690  0.77019  0.56110  Biso   1.000  H
  C712     1.0000 0.47275  0.73614  0.48903  Biso   1.000  C
  C713     1.0000 0.50000  0.82411  0.50000  Biso   1.000  C
  H1135    1.0000 0.48302  0.80458  0.48001  Biso   1.000  H
  C714     1.0000 0.52725  0.73614  0.51097  Biso   1.000  C
  H1136    1.0000 0.51698  0.80458  0.51999  Biso   1.000  H
  C715     1.0000 0.46388  0.68804  0.45611  Biso   1.000  C
  H1137    1.0000 0.44792  0.73571  0.51819  Biso   1.000  H
  C716     1.0000 0.47579  0.86541  0.52889  Biso   1.000  C
  C717     1.0000 0.52421  0.86541  0.47111  Biso   1.000  C
  C718     1.0000 0.53612  0.68804  0.54389  Biso   1.000  C
  H1138    1.0000 0.55208  0.73571  0.48181  Biso   1.000  H
  H1139    1.0000 0.48731  0.68851  0.42640  Biso   1.000  H
  H1140    1.0000 0.42831  0.68800  0.44311  Biso   1.000  H
  C719     1.0000 0.47345  0.63829  0.48860  Biso   1.000  C
  H1141    1.0000 0.50180  0.88361  0.54888  Biso   1.000  H
  H1142    1.0000 0.45010  0.85101  0.55208  Biso   1.000  H
  H1143    1.0000 0.45932  0.88931  0.50519  Biso   1.000  H
  H1144    1.0000 0.49820  0.88361  0.45112  Biso   1.000  H
  H1145    1.0000 0.54990  0.85101  0.44792  Biso   1.000  H
  H1146    1.0000 0.54068  0.88931  0.49481  Biso   1.000  H
  H1147    1.0000 0.51269  0.68851  0.57360  Biso   1.000  H
  H1148    1.0000 0.57169  0.68800  0.55689  Biso   1.000  H
  C720     1.0000 0.52655  0.63829  0.51140  Biso   1.000  C
  H1149    1.0000 0.44780  0.63619  0.51628  Biso   1.000  H
  H1150    1.0000 0.46931  0.60780  0.46638  Biso   1.000  H
  H1151    1.0000 0.55220  0.63619  0.48372  Biso   1.000  H
  H1152    1.0000 0.53069  0.60780  0.53362  Biso   1.000  H
  C721     1.0000 0.26386  0.51097  0.47275  Biso   1.000  C
  N97      1.0000 0.21564  0.53885  0.46654  Biso   1.000  N
  C722     1.0000 0.26386  0.48903  0.52725  Biso   1.000  C
  C723     1.0000 0.31196  0.54389  0.46388  Biso   1.000  C
  H1153    1.0000 0.26429  0.48181  0.44792  Biso   1.000  H
  C724     1.0000 0.17589  0.50000  0.50000  Biso   1.000  C
  H1154    1.0000 0.19542  0.51999  0.48302  Biso   1.000  H
  C725     1.0000 0.20061  0.54549  0.41168  Biso   1.000  C
  N98      1.0000 0.21564  0.46115  0.53346  Biso   1.000  N
  C726     1.0000 0.31196  0.45611  0.53612  Biso   1.000  C
  H1155    1.0000 0.26429  0.51819  0.55208  Biso   1.000  H
  H1156    1.0000 0.31149  0.57360  0.48731  Biso   1.000  H
  H1157    1.0000 0.31200  0.55689  0.42831  Biso   1.000  H
  C727     1.0000 0.36171  0.51140  0.47345  Biso   1.000  C
  C728     1.0000 0.13459  0.47111  0.47579  Biso   1.000  C
  C729     1.0000 0.13459  0.52889  0.52421  Biso   1.000  C
  H1158    1.0000 0.19542  0.48001  0.51698  Biso   1.000  H
  C730     1.0000 0.15258  0.57871  0.40188  Biso   1.000  C
  H1159    1.0000 0.19471  0.51128  0.39669  Biso   1.000  H
  H1160    1.0000 0.22981  0.56110  0.39310  Biso   1.000  H
  C731     1.0000 0.20061  0.45451  0.58832  Biso   1.000  C
  H1161    1.0000 0.31149  0.42640  0.51269  Biso   1.000  H
  H1162    1.0000 0.31200  0.44311  0.57169  Biso   1.000  H
  C732     1.0000 0.36171  0.48860  0.52655  Biso   1.000  C
  H1163    1.0000 0.36381  0.48372  0.44780  Biso   1.000  H
  H1164    1.0000 0.39220  0.53362  0.46931  Biso   1.000  H
  H1165    1.0000 0.11639  0.45112  0.50180  Biso   1.000  H
  H1166    1.0000 0.14899  0.44792  0.45010  Biso   1.000  H
  H1167    1.0000 0.11069  0.49481  0.45932  Biso   1.000  H
  H1168    1.0000 0.11639  0.54888  0.49820  Biso   1.000  H
  H1169    1.0000 0.14899  0.55208  0.54990  Biso   1.000  H
  H1170    1.0000 0.11069  0.50519  0.54068  Biso   1.000  H
  C733     1.0000 0.12158  0.56684  0.35975  Biso   1.000  C
  C734     1.0000 0.14025  0.62158  0.43316  Biso   1.000  C
  C735     1.0000 0.15258  0.42129  0.59812  Biso   1.000  C
  H1171    1.0000 0.19471  0.48872  0.60331  Biso   1.000  H
  H1172    1.0000 0.22981  0.43890  0.60690  Biso   1.000  H
  H1173    1.0000 0.36381  0.51628  0.55220  Biso   1.000  H
  H1174    1.0000 0.39220  0.46638  0.53069  Biso   1.000  H
  C736     1.0000 0.07871  0.59812  0.34742  Biso   1.000  C
  H1175    1.0000 0.12920  0.53779  0.33929  Biso   1.000  H
  C737     1.0000 0.09812  0.65258  0.42129  Biso   1.000  C
  H1176    1.0000 0.16071  0.62920  0.46221  Biso   1.000  H
  C738     1.0000 0.14025  0.37842  0.56684  Biso   1.000  C
  C739     1.0000 0.12158  0.43316  0.64025  Biso   1.000  C
  C740     1.0000 0.06684  0.64025  0.37842  Biso   1.000  C
  C741     1.0000 0.04549  0.58832  0.29939  Biso   1.000  C
  C742     1.0000 0.08832  0.70061  0.45451  Biso   1.000  C
  C743     1.0000 0.09812  0.34742  0.57871  Biso   1.000  C
  H1177    1.0000 0.16071  0.37080  0.53779  Biso   1.000  H
  C744     1.0000 0.07871  0.40188  0.65258  Biso   1.000  C
  H1178    1.0000 0.12920  0.46221  0.66071  Biso   1.000  H
  H1179    1.0000 0.03779  0.66071  0.37080  Biso   1.000  H
  N99      1.0000 0.03885  0.53346  0.28436  Biso   1.000  N
  H1180    1.0000 0.01128  0.60331  0.30529  Biso   1.000  H
  H1181    1.0000 0.06110  0.60690  0.27019  Biso   1.000  H
  N100     1.0000 0.03346  0.71564  0.46115  Biso   1.000  N
  H1182    1.0000 0.10331  0.69471  0.48872  Biso   1.000  H
  H1183    1.0000 0.10690  0.72981  0.43890  Biso   1.000  H
  C745     1.0000 0.08832  0.29939  0.54549  Biso   1.000  C
  C746     1.0000 0.06684  0.35975  0.62158  Biso   1.000  C
  C747     1.0000 0.04549  0.41168  0.70061  Biso   1.000  C
  C748     1.0000 0.00000  0.50000  0.32411  Biso   1.000  C
  C749     1.0000 0.01097  0.52725  0.23614  Biso   1.000  C
  H1184    1.0000 0.01999  0.51698  0.30458  Biso   1.000  H
  C750     1.0000 0.02725  0.76386  0.48903  Biso   1.000  C
  C751     1.0000 0.00000  0.67589  0.50000  Biso   1.000  C
  H1185    1.0000 0.01698  0.69542  0.48001  Biso   1.000  H
  N101     1.0000 0.03346  0.28436  0.53885  Biso   1.000  N
  H1186    1.0000 0.10331  0.30529  0.51128  Biso   1.000  H
  H1187    1.0000 0.10690  0.27019  0.56110  Biso   1.000  H
  H1188    1.0000 0.03779  0.33929  0.62920  Biso   1.000  H
  N102     1.0000 0.03885  0.46654  0.71564  Biso   1.000  N
  H1189    1.0000 0.01128  0.39669  0.69471  Biso   1.000  H
  H1190    1.0000 0.06110  0.39310  0.72981  Biso   1.000  H
  C752     1.0000 0.02889  0.47579  0.36541  Biso   1.000  C
  N103     1.0000 0.96115  0.46654  0.28436  Biso   1.000  N
  C753     1.0000 0.97111  0.52421  0.36541  Biso   1.000  C
  H1191    1.0000 0.98001  0.48302  0.30458  Biso   1.000  H
  C754     1.0000 0.04389  0.53612  0.18804  Biso   1.000  C
  C755     1.0000 0.98903  0.47275  0.23614  Biso   1.000  C
  H1192    1.0000 0.98181  0.55208  0.23571  Biso   1.000  H
  C756     1.0000 0.03612  0.81196  0.45611  Biso   1.000  C
  H1193    1.0000 0.05208  0.76429  0.51819  Biso   1.000  H
  C757     1.0000 0.97275  0.76386  0.51097  Biso   1.000  C
  C758     1.0000 0.02421  0.63459  0.52889  Biso   1.000  C
  N104     1.0000 0.96654  0.71564  0.53885  Biso   1.000  N
  C759     1.0000 0.97579  0.63459  0.47111  Biso   1.000  C
  H1194    1.0000 0.98302  0.69542  0.51999  Biso   1.000  H
  C760     1.0000 0.00000  0.32411  0.50000  Biso   1.000  C
  C761     1.0000 0.02725  0.23614  0.51097  Biso   1.000  C
  H1195    1.0000 0.01698  0.30458  0.51999  Biso   1.000  H
  C762     1.0000 0.01097  0.47275  0.76386  Biso   1.000  C
  C763     1.0000 0.00000  0.50000  0.67589  Biso   1.000  C
  H1196    1.0000 0.01999  0.48302  0.69542  Biso   1.000  H
  H1197    1.0000 0.04888  0.50180  0.38361  Biso   1.000  H
  H1198    1.0000 0.05208  0.45010  0.35101  Biso   1.000  H
  H1199    1.0000 0.00519  0.45932  0.38931  Biso   1.000  H
  C764     1.0000 0.95451  0.41168  0.29939  Biso   1.000  C
  H1200    1.0000 0.95112  0.49820  0.38361  Biso   1.000  H
  H1201    1.0000 0.94792  0.54990  0.35101  Biso   1.000  H
  H1202    1.0000 0.99481  0.54068  0.38931  Biso   1.000  H
  H1203    1.0000 0.07360  0.51269  0.18851  Biso   1.000  H
  H1204    1.0000 0.05689  0.57169  0.18800  Biso   1.000  H
  C765     1.0000 0.01140  0.52655  0.13829  Biso   1.000  C
  H1205    1.0000 0.01819  0.44792  0.23571  Biso   1.000  H
  C766     1.0000 0.95611  0.46388  0.18804  Biso   1.000  C
  H1206    1.0000 0.01269  0.81149  0.42640  Biso   1.000  H
  H1207    1.0000 0.07169  0.81200  0.44311  Biso   1.000  H
  C767     1.0000 0.02655  0.86171  0.48860  Biso   1.000  C
  C768     1.0000 0.96388  0.81196  0.54389  Biso   1.000  C
  H1208    1.0000 0.94792  0.76429  0.48181  Biso   1.000  H
  H1209    1.0000 0.04990  0.64899  0.55208  Biso   1.000  H
  H1210    1.0000 0.04068  0.61069  0.50519  Biso   1.000  H
  H1211    1.0000 0.99820  0.61639  0.54888  Biso   1.000  H
  C769     1.0000 0.91168  0.70061  0.54549  Biso   1.000  C
  H1212    1.0000 0.00180  0.61639  0.45112  Biso   1.000  H
  H1213    1.0000 0.95010  0.64899  0.44792  Biso   1.000  H
  H1214    1.0000 0.95932  0.61069  0.49481  Biso   1.000  H
  C770     1.0000 0.02421  0.36541  0.47111  Biso   1.000  C
  N105     1.0000 0.96654  0.28436  0.46115  Biso   1.000  N
  C771     1.0000 0.97579  0.36541  0.52889  Biso   1.000  C
  H1215    1.0000 0.98302  0.30458  0.48001  Biso   1.000  H
  C772     1.0000 0.03612  0.18804  0.54389  Biso   1.000  C
  H1216    1.0000 0.05208  0.23571  0.48181  Biso   1.000  H
  C773     1.0000 0.97275  0.23614  0.48903  Biso   1.000  C
  C774     1.0000 0.04389  0.46388  0.81196  Biso   1.000  C
  H1217    1.0000 0.98181  0.44792  0.76429  Biso   1.000  H
  C775     1.0000 0.98903  0.52725  0.76386  Biso   1.000  C
  C776     1.0000 0.02889  0.52421  0.63459  Biso   1.000  C
  C777     1.0000 0.97111  0.47579  0.63459  Biso   1.000  C
  N106     1.0000 0.96115  0.53346  0.71564  Biso   1.000  N
  H1218    1.0000 0.98001  0.51698  0.69542  Biso   1.000  H
  C778     1.0000 0.92129  0.40188  0.34742  Biso   1.000  C
  H1219    1.0000 0.98872  0.39669  0.30529  Biso   1.000  H
  H1220    1.0000 0.93890  0.39310  0.27019  Biso   1.000  H
  H1221    1.0000 0.03362  0.53069  0.10780  Biso   1.000  H
  C779     1.0000 0.98860  0.47345  0.13829  Biso   1.000  C
  H1222    1.0000 0.98372  0.55220  0.13619  Biso   1.000  H
  H1223    1.0000 0.92640  0.48731  0.18851  Biso   1.000  H
  H1224    1.0000 0.94311  0.42831  0.18800  Biso   1.000  H
  H1225    1.0000 0.05220  0.86381  0.51628  Biso   1.000  H
  H1226    1.0000 0.03069  0.89220  0.46638  Biso   1.000  H
  C780     1.0000 0.97345  0.86171  0.51140  Biso   1.000  C
  H1227    1.0000 0.98731  0.81149  0.57360  Biso   1.000  H
  H1228    1.0000 0.92831  0.81200  0.55689  Biso   1.000  H
  C781     1.0000 0.90188  0.65258  0.57871  Biso   1.000  C
  H1229    1.0000 0.89669  0.69471  0.51128  Biso   1.000  H
  H1230    1.0000 0.89310  0.72981  0.56110  Biso   1.000  H
  H1231    1.0000 0.04990  0.35101  0.44792  Biso   1.000  H
  H1232    1.0000 0.04068  0.38931  0.49481  Biso   1.000  H
  H1233    1.0000 0.99820  0.38361  0.45112  Biso   1.000  H
  C782     1.0000 0.91168  0.29939  0.45451  Biso   1.000  C
  H1234    1.0000 0.00180  0.38361  0.54888  Biso   1.000  H
  H1235    1.0000 0.95010  0.35101  0.55208  Biso   1.000  H
  H1236    1.0000 0.95932  0.38931  0.50519  Biso   1.000  H
  H1237    1.0000 0.01269  0.18851  0.57360  Biso   1.000  H
  H1238    1.0000 0.07169  0.18800  0.55689  Biso   1.000  H
  C783     1.0000 0.02655  0.13829  0.51140  Biso   1.000  C
  C784     1.0000 0.96388  0.18804  0.45611  Biso   1.000  C
  H1239    1.0000 0.94792  0.23571  0.51819  Biso   1.000  H
  H1240    1.0000 0.07360  0.48731  0.81149  Biso   1.000  H
  H1241    1.0000 0.05689  0.42831  0.81200  Biso   1.000  H
  C785     1.0000 0.01140  0.47345  0.86171  Biso   1.000  C
  H1242    1.0000 0.01819  0.55208  0.76429  Biso   1.000  H
  C786     1.0000 0.95611  0.53612  0.81196  Biso   1.000  C
  H1243    1.0000 0.04888  0.49820  0.61639  Biso   1.000  H
  H1244    1.0000 0.05208  0.54990  0.64899  Biso   1.000  H
  H1245    1.0000 0.00519  0.54068  0.61069  Biso   1.000  H
  H1246    1.0000 0.95112  0.50180  0.61639  Biso   1.000  H
  H1247    1.0000 0.94792  0.45010  0.64899  Biso   1.000  H
  H1248    1.0000 0.99481  0.45932  0.61069  Biso   1.000  H
  C787     1.0000 0.95451  0.58832  0.70061  Biso   1.000  C
  C788     1.0000 0.93316  0.35975  0.37842  Biso   1.000  C
  C789     1.0000 0.87842  0.43316  0.35975  Biso   1.000  C
  H1249    1.0000 0.01628  0.44780  0.13619  Biso   1.000  H
  H1250    1.0000 0.96638  0.46931  0.10780  Biso   1.000  H
  H1251    1.0000 0.94780  0.86381  0.48372  Biso   1.000  H
  H1252    1.0000 0.96931  0.89220  0.53362  Biso   1.000  H
  C790     1.0000 0.93316  0.64025  0.62158  Biso   1.000  C
  C791     1.0000 0.85975  0.62158  0.56684  Biso   1.000  C
  C792     1.0000 0.90188  0.34742  0.42129  Biso   1.000  C
  H1253    1.0000 0.89669  0.30529  0.48872  Biso   1.000  H
  H1254    1.0000 0.89310  0.27019  0.43890  Biso   1.000  H
  H1255    1.0000 0.05220  0.13619  0.48372  Biso   1.000  H
  H1256    1.0000 0.03069  0.10780  0.53362  Biso   1.000  H
  C793     1.0000 0.97345  0.13829  0.48860  Biso   1.000  C
  H1257    1.0000 0.98731  0.18851  0.42640  Biso   1.000  H
  H1258    1.0000 0.92831  0.18800  0.44311  Biso   1.000  H
  H1259    1.0000 0.03362  0.46931  0.89220  Biso   1.000  H
  H1260    1.0000 0.98372  0.44780  0.86381  Biso   1.000  H
  C794     1.0000 0.98860  0.52655  0.86171  Biso   1.000  C
  H1261    1.0000 0.92640  0.51269  0.81149  Biso   1.000  H
  H1262    1.0000 0.94311  0.57169  0.81200  Biso   1.000  H
  C795     1.0000 0.92129  0.59812  0.65258  Biso   1.000  C
  H1263    1.0000 0.98872  0.60331  0.69471  Biso   1.000  H
  H1264    1.0000 0.93890  0.60690  0.72981  Biso   1.000  H
  H1265    1.0000 0.96221  0.33929  0.37080  Biso   1.000  H
  C796     1.0000 0.84742  0.42129  0.40188  Biso   1.000  C
  H1266    1.0000 0.87080  0.46221  0.33929  Biso   1.000  H
  H1267    1.0000 0.96221  0.66071  0.62920  Biso   1.000  H
  C797     1.0000 0.84742  0.57871  0.59812  Biso   1.000  C
  H1268    1.0000 0.83929  0.62920  0.53779  Biso   1.000  H
  C798     1.0000 0.85975  0.37842  0.43316  Biso   1.000  C
  H1269    1.0000 0.94780  0.13619  0.51628  Biso   1.000  H
  H1270    1.0000 0.96931  0.10780  0.46638  Biso   1.000  H
  H1271    1.0000 0.01628  0.55220  0.86381  Biso   1.000  H
  H1272    1.0000 0.96638  0.53069  0.89220  Biso   1.000  H
  C799     1.0000 0.87842  0.56684  0.64025  Biso   1.000  C
  C800     1.0000 0.79939  0.45451  0.41168  Biso   1.000  C
  C801     1.0000 0.79939  0.54549  0.58832  Biso   1.000  C
  H1273    1.0000 0.83929  0.37080  0.46221  Biso   1.000  H
  H1274    1.0000 0.87080  0.53779  0.66071  Biso   1.000  H
  N107     1.0000 0.78436  0.46115  0.46654  Biso   1.000  N
  H1275    1.0000 0.80529  0.48872  0.39669  Biso   1.000  H
  H1276    1.0000 0.77019  0.43890  0.39310  Biso   1.000  H
  N108     1.0000 0.78436  0.53885  0.53346  Biso   1.000  N
  H1277    1.0000 0.80529  0.51128  0.60331  Biso   1.000  H
  H1278    1.0000 0.77019  0.56110  0.60690  Biso   1.000  H
  C802     1.0000 0.73614  0.48903  0.47275  Biso   1.000  C
  C803     1.0000 0.82411  0.50000  0.50000  Biso   1.000  C
  H1279    1.0000 0.80458  0.48001  0.48302  Biso   1.000  H
  C804     1.0000 0.73614  0.51097  0.52725  Biso   1.000  C
  H1280    1.0000 0.80458  0.51999  0.51698  Biso   1.000  H
  C805     1.0000 0.68804  0.45611  0.46388  Biso   1.000  C
  H1281    1.0000 0.73571  0.51819  0.44792  Biso   1.000  H
  C806     1.0000 0.86541  0.52889  0.47579  Biso   1.000  C
  C807     1.0000 0.86541  0.47111  0.52421  Biso   1.000  C
  C808     1.0000 0.68804  0.54389  0.53612  Biso   1.000  C
  H1282    1.0000 0.73571  0.48181  0.55208  Biso   1.000  H
  H1283    1.0000 0.68851  0.42640  0.48731  Biso   1.000  H
  H1284    1.0000 0.68800  0.44311  0.42831  Biso   1.000  H
  C809     1.0000 0.63829  0.48860  0.47345  Biso   1.000  C
  H1285    1.0000 0.88361  0.54888  0.50180  Biso   1.000  H
  H1286    1.0000 0.85101  0.55208  0.45010  Biso   1.000  H
  H1287    1.0000 0.88931  0.50519  0.45932  Biso   1.000  H
  H1288    1.0000 0.88361  0.45112  0.49820  Biso   1.000  H
  H1289    1.0000 0.85101  0.44792  0.54990  Biso   1.000  H
  H1290    1.0000 0.88931  0.49481  0.54068  Biso   1.000  H
  H1291    1.0000 0.68851  0.57360  0.51269  Biso   1.000  H
  H1292    1.0000 0.68800  0.55689  0.57169  Biso   1.000  H
  C810     1.0000 0.63829  0.51140  0.52655  Biso   1.000  C
  H1293    1.0000 0.63619  0.51628  0.44780  Biso   1.000  H
  H1294    1.0000 0.60780  0.46638  0.46931  Biso   1.000  H
  H1295    1.0000 0.63619  0.48372  0.55220  Biso   1.000  H
  H1296    1.0000 0.60780  0.53362  0.53069  Biso   1.000  H
  C811     1.0000 0.26386  0.51097  0.47275  Biso   1.000  C
  N109     1.0000 0.21564  0.53885  0.46654  Biso   1.000  N
  C812     1.0000 0.26386  0.48903  0.52725  Biso   1.000  C
  C813     1.0000 0.31196  0.54389  0.46388  Biso   1.000  C
  H1297    1.0000 0.26429  0.48181  0.44792  Biso   1.000  H
  C814     1.0000 0.17589  0.50000  0.50000  Biso   1.000  C
  H1298    1.0000 0.19542  0.51999  0.48302  Biso   1.000  H
  C815     1.0000 0.20061  0.54549  0.41168  Biso   1.000  C
  N110     1.0000 0.21564  0.46115  0.53346  Biso   1.000  N
  C816     1.0000 0.31196  0.45611  0.53612  Biso   1.000  C
  H1299    1.0000 0.26429  0.51819  0.55208  Biso   1.000  H
  H1300    1.0000 0.31149  0.57360  0.48731  Biso   1.000  H
  H1301    1.0000 0.31200  0.55689  0.42831  Biso   1.000  H
  C817     1.0000 0.36171  0.51140  0.47345  Biso   1.000  C
  C818     1.0000 0.13459  0.47111  0.47579  Biso   1.000  C
  C819     1.0000 0.13459  0.52889  0.52421  Biso   1.000  C
  H1302    1.0000 0.19542  0.48001  0.51698  Biso   1.000  H
  C820     1.0000 0.15258  0.57871  0.40188  Biso   1.000  C
  H1303    1.0000 0.19471  0.51128  0.39669  Biso   1.000  H
  H1304    1.0000 0.22981  0.56110  0.39310  Biso   1.000  H
  C821     1.0000 0.20061  0.45451  0.58832  Biso   1.000  C
  H1305    1.0000 0.31149  0.42640  0.51269  Biso   1.000  H
  H1306    1.0000 0.31200  0.44311  0.57169  Biso   1.000  H
  C822     1.0000 0.36171  0.48860  0.52655  Biso   1.000  C
  H1307    1.0000 0.36381  0.48372  0.44780  Biso   1.000  H
  H1308    1.0000 0.39220  0.53362  0.46931  Biso   1.000  H
  H1309    1.0000 0.11639  0.45112  0.50180  Biso   1.000  H
  H1310    1.0000 0.14899  0.44792  0.45010  Biso   1.000  H
  H1311    1.0000 0.11069  0.49481  0.45932  Biso   1.000  H
  H1312    1.0000 0.11639  0.54888  0.49820  Biso   1.000  H
  H1313    1.0000 0.14899  0.55208  0.54990  Biso   1.000  H
  H1314    1.0000 0.11069  0.50519  0.54068  Biso   1.000  H
  C823     1.0000 0.12158  0.56684  0.35975  Biso   1.000  C
  C824     1.0000 0.14025  0.62158  0.43316  Biso   1.000  C
  C825     1.0000 0.15258  0.42129  0.59812  Biso   1.000  C
  H1315    1.0000 0.19471  0.48872  0.60331  Biso   1.000  H
  H1316    1.0000 0.22981  0.43890  0.60690  Biso   1.000  H
  H1317    1.0000 0.36381  0.51628  0.55220  Biso   1.000  H
  H1318    1.0000 0.39220  0.46638  0.53069  Biso   1.000  H
  C826     1.0000 0.07871  0.59812  0.34742  Biso   1.000  C
  H1319    1.0000 0.12920  0.53779  0.33929  Biso   1.000  H
  C827     1.0000 0.09812  0.65258  0.42129  Biso   1.000  C
  H1320    1.0000 0.16071  0.62920  0.46221  Biso   1.000  H
  C828     1.0000 0.14025  0.37842  0.56684  Biso   1.000  C
  C829     1.0000 0.12158  0.43316  0.64025  Biso   1.000  C
  C830     1.0000 0.06684  0.64025  0.37842  Biso   1.000  C
  C831     1.0000 0.04549  0.58832  0.29939  Biso   1.000  C
  C832     1.0000 0.08832  0.70061  0.45451  Biso   1.000  C
  C833     1.0000 0.09812  0.34742  0.57871  Biso   1.000  C
  H1321    1.0000 0.16071  0.37080  0.53779  Biso   1.000  H
  C834     1.0000 0.07871  0.40188  0.65258  Biso   1.000  C
  H1322    1.0000 0.12920  0.46221  0.66071  Biso   1.000  H
  H1323    1.0000 0.03779  0.66071  0.37080  Biso   1.000  H
  N111     1.0000 0.03885  0.53346  0.28436  Biso   1.000  N
  H1324    1.0000 0.01128  0.60331  0.30529  Biso   1.000  H
  H1325    1.0000 0.06110  0.60690  0.27019  Biso   1.000  H
  N112     1.0000 0.03346  0.71564  0.46115  Biso   1.000  N
  H1326    1.0000 0.10331  0.69471  0.48872  Biso   1.000  H
  H1327    1.0000 0.10690  0.72981  0.43890  Biso   1.000  H
  C835     1.0000 0.08832  0.29939  0.54549  Biso   1.000  C
  C836     1.0000 0.06684  0.35975  0.62158  Biso   1.000  C
  C837     1.0000 0.04549  0.41168  0.70061  Biso   1.000  C
  C838     1.0000 0.00000  0.50000  0.32411  Biso   1.000  C
  C839     1.0000 0.01097  0.52725  0.23614  Biso   1.000  C
  H1328    1.0000 0.01999  0.51698  0.30458  Biso   1.000  H
  C840     1.0000 0.02725  0.76386  0.48903  Biso   1.000  C
  C841     1.0000 0.00000  0.67589  0.50000  Biso   1.000  C
  H1329    1.0000 0.01698  0.69542  0.48001  Biso   1.000  H
  N113     1.0000 0.03346  0.28436  0.53885  Biso   1.000  N
  H1330    1.0000 0.10331  0.30529  0.51128  Biso   1.000  H
  H1331    1.0000 0.10690  0.27019  0.56110  Biso   1.000  H
  H1332    1.0000 0.03779  0.33929  0.62920  Biso   1.000  H
  N114     1.0000 0.03885  0.46654  0.71564  Biso   1.000  N
  H1333    1.0000 0.01128  0.39669  0.69471  Biso   1.000  H
  H1334    1.0000 0.06110  0.39310  0.72981  Biso   1.000  H
  C842     1.0000 0.02889  0.47579  0.36541  Biso   1.000  C
  N115     1.0000 0.96115  0.46654  0.28436  Biso   1.000  N
  C843     1.0000 0.97111  0.52421  0.36541  Biso   1.000  C
  H1335    1.0000 0.98001  0.48302  0.30458  Biso   1.000  H
  C844     1.0000 0.04389  0.53612  0.18804  Biso   1.000  C
  C845     1.0000 0.98903  0.47275  0.23614  Biso   1.000  C
  H1336    1.0000 0.98181  0.55208  0.23571  Biso   1.000  H
  C846     1.0000 0.03612  0.81196  0.45611  Biso   1.000  C
  H1337    1.0000 0.05208  0.76429  0.51819  Biso   1.000  H
  C847     1.0000 0.97275  0.76386  0.51097  Biso   1.000  C
  C848     1.0000 0.02421  0.63459  0.52889  Biso   1.000  C
  N116     1.0000 0.96654  0.71564  0.53885  Biso   1.000  N
  C849     1.0000 0.97579  0.63459  0.47111  Biso   1.000  C
  H1338    1.0000 0.98302  0.69542  0.51999  Biso   1.000  H
  C850     1.0000 0.00000  0.32411  0.50000  Biso   1.000  C
  C851     1.0000 0.02725  0.23614  0.51097  Biso   1.000  C
  H1339    1.0000 0.01698  0.30458  0.51999  Biso   1.000  H
  C852     1.0000 0.01097  0.47275  0.76386  Biso   1.000  C
  C853     1.0000 0.00000  0.50000  0.67589  Biso   1.000  C
  H1340    1.0000 0.01999  0.48302  0.69542  Biso   1.000  H
  H1341    1.0000 0.04888  0.50180  0.38361  Biso   1.000  H
  H1342    1.0000 0.05208  0.45010  0.35101  Biso   1.000  H
  H1343    1.0000 0.00519  0.45932  0.38931  Biso   1.000  H
  C854     1.0000 0.95451  0.41168  0.29939  Biso   1.000  C
  H1344    1.0000 0.95112  0.49820  0.38361  Biso   1.000  H
  H1345    1.0000 0.94792  0.54990  0.35101  Biso   1.000  H
  H1346    1.0000 0.99481  0.54068  0.38931  Biso   1.000  H
  H1347    1.0000 0.07360  0.51269  0.18851  Biso   1.000  H
  H1348    1.0000 0.05689  0.57169  0.18800  Biso   1.000  H
  C855     1.0000 0.01140  0.52655  0.13829  Biso   1.000  C
  H1349    1.0000 0.01819  0.44792  0.23571  Biso   1.000  H
  C856     1.0000 0.95611  0.46388  0.18804  Biso   1.000  C
  H1350    1.0000 0.01269  0.81149  0.42640  Biso   1.000  H
  H1351    1.0000 0.07169  0.81200  0.44311  Biso   1.000  H
  C857     1.0000 0.02655  0.86171  0.48860  Biso   1.000  C
  C858     1.0000 0.96388  0.81196  0.54389  Biso   1.000  C
  H1352    1.0000 0.94792  0.76429  0.48181  Biso   1.000  H
  H1353    1.0000 0.04990  0.64899  0.55208  Biso   1.000  H
  H1354    1.0000 0.04068  0.61069  0.50519  Biso   1.000  H
  H1355    1.0000 0.99820  0.61639  0.54888  Biso   1.000  H
  C859     1.0000 0.91168  0.70061  0.54549  Biso   1.000  C
  H1356    1.0000 0.00180  0.61639  0.45112  Biso   1.000  H
  H1357    1.0000 0.95010  0.64899  0.44792  Biso   1.000  H
  H1358    1.0000 0.95932  0.61069  0.49481  Biso   1.000  H
  C860     1.0000 0.02421  0.36541  0.47111  Biso   1.000  C
  N117     1.0000 0.96654  0.28436  0.46115  Biso   1.000  N
  C861     1.0000 0.97579  0.36541  0.52889  Biso   1.000  C
  H1359    1.0000 0.98302  0.30458  0.48001  Biso   1.000  H
  C862     1.0000 0.03612  0.18804  0.54389  Biso   1.000  C
  H1360    1.0000 0.05208  0.23571  0.48181  Biso   1.000  H
  C863     1.0000 0.97275  0.23614  0.48903  Biso   1.000  C
  C864     1.0000 0.04389  0.46388  0.81196  Biso   1.000  C
  H1361    1.0000 0.98181  0.44792  0.76429  Biso   1.000  H
  C865     1.0000 0.98903  0.52725  0.76386  Biso   1.000  C
  C866     1.0000 0.02889  0.52421  0.63459  Biso   1.000  C
  C867     1.0000 0.97111  0.47579  0.63459  Biso   1.000  C
  N118     1.0000 0.96115  0.53346  0.71564  Biso   1.000  N
  H1362    1.0000 0.98001  0.51698  0.69542  Biso   1.000  H
  C868     1.0000 0.92129  0.40188  0.34742  Biso   1.000  C
  H1363    1.0000 0.98872  0.39669  0.30529  Biso   1.000  H
  H1364    1.0000 0.93890  0.39310  0.27019  Biso   1.000  H
  H1365    1.0000 0.03362  0.53069  0.10780  Biso   1.000  H
  C869     1.0000 0.98860  0.47345  0.13829  Biso   1.000  C
  H1366    1.0000 0.98372  0.55220  0.13619  Biso   1.000  H
  H1367    1.0000 0.92640  0.48731  0.18851  Biso   1.000  H
  H1368    1.0000 0.94311  0.42831  0.18800  Biso   1.000  H
  H1369    1.0000 0.05220  0.86381  0.51628  Biso   1.000  H
  H1370    1.0000 0.03069  0.89220  0.46638  Biso   1.000  H
  C870     1.0000 0.97345  0.86171  0.51140  Biso   1.000  C
  H1371    1.0000 0.98731  0.81149  0.57360  Biso   1.000  H
  H1372    1.0000 0.92831  0.81200  0.55689  Biso   1.000  H
  C871     1.0000 0.90188  0.65258  0.57871  Biso   1.000  C
  H1373    1.0000 0.89669  0.69471  0.51128  Biso   1.000  H
  H1374    1.0000 0.89310  0.72981  0.56110  Biso   1.000  H
  H1375    1.0000 0.04990  0.35101  0.44792  Biso   1.000  H
  H1376    1.0000 0.04068  0.38931  0.49481  Biso   1.000  H
  H1377    1.0000 0.99820  0.38361  0.45112  Biso   1.000  H
  C872     1.0000 0.91168  0.29939  0.45451  Biso   1.000  C
  H1378    1.0000 0.00180  0.38361  0.54888  Biso   1.000  H
  H1379    1.0000 0.95010  0.35101  0.55208  Biso   1.000  H
  H1380    1.0000 0.95932  0.38931  0.50519  Biso   1.000  H
  H1381    1.0000 0.01269  0.18851  0.57360  Biso   1.000  H
  H1382    1.0000 0.07169  0.18800  0.55689  Biso   1.000  H
  C873     1.0000 0.02655  0.13829  0.51140  Biso   1.000  C
  C874     1.0000 0.96388  0.18804  0.45611  Biso   1.000  C
  H1383    1.0000 0.94792  0.23571  0.51819  Biso   1.000  H
  H1384    1.0000 0.07360  0.48731  0.81149  Biso   1.000  H
  H1385    1.0000 0.05689  0.42831  0.81200  Biso   1.000  H
  C875     1.0000 0.01140  0.47345  0.86171  Biso   1.000  C
  H1386    1.0000 0.01819  0.55208  0.76429  Biso   1.000  H
  C876     1.0000 0.95611  0.53612  0.81196  Biso   1.000  C
  H1387    1.0000 0.04888  0.49820  0.61639  Biso   1.000  H
  H1388    1.0000 0.05208  0.54990  0.64899  Biso   1.000  H
  H1389    1.0000 0.00519  0.54068  0.61069  Biso   1.000  H
  H1390    1.0000 0.95112  0.50180  0.61639  Biso   1.000  H
  H1391    1.0000 0.94792  0.45010  0.64899  Biso   1.000  H
  H1392    1.0000 0.99481  0.45932  0.61069  Biso   1.000  H
  C877     1.0000 0.95451  0.58832  0.70061  Biso   1.000  C
  C878     1.0000 0.93316  0.35975  0.37842  Biso   1.000  C
  C879     1.0000 0.87842  0.43316  0.35975  Biso   1.000  C
  H1393    1.0000 0.01628  0.44780  0.13619  Biso   1.000  H
  H1394    1.0000 0.96638  0.46931  0.10780  Biso   1.000  H
  H1395    1.0000 0.94780  0.86381  0.48372  Biso   1.000  H
  H1396    1.0000 0.96931  0.89220  0.53362  Biso   1.000  H
  C880     1.0000 0.93316  0.64025  0.62158  Biso   1.000  C
  C881     1.0000 0.85975  0.62158  0.56684  Biso   1.000  C
  C882     1.0000 0.90188  0.34742  0.42129  Biso   1.000  C
  H1397    1.0000 0.89669  0.30529  0.48872  Biso   1.000  H
  H1398    1.0000 0.89310  0.27019  0.43890  Biso   1.000  H
  H1399    1.0000 0.05220  0.13619  0.48372  Biso   1.000  H
  H1400    1.0000 0.03069  0.10780  0.53362  Biso   1.000  H
  C883     1.0000 0.97345  0.13829  0.48860  Biso   1.000  C
  H1401    1.0000 0.98731  0.18851  0.42640  Biso   1.000  H
  H1402    1.0000 0.92831  0.18800  0.44311  Biso   1.000  H
  H1403    1.0000 0.03362  0.46931  0.89220  Biso   1.000  H
  H1404    1.0000 0.98372  0.44780  0.86381  Biso   1.000  H
  C884     1.0000 0.98860  0.52655  0.86171  Biso   1.000  C
  H1405    1.0000 0.92640  0.51269  0.81149  Biso   1.000  H
  H1406    1.0000 0.94311  0.57169  0.81200  Biso   1.000  H
  C885     1.0000 0.92129  0.59812  0.65258  Biso   1.000  C
  H1407    1.0000 0.98872  0.60331  0.69471  Biso   1.000  H
  H1408    1.0000 0.93890  0.60690  0.72981  Biso   1.000  H
  H1409    1.0000 0.96221  0.33929  0.37080  Biso   1.000  H
  C886     1.0000 0.84742  0.42129  0.40188  Biso   1.000  C
  H1410    1.0000 0.87080  0.46221  0.33929  Biso   1.000  H
  H1411    1.0000 0.96221  0.66071  0.62920  Biso   1.000  H
  C887     1.0000 0.84742  0.57871  0.59812  Biso   1.000  C
  H1412    1.0000 0.83929  0.62920  0.53779  Biso   1.000  H
  C888     1.0000 0.85975  0.37842  0.43316  Biso   1.000  C
  H1413    1.0000 0.94780  0.13619  0.51628  Biso   1.000  H
  H1414    1.0000 0.96931  0.10780  0.46638  Biso   1.000  H
  H1415    1.0000 0.01628  0.55220  0.86381  Biso   1.000  H
  H1416    1.0000 0.96638  0.53069  0.89220  Biso   1.000  H
  C889     1.0000 0.87842  0.56684  0.64025  Biso   1.000  C
  C890     1.0000 0.79939  0.45451  0.41168  Biso   1.000  C
  C891     1.0000 0.79939  0.54549  0.58832  Biso   1.000  C
  H1417    1.0000 0.83929  0.37080  0.46221  Biso   1.000  H
  H1418    1.0000 0.87080  0.53779  0.66071  Biso   1.000  H
  N119     1.0000 0.78436  0.46115  0.46654  Biso   1.000  N
  H1419    1.0000 0.80529  0.48872  0.39669  Biso   1.000  H
  H1420    1.0000 0.77019  0.43890  0.39310  Biso   1.000  H
  N120     1.0000 0.78436  0.53885  0.53346  Biso   1.000  N
  H1421    1.0000 0.80529  0.51128  0.60331  Biso   1.000  H
  H1422    1.0000 0.77019  0.56110  0.60690  Biso   1.000  H
  C892     1.0000 0.73614  0.48903  0.47275  Biso   1.000  C
  C893     1.0000 0.82411  0.50000  0.50000  Biso   1.000  C
  H1423    1.0000 0.80458  0.48001  0.48302  Biso   1.000  H
  C894     1.0000 0.73614  0.51097  0.52725  Biso   1.000  C
  H1424    1.0000 0.80458  0.51999  0.51698  Biso   1.000  H
  C895     1.0000 0.68804  0.45611  0.46388  Biso   1.000  C
  H1425    1.0000 0.73571  0.51819  0.44792  Biso   1.000  H
  C896     1.0000 0.86541  0.52889  0.47579  Biso   1.000  C
  C897     1.0000 0.86541  0.47111  0.52421  Biso   1.000  C
  C898     1.0000 0.68804  0.54389  0.53612  Biso   1.000  C
  H1426    1.0000 0.73571  0.48181  0.55208  Biso   1.000  H
  H1427    1.0000 0.68851  0.42640  0.48731  Biso   1.000  H
  H1428    1.0000 0.68800  0.44311  0.42831  Biso   1.000  H
  C899     1.0000 0.63829  0.48860  0.47345  Biso   1.000  C
  H1429    1.0000 0.88361  0.54888  0.50180  Biso   1.000  H
  H1430    1.0000 0.85101  0.55208  0.45010  Biso   1.000  H
  H1431    1.0000 0.88931  0.50519  0.45932  Biso   1.000  H
  H1432    1.0000 0.88361  0.45112  0.49820  Biso   1.000  H
  H1433    1.0000 0.85101  0.44792  0.54990  Biso   1.000  H
  H1434    1.0000 0.88931  0.49481  0.54068  Biso   1.000  H
  H1435    1.0000 0.68851  0.57360  0.51269  Biso   1.000  H
  H1436    1.0000 0.68800  0.55689  0.57169  Biso   1.000  H
  C900     1.0000 0.63829  0.51140  0.52655  Biso   1.000  C
  H1437    1.0000 0.63619  0.51628  0.44780  Biso   1.000  H
  H1438    1.0000 0.60780  0.46638  0.46931  Biso   1.000  H
  H1439    1.0000 0.63619  0.48372  0.55220  Biso   1.000  H
  H1440    1.0000 0.60780  0.53362  0.53069  Biso   1.000  H
  C901     1.0000 0.26386  0.51097  0.47275  Biso   1.000  C
  C902     1.0000 0.26386  0.48903  0.52725  Biso   1.000  C
  N121     1.0000 0.21564  0.53885  0.46654  Biso   1.000  N
  H1441    1.0000 0.26429  0.48181  0.44792  Biso   1.000  H
  C903     1.0000 0.31196  0.54389  0.46388  Biso   1.000  C
  N122     1.0000 0.21564  0.46115  0.53346  Biso   1.000  N
  H1442    1.0000 0.26429  0.51819  0.55208  Biso   1.000  H
  C904     1.0000 0.31196  0.45611  0.53612  Biso   1.000  C
  C905     1.0000 0.17589  0.50000  0.50000  Biso   1.000  C
  H1443    1.0000 0.19542  0.51999  0.48302  Biso   1.000  H
  C906     1.0000 0.20061  0.54549  0.41168  Biso   1.000  C
  H1444    1.0000 0.31149  0.57360  0.48731  Biso   1.000  H
  H1445    1.0000 0.31200  0.55689  0.42831  Biso   1.000  H
  C907     1.0000 0.36171  0.51140  0.47345  Biso   1.000  C
  C908     1.0000 0.20061  0.45451  0.58832  Biso   1.000  C
  H1446    1.0000 0.19542  0.48001  0.51698  Biso   1.000  H
  H1447    1.0000 0.31149  0.42640  0.51269  Biso   1.000  H
  H1448    1.0000 0.31200  0.44311  0.57169  Biso   1.000  H
  C909     1.0000 0.36171  0.48860  0.52655  Biso   1.000  C
  C910     1.0000 0.13459  0.47111  0.47579  Biso   1.000  C
  C911     1.0000 0.13459  0.52889  0.52421  Biso   1.000  C
  H1449    1.0000 0.19471  0.51128  0.39669  Biso   1.000  H
  H1450    1.0000 0.22981  0.56110  0.39310  Biso   1.000  H
  C912     1.0000 0.15258  0.57871  0.40188  Biso   1.000  C
  H1451    1.0000 0.36381  0.48372  0.44780  Biso   1.000  H
  H1452    1.0000 0.39220  0.53362  0.46931  Biso   1.000  H
  H1453    1.0000 0.19471  0.48872  0.60331  Biso   1.000  H
  H1454    1.0000 0.22981  0.43890  0.60690  Biso   1.000  H
  C913     1.0000 0.15258  0.42129  0.59812  Biso   1.000  C
  H1455    1.0000 0.36381  0.51628  0.55220  Biso   1.000  H
  H1456    1.0000 0.39220  0.46638  0.53069  Biso   1.000  H
  H1457    1.0000 0.11639  0.45112  0.50180  Biso   1.000  H
  H1458    1.0000 0.14899  0.44792  0.45010  Biso   1.000  H
  H1459    1.0000 0.11069  0.49481  0.45932  Biso   1.000  H
  H1460    1.0000 0.11639  0.54888  0.49820  Biso   1.000  H
  H1461    1.0000 0.14899  0.55208  0.54990  Biso   1.000  H
  H1462    1.0000 0.11069  0.50519  0.54068  Biso   1.000  H
  C914     1.0000 0.12158  0.56684  0.35975  Biso   1.000  C
  C915     1.0000 0.14025  0.62158  0.43316  Biso   1.000  C
  C916     1.0000 0.14025  0.37842  0.56684  Biso   1.000  C
  C917     1.0000 0.12158  0.43316  0.64025  Biso   1.000  C
  C918     1.0000 0.07871  0.59812  0.34742  Biso   1.000  C
  H1463    1.0000 0.12920  0.53779  0.33929  Biso   1.000  H
  C919     1.0000 0.09812  0.65258  0.42129  Biso   1.000  C
  H1464    1.0000 0.16071  0.62920  0.46221  Biso   1.000  H
  C920     1.0000 0.09812  0.34742  0.57871  Biso   1.000  C
  H1465    1.0000 0.16071  0.37080  0.53779  Biso   1.000  H
  C921     1.0000 0.07871  0.40188  0.65258  Biso   1.000  C
  H1466    1.0000 0.12920  0.46221  0.66071  Biso   1.000  H
  C922     1.0000 0.06684  0.64025  0.37842  Biso   1.000  C
  C923     1.0000 0.04549  0.58832  0.29939  Biso   1.000  C
  C924     1.0000 0.08832  0.70061  0.45451  Biso   1.000  C
  C925     1.0000 0.08832  0.29939  0.54549  Biso   1.000  C
  C926     1.0000 0.06684  0.35975  0.62158  Biso   1.000  C
  C927     1.0000 0.04549  0.41168  0.70061  Biso   1.000  C
  H1467    1.0000 0.03779  0.66071  0.37080  Biso   1.000  H
  N123     1.0000 0.03885  0.53346  0.28436  Biso   1.000  N
  H1468    1.0000 0.01128  0.60331  0.30529  Biso   1.000  H
  H1469    1.0000 0.06110  0.60690  0.27019  Biso   1.000  H
  N124     1.0000 0.03346  0.71564  0.46115  Biso   1.000  N
  H1470    1.0000 0.10331  0.69471  0.48872  Biso   1.000  H
  H1471    1.0000 0.10690  0.72981  0.43890  Biso   1.000  H
  N125     1.0000 0.03346  0.28436  0.53885  Biso   1.000  N
  H1472    1.0000 0.10331  0.30529  0.51128  Biso   1.000  H
  H1473    1.0000 0.10690  0.27019  0.56110  Biso   1.000  H
  H1474    1.0000 0.03779  0.33929  0.62920  Biso   1.000  H
  N126     1.0000 0.03885  0.46654  0.71564  Biso   1.000  N
  H1475    1.0000 0.01128  0.39669  0.69471  Biso   1.000  H
  H1476    1.0000 0.06110  0.39310  0.72981  Biso   1.000  H
  C928     1.0000 0.00000  0.50000  0.32411  Biso   1.000  C
  C929     1.0000 0.01097  0.52725  0.23614  Biso   1.000  C
  H1477    1.0000 0.01999  0.51698  0.30458  Biso   1.000  H
  C930     1.0000 0.02725  0.76386  0.48903  Biso   1.000  C
  C931     1.0000 0.00000  0.67589  0.50000  Biso   1.000  C
  H1478    1.0000 0.01698  0.69542  0.48001  Biso   1.000  H
  C932     1.0000 0.00000  0.32411  0.50000  Biso   1.000  C
  C933     1.0000 0.02725  0.23614  0.51097  Biso   1.000  C
  H1479    1.0000 0.01698  0.30458  0.51999  Biso   1.000  H
  C934     1.0000 0.01097  0.47275  0.76386  Biso   1.000  C
  C935     1.0000 0.00000  0.50000  0.67589  Biso   1.000  C
  H1480    1.0000 0.01999  0.48302  0.69542  Biso   1.000  H
  N127     1.0000 0.96115  0.46654  0.28436  Biso   1.000  N
  C936     1.0000 0.97111  0.52421  0.36541  Biso   1.000  C
  H1481    1.0000 0.98001  0.48302  0.30458  Biso   1.000  H
  C937     1.0000 0.02889  0.47579  0.36541  Biso   1.000  C
  C938     1.0000 0.98903  0.47275  0.23614  Biso   1.000  C
  H1482    1.0000 0.98181  0.55208  0.23571  Biso   1.000  H
  C939     1.0000 0.04389  0.53612  0.18804  Biso   1.000  C
  H1483    1.0000 0.05208  0.76429  0.51819  Biso   1.000  H
  C940     1.0000 0.97275  0.76386  0.51097  Biso   1.000  C
  C941     1.0000 0.03612  0.81196  0.45611  Biso   1.000  C
  N128     1.0000 0.96654  0.71564  0.53885  Biso   1.000  N
  C942     1.0000 0.97579  0.63459  0.47111  Biso   1.000  C
  H1484    1.0000 0.98302  0.69542  0.51999  Biso   1.000  H
  C943     1.0000 0.02421  0.63459  0.52889  Biso   1.000  C
  N129     1.0000 0.96654  0.28436  0.46115  Biso   1.000  N
  C944     1.0000 0.97579  0.36541  0.52889  Biso   1.000  C
  H1485    1.0000 0.98302  0.30458  0.48001  Biso   1.000  H
  C945     1.0000 0.02421  0.36541  0.47111  Biso   1.000  C
  H1486    1.0000 0.05208  0.23571  0.48181  Biso   1.000  H
  C946     1.0000 0.97275  0.23614  0.48903  Biso   1.000  C
  C947     1.0000 0.03612  0.18804  0.54389  Biso   1.000  C
  H1487    1.0000 0.98181  0.44792  0.76429  Biso   1.000  H
  C948     1.0000 0.98903  0.52725  0.76386  Biso   1.000  C
  C949     1.0000 0.04389  0.46388  0.81196  Biso   1.000  C
  C950     1.0000 0.97111  0.47579  0.63459  Biso   1.000  C
  N130     1.0000 0.96115  0.53346  0.71564  Biso   1.000  N
  H1488    1.0000 0.98001  0.51698  0.69542  Biso   1.000  H
  C951     1.0000 0.02889  0.52421  0.63459  Biso   1.000  C
  C952     1.0000 0.95451  0.41168  0.29939  Biso   1.000  C
  H1489    1.0000 0.95112  0.49820  0.38361  Biso   1.000  H
  H1490    1.0000 0.94792  0.54990  0.35101  Biso   1.000  H
  H1491    1.0000 0.99481  0.54068  0.38931  Biso   1.000  H
  H1492    1.0000 0.04888  0.50180  0.38361  Biso   1.000  H
  H1493    1.0000 0.05208  0.45010  0.35101  Biso   1.000  H
  H1494    1.0000 0.00519  0.45932  0.38931  Biso   1.000  H
  H1495    1.0000 0.01819  0.44792  0.23571  Biso   1.000  H
  C953     1.0000 0.95611  0.46388  0.18804  Biso   1.000  C
  H1496    1.0000 0.07360  0.51269  0.18851  Biso   1.000  H
  H1497    1.0000 0.05689  0.57169  0.18800  Biso   1.000  H
  C954     1.0000 0.01140  0.52655  0.13829  Biso   1.000  C
  C955     1.0000 0.96388  0.81196  0.54389  Biso   1.000  C
  H1498    1.0000 0.94792  0.76429  0.48181  Biso   1.000  H
  H1499    1.0000 0.01269  0.81149  0.42640  Biso   1.000  H
  H1500    1.0000 0.07169  0.81200  0.44311  Biso   1.000  H
  C956     1.0000 0.02655  0.86171  0.48860  Biso   1.000  C
  C957     1.0000 0.91168  0.70061  0.54549  Biso   1.000  C
  H1501    1.0000 0.95010  0.64899  0.44792  Biso   1.000  H
  H1502    1.0000 0.95932  0.61069  0.49481  Biso   1.000  H
  H1503    1.0000 0.00180  0.61639  0.45112  Biso   1.000  H
  H1504    1.0000 0.99820  0.61639  0.54888  Biso   1.000  H
  H1505    1.0000 0.04990  0.64899  0.55208  Biso   1.000  H
  H1506    1.0000 0.04068  0.61069  0.50519  Biso   1.000  H
  C958     1.0000 0.91168  0.29939  0.45451  Biso   1.000  C
  H1507    1.0000 0.95010  0.35101  0.55208  Biso   1.000  H
  H1508    1.0000 0.95932  0.38931  0.50519  Biso   1.000  H
  H1509    1.0000 0.00180  0.38361  0.54888  Biso   1.000  H
  H1510    1.0000 0.99820  0.38361  0.45112  Biso   1.000  H
  H1511    1.0000 0.04990  0.35101  0.44792  Biso   1.000  H
  H1512    1.0000 0.04068  0.38931  0.49481  Biso   1.000  H
  C959     1.0000 0.96388  0.18804  0.45611  Biso   1.000  C
  H1513    1.0000 0.94792  0.23571  0.51819  Biso   1.000  H
  H1514    1.0000 0.01269  0.18851  0.57360  Biso   1.000  H
  H1515    1.0000 0.07169  0.18800  0.55689  Biso   1.000  H
  C960     1.0000 0.02655  0.13829  0.51140  Biso   1.000  C
  H1516    1.0000 0.01819  0.55208  0.76429  Biso   1.000  H
  C961     1.0000 0.95611  0.53612  0.81196  Biso   1.000  C
  H1517    1.0000 0.07360  0.48731  0.81149  Biso   1.000  H
  H1518    1.0000 0.05689  0.42831  0.81200  Biso   1.000  H
  C962     1.0000 0.01140  0.47345  0.86171  Biso   1.000  C
  H1519    1.0000 0.95112  0.50180  0.61639  Biso   1.000  H
  H1520    1.0000 0.94792  0.45010  0.64899  Biso   1.000  H
  H1521    1.0000 0.99481  0.45932  0.61069  Biso   1.000  H
  C963     1.0000 0.95451  0.58832  0.70061  Biso   1.000  C
  H1522    1.0000 0.04888  0.49820  0.61639  Biso   1.000  H
  H1523    1.0000 0.05208  0.54990  0.64899  Biso   1.000  H
  H1524    1.0000 0.00519  0.54068  0.61069  Biso   1.000  H
  C964     1.0000 0.92129  0.40188  0.34742  Biso   1.000  C
  H1525    1.0000 0.98872  0.39669  0.30529  Biso   1.000  H
  H1526    1.0000 0.93890  0.39310  0.27019  Biso   1.000  H
  H1527    1.0000 0.92640  0.48731  0.18851  Biso   1.000  H
  H1528    1.0000 0.94311  0.42831  0.18800  Biso   1.000  H
  C965     1.0000 0.98860  0.47345  0.13829  Biso   1.000  C
  H1529    1.0000 0.98372  0.55220  0.13619  Biso   1.000  H
  H1530    1.0000 0.03362  0.53069  0.10780  Biso   1.000  H
  H1531    1.0000 0.98731  0.81149  0.57360  Biso   1.000  H
  H1532    1.0000 0.92831  0.81200  0.55689  Biso   1.000  H
  C966     1.0000 0.97345  0.86171  0.51140  Biso   1.000  C
  H1533    1.0000 0.05220  0.86381  0.51628  Biso   1.000  H
  H1534    1.0000 0.03069  0.89220  0.46638  Biso   1.000  H
  C967     1.0000 0.90188  0.65258  0.57871  Biso   1.000  C
  H1535    1.0000 0.89669  0.69471  0.51128  Biso   1.000  H
  H1536    1.0000 0.89310  0.72981  0.56110  Biso   1.000  H
  C968     1.0000 0.90188  0.34742  0.42129  Biso   1.000  C
  H1537    1.0000 0.89669  0.30529  0.48872  Biso   1.000  H
  H1538    1.0000 0.89310  0.27019  0.43890  Biso   1.000  H
  H1539    1.0000 0.98731  0.18851  0.42640  Biso   1.000  H
  H1540    1.0000 0.92831  0.18800  0.44311  Biso   1.000  H
  C969     1.0000 0.97345  0.13829  0.48860  Biso   1.000  C
  H1541    1.0000 0.05220  0.13619  0.48372  Biso   1.000  H
  H1542    1.0000 0.03069  0.10780  0.53362  Biso   1.000  H
  H1543    1.0000 0.92640  0.51269  0.81149  Biso   1.000  H
  H1544    1.0000 0.94311  0.57169  0.81200  Biso   1.000  H
  C970     1.0000 0.98860  0.52655  0.86171  Biso   1.000  C
  H1545    1.0000 0.98372  0.44780  0.86381  Biso   1.000  H
  H1546    1.0000 0.03362  0.46931  0.89220  Biso   1.000  H
  C971     1.0000 0.92129  0.59812  0.65258  Biso   1.000  C
  H1547    1.0000 0.98872  0.60331  0.69471  Biso   1.000  H
  H1548    1.0000 0.93890  0.60690  0.72981  Biso   1.000  H
  C972     1.0000 0.93316  0.35975  0.37842  Biso   1.000  C
  C973     1.0000 0.87842  0.43316  0.35975  Biso   1.000  C
  H1549    1.0000 0.96638  0.46931  0.10780  Biso   1.000  H
  H1550    1.0000 0.01628  0.44780  0.13619  Biso   1.000  H
  H1551    1.0000 0.94780  0.86381  0.48372  Biso   1.000  H
  H1552    1.0000 0.96931  0.89220  0.53362  Biso   1.000  H
  C974     1.0000 0.93316  0.64025  0.62158  Biso   1.000  C
  C975     1.0000 0.85975  0.62158  0.56684  Biso   1.000  C
  C976     1.0000 0.85975  0.37842  0.43316  Biso   1.000  C
  H1553    1.0000 0.94780  0.13619  0.51628  Biso   1.000  H
  H1554    1.0000 0.96931  0.10780  0.46638  Biso   1.000  H
  H1555    1.0000 0.96638  0.53069  0.89220  Biso   1.000  H
  H1556    1.0000 0.01628  0.55220  0.86381  Biso   1.000  H
  C977     1.0000 0.87842  0.56684  0.64025  Biso   1.000  C
  H1557    1.0000 0.96221  0.33929  0.37080  Biso   1.000  H
  C978     1.0000 0.84742  0.42129  0.40188  Biso   1.000  C
  H1558    1.0000 0.87080  0.46221  0.33929  Biso   1.000  H
  H1559    1.0000 0.96221  0.66071  0.62920  Biso   1.000  H
  C979     1.0000 0.84742  0.57871  0.59812  Biso   1.000  C
  H1560    1.0000 0.83929  0.62920  0.53779  Biso   1.000  H
  H1561    1.0000 0.83929  0.37080  0.46221  Biso   1.000  H
  H1562    1.0000 0.87080  0.53779  0.66071  Biso   1.000  H
  C980     1.0000 0.79939  0.45451  0.41168  Biso   1.000  C
  C981     1.0000 0.79939  0.54549  0.58832  Biso   1.000  C
  N131     1.0000 0.78436  0.46115  0.46654  Biso   1.000  N
  H1563    1.0000 0.80529  0.48872  0.39669  Biso   1.000  H
  H1564    1.0000 0.77019  0.43890  0.39310  Biso   1.000  H
  N132     1.0000 0.78436  0.53885  0.53346  Biso   1.000  N
  H1565    1.0000 0.80529  0.51128  0.60331  Biso   1.000  H
  H1566    1.0000 0.77019  0.56110  0.60690  Biso   1.000  H
  C982     1.0000 0.73614  0.48903  0.47275  Biso   1.000  C
  C983     1.0000 0.82411  0.50000  0.50000  Biso   1.000  C
  H1567    1.0000 0.80458  0.48001  0.48302  Biso   1.000  H
  C984     1.0000 0.73614  0.51097  0.52725  Biso   1.000  C
  H1568    1.0000 0.80458  0.51999  0.51698  Biso   1.000  H
  C985     1.0000 0.68804  0.45611  0.46388  Biso   1.000  C
  H1569    1.0000 0.73571  0.51819  0.44792  Biso   1.000  H
  C986     1.0000 0.86541  0.52889  0.47579  Biso   1.000  C
  C987     1.0000 0.86541  0.47111  0.52421  Biso   1.000  C
  C988     1.0000 0.68804  0.54389  0.53612  Biso   1.000  C
  H1570    1.0000 0.73571  0.48181  0.55208  Biso   1.000  H
  H1571    1.0000 0.68851  0.42640  0.48731  Biso   1.000  H
  H1572    1.0000 0.68800  0.44311  0.42831  Biso   1.000  H
  C989     1.0000 0.63829  0.48860  0.47345  Biso   1.000  C
  H1573    1.0000 0.88361  0.54888  0.50180  Biso   1.000  H
  H1574    1.0000 0.85101  0.55208  0.45010  Biso   1.000  H
  H1575    1.0000 0.88931  0.50519  0.45932  Biso   1.000  H
  H1576    1.0000 0.88361  0.45112  0.49820  Biso   1.000  H
  H1577    1.0000 0.85101  0.44792  0.54990  Biso   1.000  H
  H1578    1.0000 0.88931  0.49481  0.54068  Biso   1.000  H
  H1579    1.0000 0.68851  0.57360  0.51269  Biso   1.000  H
  H1580    1.0000 0.68800  0.55689  0.57169  Biso   1.000  H
  C990     1.0000 0.63829  0.51140  0.52655  Biso   1.000  C
  H1581    1.0000 0.63619  0.51628  0.44780  Biso   1.000  H
  H1582    1.0000 0.60780  0.46638  0.46931  Biso   1.000  H
  H1583    1.0000 0.63619  0.48372  0.55220  Biso   1.000  H
  H1584    1.0000 0.60780  0.53362  0.53069  Biso   1.000  H
  C991     1.0000 0.26386  0.98903  0.02725  Biso   1.000  C
  N133     1.0000 0.21564  0.96115  0.03346  Biso   1.000  N
  C992     1.0000 0.26386  0.01097  0.97275  Biso   1.000  C
  H1585    1.0000 0.26429  0.01819  0.05208  Biso   1.000  H
  C993     1.0000 0.31196  0.95611  0.03612  Biso   1.000  C
  C994     1.0000 0.17589  0.00000  0.00000  Biso   1.000  C
  H1586    1.0000 0.19542  0.98001  0.01698  Biso   1.000  H
  C995     1.0000 0.20061  0.95451  0.08832  Biso   1.000  C
  N134     1.0000 0.21564  0.03885  0.96654  Biso   1.000  N
  H1587    1.0000 0.26429  0.98181  0.94792  Biso   1.000  H
  C996     1.0000 0.31196  0.04389  0.96388  Biso   1.000  C
  H1588    1.0000 0.31149  0.92640  0.01269  Biso   1.000  H
  H1589    1.0000 0.31200  0.94311  0.07169  Biso   1.000  H
  C997     1.0000 0.36171  0.98860  0.02655  Biso   1.000  C
  C998     1.0000 0.13459  0.02889  0.02421  Biso   1.000  C
  C999     1.0000 0.13459  0.97111  0.97579  Biso   1.000  C
  H1590    1.0000 0.19542  0.01999  0.98302  Biso   1.000  H
  C1000    1.0000 0.15258  0.92129  0.09812  Biso   1.000  C
  H1591    1.0000 0.19471  0.98872  0.10331  Biso   1.000  H
  H1592    1.0000 0.22981  0.93890  0.10690  Biso   1.000  H
  C1001    1.0000 0.20061  0.04549  0.91168  Biso   1.000  C
  H1593    1.0000 0.31149  0.07360  0.98731  Biso   1.000  H
  H1594    1.0000 0.31200  0.05689  0.92831  Biso   1.000  H
  C1002    1.0000 0.36171  0.01140  0.97345  Biso   1.000  C
  H1595    1.0000 0.36381  0.01628  0.05220  Biso   1.000  H
  H1596    1.0000 0.39220  0.96638  0.03069  Biso   1.000  H
  H1597    1.0000 0.14899  0.05208  0.04990  Biso   1.000  H
  H1598    1.0000 0.11069  0.00519  0.04068  Biso   1.000  H
  H1599    1.0000 0.11639  0.04888  0.99820  Biso   1.000  H
  H1600    1.0000 0.14899  0.94792  0.95010  Biso   1.000  H
  H1601    1.0000 0.11069  0.99481  0.95932  Biso   1.000  H
  H1602    1.0000 0.11639  0.95112  0.00180  Biso   1.000  H
  C1003    1.0000 0.12158  0.93316  0.14025  Biso   1.000  C
  C1004    1.0000 0.14025  0.87842  0.06684  Biso   1.000  C
  C1005    1.0000 0.15258  0.07871  0.90188  Biso   1.000  C
  H1603    1.0000 0.19471  0.01128  0.89669  Biso   1.000  H
  H1604    1.0000 0.22981  0.06110  0.89310  Biso   1.000  H
  H1605    1.0000 0.36381  0.98372  0.94780  Biso   1.000  H
  H1606    1.0000 0.39220  0.03362  0.96931  Biso   1.000  H
  C1006    1.0000 0.07871  0.90188  0.15258  Biso   1.000  C
  H1607    1.0000 0.12920  0.96221  0.16071  Biso   1.000  H
  C1007    1.0000 0.09812  0.84742  0.07871  Biso   1.000  C
  H1608    1.0000 0.16071  0.87080  0.03779  Biso   1.000  H
  C1008    1.0000 0.14025  0.12158  0.93316  Biso   1.000  C
  C1009    1.0000 0.12158  0.06684  0.85975  Biso   1.000  C
  C1010    1.0000 0.06684  0.85975  0.12158  Biso   1.000  C
  C1011    1.0000 0.04549  0.91168  0.20061  Biso   1.000  C
  C1012    1.0000 0.08832  0.79939  0.04549  Biso   1.000  C
  C1013    1.0000 0.09812  0.15258  0.92129  Biso   1.000  C
  H1609    1.0000 0.16071  0.12920  0.96221  Biso   1.000  H
  C1014    1.0000 0.07871  0.09812  0.84742  Biso   1.000  C
  H1610    1.0000 0.12920  0.03779  0.83929  Biso   1.000  H
  H1611    1.0000 0.03779  0.83929  0.12920  Biso   1.000  H
  N135     1.0000 0.03885  0.96654  0.21564  Biso   1.000  N
  H1612    1.0000 0.01128  0.89669  0.19471  Biso   1.000  H
  H1613    1.0000 0.06110  0.89310  0.22981  Biso   1.000  H
  N136     1.0000 0.03346  0.78436  0.03885  Biso   1.000  N
  H1614    1.0000 0.10331  0.80529  0.01128  Biso   1.000  H
  H1615    1.0000 0.10690  0.77019  0.06110  Biso   1.000  H
  C1015    1.0000 0.08832  0.20061  0.95451  Biso   1.000  C
  C1016    1.0000 0.06684  0.14025  0.87842  Biso   1.000  C
  C1017    1.0000 0.04549  0.08832  0.79939  Biso   1.000  C
  C1018    1.0000 0.00000  0.00000  0.17589  Biso   1.000  C
  C1019    1.0000 0.01097  0.97275  0.26386  Biso   1.000  C
  H1616    1.0000 0.01999  0.98302  0.19542  Biso   1.000  H
  C1020    1.0000 0.02725  0.73614  0.01097  Biso   1.000  C
  C1021    1.0000 0.00000  0.82411  0.00000  Biso   1.000  C
  H1617    1.0000 0.01698  0.80458  0.01999  Biso   1.000  H
  N137     1.0000 0.03346  0.21564  0.96115  Biso   1.000  N
  H1618    1.0000 0.10331  0.19471  0.98872  Biso   1.000  H
  H1619    1.0000 0.10690  0.22981  0.93890  Biso   1.000  H
  H1620    1.0000 0.03779  0.16071  0.87080  Biso   1.000  H
  N138     1.0000 0.03885  0.03346  0.78436  Biso   1.000  N
  H1621    1.0000 0.01128  0.10331  0.80529  Biso   1.000  H
  H1622    1.0000 0.06110  0.10690  0.77019  Biso   1.000  H
  C1022    1.0000 0.02889  0.02421  0.13459  Biso   1.000  C
  C1023    1.0000 0.97111  0.97579  0.13459  Biso   1.000  C
  N139     1.0000 0.96115  0.03346  0.21564  Biso   1.000  N
  H1623    1.0000 0.98001  0.01698  0.19542  Biso   1.000  H
  H1624    1.0000 0.98181  0.94792  0.26429  Biso   1.000  H
  C1024    1.0000 0.98903  0.02725  0.26386  Biso   1.000  C
  C1025    1.0000 0.04389  0.96388  0.31196  Biso   1.000  C
  C1026    1.0000 0.97275  0.73614  0.98903  Biso   1.000  C
  H1625    1.0000 0.05208  0.73571  0.98181  Biso   1.000  H
  C1027    1.0000 0.03612  0.68804  0.04389  Biso   1.000  C
  N140     1.0000 0.96654  0.78436  0.96115  Biso   1.000  N
  H1626    1.0000 0.98302  0.80458  0.98001  Biso   1.000  H
  C1028    1.0000 0.97579  0.86541  0.02889  Biso   1.000  C
  C1029    1.0000 0.02421  0.86541  0.97111  Biso   1.000  C
  C1030    1.0000 0.00000  0.17589  0.00000  Biso   1.000  C
  C1031    1.0000 0.02725  0.26386  0.98903  Biso   1.000  C
  H1627    1.0000 0.01698  0.19542  0.98001  Biso   1.000  H
  C1032    1.0000 0.01097  0.02725  0.73614  Biso   1.000  C
  C1033    1.0000 0.00000  0.00000  0.82411  Biso   1.000  C
  H1628    1.0000 0.01999  0.01698  0.80458  Biso   1.000  H
  H1629    1.0000 0.05208  0.04990  0.14899  Biso   1.000  H
  H1630    1.0000 0.00519  0.04068  0.11069  Biso   1.000  H
  H1631    1.0000 0.04888  0.99820  0.11639  Biso   1.000  H
  H1632    1.0000 0.94792  0.95010  0.14899  Biso   1.000  H
  H1633    1.0000 0.99481  0.95932  0.11069  Biso   1.000  H
  H1634    1.0000 0.95112  0.00180  0.11639  Biso   1.000  H
  C1034    1.0000 0.95451  0.08832  0.20061  Biso   1.000  C
  H1635    1.0000 0.01819  0.05208  0.26429  Biso   1.000  H
  C1035    1.0000 0.95611  0.03612  0.31196  Biso   1.000  C
  H1636    1.0000 0.07360  0.98731  0.31149  Biso   1.000  H
  H1637    1.0000 0.05689  0.92831  0.31200  Biso   1.000  H
  C1036    1.0000 0.01140  0.97345  0.36171  Biso   1.000  C
  C1037    1.0000 0.96388  0.68804  0.95611  Biso   1.000  C
  H1638    1.0000 0.94792  0.73571  0.01819  Biso   1.000  H
  H1639    1.0000 0.01269  0.68851  0.07360  Biso   1.000  H
  H1640    1.0000 0.07169  0.68800  0.05689  Biso   1.000  H
  C1038    1.0000 0.02655  0.63829  0.01140  Biso   1.000  C
  C1039    1.0000 0.91168  0.79939  0.95451  Biso   1.000  C
  H1641    1.0000 0.95010  0.85101  0.05208  Biso   1.000  H
  H1642    1.0000 0.95932  0.88931  0.00519  Biso   1.000  H
  H1643    1.0000 0.00180  0.88361  0.04888  Biso   1.000  H
  H1644    1.0000 0.99820  0.88361  0.95112  Biso   1.000  H
  H1645    1.0000 0.04990  0.85101  0.94792  Biso   1.000  H
  H1646    1.0000 0.04068  0.88931  0.99481  Biso   1.000  H
  C1040    1.0000 0.02421  0.13459  0.02889  Biso   1.000  C
  C1041    1.0000 0.97579  0.13459  0.97111  Biso   1.000  C
  N141     1.0000 0.96654  0.21564  0.03885  Biso   1.000  N
  H1647    1.0000 0.98302  0.19542  0.01999  Biso   1.000  H
  H1648    1.0000 0.05208  0.26429  0.01819  Biso   1.000  H
  C1042    1.0000 0.97275  0.26386  0.01097  Biso   1.000  C
  C1043    1.0000 0.03612  0.31196  0.95611  Biso   1.000  C
  C1044    1.0000 0.98903  0.97275  0.73614  Biso   1.000  C
  H1649    1.0000 0.98181  0.05208  0.73571  Biso   1.000  H
  C1045    1.0000 0.04389  0.03612  0.68804  Biso   1.000  C
  N142     1.0000 0.96115  0.96654  0.78436  Biso   1.000  N
  H1650    1.0000 0.98001  0.98302  0.80458  Biso   1.000  H
  C1046    1.0000 0.97111  0.02421  0.86541  Biso   1.000  C
  C1047    1.0000 0.02889  0.97579  0.86541  Biso   1.000  C
  C1048    1.0000 0.92129  0.09812  0.15258  Biso   1.000  C
  H1651    1.0000 0.98872  0.10331  0.19471  Biso   1.000  H
  H1652    1.0000 0.93890  0.10690  0.22981  Biso   1.000  H
  H1653    1.0000 0.92640  0.01269  0.31149  Biso   1.000  H
  H1654    1.0000 0.94311  0.07169  0.31200  Biso   1.000  H
  C1049    1.0000 0.98860  0.02655  0.36171  Biso   1.000  C
  H1655    1.0000 0.98372  0.94780  0.36381  Biso   1.000  H
  H1656    1.0000 0.03362  0.96931  0.39220  Biso   1.000  H
  H1657    1.0000 0.98731  0.68851  0.92640  Biso   1.000  H
  H1658    1.0000 0.92831  0.68800  0.94311  Biso   1.000  H
  C1050    1.0000 0.97345  0.63829  0.98860  Biso   1.000  C
  H1659    1.0000 0.05220  0.63619  0.98372  Biso   1.000  H
  H1660    1.0000 0.03069  0.60780  0.03362  Biso   1.000  H
  C1051    1.0000 0.90188  0.84742  0.92129  Biso   1.000  C
  H1661    1.0000 0.89669  0.80529  0.98872  Biso   1.000  H
  H1662    1.0000 0.89310  0.77019  0.93890  Biso   1.000  H
  H1663    1.0000 0.04990  0.14899  0.05208  Biso   1.000  H
  H1664    1.0000 0.04068  0.11069  0.00519  Biso   1.000  H
  H1665    1.0000 0.99820  0.11639  0.04888  Biso   1.000  H
  H1666    1.0000 0.95010  0.14899  0.94792  Biso   1.000  H
  H1667    1.0000 0.95932  0.11069  0.99481  Biso   1.000  H
  H1668    1.0000 0.00180  0.11639  0.95112  Biso   1.000  H
  C1052    1.0000 0.91168  0.20061  0.04549  Biso   1.000  C
  H1669    1.0000 0.94792  0.26429  0.98181  Biso   1.000  H
  C1053    1.0000 0.96388  0.31196  0.04389  Biso   1.000  C
  H1670    1.0000 0.01269  0.31149  0.92640  Biso   1.000  H
  H1671    1.0000 0.07169  0.31200  0.94311  Biso   1.000  H
  C1054    1.0000 0.02655  0.36171  0.98860  Biso   1.000  C
  C1055    1.0000 0.95611  0.96388  0.68804  Biso   1.000  C
  H1672    1.0000 0.01819  0.94792  0.73571  Biso   1.000  H
  H1673    1.0000 0.07360  0.01269  0.68851  Biso   1.000  H
  H1674    1.0000 0.05689  0.07169  0.68800  Biso   1.000  H
  C1056    1.0000 0.01140  0.02655  0.63829  Biso   1.000  C
  C1057    1.0000 0.95451  0.91168  0.79939  Biso   1.000  C
  H1675    1.0000 0.95112  0.99820  0.88361  Biso   1.000  H
  H1676    1.0000 0.94792  0.04990  0.85101  Biso   1.000  H
  H1677    1.0000 0.99481  0.04068  0.88931  Biso   1.000  H
  H1678    1.0000 0.05208  0.95010  0.85101  Biso   1.000  H
  H1679    1.0000 0.00519  0.95932  0.88931  Biso   1.000  H
  H1680    1.0000 0.04888  0.00180  0.88361  Biso   1.000  H
  C1058    1.0000 0.93316  0.14025  0.12158  Biso   1.000  C
  C1059    1.0000 0.87842  0.06684  0.14025  Biso   1.000  C
  H1681    1.0000 0.01628  0.05220  0.36381  Biso   1.000  H
  H1682    1.0000 0.96638  0.03069  0.39220  Biso   1.000  H
  H1683    1.0000 0.96931  0.60780  0.96638  Biso   1.000  H
  H1684    1.0000 0.94780  0.63619  0.01628  Biso   1.000  H
  C1060    1.0000 0.93316  0.85975  0.87842  Biso   1.000  C
  C1061    1.0000 0.85975  0.87842  0.93316  Biso   1.000  C
  C1062    1.0000 0.90188  0.15258  0.07871  Biso   1.000  C
  H1685    1.0000 0.89669  0.19471  0.01128  Biso   1.000  H
  H1686    1.0000 0.89310  0.22981  0.06110  Biso   1.000  H
  H1687    1.0000 0.98731  0.31149  0.07360  Biso   1.000  H
  H1688    1.0000 0.92831  0.31200  0.05689  Biso   1.000  H
  C1063    1.0000 0.97345  0.36171  0.01140  Biso   1.000  C
  H1689    1.0000 0.05220  0.36381  0.01628  Biso   1.000  H
  H1690    1.0000 0.03069  0.39220  0.96638  Biso   1.000  H
  H1691    1.0000 0.92640  0.98731  0.68851  Biso   1.000  H
  H1692    1.0000 0.94311  0.92831  0.68800  Biso   1.000  H
  C1064    1.0000 0.98860  0.97345  0.63829  Biso   1.000  C
  H1693    1.0000 0.98372  0.05220  0.63619  Biso   1.000  H
  H1694    1.0000 0.03362  0.03069  0.60780  Biso   1.000  H
  C1065    1.0000 0.92129  0.90188  0.84742  Biso   1.000  C
  H1695    1.0000 0.98872  0.89669  0.80529  Biso   1.000  H
  H1696    1.0000 0.93890  0.89310  0.77019  Biso   1.000  H
  H1697    1.0000 0.96221  0.16071  0.12920  Biso   1.000  H
  C1066    1.0000 0.84742  0.07871  0.09812  Biso   1.000  C
  H1698    1.0000 0.87080  0.03779  0.16071  Biso   1.000  H
  H1699    1.0000 0.96221  0.83929  0.87080  Biso   1.000  H
  C1067    1.0000 0.84742  0.92129  0.90188  Biso   1.000  C
  H1700    1.0000 0.83929  0.87080  0.96221  Biso   1.000  H
  C1068    1.0000 0.85975  0.12158  0.06684  Biso   1.000  C
  H1701    1.0000 0.94780  0.36381  0.98372  Biso   1.000  H
  H1702    1.0000 0.96931  0.39220  0.03362  Biso   1.000  H
  H1703    1.0000 0.96638  0.96931  0.60780  Biso   1.000  H
  H1704    1.0000 0.01628  0.94780  0.63619  Biso   1.000  H
  C1069    1.0000 0.87842  0.93316  0.85975  Biso   1.000  C
  C1070    1.0000 0.79939  0.04549  0.08832  Biso   1.000  C
  C1071    1.0000 0.79939  0.95451  0.91168  Biso   1.000  C
  H1705    1.0000 0.83929  0.12920  0.03779  Biso   1.000  H
  H1706    1.0000 0.87080  0.96221  0.83929  Biso   1.000  H
  N143     1.0000 0.78436  0.03885  0.03346  Biso   1.000  N
  H1707    1.0000 0.80529  0.01128  0.10331  Biso   1.000  H
  H1708    1.0000 0.77019  0.06110  0.10690  Biso   1.000  H
  N144     1.0000 0.78436  0.96115  0.96654  Biso   1.000  N
  H1709    1.0000 0.80529  0.98872  0.89669  Biso   1.000  H
  H1710    1.0000 0.77019  0.93890  0.89310  Biso   1.000  H
  C1072    1.0000 0.73614  0.01097  0.02725  Biso   1.000  C
  C1073    1.0000 0.82411  0.00000  0.00000  Biso   1.000  C
  H1711    1.0000 0.80458  0.01999  0.01698  Biso   1.000  H
  C1074    1.0000 0.73614  0.98903  0.97275  Biso   1.000  C
  H1712    1.0000 0.80458  0.98001  0.98302  Biso   1.000  H
  H1713    1.0000 0.73571  0.98181  0.05208  Biso   1.000  H
  C1075    1.0000 0.68804  0.04389  0.03612  Biso   1.000  C
  C1076    1.0000 0.86541  0.97111  0.02421  Biso   1.000  C
  C1077    1.0000 0.86541  0.02889  0.97579  Biso   1.000  C
  C1078    1.0000 0.68804  0.95611  0.96388  Biso   1.000  C
  H1714    1.0000 0.73571  0.01819  0.94792  Biso   1.000  H
  H1715    1.0000 0.68851  0.07360  0.01269  Biso   1.000  H
  H1716    1.0000 0.68800  0.05689  0.07169  Biso   1.000  H
  C1079    1.0000 0.63829  0.01140  0.02655  Biso   1.000  C
  H1717    1.0000 0.88361  0.95112  0.99820  Biso   1.000  H
  H1718    1.0000 0.85101  0.94792  0.04990  Biso   1.000  H
  H1719    1.0000 0.88931  0.99481  0.04068  Biso   1.000  H
  H1720    1.0000 0.85101  0.05208  0.95010  Biso   1.000  H
  H1721    1.0000 0.88931  0.00519  0.95932  Biso   1.000  H
  H1722    1.0000 0.88361  0.04888  0.00180  Biso   1.000  H
  H1723    1.0000 0.68851  0.92640  0.98731  Biso   1.000  H
  H1724    1.0000 0.68800  0.94311  0.92831  Biso   1.000  H
  C1080    1.0000 0.63829  0.98860  0.97345  Biso   1.000  C
  H1725    1.0000 0.63619  0.98372  0.05220  Biso   1.000  H
  H1726    1.0000 0.60780  0.03362  0.03069  Biso   1.000  H
  H1727    1.0000 0.60780  0.96638  0.96931  Biso   1.000  H
  H1728    1.0000 0.63619  0.01628  0.94780  Biso   1.000  H
  C1081    1.0000 0.26386  0.98903  0.02725  Biso   1.000  C
  N145     1.0000 0.21564  0.96115  0.03346  Biso   1.000  N
  C1082    1.0000 0.26386  0.01097  0.97275  Biso   1.000  C
  H1729    1.0000 0.26429  0.01819  0.05208  Biso   1.000  H
  C1083    1.0000 0.31196  0.95611  0.03612  Biso   1.000  C
  C1084    1.0000 0.17589  0.00000  0.00000  Biso   1.000  C
  H1730    1.0000 0.19542  0.98001  0.01698  Biso   1.000  H
  C1085    1.0000 0.20061  0.95451  0.08832  Biso   1.000  C
  N146     1.0000 0.21564  0.03885  0.96654  Biso   1.000  N
  H1731    1.0000 0.26429  0.98181  0.94792  Biso   1.000  H
  C1086    1.0000 0.31196  0.04389  0.96388  Biso   1.000  C
  H1732    1.0000 0.31149  0.92640  0.01269  Biso   1.000  H
  H1733    1.0000 0.31200  0.94311  0.07169  Biso   1.000  H
  C1087    1.0000 0.36171  0.98860  0.02655  Biso   1.000  C
  C1088    1.0000 0.13459  0.02889  0.02421  Biso   1.000  C
  C1089    1.0000 0.13459  0.97111  0.97579  Biso   1.000  C
  H1734    1.0000 0.19542  0.01999  0.98302  Biso   1.000  H
  C1090    1.0000 0.15258  0.92129  0.09812  Biso   1.000  C
  H1735    1.0000 0.19471  0.98872  0.10331  Biso   1.000  H
  H1736    1.0000 0.22981  0.93890  0.10690  Biso   1.000  H
  C1091    1.0000 0.20061  0.04549  0.91168  Biso   1.000  C
  H1737    1.0000 0.31149  0.07360  0.98731  Biso   1.000  H
  H1738    1.0000 0.31200  0.05689  0.92831  Biso   1.000  H
  C1092    1.0000 0.36171  0.01140  0.97345  Biso   1.000  C
  H1739    1.0000 0.36381  0.01628  0.05220  Biso   1.000  H
  H1740    1.0000 0.39220  0.96638  0.03069  Biso   1.000  H
  H1741    1.0000 0.14899  0.05208  0.04990  Biso   1.000  H
  H1742    1.0000 0.11069  0.00519  0.04068  Biso   1.000  H
  H1743    1.0000 0.11639  0.04888  0.99820  Biso   1.000  H
  H1744    1.0000 0.14899  0.94792  0.95010  Biso   1.000  H
  H1745    1.0000 0.11069  0.99481  0.95932  Biso   1.000  H
  H1746    1.0000 0.11639  0.95112  0.00180  Biso   1.000  H
  C1093    1.0000 0.12158  0.93316  0.14025  Biso   1.000  C
  C1094    1.0000 0.14025  0.87842  0.06684  Biso   1.000  C
  C1095    1.0000 0.15258  0.07871  0.90188  Biso   1.000  C
  H1747    1.0000 0.19471  0.01128  0.89669  Biso   1.000  H
  H1748    1.0000 0.22981  0.06110  0.89310  Biso   1.000  H
  H1749    1.0000 0.36381  0.98372  0.94780  Biso   1.000  H
  H1750    1.0000 0.39220  0.03362  0.96931  Biso   1.000  H
  C1096    1.0000 0.07871  0.90188  0.15258  Biso   1.000  C
  H1751    1.0000 0.12920  0.96221  0.16071  Biso   1.000  H
  C1097    1.0000 0.09812  0.84742  0.07871  Biso   1.000  C
  H1752    1.0000 0.16071  0.87080  0.03779  Biso   1.000  H
  C1098    1.0000 0.14025  0.12158  0.93316  Biso   1.000  C
  C1099    1.0000 0.12158  0.06684  0.85975  Biso   1.000  C
  C1100    1.0000 0.06684  0.85975  0.12158  Biso   1.000  C
  C1101    1.0000 0.04549  0.91168  0.20061  Biso   1.000  C
  C1102    1.0000 0.08832  0.79939  0.04549  Biso   1.000  C
  C1103    1.0000 0.09812  0.15258  0.92129  Biso   1.000  C
  H1753    1.0000 0.16071  0.12920  0.96221  Biso   1.000  H
  C1104    1.0000 0.07871  0.09812  0.84742  Biso   1.000  C
  H1754    1.0000 0.12920  0.03779  0.83929  Biso   1.000  H
  H1755    1.0000 0.03779  0.83929  0.12920  Biso   1.000  H
  N147     1.0000 0.03885  0.96654  0.21564  Biso   1.000  N
  H1756    1.0000 0.01128  0.89669  0.19471  Biso   1.000  H
  H1757    1.0000 0.06110  0.89310  0.22981  Biso   1.000  H
  N148     1.0000 0.03346  0.78436  0.03885  Biso   1.000  N
  H1758    1.0000 0.10331  0.80529  0.01128  Biso   1.000  H
  H1759    1.0000 0.10690  0.77019  0.06110  Biso   1.000  H
  C1105    1.0000 0.08832  0.20061  0.95451  Biso   1.000  C
  C1106    1.0000 0.06684  0.14025  0.87842  Biso   1.000  C
  C1107    1.0000 0.04549  0.08832  0.79939  Biso   1.000  C
  C1108    1.0000 0.00000  0.00000  0.17589  Biso   1.000  C
  C1109    1.0000 0.01097  0.97275  0.26386  Biso   1.000  C
  H1760    1.0000 0.01999  0.98302  0.19542  Biso   1.000  H
  C1110    1.0000 0.02725  0.73614  0.01097  Biso   1.000  C
  C1111    1.0000 0.00000  0.82411  0.00000  Biso   1.000  C
  H1761    1.0000 0.01698  0.80458  0.01999  Biso   1.000  H
  N149     1.0000 0.03346  0.21564  0.96115  Biso   1.000  N
  H1762    1.0000 0.10331  0.19471  0.98872  Biso   1.000  H
  H1763    1.0000 0.10690  0.22981  0.93890  Biso   1.000  H
  H1764    1.0000 0.03779  0.16071  0.87080  Biso   1.000  H
  N150     1.0000 0.03885  0.03346  0.78436  Biso   1.000  N
  H1765    1.0000 0.01128  0.10331  0.80529  Biso   1.000  H
  H1766    1.0000 0.06110  0.10690  0.77019  Biso   1.000  H
  C1112    1.0000 0.02889  0.02421  0.13459  Biso   1.000  C
  C1113    1.0000 0.97111  0.97579  0.13459  Biso   1.000  C
  N151     1.0000 0.96115  0.03346  0.21564  Biso   1.000  N
  H1767    1.0000 0.98001  0.01698  0.19542  Biso   1.000  H
  H1768    1.0000 0.98181  0.94792  0.26429  Biso   1.000  H
  C1114    1.0000 0.98903  0.02725  0.26386  Biso   1.000  C
  C1115    1.0000 0.04389  0.96388  0.31196  Biso   1.000  C
  C1116    1.0000 0.97275  0.73614  0.98903  Biso   1.000  C
  H1769    1.0000 0.05208  0.73571  0.98181  Biso   1.000  H
  C1117    1.0000 0.03612  0.68804  0.04389  Biso   1.000  C
  N152     1.0000 0.96654  0.78436  0.96115  Biso   1.000  N
  H1770    1.0000 0.98302  0.80458  0.98001  Biso   1.000  H
  C1118    1.0000 0.97579  0.86541  0.02889  Biso   1.000  C
  C1119    1.0000 0.02421  0.86541  0.97111  Biso   1.000  C
  C1120    1.0000 0.00000  0.17589  0.00000  Biso   1.000  C
  C1121    1.0000 0.02725  0.26386  0.98903  Biso   1.000  C
  H1771    1.0000 0.01698  0.19542  0.98001  Biso   1.000  H
  C1122    1.0000 0.01097  0.02725  0.73614  Biso   1.000  C
  C1123    1.0000 0.00000  0.00000  0.82411  Biso   1.000  C
  H1772    1.0000 0.01999  0.01698  0.80458  Biso   1.000  H
  H1773    1.0000 0.05208  0.04990  0.14899  Biso   1.000  H
  H1774    1.0000 0.00519  0.04068  0.11069  Biso   1.000  H
  H1775    1.0000 0.04888  0.99820  0.11639  Biso   1.000  H
  H1776    1.0000 0.94792  0.95010  0.14899  Biso   1.000  H
  H1777    1.0000 0.99481  0.95932  0.11069  Biso   1.000  H
  H1778    1.0000 0.95112  0.00180  0.11639  Biso   1.000  H
  C1124    1.0000 0.95451  0.08832  0.20061  Biso   1.000  C
  H1779    1.0000 0.01819  0.05208  0.26429  Biso   1.000  H
  C1125    1.0000 0.95611  0.03612  0.31196  Biso   1.000  C
  H1780    1.0000 0.07360  0.98731  0.31149  Biso   1.000  H
  H1781    1.0000 0.05689  0.92831  0.31200  Biso   1.000  H
  C1126    1.0000 0.01140  0.97345  0.36171  Biso   1.000  C
  C1127    1.0000 0.96388  0.68804  0.95611  Biso   1.000  C
  H1782    1.0000 0.94792  0.73571  0.01819  Biso   1.000  H
  H1783    1.0000 0.01269  0.68851  0.07360  Biso   1.000  H
  H1784    1.0000 0.07169  0.68800  0.05689  Biso   1.000  H
  C1128    1.0000 0.02655  0.63829  0.01140  Biso   1.000  C
  C1129    1.0000 0.91168  0.79939  0.95451  Biso   1.000  C
  H1785    1.0000 0.95010  0.85101  0.05208  Biso   1.000  H
  H1786    1.0000 0.95932  0.88931  0.00519  Biso   1.000  H
  H1787    1.0000 0.00180  0.88361  0.04888  Biso   1.000  H
  H1788    1.0000 0.99820  0.88361  0.95112  Biso   1.000  H
  H1789    1.0000 0.04990  0.85101  0.94792  Biso   1.000  H
  H1790    1.0000 0.04068  0.88931  0.99481  Biso   1.000  H
  C1130    1.0000 0.02421  0.13459  0.02889  Biso   1.000  C
  C1131    1.0000 0.97579  0.13459  0.97111  Biso   1.000  C
  N153     1.0000 0.96654  0.21564  0.03885  Biso   1.000  N
  H1791    1.0000 0.98302  0.19542  0.01999  Biso   1.000  H
  H1792    1.0000 0.05208  0.26429  0.01819  Biso   1.000  H
  C1132    1.0000 0.97275  0.26386  0.01097  Biso   1.000  C
  C1133    1.0000 0.03612  0.31196  0.95611  Biso   1.000  C
  C1134    1.0000 0.98903  0.97275  0.73614  Biso   1.000  C
  H1793    1.0000 0.98181  0.05208  0.73571  Biso   1.000  H
  C1135    1.0000 0.04389  0.03612  0.68804  Biso   1.000  C
  N154     1.0000 0.96115  0.96654  0.78436  Biso   1.000  N
  H1794    1.0000 0.98001  0.98302  0.80458  Biso   1.000  H
  C1136    1.0000 0.97111  0.02421  0.86541  Biso   1.000  C
  C1137    1.0000 0.02889  0.97579  0.86541  Biso   1.000  C
  C1138    1.0000 0.92129  0.09812  0.15258  Biso   1.000  C
  H1795    1.0000 0.98872  0.10331  0.19471  Biso   1.000  H
  H1796    1.0000 0.93890  0.10690  0.22981  Biso   1.000  H
  H1797    1.0000 0.92640  0.01269  0.31149  Biso   1.000  H
  H1798    1.0000 0.94311  0.07169  0.31200  Biso   1.000  H
  C1139    1.0000 0.98860  0.02655  0.36171  Biso   1.000  C
  H1799    1.0000 0.98372  0.94780  0.36381  Biso   1.000  H
  H1800    1.0000 0.03362  0.96931  0.39220  Biso   1.000  H
  H1801    1.0000 0.98731  0.68851  0.92640  Biso   1.000  H
  H1802    1.0000 0.92831  0.68800  0.94311  Biso   1.000  H
  C1140    1.0000 0.97345  0.63829  0.98860  Biso   1.000  C
  H1803    1.0000 0.05220  0.63619  0.98372  Biso   1.000  H
  H1804    1.0000 0.03069  0.60780  0.03362  Biso   1.000  H
  C1141    1.0000 0.90188  0.84742  0.92129  Biso   1.000  C
  H1805    1.0000 0.89669  0.80529  0.98872  Biso   1.000  H
  H1806    1.0000 0.89310  0.77019  0.93890  Biso   1.000  H
  H1807    1.0000 0.04990  0.14899  0.05208  Biso   1.000  H
  H1808    1.0000 0.04068  0.11069  0.00519  Biso   1.000  H
  H1809    1.0000 0.99820  0.11639  0.04888  Biso   1.000  H
  H1810    1.0000 0.95010  0.14899  0.94792  Biso   1.000  H
  H1811    1.0000 0.95932  0.11069  0.99481  Biso   1.000  H
  H1812    1.0000 0.00180  0.11639  0.95112  Biso   1.000  H
  C1142    1.0000 0.91168  0.20061  0.04549  Biso   1.000  C
  H1813    1.0000 0.94792  0.26429  0.98181  Biso   1.000  H
  C1143    1.0000 0.96388  0.31196  0.04389  Biso   1.000  C
  H1814    1.0000 0.01269  0.31149  0.92640  Biso   1.000  H
  H1815    1.0000 0.07169  0.31200  0.94311  Biso   1.000  H
  C1144    1.0000 0.02655  0.36171  0.98860  Biso   1.000  C
  C1145    1.0000 0.95611  0.96388  0.68804  Biso   1.000  C
  H1816    1.0000 0.01819  0.94792  0.73571  Biso   1.000  H
  H1817    1.0000 0.07360  0.01269  0.68851  Biso   1.000  H
  H1818    1.0000 0.05689  0.07169  0.68800  Biso   1.000  H
  C1146    1.0000 0.01140  0.02655  0.63829  Biso   1.000  C
  C1147    1.0000 0.95451  0.91168  0.79939  Biso   1.000  C
  H1819    1.0000 0.95112  0.99820  0.88361  Biso   1.000  H
  H1820    1.0000 0.94792  0.04990  0.85101  Biso   1.000  H
  H1821    1.0000 0.99481  0.04068  0.88931  Biso   1.000  H
  H1822    1.0000 0.05208  0.95010  0.85101  Biso   1.000  H
  H1823    1.0000 0.00519  0.95932  0.88931  Biso   1.000  H
  H1824    1.0000 0.04888  0.00180  0.88361  Biso   1.000  H
  C1148    1.0000 0.93316  0.14025  0.12158  Biso   1.000  C
  C1149    1.0000 0.87842  0.06684  0.14025  Biso   1.000  C
  H1825    1.0000 0.01628  0.05220  0.36381  Biso   1.000  H
  H1826    1.0000 0.96638  0.03069  0.39220  Biso   1.000  H
  H1827    1.0000 0.96931  0.60780  0.96638  Biso   1.000  H
  H1828    1.0000 0.94780  0.63619  0.01628  Biso   1.000  H
  C1150    1.0000 0.93316  0.85975  0.87842  Biso   1.000  C
  C1151    1.0000 0.85975  0.87842  0.93316  Biso   1.000  C
  C1152    1.0000 0.90188  0.15258  0.07871  Biso   1.000  C
  H1829    1.0000 0.89669  0.19471  0.01128  Biso   1.000  H
  H1830    1.0000 0.89310  0.22981  0.06110  Biso   1.000  H
  H1831    1.0000 0.98731  0.31149  0.07360  Biso   1.000  H
  H1832    1.0000 0.92831  0.31200  0.05689  Biso   1.000  H
  C1153    1.0000 0.97345  0.36171  0.01140  Biso   1.000  C
  H1833    1.0000 0.05220  0.36381  0.01628  Biso   1.000  H
  H1834    1.0000 0.03069  0.39220  0.96638  Biso   1.000  H
  H1835    1.0000 0.92640  0.98731  0.68851  Biso   1.000  H
  H1836    1.0000 0.94311  0.92831  0.68800  Biso   1.000  H
  C1154    1.0000 0.98860  0.97345  0.63829  Biso   1.000  C
  H1837    1.0000 0.98372  0.05220  0.63619  Biso   1.000  H
  H1838    1.0000 0.03362  0.03069  0.60780  Biso   1.000  H
  C1155    1.0000 0.92129  0.90188  0.84742  Biso   1.000  C
  H1839    1.0000 0.98872  0.89669  0.80529  Biso   1.000  H
  H1840    1.0000 0.93890  0.89310  0.77019  Biso   1.000  H
  H1841    1.0000 0.96221  0.16071  0.12920  Biso   1.000  H
  C1156    1.0000 0.84742  0.07871  0.09812  Biso   1.000  C
  H1842    1.0000 0.87080  0.03779  0.16071  Biso   1.000  H
  H1843    1.0000 0.96221  0.83929  0.87080  Biso   1.000  H
  C1157    1.0000 0.84742  0.92129  0.90188  Biso   1.000  C
  H1844    1.0000 0.83929  0.87080  0.96221  Biso   1.000  H
  C1158    1.0000 0.85975  0.12158  0.06684  Biso   1.000  C
  H1845    1.0000 0.94780  0.36381  0.98372  Biso   1.000  H
  H1846    1.0000 0.96931  0.39220  0.03362  Biso   1.000  H
  H1847    1.0000 0.96638  0.96931  0.60780  Biso   1.000  H
  H1848    1.0000 0.01628  0.94780  0.63619  Biso   1.000  H
  C1159    1.0000 0.87842  0.93316  0.85975  Biso   1.000  C
  C1160    1.0000 0.79939  0.04549  0.08832  Biso   1.000  C
  C1161    1.0000 0.79939  0.95451  0.91168  Biso   1.000  C
  H1849    1.0000 0.83929  0.12920  0.03779  Biso   1.000  H
  H1850    1.0000 0.87080  0.96221  0.83929  Biso   1.000  H
  N155     1.0000 0.78436  0.03885  0.03346  Biso   1.000  N
  H1851    1.0000 0.80529  0.01128  0.10331  Biso   1.000  H
  H1852    1.0000 0.77019  0.06110  0.10690  Biso   1.000  H
  N156     1.0000 0.78436  0.96115  0.96654  Biso   1.000  N
  H1853    1.0000 0.80529  0.98872  0.89669  Biso   1.000  H
  H1854    1.0000 0.77019  0.93890  0.89310  Biso   1.000  H
  C1162    1.0000 0.73614  0.01097  0.02725  Biso   1.000  C
  C1163    1.0000 0.82411  0.00000  0.00000  Biso   1.000  C
  H1855    1.0000 0.80458  0.01999  0.01698  Biso   1.000  H
  C1164    1.0000 0.73614  0.98903  0.97275  Biso   1.000  C
  H1856    1.0000 0.80458  0.98001  0.98302  Biso   1.000  H
  H1857    1.0000 0.73571  0.98181  0.05208  Biso   1.000  H
  C1165    1.0000 0.68804  0.04389  0.03612  Biso   1.000  C
  C1166    1.0000 0.86541  0.97111  0.02421  Biso   1.000  C
  C1167    1.0000 0.86541  0.02889  0.97579  Biso   1.000  C
  C1168    1.0000 0.68804  0.95611  0.96388  Biso   1.000  C
  H1858    1.0000 0.73571  0.01819  0.94792  Biso   1.000  H
  H1859    1.0000 0.68851  0.07360  0.01269  Biso   1.000  H
  H1860    1.0000 0.68800  0.05689  0.07169  Biso   1.000  H
  C1169    1.0000 0.63829  0.01140  0.02655  Biso   1.000  C
  H1861    1.0000 0.88361  0.95112  0.99820  Biso   1.000  H
  H1862    1.0000 0.85101  0.94792  0.04990  Biso   1.000  H
  H1863    1.0000 0.88931  0.99481  0.04068  Biso   1.000  H
  H1864    1.0000 0.85101  0.05208  0.95010  Biso   1.000  H
  H1865    1.0000 0.88931  0.00519  0.95932  Biso   1.000  H
  H1866    1.0000 0.88361  0.04888  0.00180  Biso   1.000  H
  H1867    1.0000 0.68851  0.92640  0.98731  Biso   1.000  H
  H1868    1.0000 0.68800  0.94311  0.92831  Biso   1.000  H
  C1170    1.0000 0.63829  0.98860  0.97345  Biso   1.000  C
  H1869    1.0000 0.63619  0.98372  0.05220  Biso   1.000  H
  H1870    1.0000 0.60780  0.03362  0.03069  Biso   1.000  H
  H1871    1.0000 0.60780  0.96638  0.96931  Biso   1.000  H
  H1872    1.0000 0.63619  0.01628  0.94780  Biso   1.000  H
  C1171    1.0000 0.26386  0.98903  0.02725  Biso   1.000  C
  N157     1.0000 0.21564  0.96115  0.03346  Biso   1.000  N
  C1172    1.0000 0.26386  0.01097  0.97275  Biso   1.000  C
  H1873    1.0000 0.26429  0.01819  0.05208  Biso   1.000  H
  C1173    1.0000 0.31196  0.95611  0.03612  Biso   1.000  C
  C1174    1.0000 0.17589  0.00000  0.00000  Biso   1.000  C
  H1874    1.0000 0.19542  0.98001  0.01698  Biso   1.000  H
  C1175    1.0000 0.20061  0.95451  0.08832  Biso   1.000  C
  N158     1.0000 0.21564  0.03885  0.96654  Biso   1.000  N
  H1875    1.0000 0.26429  0.98181  0.94792  Biso   1.000  H
  C1176    1.0000 0.31196  0.04389  0.96388  Biso   1.000  C
  H1876    1.0000 0.31149  0.92640  0.01269  Biso   1.000  H
  H1877    1.0000 0.31200  0.94311  0.07169  Biso   1.000  H
  C1177    1.0000 0.36171  0.98860  0.02655  Biso   1.000  C
  C1178    1.0000 0.13459  0.02889  0.02421  Biso   1.000  C
  C1179    1.0000 0.13459  0.97111  0.97579  Biso   1.000  C
  H1878    1.0000 0.19542  0.01999  0.98302  Biso   1.000  H
  C1180    1.0000 0.15258  0.92129  0.09812  Biso   1.000  C
  H1879    1.0000 0.19471  0.98872  0.10331  Biso   1.000  H
  H1880    1.0000 0.22981  0.93890  0.10690  Biso   1.000  H
  C1181    1.0000 0.20061  0.04549  0.91168  Biso   1.000  C
  H1881    1.0000 0.31149  0.07360  0.98731  Biso   1.000  H
  H1882    1.0000 0.31200  0.05689  0.92831  Biso   1.000  H
  C1182    1.0000 0.36171  0.01140  0.97345  Biso   1.000  C
  H1883    1.0000 0.36381  0.01628  0.05220  Biso   1.000  H
  H1884    1.0000 0.39220  0.96638  0.03069  Biso   1.000  H
  H1885    1.0000 0.14899  0.05208  0.04990  Biso   1.000  H
  H1886    1.0000 0.11069  0.00519  0.04068  Biso   1.000  H
  H1887    1.0000 0.11639  0.04888  0.99820  Biso   1.000  H
  H1888    1.0000 0.14899  0.94792  0.95010  Biso   1.000  H
  H1889    1.0000 0.11069  0.99481  0.95932  Biso   1.000  H
  H1890    1.0000 0.11639  0.95112  0.00180  Biso   1.000  H
  C1183    1.0000 0.12158  0.93316  0.14025  Biso   1.000  C
  C1184    1.0000 0.14025  0.87842  0.06684  Biso   1.000  C
  C1185    1.0000 0.15258  0.07871  0.90188  Biso   1.000  C
  H1891    1.0000 0.19471  0.01128  0.89669  Biso   1.000  H
  H1892    1.0000 0.22981  0.06110  0.89310  Biso   1.000  H
  H1893    1.0000 0.36381  0.98372  0.94780  Biso   1.000  H
  H1894    1.0000 0.39220  0.03362  0.96931  Biso   1.000  H
  C1186    1.0000 0.07871  0.90188  0.15258  Biso   1.000  C
  H1895    1.0000 0.12920  0.96221  0.16071  Biso   1.000  H
  C1187    1.0000 0.09812  0.84742  0.07871  Biso   1.000  C
  H1896    1.0000 0.16071  0.87080  0.03779  Biso   1.000  H
  C1188    1.0000 0.14025  0.12158  0.93316  Biso   1.000  C
  C1189    1.0000 0.12158  0.06684  0.85975  Biso   1.000  C
  C1190    1.0000 0.06684  0.85975  0.12158  Biso   1.000  C
  C1191    1.0000 0.04549  0.91168  0.20061  Biso   1.000  C
  C1192    1.0000 0.08832  0.79939  0.04549  Biso   1.000  C
  C1193    1.0000 0.09812  0.15258  0.92129  Biso   1.000  C
  H1897    1.0000 0.16071  0.12920  0.96221  Biso   1.000  H
  C1194    1.0000 0.07871  0.09812  0.84742  Biso   1.000  C
  H1898    1.0000 0.12920  0.03779  0.83929  Biso   1.000  H
  H1899    1.0000 0.03779  0.83929  0.12920  Biso   1.000  H
  N159     1.0000 0.03885  0.96654  0.21564  Biso   1.000  N
  H1900    1.0000 0.01128  0.89669  0.19471  Biso   1.000  H
  H1901    1.0000 0.06110  0.89310  0.22981  Biso   1.000  H
  N160     1.0000 0.03346  0.78436  0.03885  Biso   1.000  N
  H1902    1.0000 0.10331  0.80529  0.01128  Biso   1.000  H
  H1903    1.0000 0.10690  0.77019  0.06110  Biso   1.000  H
  C1195    1.0000 0.08832  0.20061  0.95451  Biso   1.000  C
  C1196    1.0000 0.06684  0.14025  0.87842  Biso   1.000  C
  C1197    1.0000 0.04549  0.08832  0.79939  Biso   1.000  C
  C1198    1.0000 0.00000  0.00000  0.17589  Biso   1.000  C
  C1199    1.0000 0.01097  0.97275  0.26386  Biso   1.000  C
  H1904    1.0000 0.01999  0.98302  0.19542  Biso   1.000  H
  C1200    1.0000 0.02725  0.73614  0.01097  Biso   1.000  C
  C1201    1.0000 0.00000  0.82411  0.00000  Biso   1.000  C
  H1905    1.0000 0.01698  0.80458  0.01999  Biso   1.000  H
  N161     1.0000 0.03346  0.21564  0.96115  Biso   1.000  N
  H1906    1.0000 0.10331  0.19471  0.98872  Biso   1.000  H
  H1907    1.0000 0.10690  0.22981  0.93890  Biso   1.000  H
  H1908    1.0000 0.03779  0.16071  0.87080  Biso   1.000  H
  N162     1.0000 0.03885  0.03346  0.78436  Biso   1.000  N
  H1909    1.0000 0.01128  0.10331  0.80529  Biso   1.000  H
  H1910    1.0000 0.06110  0.10690  0.77019  Biso   1.000  H
  C1202    1.0000 0.02889  0.02421  0.13459  Biso   1.000  C
  C1203    1.0000 0.97111  0.97579  0.13459  Biso   1.000  C
  N163     1.0000 0.96115  0.03346  0.21564  Biso   1.000  N
  H1911    1.0000 0.98001  0.01698  0.19542  Biso   1.000  H
  H1912    1.0000 0.98181  0.94792  0.26429  Biso   1.000  H
  C1204    1.0000 0.98903  0.02725  0.26386  Biso   1.000  C
  C1205    1.0000 0.04389  0.96388  0.31196  Biso   1.000  C
  C1206    1.0000 0.97275  0.73614  0.98903  Biso   1.000  C
  H1913    1.0000 0.05208  0.73571  0.98181  Biso   1.000  H
  C1207    1.0000 0.03612  0.68804  0.04389  Biso   1.000  C
  N164     1.0000 0.96654  0.78436  0.96115  Biso   1.000  N
  H1914    1.0000 0.98302  0.80458  0.98001  Biso   1.000  H
  C1208    1.0000 0.97579  0.86541  0.02889  Biso   1.000  C
  C1209    1.0000 0.02421  0.86541  0.97111  Biso   1.000  C
  C1210    1.0000 0.00000  0.17589  0.00000  Biso   1.000  C
  C1211    1.0000 0.02725  0.26386  0.98903  Biso   1.000  C
  H1915    1.0000 0.01698  0.19542  0.98001  Biso   1.000  H
  C1212    1.0000 0.01097  0.02725  0.73614  Biso   1.000  C
  C1213    1.0000 0.00000  0.00000  0.82411  Biso   1.000  C
  H1916    1.0000 0.01999  0.01698  0.80458  Biso   1.000  H
  H1917    1.0000 0.05208  0.04990  0.14899  Biso   1.000  H
  H1918    1.0000 0.00519  0.04068  0.11069  Biso   1.000  H
  H1919    1.0000 0.04888  0.99820  0.11639  Biso   1.000  H
  H1920    1.0000 0.94792  0.95010  0.14899  Biso   1.000  H
  H1921    1.0000 0.99481  0.95932  0.11069  Biso   1.000  H
  H1922    1.0000 0.95112  0.00180  0.11639  Biso   1.000  H
  C1214    1.0000 0.95451  0.08832  0.20061  Biso   1.000  C
  H1923    1.0000 0.01819  0.05208  0.26429  Biso   1.000  H
  C1215    1.0000 0.95611  0.03612  0.31196  Biso   1.000  C
  H1924    1.0000 0.07360  0.98731  0.31149  Biso   1.000  H
  H1925    1.0000 0.05689  0.92831  0.31200  Biso   1.000  H
  C1216    1.0000 0.01140  0.97345  0.36171  Biso   1.000  C
  C1217    1.0000 0.96388  0.68804  0.95611  Biso   1.000  C
  H1926    1.0000 0.94792  0.73571  0.01819  Biso   1.000  H
  H1927    1.0000 0.01269  0.68851  0.07360  Biso   1.000  H
  H1928    1.0000 0.07169  0.68800  0.05689  Biso   1.000  H
  C1218    1.0000 0.02655  0.63829  0.01140  Biso   1.000  C
  C1219    1.0000 0.91168  0.79939  0.95451  Biso   1.000  C
  H1929    1.0000 0.95010  0.85101  0.05208  Biso   1.000  H
  H1930    1.0000 0.95932  0.88931  0.00519  Biso   1.000  H
  H1931    1.0000 0.00180  0.88361  0.04888  Biso   1.000  H
  H1932    1.0000 0.99820  0.88361  0.95112  Biso   1.000  H
  H1933    1.0000 0.04990  0.85101  0.94792  Biso   1.000  H
  H1934    1.0000 0.04068  0.88931  0.99481  Biso   1.000  H
  C1220    1.0000 0.02421  0.13459  0.02889  Biso   1.000  C
  C1221    1.0000 0.97579  0.13459  0.97111  Biso   1.000  C
  N165     1.0000 0.96654  0.21564  0.03885  Biso   1.000  N
  H1935    1.0000 0.98302  0.19542  0.01999  Biso   1.000  H
  H1936    1.0000 0.05208  0.26429  0.01819  Biso   1.000  H
  C1222    1.0000 0.97275  0.26386  0.01097  Biso   1.000  C
  C1223    1.0000 0.03612  0.31196  0.95611  Biso   1.000  C
  C1224    1.0000 0.98903  0.97275  0.73614  Biso   1.000  C
  H1937    1.0000 0.98181  0.05208  0.73571  Biso   1.000  H
  C1225    1.0000 0.04389  0.03612  0.68804  Biso   1.000  C
  N166     1.0000 0.96115  0.96654  0.78436  Biso   1.000  N
  H1938    1.0000 0.98001  0.98302  0.80458  Biso   1.000  H
  C1226    1.0000 0.97111  0.02421  0.86541  Biso   1.000  C
  C1227    1.0000 0.02889  0.97579  0.86541  Biso   1.000  C
  C1228    1.0000 0.92129  0.09812  0.15258  Biso   1.000  C
  H1939    1.0000 0.98872  0.10331  0.19471  Biso   1.000  H
  H1940    1.0000 0.93890  0.10690  0.22981  Biso   1.000  H
  H1941    1.0000 0.92640  0.01269  0.31149  Biso   1.000  H
  H1942    1.0000 0.94311  0.07169  0.31200  Biso   1.000  H
  C1229    1.0000 0.98860  0.02655  0.36171  Biso   1.000  C
  H1943    1.0000 0.98372  0.94780  0.36381  Biso   1.000  H
  H1944    1.0000 0.03362  0.96931  0.39220  Biso   1.000  H
  H1945    1.0000 0.98731  0.68851  0.92640  Biso   1.000  H
  H1946    1.0000 0.92831  0.68800  0.94311  Biso   1.000  H
  C1230    1.0000 0.97345  0.63829  0.98860  Biso   1.000  C
  H1947    1.0000 0.05220  0.63619  0.98372  Biso   1.000  H
  H1948    1.0000 0.03069  0.60780  0.03362  Biso   1.000  H
  C1231    1.0000 0.90188  0.84742  0.92129  Biso   1.000  C
  H1949    1.0000 0.89669  0.80529  0.98872  Biso   1.000  H
  H1950    1.0000 0.89310  0.77019  0.93890  Biso   1.000  H
  H1951    1.0000 0.04990  0.14899  0.05208  Biso   1.000  H
  H1952    1.0000 0.04068  0.11069  0.00519  Biso   1.000  H
  H1953    1.0000 0.99820  0.11639  0.04888  Biso   1.000  H
  H1954    1.0000 0.95010  0.14899  0.94792  Biso   1.000  H
  H1955    1.0000 0.95932  0.11069  0.99481  Biso   1.000  H
  H1956    1.0000 0.00180  0.11639  0.95112  Biso   1.000  H
  C1232    1.0000 0.91168  0.20061  0.04549  Biso   1.000  C
  H1957    1.0000 0.94792  0.26429  0.98181  Biso   1.000  H
  C1233    1.0000 0.96388  0.31196  0.04389  Biso   1.000  C
  H1958    1.0000 0.01269  0.31149  0.92640  Biso   1.000  H
  H1959    1.0000 0.07169  0.31200  0.94311  Biso   1.000  H
  C1234    1.0000 0.02655  0.36171  0.98860  Biso   1.000  C
  C1235    1.0000 0.95611  0.96388  0.68804  Biso   1.000  C
  H1960    1.0000 0.01819  0.94792  0.73571  Biso   1.000  H
  H1961    1.0000 0.07360  0.01269  0.68851  Biso   1.000  H
  H1962    1.0000 0.05689  0.07169  0.68800  Biso   1.000  H
  C1236    1.0000 0.01140  0.02655  0.63829  Biso   1.000  C
  C1237    1.0000 0.95451  0.91168  0.79939  Biso   1.000  C
  H1963    1.0000 0.95112  0.99820  0.88361  Biso   1.000  H
  H1964    1.0000 0.94792  0.04990  0.85101  Biso   1.000  H
  H1965    1.0000 0.99481  0.04068  0.88931  Biso   1.000  H
  H1966    1.0000 0.05208  0.95010  0.85101  Biso   1.000  H
  H1967    1.0000 0.00519  0.95932  0.88931  Biso   1.000  H
  H1968    1.0000 0.04888  0.00180  0.88361  Biso   1.000  H
  C1238    1.0000 0.93316  0.14025  0.12158  Biso   1.000  C
  C1239    1.0000 0.87842  0.06684  0.14025  Biso   1.000  C
  H1969    1.0000 0.01628  0.05220  0.36381  Biso   1.000  H
  H1970    1.0000 0.96638  0.03069  0.39220  Biso   1.000  H
  H1971    1.0000 0.96931  0.60780  0.96638  Biso   1.000  H
  H1972    1.0000 0.94780  0.63619  0.01628  Biso   1.000  H
  C1240    1.0000 0.93316  0.85975  0.87842  Biso   1.000  C
  C1241    1.0000 0.85975  0.87842  0.93316  Biso   1.000  C
  C1242    1.0000 0.90188  0.15258  0.07871  Biso   1.000  C
  H1973    1.0000 0.89669  0.19471  0.01128  Biso   1.000  H
  H1974    1.0000 0.89310  0.22981  0.06110  Biso   1.000  H
  H1975    1.0000 0.98731  0.31149  0.07360  Biso   1.000  H
  H1976    1.0000 0.92831  0.31200  0.05689  Biso   1.000  H
  C1243    1.0000 0.97345  0.36171  0.01140  Biso   1.000  C
  H1977    1.0000 0.05220  0.36381  0.01628  Biso   1.000  H
  H1978    1.0000 0.03069  0.39220  0.96638  Biso   1.000  H
  H1979    1.0000 0.92640  0.98731  0.68851  Biso   1.000  H
  H1980    1.0000 0.94311  0.92831  0.68800  Biso   1.000  H
  C1244    1.0000 0.98860  0.97345  0.63829  Biso   1.000  C
  H1981    1.0000 0.98372  0.05220  0.63619  Biso   1.000  H
  H1982    1.0000 0.03362  0.03069  0.60780  Biso   1.000  H
  C1245    1.0000 0.92129  0.90188  0.84742  Biso   1.000  C
  H1983    1.0000 0.98872  0.89669  0.80529  Biso   1.000  H
  H1984    1.0000 0.93890  0.89310  0.77019  Biso   1.000  H
  H1985    1.0000 0.96221  0.16071  0.12920  Biso   1.000  H
  C1246    1.0000 0.84742  0.07871  0.09812  Biso   1.000  C
  H1986    1.0000 0.87080  0.03779  0.16071  Biso   1.000  H
  H1987    1.0000 0.96221  0.83929  0.87080  Biso   1.000  H
  C1247    1.0000 0.84742  0.92129  0.90188  Biso   1.000  C
  H1988    1.0000 0.83929  0.87080  0.96221  Biso   1.000  H
  C1248    1.0000 0.85975  0.12158  0.06684  Biso   1.000  C
  H1989    1.0000 0.94780  0.36381  0.98372  Biso   1.000  H
  H1990    1.0000 0.96931  0.39220  0.03362  Biso   1.000  H
  H1991    1.0000 0.96638  0.96931  0.60780  Biso   1.000  H
  H1992    1.0000 0.01628  0.94780  0.63619  Biso   1.000  H
  C1249    1.0000 0.87842  0.93316  0.85975  Biso   1.000  C
  C1250    1.0000 0.79939  0.04549  0.08832  Biso   1.000  C
  C1251    1.0000 0.79939  0.95451  0.91168  Biso   1.000  C
  H1993    1.0000 0.83929  0.12920  0.03779  Biso   1.000  H
  H1994    1.0000 0.87080  0.96221  0.83929  Biso   1.000  H
  N167     1.0000 0.78436  0.03885  0.03346  Biso   1.000  N
  H1995    1.0000 0.80529  0.01128  0.10331  Biso   1.000  H
  H1996    1.0000 0.77019  0.06110  0.10690  Biso   1.000  H
  N168     1.0000 0.78436  0.96115  0.96654  Biso   1.000  N
  H1997    1.0000 0.80529  0.98872  0.89669  Biso   1.000  H
  H1998    1.0000 0.77019  0.93890  0.89310  Biso   1.000  H
  C1252    1.0000 0.73614  0.01097  0.02725  Biso   1.000  C
  C1253    1.0000 0.82411  0.00000  0.00000  Biso   1.000  C
  H1999    1.0000 0.80458  0.01999  0.01698  Biso   1.000  H
  C1254    1.0000 0.73614  0.98903  0.97275  Biso   1.000  C
  H2000    1.0000 0.80458  0.98001  0.98302  Biso   1.000  H
  H2001    1.0000 0.73571  0.98181  0.05208  Biso   1.000  H
  C1255    1.0000 0.68804  0.04389  0.03612  Biso   1.000  C
  C1256    1.0000 0.86541  0.97111  0.02421  Biso   1.000  C
  C1257    1.0000 0.86541  0.02889  0.97579  Biso   1.000  C
  C1258    1.0000 0.68804  0.95611  0.96388  Biso   1.000  C
  H2002    1.0000 0.73571  0.01819  0.94792  Biso   1.000  H
  H2003    1.0000 0.68851  0.07360  0.01269  Biso   1.000  H
  H2004    1.0000 0.68800  0.05689  0.07169  Biso   1.000  H
  C1259    1.0000 0.63829  0.01140  0.02655  Biso   1.000  C
  H2005    1.0000 0.88361  0.95112  0.99820  Biso   1.000  H
  H2006    1.0000 0.85101  0.94792  0.04990  Biso   1.000  H
  H2007    1.0000 0.88931  0.99481  0.04068  Biso   1.000  H
  H2008    1.0000 0.85101  0.05208  0.95010  Biso   1.000  H
  H2009    1.0000 0.88931  0.00519  0.95932  Biso   1.000  H
  H2010    1.0000 0.88361  0.04888  0.00180  Biso   1.000  H
  H2011    1.0000 0.68851  0.92640  0.98731  Biso   1.000  H
  H2012    1.0000 0.68800  0.94311  0.92831  Biso   1.000  H
  C1260    1.0000 0.63829  0.98860  0.97345  Biso   1.000  C
  H2013    1.0000 0.63619  0.98372  0.05220  Biso   1.000  H
  H2014    1.0000 0.60780  0.03362  0.03069  Biso   1.000  H
  H2015    1.0000 0.60780  0.96638  0.96931  Biso   1.000  H
  H2016    1.0000 0.63619  0.01628  0.94780  Biso   1.000  H
  C1261    1.0000 0.26386  0.98903  0.02725  Biso   1.000  C
  N169     1.0000 0.21564  0.96115  0.03346  Biso   1.000  N
  C1262    1.0000 0.26386  0.01097  0.97275  Biso   1.000  C
  H2017    1.0000 0.26429  0.01819  0.05208  Biso   1.000  H
  C1263    1.0000 0.31196  0.95611  0.03612  Biso   1.000  C
  C1264    1.0000 0.17589  0.00000  0.00000  Biso   1.000  C
  H2018    1.0000 0.19542  0.98001  0.01698  Biso   1.000  H
  C1265    1.0000 0.20061  0.95451  0.08832  Biso   1.000  C
  N170     1.0000 0.21564  0.03885  0.96654  Biso   1.000  N
  H2019    1.0000 0.26429  0.98181  0.94792  Biso   1.000  H
  C1266    1.0000 0.31196  0.04389  0.96388  Biso   1.000  C
  H2020    1.0000 0.31149  0.92640  0.01269  Biso   1.000  H
  H2021    1.0000 0.31200  0.94311  0.07169  Biso   1.000  H
  C1267    1.0000 0.36171  0.98860  0.02655  Biso   1.000  C
  C1268    1.0000 0.13459  0.02889  0.02421  Biso   1.000  C
  C1269    1.0000 0.13459  0.97111  0.97579  Biso   1.000  C
  H2022    1.0000 0.19542  0.01999  0.98302  Biso   1.000  H
  C1270    1.0000 0.15258  0.92129  0.09812  Biso   1.000  C
  H2023    1.0000 0.19471  0.98872  0.10331  Biso   1.000  H
  H2024    1.0000 0.22981  0.93890  0.10690  Biso   1.000  H
  C1271    1.0000 0.20061  0.04549  0.91168  Biso   1.000  C
  H2025    1.0000 0.31149  0.07360  0.98731  Biso   1.000  H
  H2026    1.0000 0.31200  0.05689  0.92831  Biso   1.000  H
  C1272    1.0000 0.36171  0.01140  0.97345  Biso   1.000  C
  H2027    1.0000 0.36381  0.01628  0.05220  Biso   1.000  H
  H2028    1.0000 0.39220  0.96638  0.03069  Biso   1.000  H
  H2029    1.0000 0.14899  0.05208  0.04990  Biso   1.000  H
  H2030    1.0000 0.11069  0.00519  0.04068  Biso   1.000  H
  H2031    1.0000 0.11639  0.04888  0.99820  Biso   1.000  H
  H2032    1.0000 0.14899  0.94792  0.95010  Biso   1.000  H
  H2033    1.0000 0.11069  0.99481  0.95932  Biso   1.000  H
  H2034    1.0000 0.11639  0.95112  0.00180  Biso   1.000  H
  C1273    1.0000 0.12158  0.93316  0.14025  Biso   1.000  C
  C1274    1.0000 0.14025  0.87842  0.06684  Biso   1.000  C
  C1275    1.0000 0.15258  0.07871  0.90188  Biso   1.000  C
  H2035    1.0000 0.19471  0.01128  0.89669  Biso   1.000  H
  H2036    1.0000 0.22981  0.06110  0.89310  Biso   1.000  H
  H2037    1.0000 0.36381  0.98372  0.94780  Biso   1.000  H
  H2038    1.0000 0.39220  0.03362  0.96931  Biso   1.000  H
  C1276    1.0000 0.07871  0.90188  0.15258  Biso   1.000  C
  H2039    1.0000 0.12920  0.96221  0.16071  Biso   1.000  H
  C1277    1.0000 0.09812  0.84742  0.07871  Biso   1.000  C
  H2040    1.0000 0.16071  0.87080  0.03779  Biso   1.000  H
  C1278    1.0000 0.14025  0.12158  0.93316  Biso   1.000  C
  C1279    1.0000 0.12158  0.06684  0.85975  Biso   1.000  C
  C1280    1.0000 0.06684  0.85975  0.12158  Biso   1.000  C
  C1281    1.0000 0.04549  0.91168  0.20061  Biso   1.000  C
  C1282    1.0000 0.08832  0.79939  0.04549  Biso   1.000  C
  C1283    1.0000 0.09812  0.15258  0.92129  Biso   1.000  C
  H2041    1.0000 0.16071  0.12920  0.96221  Biso   1.000  H
  C1284    1.0000 0.07871  0.09812  0.84742  Biso   1.000  C
  H2042    1.0000 0.12920  0.03779  0.83929  Biso   1.000  H
  H2043    1.0000 0.03779  0.83929  0.12920  Biso   1.000  H
  N171     1.0000 0.03885  0.96654  0.21564  Biso   1.000  N
  H2044    1.0000 0.01128  0.89669  0.19471  Biso   1.000  H
  H2045    1.0000 0.06110  0.89310  0.22981  Biso   1.000  H
  N172     1.0000 0.03346  0.78436  0.03885  Biso   1.000  N
  H2046    1.0000 0.10331  0.80529  0.01128  Biso   1.000  H
  H2047    1.0000 0.10690  0.77019  0.06110  Biso   1.000  H
  C1285    1.0000 0.08832  0.20061  0.95451  Biso   1.000  C
  C1286    1.0000 0.06684  0.14025  0.87842  Biso   1.000  C
  C1287    1.0000 0.04549  0.08832  0.79939  Biso   1.000  C
  C1288    1.0000 0.00000  0.00000  0.17589  Biso   1.000  C
  C1289    1.0000 0.01097  0.97275  0.26386  Biso   1.000  C
  H2048    1.0000 0.01999  0.98302  0.19542  Biso   1.000  H
  C1290    1.0000 0.02725  0.73614  0.01097  Biso   1.000  C
  C1291    1.0000 0.00000  0.82411  0.00000  Biso   1.000  C
  H2049    1.0000 0.01698  0.80458  0.01999  Biso   1.000  H
  N173     1.0000 0.03346  0.21564  0.96115  Biso   1.000  N
  H2050    1.0000 0.10331  0.19471  0.98872  Biso   1.000  H
  H2051    1.0000 0.10690  0.22981  0.93890  Biso   1.000  H
  H2052    1.0000 0.03779  0.16071  0.87080  Biso   1.000  H
  N174     1.0000 0.03885  0.03346  0.78436  Biso   1.000  N
  H2053    1.0000 0.01128  0.10331  0.80529  Biso   1.000  H
  H2054    1.0000 0.06110  0.10690  0.77019  Biso   1.000  H
  C1292    1.0000 0.02889  0.02421  0.13459  Biso   1.000  C
  C1293    1.0000 0.97111  0.97579  0.13459  Biso   1.000  C
  N175     1.0000 0.96115  0.03346  0.21564  Biso   1.000  N
  H2055    1.0000 0.98001  0.01698  0.19542  Biso   1.000  H
  H2056    1.0000 0.98181  0.94792  0.26429  Biso   1.000  H
  C1294    1.0000 0.98903  0.02725  0.26386  Biso   1.000  C
  C1295    1.0000 0.04389  0.96388  0.31196  Biso   1.000  C
  C1296    1.0000 0.97275  0.73614  0.98903  Biso   1.000  C
  H2057    1.0000 0.05208  0.73571  0.98181  Biso   1.000  H
  C1297    1.0000 0.03612  0.68804  0.04389  Biso   1.000  C
  N176     1.0000 0.96654  0.78436  0.96115  Biso   1.000  N
  H2058    1.0000 0.98302  0.80458  0.98001  Biso   1.000  H
  C1298    1.0000 0.97579  0.86541  0.02889  Biso   1.000  C
  C1299    1.0000 0.02421  0.86541  0.97111  Biso   1.000  C
  C1300    1.0000 0.00000  0.17589  0.00000  Biso   1.000  C
  C1301    1.0000 0.02725  0.26386  0.98903  Biso   1.000  C
  H2059    1.0000 0.01698  0.19542  0.98001  Biso   1.000  H
  C1302    1.0000 0.01097  0.02725  0.73614  Biso   1.000  C
  C1303    1.0000 0.00000  0.00000  0.82411  Biso   1.000  C
  H2060    1.0000 0.01999  0.01698  0.80458  Biso   1.000  H
  H2061    1.0000 0.05208  0.04990  0.14899  Biso   1.000  H
  H2062    1.0000 0.00519  0.04068  0.11069  Biso   1.000  H
  H2063    1.0000 0.04888  0.99820  0.11639  Biso   1.000  H
  H2064    1.0000 0.94792  0.95010  0.14899  Biso   1.000  H
  H2065    1.0000 0.99481  0.95932  0.11069  Biso   1.000  H
  H2066    1.0000 0.95112  0.00180  0.11639  Biso   1.000  H
  C1304    1.0000 0.95451  0.08832  0.20061  Biso   1.000  C
  H2067    1.0000 0.01819  0.05208  0.26429  Biso   1.000  H
  C1305    1.0000 0.95611  0.03612  0.31196  Biso   1.000  C
  H2068    1.0000 0.07360  0.98731  0.31149  Biso   1.000  H
  H2069    1.0000 0.05689  0.92831  0.31200  Biso   1.000  H
  C1306    1.0000 0.01140  0.97345  0.36171  Biso   1.000  C
  C1307    1.0000 0.96388  0.68804  0.95611  Biso   1.000  C
  H2070    1.0000 0.94792  0.73571  0.01819  Biso   1.000  H
  H2071    1.0000 0.01269  0.68851  0.07360  Biso   1.000  H
  H2072    1.0000 0.07169  0.68800  0.05689  Biso   1.000  H
  C1308    1.0000 0.02655  0.63829  0.01140  Biso   1.000  C
  C1309    1.0000 0.91168  0.79939  0.95451  Biso   1.000  C
  H2073    1.0000 0.95010  0.85101  0.05208  Biso   1.000  H
  H2074    1.0000 0.95932  0.88931  0.00519  Biso   1.000  H
  H2075    1.0000 0.00180  0.88361  0.04888  Biso   1.000  H
  H2076    1.0000 0.99820  0.88361  0.95112  Biso   1.000  H
  H2077    1.0000 0.04990  0.85101  0.94792  Biso   1.000  H
  H2078    1.0000 0.04068  0.88931  0.99481  Biso   1.000  H
  C1310    1.0000 0.02421  0.13459  0.02889  Biso   1.000  C
  C1311    1.0000 0.97579  0.13459  0.97111  Biso   1.000  C
  N177     1.0000 0.96654  0.21564  0.03885  Biso   1.000  N
  H2079    1.0000 0.98302  0.19542  0.01999  Biso   1.000  H
  H2080    1.0000 0.05208  0.26429  0.01819  Biso   1.000  H
  C1312    1.0000 0.97275  0.26386  0.01097  Biso   1.000  C
  C1313    1.0000 0.03612  0.31196  0.95611  Biso   1.000  C
  C1314    1.0000 0.98903  0.97275  0.73614  Biso   1.000  C
  H2081    1.0000 0.98181  0.05208  0.73571  Biso   1.000  H
  C1315    1.0000 0.04389  0.03612  0.68804  Biso   1.000  C
  N178     1.0000 0.96115  0.96654  0.78436  Biso   1.000  N
  H2082    1.0000 0.98001  0.98302  0.80458  Biso   1.000  H
  C1316    1.0000 0.97111  0.02421  0.86541  Biso   1.000  C
  C1317    1.0000 0.02889  0.97579  0.86541  Biso   1.000  C
  C1318    1.0000 0.92129  0.09812  0.15258  Biso   1.000  C
  H2083    1.0000 0.98872  0.10331  0.19471  Biso   1.000  H
  H2084    1.0000 0.93890  0.10690  0.22981  Biso   1.000  H
  H2085    1.0000 0.92640  0.01269  0.31149  Biso   1.000  H
  H2086    1.0000 0.94311  0.07169  0.31200  Biso   1.000  H
  C1319    1.0000 0.98860  0.02655  0.36171  Biso   1.000  C
  H2087    1.0000 0.98372  0.94780  0.36381  Biso   1.000  H
  H2088    1.0000 0.03362  0.96931  0.39220  Biso   1.000  H
  H2089    1.0000 0.98731  0.68851  0.92640  Biso   1.000  H
  H2090    1.0000 0.92831  0.68800  0.94311  Biso   1.000  H
  C1320    1.0000 0.97345  0.63829  0.98860  Biso   1.000  C
  H2091    1.0000 0.05220  0.63619  0.98372  Biso   1.000  H
  H2092    1.0000 0.03069  0.60780  0.03362  Biso   1.000  H
  C1321    1.0000 0.90188  0.84742  0.92129  Biso   1.000  C
  H2093    1.0000 0.89669  0.80529  0.98872  Biso   1.000  H
  H2094    1.0000 0.89310  0.77019  0.93890  Biso   1.000  H
  H2095    1.0000 0.04990  0.14899  0.05208  Biso   1.000  H
  H2096    1.0000 0.04068  0.11069  0.00519  Biso   1.000  H
  H2097    1.0000 0.99820  0.11639  0.04888  Biso   1.000  H
  H2098    1.0000 0.95010  0.14899  0.94792  Biso   1.000  H
  H2099    1.0000 0.95932  0.11069  0.99481  Biso   1.000  H
  H2100    1.0000 0.00180  0.11639  0.95112  Biso   1.000  H
  C1322    1.0000 0.91168  0.20061  0.04549  Biso   1.000  C
  H2101    1.0000 0.94792  0.26429  0.98181  Biso   1.000  H
  C1323    1.0000 0.96388  0.31196  0.04389  Biso   1.000  C
  H2102    1.0000 0.01269  0.31149  0.92640  Biso   1.000  H
  H2103    1.0000 0.07169  0.31200  0.94311  Biso   1.000  H
  C1324    1.0000 0.02655  0.36171  0.98860  Biso   1.000  C
  C1325    1.0000 0.95611  0.96388  0.68804  Biso   1.000  C
  H2104    1.0000 0.01819  0.94792  0.73571  Biso   1.000  H
  H2105    1.0000 0.07360  0.01269  0.68851  Biso   1.000  H
  H2106    1.0000 0.05689  0.07169  0.68800  Biso   1.000  H
  C1326    1.0000 0.01140  0.02655  0.63829  Biso   1.000  C
  C1327    1.0000 0.95451  0.91168  0.79939  Biso   1.000  C
  H2107    1.0000 0.95112  0.99820  0.88361  Biso   1.000  H
  H2108    1.0000 0.94792  0.04990  0.85101  Biso   1.000  H
  H2109    1.0000 0.99481  0.04068  0.88931  Biso   1.000  H
  H2110    1.0000 0.05208  0.95010  0.85101  Biso   1.000  H
  H2111    1.0000 0.00519  0.95932  0.88931  Biso   1.000  H
  H2112    1.0000 0.04888  0.00180  0.88361  Biso   1.000  H
  C1328    1.0000 0.93316  0.14025  0.12158  Biso   1.000  C
  C1329    1.0000 0.87842  0.06684  0.14025  Biso   1.000  C
  H2113    1.0000 0.01628  0.05220  0.36381  Biso   1.000  H
  H2114    1.0000 0.96638  0.03069  0.39220  Biso   1.000  H
  H2115    1.0000 0.96931  0.60780  0.96638  Biso   1.000  H
  H2116    1.0000 0.94780  0.63619  0.01628  Biso   1.000  H
  C1330    1.0000 0.93316  0.85975  0.87842  Biso   1.000  C
  C1331    1.0000 0.85975  0.87842  0.93316  Biso   1.000  C
  C1332    1.0000 0.90188  0.15258  0.07871  Biso   1.000  C
  H2117    1.0000 0.89669  0.19471  0.01128  Biso   1.000  H
  H2118    1.0000 0.89310  0.22981  0.06110  Biso   1.000  H
  H2119    1.0000 0.98731  0.31149  0.07360  Biso   1.000  H
  H2120    1.0000 0.92831  0.31200  0.05689  Biso   1.000  H
  C1333    1.0000 0.97345  0.36171  0.01140  Biso   1.000  C
  H2121    1.0000 0.05220  0.36381  0.01628  Biso   1.000  H
  H2122    1.0000 0.03069  0.39220  0.96638  Biso   1.000  H
  H2123    1.0000 0.92640  0.98731  0.68851  Biso   1.000  H
  H2124    1.0000 0.94311  0.92831  0.68800  Biso   1.000  H
  C1334    1.0000 0.98860  0.97345  0.63829  Biso   1.000  C
  H2125    1.0000 0.98372  0.05220  0.63619  Biso   1.000  H
  H2126    1.0000 0.03362  0.03069  0.60780  Biso   1.000  H
  C1335    1.0000 0.92129  0.90188  0.84742  Biso   1.000  C
  H2127    1.0000 0.98872  0.89669  0.80529  Biso   1.000  H
  H2128    1.0000 0.93890  0.89310  0.77019  Biso   1.000  H
  H2129    1.0000 0.96221  0.16071  0.12920  Biso   1.000  H
  C1336    1.0000 0.84742  0.07871  0.09812  Biso   1.000  C
  H2130    1.0000 0.87080  0.03779  0.16071  Biso   1.000  H
  H2131    1.0000 0.96221  0.83929  0.87080  Biso   1.000  H
  C1337    1.0000 0.84742  0.92129  0.90188  Biso   1.000  C
  H2132    1.0000 0.83929  0.87080  0.96221  Biso   1.000  H
  C1338    1.0000 0.85975  0.12158  0.06684  Biso   1.000  C
  H2133    1.0000 0.94780  0.36381  0.98372  Biso   1.000  H
  H2134    1.0000 0.96931  0.39220  0.03362  Biso   1.000  H
  H2135    1.0000 0.96638  0.96931  0.60780  Biso   1.000  H
  H2136    1.0000 0.01628  0.94780  0.63619  Biso   1.000  H
  C1339    1.0000 0.87842  0.93316  0.85975  Biso   1.000  C
  C1340    1.0000 0.79939  0.04549  0.08832  Biso   1.000  C
  C1341    1.0000 0.79939  0.95451  0.91168  Biso   1.000  C
  H2137    1.0000 0.83929  0.12920  0.03779  Biso   1.000  H
  H2138    1.0000 0.87080  0.96221  0.83929  Biso   1.000  H
  N179     1.0000 0.78436  0.03885  0.03346  Biso   1.000  N
  H2139    1.0000 0.80529  0.01128  0.10331  Biso   1.000  H
  H2140    1.0000 0.77019  0.06110  0.10690  Biso   1.000  H
  N180     1.0000 0.78436  0.96115  0.96654  Biso   1.000  N
  H2141    1.0000 0.80529  0.98872  0.89669  Biso   1.000  H
  H2142    1.0000 0.77019  0.93890  0.89310  Biso   1.000  H
  C1342    1.0000 0.73614  0.01097  0.02725  Biso   1.000  C
  C1343    1.0000 0.82411  0.00000  0.00000  Biso   1.000  C
  H2143    1.0000 0.80458  0.01999  0.01698  Biso   1.000  H
  C1344    1.0000 0.73614  0.98903  0.97275  Biso   1.000  C
  H2144    1.0000 0.80458  0.98001  0.98302  Biso   1.000  H
  H2145    1.0000 0.73571  0.98181  0.05208  Biso   1.000  H
  C1345    1.0000 0.68804  0.04389  0.03612  Biso   1.000  C
  C1346    1.0000 0.86541  0.97111  0.02421  Biso   1.000  C
  C1347    1.0000 0.86541  0.02889  0.97579  Biso   1.000  C
  C1348    1.0000 0.68804  0.95611  0.96388  Biso   1.000  C
  H2146    1.0000 0.73571  0.01819  0.94792  Biso   1.000  H
  H2147    1.0000 0.68851  0.07360  0.01269  Biso   1.000  H
  H2148    1.0000 0.68800  0.05689  0.07169  Biso   1.000  H
  C1349    1.0000 0.63829  0.01140  0.02655  Biso   1.000  C
  H2149    1.0000 0.88361  0.95112  0.99820  Biso   1.000  H
  H2150    1.0000 0.85101  0.94792  0.04990  Biso   1.000  H
  H2151    1.0000 0.88931  0.99481  0.04068  Biso   1.000  H
  H2152    1.0000 0.85101  0.05208  0.95010  Biso   1.000  H
  H2153    1.0000 0.88931  0.00519  0.95932  Biso   1.000  H
  H2154    1.0000 0.88361  0.04888  0.00180  Biso   1.000  H
  H2155    1.0000 0.68851  0.92640  0.98731  Biso   1.000  H
  H2156    1.0000 0.68800  0.94311  0.92831  Biso   1.000  H
  C1350    1.0000 0.63829  0.98860  0.97345  Biso   1.000  C
  H2157    1.0000 0.63619  0.98372  0.05220  Biso   1.000  H
  H2158    1.0000 0.60780  0.03362  0.03069  Biso   1.000  H
  H2159    1.0000 0.60780  0.96638  0.96931  Biso   1.000  H
  H2160    1.0000 0.63619  0.01628  0.94780  Biso   1.000  H
  C1351    1.0000 0.26386  0.98903  0.02725  Biso   1.000  C
  N181     1.0000 0.21564  0.96115  0.03346  Biso   1.000  N
  C1352    1.0000 0.26386  0.01097  0.97275  Biso   1.000  C
  H2161    1.0000 0.26429  0.01819  0.05208  Biso   1.000  H
  C1353    1.0000 0.31196  0.95611  0.03612  Biso   1.000  C
  C1354    1.0000 0.17589  0.00000  0.00000  Biso   1.000  C
  H2162    1.0000 0.19542  0.98001  0.01698  Biso   1.000  H
  C1355    1.0000 0.20061  0.95451  0.08832  Biso   1.000  C
  N182     1.0000 0.21564  0.03885  0.96654  Biso   1.000  N
  H2163    1.0000 0.26429  0.98181  0.94792  Biso   1.000  H
  C1356    1.0000 0.31196  0.04389  0.96388  Biso   1.000  C
  H2164    1.0000 0.31149  0.92640  0.01269  Biso   1.000  H
  H2165    1.0000 0.31200  0.94311  0.07169  Biso   1.000  H
  C1357    1.0000 0.36171  0.98860  0.02655  Biso   1.000  C
  C1358    1.0000 0.13459  0.02889  0.02421  Biso   1.000  C
  C1359    1.0000 0.13459  0.97111  0.97579  Biso   1.000  C
  H2166    1.0000 0.19542  0.01999  0.98302  Biso   1.000  H
  C1360    1.0000 0.15258  0.92129  0.09812  Biso   1.000  C
  H2167    1.0000 0.19471  0.98872  0.10331  Biso   1.000  H
  H2168    1.0000 0.22981  0.93890  0.10690  Biso   1.000  H
  C1361    1.0000 0.20061  0.04549  0.91168  Biso   1.000  C
  H2169    1.0000 0.31149  0.07360  0.98731  Biso   1.000  H
  H2170    1.0000 0.31200  0.05689  0.92831  Biso   1.000  H
  C1362    1.0000 0.36171  0.01140  0.97345  Biso   1.000  C
  H2171    1.0000 0.36381  0.01628  0.05220  Biso   1.000  H
  H2172    1.0000 0.39220  0.96638  0.03069  Biso   1.000  H
  H2173    1.0000 0.14899  0.05208  0.04990  Biso   1.000  H
  H2174    1.0000 0.11069  0.00519  0.04068  Biso   1.000  H
  H2175    1.0000 0.11639  0.04888  0.99820  Biso   1.000  H
  H2176    1.0000 0.14899  0.94792  0.95010  Biso   1.000  H
  H2177    1.0000 0.11069  0.99481  0.95932  Biso   1.000  H
  H2178    1.0000 0.11639  0.95112  0.00180  Biso   1.000  H
  C1363    1.0000 0.12158  0.93316  0.14025  Biso   1.000  C
  C1364    1.0000 0.14025  0.87842  0.06684  Biso   1.000  C
  C1365    1.0000 0.15258  0.07871  0.90188  Biso   1.000  C
  H2179    1.0000 0.19471  0.01128  0.89669  Biso   1.000  H
  H2180    1.0000 0.22981  0.06110  0.89310  Biso   1.000  H
  H2181    1.0000 0.36381  0.98372  0.94780  Biso   1.000  H
  H2182    1.0000 0.39220  0.03362  0.96931  Biso   1.000  H
  C1366    1.0000 0.07871  0.90188  0.15258  Biso   1.000  C
  H2183    1.0000 0.12920  0.96221  0.16071  Biso   1.000  H
  C1367    1.0000 0.09812  0.84742  0.07871  Biso   1.000  C
  H2184    1.0000 0.16071  0.87080  0.03779  Biso   1.000  H
  C1368    1.0000 0.14025  0.12158  0.93316  Biso   1.000  C
  C1369    1.0000 0.12158  0.06684  0.85975  Biso   1.000  C
  C1370    1.0000 0.06684  0.85975  0.12158  Biso   1.000  C
  C1371    1.0000 0.04549  0.91168  0.20061  Biso   1.000  C
  C1372    1.0000 0.08832  0.79939  0.04549  Biso   1.000  C
  C1373    1.0000 0.09812  0.15258  0.92129  Biso   1.000  C
  H2185    1.0000 0.16071  0.12920  0.96221  Biso   1.000  H
  C1374    1.0000 0.07871  0.09812  0.84742  Biso   1.000  C
  H2186    1.0000 0.12920  0.03779  0.83929  Biso   1.000  H
  H2187    1.0000 0.03779  0.83929  0.12920  Biso   1.000  H
  N183     1.0000 0.03885  0.96654  0.21564  Biso   1.000  N
  H2188    1.0000 0.01128  0.89669  0.19471  Biso   1.000  H
  H2189    1.0000 0.06110  0.89310  0.22981  Biso   1.000  H
  N184     1.0000 0.03346  0.78436  0.03885  Biso   1.000  N
  H2190    1.0000 0.10331  0.80529  0.01128  Biso   1.000  H
  H2191    1.0000 0.10690  0.77019  0.06110  Biso   1.000  H
  C1375    1.0000 0.08832  0.20061  0.95451  Biso   1.000  C
  C1376    1.0000 0.06684  0.14025  0.87842  Biso   1.000  C
  C1377    1.0000 0.04549  0.08832  0.79939  Biso   1.000  C
  C1378    1.0000 0.00000  0.00000  0.17589  Biso   1.000  C
  C1379    1.0000 0.01097  0.97275  0.26386  Biso   1.000  C
  H2192    1.0000 0.01999  0.98302  0.19542  Biso   1.000  H
  C1380    1.0000 0.02725  0.73614  0.01097  Biso   1.000  C
  C1381    1.0000 0.00000  0.82411  0.00000  Biso   1.000  C
  H2193    1.0000 0.01698  0.80458  0.01999  Biso   1.000  H
  N185     1.0000 0.03346  0.21564  0.96115  Biso   1.000  N
  H2194    1.0000 0.10331  0.19471  0.98872  Biso   1.000  H
  H2195    1.0000 0.10690  0.22981  0.93890  Biso   1.000  H
  H2196    1.0000 0.03779  0.16071  0.87080  Biso   1.000  H
  N186     1.0000 0.03885  0.03346  0.78436  Biso   1.000  N
  H2197    1.0000 0.01128  0.10331  0.80529  Biso   1.000  H
  H2198    1.0000 0.06110  0.10690  0.77019  Biso   1.000  H
  C1382    1.0000 0.02889  0.02421  0.13459  Biso   1.000  C
  C1383    1.0000 0.97111  0.97579  0.13459  Biso   1.000  C
  N187     1.0000 0.96115  0.03346  0.21564  Biso   1.000  N
  H2199    1.0000 0.98001  0.01698  0.19542  Biso   1.000  H
  H2200    1.0000 0.98181  0.94792  0.26429  Biso   1.000  H
  C1384    1.0000 0.98903  0.02725  0.26386  Biso   1.000  C
  C1385    1.0000 0.04389  0.96388  0.31196  Biso   1.000  C
  C1386    1.0000 0.97275  0.73614  0.98903  Biso   1.000  C
  H2201    1.0000 0.05208  0.73571  0.98181  Biso   1.000  H
  C1387    1.0000 0.03612  0.68804  0.04389  Biso   1.000  C
  N188     1.0000 0.96654  0.78436  0.96115  Biso   1.000  N
  H2202    1.0000 0.98302  0.80458  0.98001  Biso   1.000  H
  C1388    1.0000 0.97579  0.86541  0.02889  Biso   1.000  C
  C1389    1.0000 0.02421  0.86541  0.97111  Biso   1.000  C
  C1390    1.0000 0.00000  0.17589  0.00000  Biso   1.000  C
  C1391    1.0000 0.02725  0.26386  0.98903  Biso   1.000  C
  H2203    1.0000 0.01698  0.19542  0.98001  Biso   1.000  H
  C1392    1.0000 0.01097  0.02725  0.73614  Biso   1.000  C
  C1393    1.0000 0.00000  0.00000  0.82411  Biso   1.000  C
  H2204    1.0000 0.01999  0.01698  0.80458  Biso   1.000  H
  H2205    1.0000 0.05208  0.04990  0.14899  Biso   1.000  H
  H2206    1.0000 0.00519  0.04068  0.11069  Biso   1.000  H
  H2207    1.0000 0.04888  0.99820  0.11639  Biso   1.000  H
  H2208    1.0000 0.94792  0.95010  0.14899  Biso   1.000  H
  H2209    1.0000 0.99481  0.95932  0.11069  Biso   1.000  H
  H2210    1.0000 0.95112  0.00180  0.11639  Biso   1.000  H
  C1394    1.0000 0.95451  0.08832  0.20061  Biso   1.000  C
  H2211    1.0000 0.01819  0.05208  0.26429  Biso   1.000  H
  C1395    1.0000 0.95611  0.03612  0.31196  Biso   1.000  C
  H2212    1.0000 0.07360  0.98731  0.31149  Biso   1.000  H
  H2213    1.0000 0.05689  0.92831  0.31200  Biso   1.000  H
  C1396    1.0000 0.01140  0.97345  0.36171  Biso   1.000  C
  C1397    1.0000 0.96388  0.68804  0.95611  Biso   1.000  C
  H2214    1.0000 0.94792  0.73571  0.01819  Biso   1.000  H
  H2215    1.0000 0.01269  0.68851  0.07360  Biso   1.000  H
  H2216    1.0000 0.07169  0.68800  0.05689  Biso   1.000  H
  C1398    1.0000 0.02655  0.63829  0.01140  Biso   1.000  C
  C1399    1.0000 0.91168  0.79939  0.95451  Biso   1.000  C
  H2217    1.0000 0.95010  0.85101  0.05208  Biso   1.000  H
  H2218    1.0000 0.95932  0.88931  0.00519  Biso   1.000  H
  H2219    1.0000 0.00180  0.88361  0.04888  Biso   1.000  H
  H2220    1.0000 0.99820  0.88361  0.95112  Biso   1.000  H
  H2221    1.0000 0.04990  0.85101  0.94792  Biso   1.000  H
  H2222    1.0000 0.04068  0.88931  0.99481  Biso   1.000  H
  C1400    1.0000 0.02421  0.13459  0.02889  Biso   1.000  C
  C1401    1.0000 0.97579  0.13459  0.97111  Biso   1.000  C
  N189     1.0000 0.96654  0.21564  0.03885  Biso   1.000  N
  H2223    1.0000 0.98302  0.19542  0.01999  Biso   1.000  H
  H2224    1.0000 0.05208  0.26429  0.01819  Biso   1.000  H
  C1402    1.0000 0.97275  0.26386  0.01097  Biso   1.000  C
  C1403    1.0000 0.03612  0.31196  0.95611  Biso   1.000  C
  C1404    1.0000 0.98903  0.97275  0.73614  Biso   1.000  C
  H2225    1.0000 0.98181  0.05208  0.73571  Biso   1.000  H
  C1405    1.0000 0.04389  0.03612  0.68804  Biso   1.000  C
  N190     1.0000 0.96115  0.96654  0.78436  Biso   1.000  N
  H2226    1.0000 0.98001  0.98302  0.80458  Biso   1.000  H
  C1406    1.0000 0.97111  0.02421  0.86541  Biso   1.000  C
  C1407    1.0000 0.02889  0.97579  0.86541  Biso   1.000  C
  C1408    1.0000 0.92129  0.09812  0.15258  Biso   1.000  C
  H2227    1.0000 0.98872  0.10331  0.19471  Biso   1.000  H
  H2228    1.0000 0.93890  0.10690  0.22981  Biso   1.000  H
  H2229    1.0000 0.92640  0.01269  0.31149  Biso   1.000  H
  H2230    1.0000 0.94311  0.07169  0.31200  Biso   1.000  H
  C1409    1.0000 0.98860  0.02655  0.36171  Biso   1.000  C
  H2231    1.0000 0.98372  0.94780  0.36381  Biso   1.000  H
  H2232    1.0000 0.03362  0.96931  0.39220  Biso   1.000  H
  H2233    1.0000 0.98731  0.68851  0.92640  Biso   1.000  H
  H2234    1.0000 0.92831  0.68800  0.94311  Biso   1.000  H
  C1410    1.0000 0.97345  0.63829  0.98860  Biso   1.000  C
  H2235    1.0000 0.05220  0.63619  0.98372  Biso   1.000  H
  H2236    1.0000 0.03069  0.60780  0.03362  Biso   1.000  H
  C1411    1.0000 0.90188  0.84742  0.92129  Biso   1.000  C
  H2237    1.0000 0.89669  0.80529  0.98872  Biso   1.000  H
  H2238    1.0000 0.89310  0.77019  0.93890  Biso   1.000  H
  H2239    1.0000 0.04990  0.14899  0.05208  Biso   1.000  H
  H2240    1.0000 0.04068  0.11069  0.00519  Biso   1.000  H
  H2241    1.0000 0.99820  0.11639  0.04888  Biso   1.000  H
  H2242    1.0000 0.95010  0.14899  0.94792  Biso   1.000  H
  H2243    1.0000 0.95932  0.11069  0.99481  Biso   1.000  H
  H2244    1.0000 0.00180  0.11639  0.95112  Biso   1.000  H
  C1412    1.0000 0.91168  0.20061  0.04549  Biso   1.000  C
  H2245    1.0000 0.94792  0.26429  0.98181  Biso   1.000  H
  C1413    1.0000 0.96388  0.31196  0.04389  Biso   1.000  C
  H2246    1.0000 0.01269  0.31149  0.92640  Biso   1.000  H
  H2247    1.0000 0.07169  0.31200  0.94311  Biso   1.000  H
  C1414    1.0000 0.02655  0.36171  0.98860  Biso   1.000  C
  C1415    1.0000 0.95611  0.96388  0.68804  Biso   1.000  C
  H2248    1.0000 0.01819  0.94792  0.73571  Biso   1.000  H
  H2249    1.0000 0.07360  0.01269  0.68851  Biso   1.000  H
  H2250    1.0000 0.05689  0.07169  0.68800  Biso   1.000  H
  C1416    1.0000 0.01140  0.02655  0.63829  Biso   1.000  C
  C1417    1.0000 0.95451  0.91168  0.79939  Biso   1.000  C
  H2251    1.0000 0.95112  0.99820  0.88361  Biso   1.000  H
  H2252    1.0000 0.94792  0.04990  0.85101  Biso   1.000  H
  H2253    1.0000 0.99481  0.04068  0.88931  Biso   1.000  H
  H2254    1.0000 0.05208  0.95010  0.85101  Biso   1.000  H
  H2255    1.0000 0.00519  0.95932  0.88931  Biso   1.000  H
  H2256    1.0000 0.04888  0.00180  0.88361  Biso   1.000  H
  C1418    1.0000 0.93316  0.14025  0.12158  Biso   1.000  C
  C1419    1.0000 0.87842  0.06684  0.14025  Biso   1.000  C
  H2257    1.0000 0.01628  0.05220  0.36381  Biso   1.000  H
  H2258    1.0000 0.96638  0.03069  0.39220  Biso   1.000  H
  H2259    1.0000 0.96931  0.60780  0.96638  Biso   1.000  H
  H2260    1.0000 0.94780  0.63619  0.01628  Biso   1.000  H
  C1420    1.0000 0.93316  0.85975  0.87842  Biso   1.000  C
  C1421    1.0000 0.85975  0.87842  0.93316  Biso   1.000  C
  C1422    1.0000 0.90188  0.15258  0.07871  Biso   1.000  C
  H2261    1.0000 0.89669  0.19471  0.01128  Biso   1.000  H
  H2262    1.0000 0.89310  0.22981  0.06110  Biso   1.000  H
  H2263    1.0000 0.98731  0.31149  0.07360  Biso   1.000  H
  H2264    1.0000 0.92831  0.31200  0.05689  Biso   1.000  H
  C1423    1.0000 0.97345  0.36171  0.01140  Biso   1.000  C
  H2265    1.0000 0.05220  0.36381  0.01628  Biso   1.000  H
  H2266    1.0000 0.03069  0.39220  0.96638  Biso   1.000  H
  H2267    1.0000 0.92640  0.98731  0.68851  Biso   1.000  H
  H2268    1.0000 0.94311  0.92831  0.68800  Biso   1.000  H
  C1424    1.0000 0.98860  0.97345  0.63829  Biso   1.000  C
  H2269    1.0000 0.98372  0.05220  0.63619  Biso   1.000  H
  H2270    1.0000 0.03362  0.03069  0.60780  Biso   1.000  H
  C1425    1.0000 0.92129  0.90188  0.84742  Biso   1.000  C
  H2271    1.0000 0.98872  0.89669  0.80529  Biso   1.000  H
  H2272    1.0000 0.93890  0.89310  0.77019  Biso   1.000  H
  H2273    1.0000 0.96221  0.16071  0.12920  Biso   1.000  H
  C1426    1.0000 0.84742  0.07871  0.09812  Biso   1.000  C
  H2274    1.0000 0.87080  0.03779  0.16071  Biso   1.000  H
  H2275    1.0000 0.96221  0.83929  0.87080  Biso   1.000  H
  C1427    1.0000 0.84742  0.92129  0.90188  Biso   1.000  C
  H2276    1.0000 0.83929  0.87080  0.96221  Biso   1.000  H
  C1428    1.0000 0.85975  0.12158  0.06684  Biso   1.000  C
  H2277    1.0000 0.94780  0.36381  0.98372  Biso   1.000  H
  H2278    1.0000 0.96931  0.39220  0.03362  Biso   1.000  H
  H2279    1.0000 0.96638  0.96931  0.60780  Biso   1.000  H
  H2280    1.0000 0.01628  0.94780  0.63619  Biso   1.000  H
  C1429    1.0000 0.87842  0.93316  0.85975  Biso   1.000  C
  C1430    1.0000 0.79939  0.04549  0.08832  Biso   1.000  C
  C1431    1.0000 0.79939  0.95451  0.91168  Biso   1.000  C
  H2281    1.0000 0.83929  0.12920  0.03779  Biso   1.000  H
  H2282    1.0000 0.87080  0.96221  0.83929  Biso   1.000  H
  N191     1.0000 0.78436  0.03885  0.03346  Biso   1.000  N
  H2283    1.0000 0.80529  0.01128  0.10331  Biso   1.000  H
  H2284    1.0000 0.77019  0.06110  0.10690  Biso   1.000  H
  N192     1.0000 0.78436  0.96115  0.96654  Biso   1.000  N
  H2285    1.0000 0.80529  0.98872  0.89669  Biso   1.000  H
  H2286    1.0000 0.77019  0.93890  0.89310  Biso   1.000  H
  C1432    1.0000 0.73614  0.01097  0.02725  Biso   1.000  C
  C1433    1.0000 0.82411  0.00000  0.00000  Biso   1.000  C
  H2287    1.0000 0.80458  0.01999  0.01698  Biso   1.000  H
  C1434    1.0000 0.73614  0.98903  0.97275  Biso   1.000  C
  H2288    1.0000 0.80458  0.98001  0.98302  Biso   1.000  H
  H2289    1.0000 0.73571  0.98181  0.05208  Biso   1.000  H
  C1435    1.0000 0.68804  0.04389  0.03612  Biso   1.000  C
  C1436    1.0000 0.86541  0.97111  0.02421  Biso   1.000  C
  C1437    1.0000 0.86541  0.02889  0.97579  Biso   1.000  C
  C1438    1.0000 0.68804  0.95611  0.96388  Biso   1.000  C
  H2290    1.0000 0.73571  0.01819  0.94792  Biso   1.000  H
  H2291    1.0000 0.68851  0.07360  0.01269  Biso   1.000  H
  H2292    1.0000 0.68800  0.05689  0.07169  Biso   1.000  H
  C1439    1.0000 0.63829  0.01140  0.02655  Biso   1.000  C
  H2293    1.0000 0.88361  0.95112  0.99820  Biso   1.000  H
  H2294    1.0000 0.85101  0.94792  0.04990  Biso   1.000  H
  H2295    1.0000 0.88931  0.99481  0.04068  Biso   1.000  H
  H2296    1.0000 0.85101  0.05208  0.95010  Biso   1.000  H
  H2297    1.0000 0.88931  0.00519  0.95932  Biso   1.000  H
  H2298    1.0000 0.88361  0.04888  0.00180  Biso   1.000  H
  H2299    1.0000 0.68851  0.92640  0.98731  Biso   1.000  H
  H2300    1.0000 0.68800  0.94311  0.92831  Biso   1.000  H
  C1440    1.0000 0.63829  0.98860  0.97345  Biso   1.000  C
  H2301    1.0000 0.63619  0.98372  0.05220  Biso   1.000  H
  H2302    1.0000 0.60780  0.03362  0.03069  Biso   1.000  H
  H2303    1.0000 0.60780  0.96638  0.96931  Biso   1.000  H
  H2304    1.0000 0.63619  0.01628  0.94780  Biso   1.000  H
  C1441    1.0000 0.26386  0.98903  0.02725  Biso   1.000  C
  N193     1.0000 0.21564  0.96115  0.03346  Biso   1.000  N
  C1442    1.0000 0.26386  0.01097  0.97275  Biso   1.000  C
  H2305    1.0000 0.26429  0.01819  0.05208  Biso   1.000  H
  C1443    1.0000 0.31196  0.95611  0.03612  Biso   1.000  C
  C1444    1.0000 0.17589  0.00000  0.00000  Biso   1.000  C
  H2306    1.0000 0.19542  0.98001  0.01698  Biso   1.000  H
  C1445    1.0000 0.20061  0.95451  0.08832  Biso   1.000  C
  N194     1.0000 0.21564  0.03885  0.96654  Biso   1.000  N
  H2307    1.0000 0.26429  0.98181  0.94792  Biso   1.000  H
  C1446    1.0000 0.31196  0.04389  0.96388  Biso   1.000  C
  H2308    1.0000 0.31149  0.92640  0.01269  Biso   1.000  H
  H2309    1.0000 0.31200  0.94311  0.07169  Biso   1.000  H
  C1447    1.0000 0.36171  0.98860  0.02655  Biso   1.000  C
  C1448    1.0000 0.13459  0.02889  0.02421  Biso   1.000  C
  C1449    1.0000 0.13459  0.97111  0.97579  Biso   1.000  C
  H2310    1.0000 0.19542  0.01999  0.98302  Biso   1.000  H
  C1450    1.0000 0.15258  0.92129  0.09812  Biso   1.000  C
  H2311    1.0000 0.19471  0.98872  0.10331  Biso   1.000  H
  H2312    1.0000 0.22981  0.93890  0.10690  Biso   1.000  H
  C1451    1.0000 0.20061  0.04549  0.91168  Biso   1.000  C
  H2313    1.0000 0.31149  0.07360  0.98731  Biso   1.000  H
  H2314    1.0000 0.31200  0.05689  0.92831  Biso   1.000  H
  C1452    1.0000 0.36171  0.01140  0.97345  Biso   1.000  C
  H2315    1.0000 0.36381  0.01628  0.05220  Biso   1.000  H
  H2316    1.0000 0.39220  0.96638  0.03069  Biso   1.000  H
  H2317    1.0000 0.14899  0.05208  0.04990  Biso   1.000  H
  H2318    1.0000 0.11069  0.00519  0.04068  Biso   1.000  H
  H2319    1.0000 0.11639  0.04888  0.99820  Biso   1.000  H
  H2320    1.0000 0.14899  0.94792  0.95010  Biso   1.000  H
  H2321    1.0000 0.11069  0.99481  0.95932  Biso   1.000  H
  H2322    1.0000 0.11639  0.95112  0.00180  Biso   1.000  H
  C1453    1.0000 0.12158  0.93316  0.14025  Biso   1.000  C
  C1454    1.0000 0.14025  0.87842  0.06684  Biso   1.000  C
  C1455    1.0000 0.15258  0.07871  0.90188  Biso   1.000  C
  H2323    1.0000 0.19471  0.01128  0.89669  Biso   1.000  H
  H2324    1.0000 0.22981  0.06110  0.89310  Biso   1.000  H
  H2325    1.0000 0.36381  0.98372  0.94780  Biso   1.000  H
  H2326    1.0000 0.39220  0.03362  0.96931  Biso   1.000  H
  C1456    1.0000 0.07871  0.90188  0.15258  Biso   1.000  C
  H2327    1.0000 0.12920  0.96221  0.16071  Biso   1.000  H
  C1457    1.0000 0.09812  0.84742  0.07871  Biso   1.000  C
  H2328    1.0000 0.16071  0.87080  0.03779  Biso   1.000  H
  C1458    1.0000 0.14025  0.12158  0.93316  Biso   1.000  C
  C1459    1.0000 0.12158  0.06684  0.85975  Biso   1.000  C
  C1460    1.0000 0.06684  0.85975  0.12158  Biso   1.000  C
  C1461    1.0000 0.04549  0.91168  0.20061  Biso   1.000  C
  C1462    1.0000 0.08832  0.79939  0.04549  Biso   1.000  C
  C1463    1.0000 0.09812  0.15258  0.92129  Biso   1.000  C
  H2329    1.0000 0.16071  0.12920  0.96221  Biso   1.000  H
  C1464    1.0000 0.07871  0.09812  0.84742  Biso   1.000  C
  H2330    1.0000 0.12920  0.03779  0.83929  Biso   1.000  H
  H2331    1.0000 0.03779  0.83929  0.12920  Biso   1.000  H
  N195     1.0000 0.03885  0.96654  0.21564  Biso   1.000  N
  H2332    1.0000 0.01128  0.89669  0.19471  Biso   1.000  H
  H2333    1.0000 0.06110  0.89310  0.22981  Biso   1.000  H
  N196     1.0000 0.03346  0.78436  0.03885  Biso   1.000  N
  H2334    1.0000 0.10331  0.80529  0.01128  Biso   1.000  H
  H2335    1.0000 0.10690  0.77019  0.06110  Biso   1.000  H
  C1465    1.0000 0.08832  0.20061  0.95451  Biso   1.000  C
  C1466    1.0000 0.06684  0.14025  0.87842  Biso   1.000  C
  C1467    1.0000 0.04549  0.08832  0.79939  Biso   1.000  C
  C1468    1.0000 0.00000  0.00000  0.17589  Biso   1.000  C
  C1469    1.0000 0.01097  0.97275  0.26386  Biso   1.000  C
  H2336    1.0000 0.01999  0.98302  0.19542  Biso   1.000  H
  C1470    1.0000 0.02725  0.73614  0.01097  Biso   1.000  C
  C1471    1.0000 0.00000  0.82411  0.00000  Biso   1.000  C
  H2337    1.0000 0.01698  0.80458  0.01999  Biso   1.000  H
  N197     1.0000 0.03346  0.21564  0.96115  Biso   1.000  N
  H2338    1.0000 0.10331  0.19471  0.98872  Biso   1.000  H
  H2339    1.0000 0.10690  0.22981  0.93890  Biso   1.000  H
  H2340    1.0000 0.03779  0.16071  0.87080  Biso   1.000  H
  N198     1.0000 0.03885  0.03346  0.78436  Biso   1.000  N
  H2341    1.0000 0.01128  0.10331  0.80529  Biso   1.000  H
  H2342    1.0000 0.06110  0.10690  0.77019  Biso   1.000  H
  C1472    1.0000 0.02889  0.02421  0.13459  Biso   1.000  C
  C1473    1.0000 0.97111  0.97579  0.13459  Biso   1.000  C
  N199     1.0000 0.96115  0.03346  0.21564  Biso   1.000  N
  H2343    1.0000 0.98001  0.01698  0.19542  Biso   1.000  H
  H2344    1.0000 0.98181  0.94792  0.26429  Biso   1.000  H
  C1474    1.0000 0.98903  0.02725  0.26386  Biso   1.000  C
  C1475    1.0000 0.04389  0.96388  0.31196  Biso   1.000  C
  C1476    1.0000 0.97275  0.73614  0.98903  Biso   1.000  C
  H2345    1.0000 0.05208  0.73571  0.98181  Biso   1.000  H
  C1477    1.0000 0.03612  0.68804  0.04389  Biso   1.000  C
  N200     1.0000 0.96654  0.78436  0.96115  Biso   1.000  N
  H2346    1.0000 0.98302  0.80458  0.98001  Biso   1.000  H
  C1478    1.0000 0.97579  0.86541  0.02889  Biso   1.000  C
  C1479    1.0000 0.02421  0.86541  0.97111  Biso   1.000  C
  C1480    1.0000 0.00000  0.17589  0.00000  Biso   1.000  C
  C1481    1.0000 0.02725  0.26386  0.98903  Biso   1.000  C
  H2347    1.0000 0.01698  0.19542  0.98001  Biso   1.000  H
  C1482    1.0000 0.01097  0.02725  0.73614  Biso   1.000  C
  C1483    1.0000 0.00000  0.00000  0.82411  Biso   1.000  C
  H2348    1.0000 0.01999  0.01698  0.80458  Biso   1.000  H
  H2349    1.0000 0.05208  0.04990  0.14899  Biso   1.000  H
  H2350    1.0000 0.00519  0.04068  0.11069  Biso   1.000  H
  H2351    1.0000 0.04888  0.99820  0.11639  Biso   1.000  H
  H2352    1.0000 0.94792  0.95010  0.14899  Biso   1.000  H
  H2353    1.0000 0.99481  0.95932  0.11069  Biso   1.000  H
  H2354    1.0000 0.95112  0.00180  0.11639  Biso   1.000  H
  C1484    1.0000 0.95451  0.08832  0.20061  Biso   1.000  C
  H2355    1.0000 0.01819  0.05208  0.26429  Biso   1.000  H
  C1485    1.0000 0.95611  0.03612  0.31196  Biso   1.000  C
  H2356    1.0000 0.07360  0.98731  0.31149  Biso   1.000  H
  H2357    1.0000 0.05689  0.92831  0.31200  Biso   1.000  H
  C1486    1.0000 0.01140  0.97345  0.36171  Biso   1.000  C
  C1487    1.0000 0.96388  0.68804  0.95611  Biso   1.000  C
  H2358    1.0000 0.94792  0.73571  0.01819  Biso   1.000  H
  H2359    1.0000 0.01269  0.68851  0.07360  Biso   1.000  H
  H2360    1.0000 0.07169  0.68800  0.05689  Biso   1.000  H
  C1488    1.0000 0.02655  0.63829  0.01140  Biso   1.000  C
  C1489    1.0000 0.91168  0.79939  0.95451  Biso   1.000  C
  H2361    1.0000 0.95010  0.85101  0.05208  Biso   1.000  H
  H2362    1.0000 0.95932  0.88931  0.00519  Biso   1.000  H
  H2363    1.0000 0.00180  0.88361  0.04888  Biso   1.000  H
  H2364    1.0000 0.99820  0.88361  0.95112  Biso   1.000  H
  H2365    1.0000 0.04990  0.85101  0.94792  Biso   1.000  H
  H2366    1.0000 0.04068  0.88931  0.99481  Biso   1.000  H
  C1490    1.0000 0.02421  0.13459  0.02889  Biso   1.000  C
  C1491    1.0000 0.97579  0.13459  0.97111  Biso   1.000  C
  N201     1.0000 0.96654  0.21564  0.03885  Biso   1.000  N
  H2367    1.0000 0.98302  0.19542  0.01999  Biso   1.000  H
  H2368    1.0000 0.05208  0.26429  0.01819  Biso   1.000  H
  C1492    1.0000 0.97275  0.26386  0.01097  Biso   1.000  C
  C1493    1.0000 0.03612  0.31196  0.95611  Biso   1.000  C
  C1494    1.0000 0.98903  0.97275  0.73614  Biso   1.000  C
  H2369    1.0000 0.98181  0.05208  0.73571  Biso   1.000  H
  C1495    1.0000 0.04389  0.03612  0.68804  Biso   1.000  C
  N202     1.0000 0.96115  0.96654  0.78436  Biso   1.000  N
  H2370    1.0000 0.98001  0.98302  0.80458  Biso   1.000  H
  C1496    1.0000 0.97111  0.02421  0.86541  Biso   1.000  C
  C1497    1.0000 0.02889  0.97579  0.86541  Biso   1.000  C
  C1498    1.0000 0.92129  0.09812  0.15258  Biso   1.000  C
  H2371    1.0000 0.98872  0.10331  0.19471  Biso   1.000  H
  H2372    1.0000 0.93890  0.10690  0.22981  Biso   1.000  H
  H2373    1.0000 0.92640  0.01269  0.31149  Biso   1.000  H
  H2374    1.0000 0.94311  0.07169  0.31200  Biso   1.000  H
  C1499    1.0000 0.98860  0.02655  0.36171  Biso   1.000  C
  H2375    1.0000 0.98372  0.94780  0.36381  Biso   1.000  H
  H2376    1.0000 0.03362  0.96931  0.39220  Biso   1.000  H
  H2377    1.0000 0.98731  0.68851  0.92640  Biso   1.000  H
  H2378    1.0000 0.92831  0.68800  0.94311  Biso   1.000  H
  C1500    1.0000 0.97345  0.63829  0.98860  Biso   1.000  C
  H2379    1.0000 0.05220  0.63619  0.98372  Biso   1.000  H
  H2380    1.0000 0.03069  0.60780  0.03362  Biso   1.000  H
  C1501    1.0000 0.90188  0.84742  0.92129  Biso   1.000  C
  H2381    1.0000 0.89669  0.80529  0.98872  Biso   1.000  H
  H2382    1.0000 0.89310  0.77019  0.93890  Biso   1.000  H
  H2383    1.0000 0.04990  0.14899  0.05208  Biso   1.000  H
  H2384    1.0000 0.04068  0.11069  0.00519  Biso   1.000  H
  H2385    1.0000 0.99820  0.11639  0.04888  Biso   1.000  H
  H2386    1.0000 0.95010  0.14899  0.94792  Biso   1.000  H
  H2387    1.0000 0.95932  0.11069  0.99481  Biso   1.000  H
  H2388    1.0000 0.00180  0.11639  0.95112  Biso   1.000  H
  C1502    1.0000 0.91168  0.20061  0.04549  Biso   1.000  C
  H2389    1.0000 0.94792  0.26429  0.98181  Biso   1.000  H
  C1503    1.0000 0.96388  0.31196  0.04389  Biso   1.000  C
  H2390    1.0000 0.01269  0.31149  0.92640  Biso   1.000  H
  H2391    1.0000 0.07169  0.31200  0.94311  Biso   1.000  H
  C1504    1.0000 0.02655  0.36171  0.98860  Biso   1.000  C
  C1505    1.0000 0.95611  0.96388  0.68804  Biso   1.000  C
  H2392    1.0000 0.01819  0.94792  0.73571  Biso   1.000  H
  H2393    1.0000 0.07360  0.01269  0.68851  Biso   1.000  H
  H2394    1.0000 0.05689  0.07169  0.68800  Biso   1.000  H
  C1506    1.0000 0.01140  0.02655  0.63829  Biso   1.000  C
  C1507    1.0000 0.95451  0.91168  0.79939  Biso   1.000  C
  H2395    1.0000 0.95112  0.99820  0.88361  Biso   1.000  H
  H2396    1.0000 0.94792  0.04990  0.85101  Biso   1.000  H
  H2397    1.0000 0.99481  0.04068  0.88931  Biso   1.000  H
  H2398    1.0000 0.05208  0.95010  0.85101  Biso   1.000  H
  H2399    1.0000 0.00519  0.95932  0.88931  Biso   1.000  H
  H2400    1.0000 0.04888  0.00180  0.88361  Biso   1.000  H
  C1508    1.0000 0.93316  0.14025  0.12158  Biso   1.000  C
  C1509    1.0000 0.87842  0.06684  0.14025  Biso   1.000  C
  H2401    1.0000 0.01628  0.05220  0.36381  Biso   1.000  H
  H2402    1.0000 0.96638  0.03069  0.39220  Biso   1.000  H
  H2403    1.0000 0.96931  0.60780  0.96638  Biso   1.000  H
  H2404    1.0000 0.94780  0.63619  0.01628  Biso   1.000  H
  C1510    1.0000 0.93316  0.85975  0.87842  Biso   1.000  C
  C1511    1.0000 0.85975  0.87842  0.93316  Biso   1.000  C
  C1512    1.0000 0.90188  0.15258  0.07871  Biso   1.000  C
  H2405    1.0000 0.89669  0.19471  0.01128  Biso   1.000  H
  H2406    1.0000 0.89310  0.22981  0.06110  Biso   1.000  H
  H2407    1.0000 0.98731  0.31149  0.07360  Biso   1.000  H
  H2408    1.0000 0.92831  0.31200  0.05689  Biso   1.000  H
  C1513    1.0000 0.97345  0.36171  0.01140  Biso   1.000  C
  H2409    1.0000 0.05220  0.36381  0.01628  Biso   1.000  H
  H2410    1.0000 0.03069  0.39220  0.96638  Biso   1.000  H
  H2411    1.0000 0.92640  0.98731  0.68851  Biso   1.000  H
  H2412    1.0000 0.94311  0.92831  0.68800  Biso   1.000  H
  C1514    1.0000 0.98860  0.97345  0.63829  Biso   1.000  C
  H2413    1.0000 0.98372  0.05220  0.63619  Biso   1.000  H
  H2414    1.0000 0.03362  0.03069  0.60780  Biso   1.000  H
  C1515    1.0000 0.92129  0.90188  0.84742  Biso   1.000  C
  H2415    1.0000 0.98872  0.89669  0.80529  Biso   1.000  H
  H2416    1.0000 0.93890  0.89310  0.77019  Biso   1.000  H
  H2417    1.0000 0.96221  0.16071  0.12920  Biso   1.000  H
  C1516    1.0000 0.84742  0.07871  0.09812  Biso   1.000  C
  H2418    1.0000 0.87080  0.03779  0.16071  Biso   1.000  H
  H2419    1.0000 0.96221  0.83929  0.87080  Biso   1.000  H
  C1517    1.0000 0.84742  0.92129  0.90188  Biso   1.000  C
  H2420    1.0000 0.83929  0.87080  0.96221  Biso   1.000  H
  C1518    1.0000 0.85975  0.12158  0.06684  Biso   1.000  C
  H2421    1.0000 0.94780  0.36381  0.98372  Biso   1.000  H
  H2422    1.0000 0.96931  0.39220  0.03362  Biso   1.000  H
  H2423    1.0000 0.96638  0.96931  0.60780  Biso   1.000  H
  H2424    1.0000 0.01628  0.94780  0.63619  Biso   1.000  H
  C1519    1.0000 0.87842  0.93316  0.85975  Biso   1.000  C
  C1520    1.0000 0.79939  0.04549  0.08832  Biso   1.000  C
  C1521    1.0000 0.79939  0.95451  0.91168  Biso   1.000  C
  H2425    1.0000 0.83929  0.12920  0.03779  Biso   1.000  H
  H2426    1.0000 0.87080  0.96221  0.83929  Biso   1.000  H
  N203     1.0000 0.78436  0.03885  0.03346  Biso   1.000  N
  H2427    1.0000 0.80529  0.01128  0.10331  Biso   1.000  H
  H2428    1.0000 0.77019  0.06110  0.10690  Biso   1.000  H
  N204     1.0000 0.78436  0.96115  0.96654  Biso   1.000  N
  H2429    1.0000 0.80529  0.98872  0.89669  Biso   1.000  H
  H2430    1.0000 0.77019  0.93890  0.89310  Biso   1.000  H
  C1522    1.0000 0.73614  0.01097  0.02725  Biso   1.000  C
  C1523    1.0000 0.82411  0.00000  0.00000  Biso   1.000  C
  H2431    1.0000 0.80458  0.01999  0.01698  Biso   1.000  H
  C1524    1.0000 0.73614  0.98903  0.97275  Biso   1.000  C
  H2432    1.0000 0.80458  0.98001  0.98302  Biso   1.000  H
  H2433    1.0000 0.73571  0.98181  0.05208  Biso   1.000  H
  C1525    1.0000 0.68804  0.04389  0.03612  Biso   1.000  C
  C1526    1.0000 0.86541  0.97111  0.02421  Biso   1.000  C
  C1527    1.0000 0.86541  0.02889  0.97579  Biso   1.000  C
  C1528    1.0000 0.68804  0.95611  0.96388  Biso   1.000  C
  H2434    1.0000 0.73571  0.01819  0.94792  Biso   1.000  H
  H2435    1.0000 0.68851  0.07360  0.01269  Biso   1.000  H
  H2436    1.0000 0.68800  0.05689  0.07169  Biso   1.000  H
  C1529    1.0000 0.63829  0.01140  0.02655  Biso   1.000  C
  H2437    1.0000 0.88361  0.95112  0.99820  Biso   1.000  H
  H2438    1.0000 0.85101  0.94792  0.04990  Biso   1.000  H
  H2439    1.0000 0.88931  0.99481  0.04068  Biso   1.000  H
  H2440    1.0000 0.85101  0.05208  0.95010  Biso   1.000  H
  H2441    1.0000 0.88931  0.00519  0.95932  Biso   1.000  H
  H2442    1.0000 0.88361  0.04888  0.00180  Biso   1.000  H
  H2443    1.0000 0.68851  0.92640  0.98731  Biso   1.000  H
  H2444    1.0000 0.68800  0.94311  0.92831  Biso   1.000  H
  C1530    1.0000 0.63829  0.98860  0.97345  Biso   1.000  C
  H2445    1.0000 0.63619  0.98372  0.05220  Biso   1.000  H
  H2446    1.0000 0.60780  0.03362  0.03069  Biso   1.000  H
  H2447    1.0000 0.60780  0.96638  0.96931  Biso   1.000  H
  H2448    1.0000 0.63619  0.01628  0.94780  Biso   1.000  H
  C1531    1.0000 0.26386  0.98903  0.02725  Biso   1.000  C
  N205     1.0000 0.21564  0.96115  0.03346  Biso   1.000  N
  C1532    1.0000 0.26386  0.01097  0.97275  Biso   1.000  C
  H2449    1.0000 0.26429  0.01819  0.05208  Biso   1.000  H
  C1533    1.0000 0.31196  0.95611  0.03612  Biso   1.000  C
  C1534    1.0000 0.17589  0.00000  0.00000  Biso   1.000  C
  H2450    1.0000 0.19542  0.98001  0.01698  Biso   1.000  H
  C1535    1.0000 0.20061  0.95451  0.08832  Biso   1.000  C
  N206     1.0000 0.21564  0.03885  0.96654  Biso   1.000  N
  H2451    1.0000 0.26429  0.98181  0.94792  Biso   1.000  H
  C1536    1.0000 0.31196  0.04389  0.96388  Biso   1.000  C
  H2452    1.0000 0.31149  0.92640  0.01269  Biso   1.000  H
  H2453    1.0000 0.31200  0.94311  0.07169  Biso   1.000  H
  C1537    1.0000 0.36171  0.98860  0.02655  Biso   1.000  C
  C1538    1.0000 0.13459  0.02889  0.02421  Biso   1.000  C
  C1539    1.0000 0.13459  0.97111  0.97579  Biso   1.000  C
  H2454    1.0000 0.19542  0.01999  0.98302  Biso   1.000  H
  C1540    1.0000 0.15258  0.92129  0.09812  Biso   1.000  C
  H2455    1.0000 0.19471  0.98872  0.10331  Biso   1.000  H
  H2456    1.0000 0.22981  0.93890  0.10690  Biso   1.000  H
  C1541    1.0000 0.20061  0.04549  0.91168  Biso   1.000  C
  H2457    1.0000 0.31149  0.07360  0.98731  Biso   1.000  H
  H2458    1.0000 0.31200  0.05689  0.92831  Biso   1.000  H
  C1542    1.0000 0.36171  0.01140  0.97345  Biso   1.000  C
  H2459    1.0000 0.36381  0.01628  0.05220  Biso   1.000  H
  H2460    1.0000 0.39220  0.96638  0.03069  Biso   1.000  H
  H2461    1.0000 0.14899  0.05208  0.04990  Biso   1.000  H
  H2462    1.0000 0.11069  0.00519  0.04068  Biso   1.000  H
  H2463    1.0000 0.11639  0.04888  0.99820  Biso   1.000  H
  H2464    1.0000 0.14899  0.94792  0.95010  Biso   1.000  H
  H2465    1.0000 0.11069  0.99481  0.95932  Biso   1.000  H
  H2466    1.0000 0.11639  0.95112  0.00180  Biso   1.000  H
  C1543    1.0000 0.12158  0.93316  0.14025  Biso   1.000  C
  C1544    1.0000 0.14025  0.87842  0.06684  Biso   1.000  C
  C1545    1.0000 0.15258  0.07871  0.90188  Biso   1.000  C
  H2467    1.0000 0.19471  0.01128  0.89669  Biso   1.000  H
  H2468    1.0000 0.22981  0.06110  0.89310  Biso   1.000  H
  H2469    1.0000 0.36381  0.98372  0.94780  Biso   1.000  H
  H2470    1.0000 0.39220  0.03362  0.96931  Biso   1.000  H
  C1546    1.0000 0.07871  0.90188  0.15258  Biso   1.000  C
  H2471    1.0000 0.12920  0.96221  0.16071  Biso   1.000  H
  C1547    1.0000 0.09812  0.84742  0.07871  Biso   1.000  C
  H2472    1.0000 0.16071  0.87080  0.03779  Biso   1.000  H
  C1548    1.0000 0.14025  0.12158  0.93316  Biso   1.000  C
  C1549    1.0000 0.12158  0.06684  0.85975  Biso   1.000  C
  C1550    1.0000 0.06684  0.85975  0.12158  Biso   1.000  C
  C1551    1.0000 0.04549  0.91168  0.20061  Biso   1.000  C
  C1552    1.0000 0.08832  0.79939  0.04549  Biso   1.000  C
  C1553    1.0000 0.09812  0.15258  0.92129  Biso   1.000  C
  H2473    1.0000 0.16071  0.12920  0.96221  Biso   1.000  H
  C1554    1.0000 0.07871  0.09812  0.84742  Biso   1.000  C
  H2474    1.0000 0.12920  0.03779  0.83929  Biso   1.000  H
  H2475    1.0000 0.03779  0.83929  0.12920  Biso   1.000  H
  N207     1.0000 0.03885  0.96654  0.21564  Biso   1.000  N
  H2476    1.0000 0.01128  0.89669  0.19471  Biso   1.000  H
  H2477    1.0000 0.06110  0.89310  0.22981  Biso   1.000  H
  N208     1.0000 0.03346  0.78436  0.03885  Biso   1.000  N
  H2478    1.0000 0.10331  0.80529  0.01128  Biso   1.000  H
  H2479    1.0000 0.10690  0.77019  0.06110  Biso   1.000  H
  C1555    1.0000 0.08832  0.20061  0.95451  Biso   1.000  C
  C1556    1.0000 0.06684  0.14025  0.87842  Biso   1.000  C
  C1557    1.0000 0.04549  0.08832  0.79939  Biso   1.000  C
  C1558    1.0000 0.00000  0.00000  0.17589  Biso   1.000  C
  C1559    1.0000 0.01097  0.97275  0.26386  Biso   1.000  C
  H2480    1.0000 0.01999  0.98302  0.19542  Biso   1.000  H
  C1560    1.0000 0.02725  0.73614  0.01097  Biso   1.000  C
  C1561    1.0000 0.00000  0.82411  0.00000  Biso   1.000  C
  H2481    1.0000 0.01698  0.80458  0.01999  Biso   1.000  H
  N209     1.0000 0.03346  0.21564  0.96115  Biso   1.000  N
  H2482    1.0000 0.10331  0.19471  0.98872  Biso   1.000  H
  H2483    1.0000 0.10690  0.22981  0.93890  Biso   1.000  H
  H2484    1.0000 0.03779  0.16071  0.87080  Biso   1.000  H
  N210     1.0000 0.03885  0.03346  0.78436  Biso   1.000  N
  H2485    1.0000 0.01128  0.10331  0.80529  Biso   1.000  H
  H2486    1.0000 0.06110  0.10690  0.77019  Biso   1.000  H
  C1562    1.0000 0.02889  0.02421  0.13459  Biso   1.000  C
  C1563    1.0000 0.97111  0.97579  0.13459  Biso   1.000  C
  N211     1.0000 0.96115  0.03346  0.21564  Biso   1.000  N
  H2487    1.0000 0.98001  0.01698  0.19542  Biso   1.000  H
  H2488    1.0000 0.98181  0.94792  0.26429  Biso   1.000  H
  C1564    1.0000 0.98903  0.02725  0.26386  Biso   1.000  C
  C1565    1.0000 0.04389  0.96388  0.31196  Biso   1.000  C
  C1566    1.0000 0.97275  0.73614  0.98903  Biso   1.000  C
  H2489    1.0000 0.05208  0.73571  0.98181  Biso   1.000  H
  C1567    1.0000 0.03612  0.68804  0.04389  Biso   1.000  C
  N212     1.0000 0.96654  0.78436  0.96115  Biso   1.000  N
  H2490    1.0000 0.98302  0.80458  0.98001  Biso   1.000  H
  C1568    1.0000 0.97579  0.86541  0.02889  Biso   1.000  C
  C1569    1.0000 0.02421  0.86541  0.97111  Biso   1.000  C
  C1570    1.0000 0.00000  0.17589  0.00000  Biso   1.000  C
  C1571    1.0000 0.02725  0.26386  0.98903  Biso   1.000  C
  H2491    1.0000 0.01698  0.19542  0.98001  Biso   1.000  H
  C1572    1.0000 0.01097  0.02725  0.73614  Biso   1.000  C
  C1573    1.0000 0.00000  0.00000  0.82411  Biso   1.000  C
  H2492    1.0000 0.01999  0.01698  0.80458  Biso   1.000  H
  H2493    1.0000 0.05208  0.04990  0.14899  Biso   1.000  H
  H2494    1.0000 0.00519  0.04068  0.11069  Biso   1.000  H
  H2495    1.0000 0.04888  0.99820  0.11639  Biso   1.000  H
  H2496    1.0000 0.94792  0.95010  0.14899  Biso   1.000  H
  H2497    1.0000 0.99481  0.95932  0.11069  Biso   1.000  H
  H2498    1.0000 0.95112  0.00180  0.11639  Biso   1.000  H
  C1574    1.0000 0.95451  0.08832  0.20061  Biso   1.000  C
  H2499    1.0000 0.01819  0.05208  0.26429  Biso   1.000  H
  C1575    1.0000 0.95611  0.03612  0.31196  Biso   1.000  C
  H2500    1.0000 0.07360  0.98731  0.31149  Biso   1.000  H
  H2501    1.0000 0.05689  0.92831  0.31200  Biso   1.000  H
  C1576    1.0000 0.01140  0.97345  0.36171  Biso   1.000  C
  C1577    1.0000 0.96388  0.68804  0.95611  Biso   1.000  C
  H2502    1.0000 0.94792  0.73571  0.01819  Biso   1.000  H
  H2503    1.0000 0.01269  0.68851  0.07360  Biso   1.000  H
  H2504    1.0000 0.07169  0.68800  0.05689  Biso   1.000  H
  C1578    1.0000 0.02655  0.63829  0.01140  Biso   1.000  C
  C1579    1.0000 0.91168  0.79939  0.95451  Biso   1.000  C
  H2505    1.0000 0.95010  0.85101  0.05208  Biso   1.000  H
  H2506    1.0000 0.95932  0.88931  0.00519  Biso   1.000  H
  H2507    1.0000 0.00180  0.88361  0.04888  Biso   1.000  H
  H2508    1.0000 0.99820  0.88361  0.95112  Biso   1.000  H
  H2509    1.0000 0.04990  0.85101  0.94792  Biso   1.000  H
  H2510    1.0000 0.04068  0.88931  0.99481  Biso   1.000  H
  C1580    1.0000 0.02421  0.13459  0.02889  Biso   1.000  C
  C1581    1.0000 0.97579  0.13459  0.97111  Biso   1.000  C
  N213     1.0000 0.96654  0.21564  0.03885  Biso   1.000  N
  H2511    1.0000 0.98302  0.19542  0.01999  Biso   1.000  H
  H2512    1.0000 0.05208  0.26429  0.01819  Biso   1.000  H
  C1582    1.0000 0.97275  0.26386  0.01097  Biso   1.000  C
  C1583    1.0000 0.03612  0.31196  0.95611  Biso   1.000  C
  C1584    1.0000 0.98903  0.97275  0.73614  Biso   1.000  C
  H2513    1.0000 0.98181  0.05208  0.73571  Biso   1.000  H
  C1585    1.0000 0.04389  0.03612  0.68804  Biso   1.000  C
  N214     1.0000 0.96115  0.96654  0.78436  Biso   1.000  N
  H2514    1.0000 0.98001  0.98302  0.80458  Biso   1.000  H
  C1586    1.0000 0.97111  0.02421  0.86541  Biso   1.000  C
  C1587    1.0000 0.02889  0.97579  0.86541  Biso   1.000  C
  C1588    1.0000 0.92129  0.09812  0.15258  Biso   1.000  C
  H2515    1.0000 0.98872  0.10331  0.19471  Biso   1.000  H
  H2516    1.0000 0.93890  0.10690  0.22981  Biso   1.000  H
  H2517    1.0000 0.92640  0.01269  0.31149  Biso   1.000  H
  H2518    1.0000 0.94311  0.07169  0.31200  Biso   1.000  H
  C1589    1.0000 0.98860  0.02655  0.36171  Biso   1.000  C
  H2519    1.0000 0.98372  0.94780  0.36381  Biso   1.000  H
  H2520    1.0000 0.03362  0.96931  0.39220  Biso   1.000  H
  H2521    1.0000 0.98731  0.68851  0.92640  Biso   1.000  H
  H2522    1.0000 0.92831  0.68800  0.94311  Biso   1.000  H
  C1590    1.0000 0.97345  0.63829  0.98860  Biso   1.000  C
  H2523    1.0000 0.05220  0.63619  0.98372  Biso   1.000  H
  H2524    1.0000 0.03069  0.60780  0.03362  Biso   1.000  H
  C1591    1.0000 0.90188  0.84742  0.92129  Biso   1.000  C
  H2525    1.0000 0.89669  0.80529  0.98872  Biso   1.000  H
  H2526    1.0000 0.89310  0.77019  0.93890  Biso   1.000  H
  H2527    1.0000 0.04990  0.14899  0.05208  Biso   1.000  H
  H2528    1.0000 0.04068  0.11069  0.00519  Biso   1.000  H
  H2529    1.0000 0.99820  0.11639  0.04888  Biso   1.000  H
  H2530    1.0000 0.95010  0.14899  0.94792  Biso   1.000  H
  H2531    1.0000 0.95932  0.11069  0.99481  Biso   1.000  H
  H2532    1.0000 0.00180  0.11639  0.95112  Biso   1.000  H
  C1592    1.0000 0.91168  0.20061  0.04549  Biso   1.000  C
  H2533    1.0000 0.94792  0.26429  0.98181  Biso   1.000  H
  C1593    1.0000 0.96388  0.31196  0.04389  Biso   1.000  C
  H2534    1.0000 0.01269  0.31149  0.92640  Biso   1.000  H
  H2535    1.0000 0.07169  0.31200  0.94311  Biso   1.000  H
  C1594    1.0000 0.02655  0.36171  0.98860  Biso   1.000  C
  C1595    1.0000 0.95611  0.96388  0.68804  Biso   1.000  C
  H2536    1.0000 0.01819  0.94792  0.73571  Biso   1.000  H
  H2537    1.0000 0.07360  0.01269  0.68851  Biso   1.000  H
  H2538    1.0000 0.05689  0.07169  0.68800  Biso   1.000  H
  C1596    1.0000 0.01140  0.02655  0.63829  Biso   1.000  C
  C1597    1.0000 0.95451  0.91168  0.79939  Biso   1.000  C
  H2539    1.0000 0.95112  0.99820  0.88361  Biso   1.000  H
  H2540    1.0000 0.94792  0.04990  0.85101  Biso   1.000  H
  H2541    1.0000 0.99481  0.04068  0.88931  Biso   1.000  H
  H2542    1.0000 0.05208  0.95010  0.85101  Biso   1.000  H
  H2543    1.0000 0.00519  0.95932  0.88931  Biso   1.000  H
  H2544    1.0000 0.04888  0.00180  0.88361  Biso   1.000  H
  C1598    1.0000 0.93316  0.14025  0.12158  Biso   1.000  C
  C1599    1.0000 0.87842  0.06684  0.14025  Biso   1.000  C
  H2545    1.0000 0.01628  0.05220  0.36381  Biso   1.000  H
  H2546    1.0000 0.96638  0.03069  0.39220  Biso   1.000  H
  H2547    1.0000 0.96931  0.60780  0.96638  Biso   1.000  H
  H2548    1.0000 0.94780  0.63619  0.01628  Biso   1.000  H
  C1600    1.0000 0.93316  0.85975  0.87842  Biso   1.000  C
  C1601    1.0000 0.85975  0.87842  0.93316  Biso   1.000  C
  C1602    1.0000 0.90188  0.15258  0.07871  Biso   1.000  C
  H2549    1.0000 0.89669  0.19471  0.01128  Biso   1.000  H
  H2550    1.0000 0.89310  0.22981  0.06110  Biso   1.000  H
  H2551    1.0000 0.98731  0.31149  0.07360  Biso   1.000  H
  H2552    1.0000 0.92831  0.31200  0.05689  Biso   1.000  H
  C1603    1.0000 0.97345  0.36171  0.01140  Biso   1.000  C
  H2553    1.0000 0.05220  0.36381  0.01628  Biso   1.000  H
  H2554    1.0000 0.03069  0.39220  0.96638  Biso   1.000  H
  H2555    1.0000 0.92640  0.98731  0.68851  Biso   1.000  H
  H2556    1.0000 0.94311  0.92831  0.68800  Biso   1.000  H
  C1604    1.0000 0.98860  0.97345  0.63829  Biso   1.000  C
  H2557    1.0000 0.98372  0.05220  0.63619  Biso   1.000  H
  H2558    1.0000 0.03362  0.03069  0.60780  Biso   1.000  H
  C1605    1.0000 0.92129  0.90188  0.84742  Biso   1.000  C
  H2559    1.0000 0.98872  0.89669  0.80529  Biso   1.000  H
  H2560    1.0000 0.93890  0.89310  0.77019  Biso   1.000  H
  H2561    1.0000 0.96221  0.16071  0.12920  Biso   1.000  H
  C1606    1.0000 0.84742  0.07871  0.09812  Biso   1.000  C
  H2562    1.0000 0.87080  0.03779  0.16071  Biso   1.000  H
  H2563    1.0000 0.96221  0.83929  0.87080  Biso   1.000  H
  C1607    1.0000 0.84742  0.92129  0.90188  Biso   1.000  C
  H2564    1.0000 0.83929  0.87080  0.96221  Biso   1.000  H
  C1608    1.0000 0.85975  0.12158  0.06684  Biso   1.000  C
  H2565    1.0000 0.94780  0.36381  0.98372  Biso   1.000  H
  H2566    1.0000 0.96931  0.39220  0.03362  Biso   1.000  H
  H2567    1.0000 0.96638  0.96931  0.60780  Biso   1.000  H
  H2568    1.0000 0.01628  0.94780  0.63619  Biso   1.000  H
  C1609    1.0000 0.87842  0.93316  0.85975  Biso   1.000  C
  C1610    1.0000 0.79939  0.04549  0.08832  Biso   1.000  C
  C1611    1.0000 0.79939  0.95451  0.91168  Biso   1.000  C
  H2569    1.0000 0.83929  0.12920  0.03779  Biso   1.000  H
  H2570    1.0000 0.87080  0.96221  0.83929  Biso   1.000  H
  N215     1.0000 0.78436  0.03885  0.03346  Biso   1.000  N
  H2571    1.0000 0.80529  0.01128  0.10331  Biso   1.000  H
  H2572    1.0000 0.77019  0.06110  0.10690  Biso   1.000  H
  N216     1.0000 0.78436  0.96115  0.96654  Biso   1.000  N
  H2573    1.0000 0.80529  0.98872  0.89669  Biso   1.000  H
  H2574    1.0000 0.77019  0.93890  0.89310  Biso   1.000  H
  C1612    1.0000 0.73614  0.01097  0.02725  Biso   1.000  C
  C1613    1.0000 0.82411  0.00000  0.00000  Biso   1.000  C
  H2575    1.0000 0.80458  0.01999  0.01698  Biso   1.000  H
  C1614    1.0000 0.73614  0.98903  0.97275  Biso   1.000  C
  H2576    1.0000 0.80458  0.98001  0.98302  Biso   1.000  H
  H2577    1.0000 0.73571  0.98181  0.05208  Biso   1.000  H
  C1615    1.0000 0.68804  0.04389  0.03612  Biso   1.000  C
  C1616    1.0000 0.86541  0.97111  0.02421  Biso   1.000  C
  C1617    1.0000 0.86541  0.02889  0.97579  Biso   1.000  C
  C1618    1.0000 0.68804  0.95611  0.96388  Biso   1.000  C
  H2578    1.0000 0.73571  0.01819  0.94792  Biso   1.000  H
  H2579    1.0000 0.68851  0.07360  0.01269  Biso   1.000  H
  H2580    1.0000 0.68800  0.05689  0.07169  Biso   1.000  H
  C1619    1.0000 0.63829  0.01140  0.02655  Biso   1.000  C
  H2581    1.0000 0.88361  0.95112  0.99820  Biso   1.000  H
  H2582    1.0000 0.85101  0.94792  0.04990  Biso   1.000  H
  H2583    1.0000 0.88931  0.99481  0.04068  Biso   1.000  H
  H2584    1.0000 0.85101  0.05208  0.95010  Biso   1.000  H
  H2585    1.0000 0.88931  0.00519  0.95932  Biso   1.000  H
  H2586    1.0000 0.88361  0.04888  0.00180  Biso   1.000  H
  H2587    1.0000 0.68851  0.92640  0.98731  Biso   1.000  H
  H2588    1.0000 0.68800  0.94311  0.92831  Biso   1.000  H
  C1620    1.0000 0.63829  0.98860  0.97345  Biso   1.000  C
  H2589    1.0000 0.63619  0.98372  0.05220  Biso   1.000  H
  H2590    1.0000 0.60780  0.03362  0.03069  Biso   1.000  H
  H2591    1.0000 0.60780  0.96638  0.96931  Biso   1.000  H
  H2592    1.0000 0.63619  0.01628  0.94780  Biso   1.000  H
  C1621    1.0000 0.26386  0.98903  0.02725  Biso   1.000  C
  N217     1.0000 0.21564  0.96115  0.03346  Biso   1.000  N
  C1622    1.0000 0.26386  0.01097  0.97275  Biso   1.000  C
  H2593    1.0000 0.26429  0.01819  0.05208  Biso   1.000  H
  C1623    1.0000 0.31196  0.95611  0.03612  Biso   1.000  C
  C1624    1.0000 0.17589  0.00000  0.00000  Biso   1.000  C
  H2594    1.0000 0.19542  0.98001  0.01698  Biso   1.000  H
  C1625    1.0000 0.20061  0.95451  0.08832  Biso   1.000  C
  N218     1.0000 0.21564  0.03885  0.96654  Biso   1.000  N
  H2595    1.0000 0.26429  0.98181  0.94792  Biso   1.000  H
  C1626    1.0000 0.31196  0.04389  0.96388  Biso   1.000  C
  H2596    1.0000 0.31149  0.92640  0.01269  Biso   1.000  H
  H2597    1.0000 0.31200  0.94311  0.07169  Biso   1.000  H
  C1627    1.0000 0.36171  0.98860  0.02655  Biso   1.000  C
  C1628    1.0000 0.13459  0.02889  0.02421  Biso   1.000  C
  C1629    1.0000 0.13459  0.97111  0.97579  Biso   1.000  C
  H2598    1.0000 0.19542  0.01999  0.98302  Biso   1.000  H
  C1630    1.0000 0.15258  0.92129  0.09812  Biso   1.000  C
  H2599    1.0000 0.19471  0.98872  0.10331  Biso   1.000  H
  H2600    1.0000 0.22981  0.93890  0.10690  Biso   1.000  H
  C1631    1.0000 0.20061  0.04549  0.91168  Biso   1.000  C
  H2601    1.0000 0.31149  0.07360  0.98731  Biso   1.000  H
  H2602    1.0000 0.31200  0.05689  0.92831  Biso   1.000  H
  C1632    1.0000 0.36171  0.01140  0.97345  Biso   1.000  C
  H2603    1.0000 0.36381  0.01628  0.05220  Biso   1.000  H
  H2604    1.0000 0.39220  0.96638  0.03069  Biso   1.000  H
  H2605    1.0000 0.14899  0.05208  0.04990  Biso   1.000  H
  H2606    1.0000 0.11069  0.00519  0.04068  Biso   1.000  H
  H2607    1.0000 0.11639  0.04888  0.99820  Biso   1.000  H
  H2608    1.0000 0.14899  0.94792  0.95010  Biso   1.000  H
  H2609    1.0000 0.11069  0.99481  0.95932  Biso   1.000  H
  H2610    1.0000 0.11639  0.95112  0.00180  Biso   1.000  H
  C1633    1.0000 0.12158  0.93316  0.14025  Biso   1.000  C
  C1634    1.0000 0.14025  0.87842  0.06684  Biso   1.000  C
  C1635    1.0000 0.15258  0.07871  0.90188  Biso   1.000  C
  H2611    1.0000 0.19471  0.01128  0.89669  Biso   1.000  H
  H2612    1.0000 0.22981  0.06110  0.89310  Biso   1.000  H
  H2613    1.0000 0.36381  0.98372  0.94780  Biso   1.000  H
  H2614    1.0000 0.39220  0.03362  0.96931  Biso   1.000  H
  C1636    1.0000 0.07871  0.90188  0.15258  Biso   1.000  C
  H2615    1.0000 0.12920  0.96221  0.16071  Biso   1.000  H
  C1637    1.0000 0.09812  0.84742  0.07871  Biso   1.000  C
  H2616    1.0000 0.16071  0.87080  0.03779  Biso   1.000  H
  C1638    1.0000 0.14025  0.12158  0.93316  Biso   1.000  C
  C1639    1.0000 0.12158  0.06684  0.85975  Biso   1.000  C
  C1640    1.0000 0.06684  0.85975  0.12158  Biso   1.000  C
  C1641    1.0000 0.04549  0.91168  0.20061  Biso   1.000  C
  C1642    1.0000 0.08832  0.79939  0.04549  Biso   1.000  C
  C1643    1.0000 0.09812  0.15258  0.92129  Biso   1.000  C
  H2617    1.0000 0.16071  0.12920  0.96221  Biso   1.000  H
  C1644    1.0000 0.07871  0.09812  0.84742  Biso   1.000  C
  H2618    1.0000 0.12920  0.03779  0.83929  Biso   1.000  H
  H2619    1.0000 0.03779  0.83929  0.12920  Biso   1.000  H
  N219     1.0000 0.03885  0.96654  0.21564  Biso   1.000  N
  H2620    1.0000 0.01128  0.89669  0.19471  Biso   1.000  H
  H2621    1.0000 0.06110  0.89310  0.22981  Biso   1.000  H
  N220     1.0000 0.03346  0.78436  0.03885  Biso   1.000  N
  H2622    1.0000 0.10331  0.80529  0.01128  Biso   1.000  H
  H2623    1.0000 0.10690  0.77019  0.06110  Biso   1.000  H
  C1645    1.0000 0.08832  0.20061  0.95451  Biso   1.000  C
  C1646    1.0000 0.06684  0.14025  0.87842  Biso   1.000  C
  C1647    1.0000 0.04549  0.08832  0.79939  Biso   1.000  C
  C1648    1.0000 0.00000  0.00000  0.17589  Biso   1.000  C
  C1649    1.0000 0.01097  0.97275  0.26386  Biso   1.000  C
  H2624    1.0000 0.01999  0.98302  0.19542  Biso   1.000  H
  C1650    1.0000 0.02725  0.73614  0.01097  Biso   1.000  C
  C1651    1.0000 0.00000  0.82411  0.00000  Biso   1.000  C
  H2625    1.0000 0.01698  0.80458  0.01999  Biso   1.000  H
  N221     1.0000 0.03346  0.21564  0.96115  Biso   1.000  N
  H2626    1.0000 0.10331  0.19471  0.98872  Biso   1.000  H
  H2627    1.0000 0.10690  0.22981  0.93890  Biso   1.000  H
  H2628    1.0000 0.03779  0.16071  0.87080  Biso   1.000  H
  N222     1.0000 0.03885  0.03346  0.78436  Biso   1.000  N
  H2629    1.0000 0.01128  0.10331  0.80529  Biso   1.000  H
  H2630    1.0000 0.06110  0.10690  0.77019  Biso   1.000  H
  C1652    1.0000 0.02889  0.02421  0.13459  Biso   1.000  C
  C1653    1.0000 0.97111  0.97579  0.13459  Biso   1.000  C
  N223     1.0000 0.96115  0.03346  0.21564  Biso   1.000  N
  H2631    1.0000 0.98001  0.01698  0.19542  Biso   1.000  H
  H2632    1.0000 0.98181  0.94792  0.26429  Biso   1.000  H
  C1654    1.0000 0.98903  0.02725  0.26386  Biso   1.000  C
  C1655    1.0000 0.04389  0.96388  0.31196  Biso   1.000  C
  C1656    1.0000 0.97275  0.73614  0.98903  Biso   1.000  C
  H2633    1.0000 0.05208  0.73571  0.98181  Biso   1.000  H
  C1657    1.0000 0.03612  0.68804  0.04389  Biso   1.000  C
  N224     1.0000 0.96654  0.78436  0.96115  Biso   1.000  N
  H2634    1.0000 0.98302  0.80458  0.98001  Biso   1.000  H
  C1658    1.0000 0.97579  0.86541  0.02889  Biso   1.000  C
  C1659    1.0000 0.02421  0.86541  0.97111  Biso   1.000  C
  C1660    1.0000 0.00000  0.17589  0.00000  Biso   1.000  C
  C1661    1.0000 0.02725  0.26386  0.98903  Biso   1.000  C
  H2635    1.0000 0.01698  0.19542  0.98001  Biso   1.000  H
  C1662    1.0000 0.01097  0.02725  0.73614  Biso   1.000  C
  C1663    1.0000 0.00000  0.00000  0.82411  Biso   1.000  C
  H2636    1.0000 0.01999  0.01698  0.80458  Biso   1.000  H
  H2637    1.0000 0.05208  0.04990  0.14899  Biso   1.000  H
  H2638    1.0000 0.00519  0.04068  0.11069  Biso   1.000  H
  H2639    1.0000 0.04888  0.99820  0.11639  Biso   1.000  H
  H2640    1.0000 0.94792  0.95010  0.14899  Biso   1.000  H
  H2641    1.0000 0.99481  0.95932  0.11069  Biso   1.000  H
  H2642    1.0000 0.95112  0.00180  0.11639  Biso   1.000  H
  C1664    1.0000 0.95451  0.08832  0.20061  Biso   1.000  C
  H2643    1.0000 0.01819  0.05208  0.26429  Biso   1.000  H
  C1665    1.0000 0.95611  0.03612  0.31196  Biso   1.000  C
  H2644    1.0000 0.07360  0.98731  0.31149  Biso   1.000  H
  H2645    1.0000 0.05689  0.92831  0.31200  Biso   1.000  H
  C1666    1.0000 0.01140  0.97345  0.36171  Biso   1.000  C
  C1667    1.0000 0.96388  0.68804  0.95611  Biso   1.000  C
  H2646    1.0000 0.94792  0.73571  0.01819  Biso   1.000  H
  H2647    1.0000 0.01269  0.68851  0.07360  Biso   1.000  H
  H2648    1.0000 0.07169  0.68800  0.05689  Biso   1.000  H
  C1668    1.0000 0.02655  0.63829  0.01140  Biso   1.000  C
  C1669    1.0000 0.91168  0.79939  0.95451  Biso   1.000  C
  H2649    1.0000 0.95010  0.85101  0.05208  Biso   1.000  H
  H2650    1.0000 0.95932  0.88931  0.00519  Biso   1.000  H
  H2651    1.0000 0.00180  0.88361  0.04888  Biso   1.000  H
  H2652    1.0000 0.99820  0.88361  0.95112  Biso   1.000  H
  H2653    1.0000 0.04990  0.85101  0.94792  Biso   1.000  H
  H2654    1.0000 0.04068  0.88931  0.99481  Biso   1.000  H
  C1670    1.0000 0.02421  0.13459  0.02889  Biso   1.000  C
  C1671    1.0000 0.97579  0.13459  0.97111  Biso   1.000  C
  N225     1.0000 0.96654  0.21564  0.03885  Biso   1.000  N
  H2655    1.0000 0.98302  0.19542  0.01999  Biso   1.000  H
  H2656    1.0000 0.05208  0.26429  0.01819  Biso   1.000  H
  C1672    1.0000 0.97275  0.26386  0.01097  Biso   1.000  C
  C1673    1.0000 0.03612  0.31196  0.95611  Biso   1.000  C
  C1674    1.0000 0.98903  0.97275  0.73614  Biso   1.000  C
  H2657    1.0000 0.98181  0.05208  0.73571  Biso   1.000  H
  C1675    1.0000 0.04389  0.03612  0.68804  Biso   1.000  C
  N226     1.0000 0.96115  0.96654  0.78436  Biso   1.000  N
  H2658    1.0000 0.98001  0.98302  0.80458  Biso   1.000  H
  C1676    1.0000 0.97111  0.02421  0.86541  Biso   1.000  C
  C1677    1.0000 0.02889  0.97579  0.86541  Biso   1.000  C
  C1678    1.0000 0.92129  0.09812  0.15258  Biso   1.000  C
  H2659    1.0000 0.98872  0.10331  0.19471  Biso   1.000  H
  H2660    1.0000 0.93890  0.10690  0.22981  Biso   1.000  H
  H2661    1.0000 0.92640  0.01269  0.31149  Biso   1.000  H
  H2662    1.0000 0.94311  0.07169  0.31200  Biso   1.000  H
  C1679    1.0000 0.98860  0.02655  0.36171  Biso   1.000  C
  H2663    1.0000 0.98372  0.94780  0.36381  Biso   1.000  H
  H2664    1.0000 0.03362  0.96931  0.39220  Biso   1.000  H
  H2665    1.0000 0.98731  0.68851  0.92640  Biso   1.000  H
  H2666    1.0000 0.92831  0.68800  0.94311  Biso   1.000  H
  C1680    1.0000 0.97345  0.63829  0.98860  Biso   1.000  C
  H2667    1.0000 0.05220  0.63619  0.98372  Biso   1.000  H
  H2668    1.0000 0.03069  0.60780  0.03362  Biso   1.000  H
  C1681    1.0000 0.90188  0.84742  0.92129  Biso   1.000  C
  H2669    1.0000 0.89669  0.80529  0.98872  Biso   1.000  H
  H2670    1.0000 0.89310  0.77019  0.93890  Biso   1.000  H
  H2671    1.0000 0.04990  0.14899  0.05208  Biso   1.000  H
  H2672    1.0000 0.04068  0.11069  0.00519  Biso   1.000  H
  H2673    1.0000 0.99820  0.11639  0.04888  Biso   1.000  H
  H2674    1.0000 0.95010  0.14899  0.94792  Biso   1.000  H
  H2675    1.0000 0.95932  0.11069  0.99481  Biso   1.000  H
  H2676    1.0000 0.00180  0.11639  0.95112  Biso   1.000  H
  C1682    1.0000 0.91168  0.20061  0.04549  Biso   1.000  C
  H2677    1.0000 0.94792  0.26429  0.98181  Biso   1.000  H
  C1683    1.0000 0.96388  0.31196  0.04389  Biso   1.000  C
  H2678    1.0000 0.01269  0.31149  0.92640  Biso   1.000  H
  H2679    1.0000 0.07169  0.31200  0.94311  Biso   1.000  H
  C1684    1.0000 0.02655  0.36171  0.98860  Biso   1.000  C
  C1685    1.0000 0.95611  0.96388  0.68804  Biso   1.000  C
  H2680    1.0000 0.01819  0.94792  0.73571  Biso   1.000  H
  H2681    1.0000 0.07360  0.01269  0.68851  Biso   1.000  H
  H2682    1.0000 0.05689  0.07169  0.68800  Biso   1.000  H
  C1686    1.0000 0.01140  0.02655  0.63829  Biso   1.000  C
  C1687    1.0000 0.95451  0.91168  0.79939  Biso   1.000  C
  H2683    1.0000 0.95112  0.99820  0.88361  Biso   1.000  H
  H2684    1.0000 0.94792  0.04990  0.85101  Biso   1.000  H
  H2685    1.0000 0.99481  0.04068  0.88931  Biso   1.000  H
  H2686    1.0000 0.05208  0.95010  0.85101  Biso   1.000  H
  H2687    1.0000 0.00519  0.95932  0.88931  Biso   1.000  H
  H2688    1.0000 0.04888  0.00180  0.88361  Biso   1.000  H
  C1688    1.0000 0.93316  0.14025  0.12158  Biso   1.000  C
  C1689    1.0000 0.87842  0.06684  0.14025  Biso   1.000  C
  H2689    1.0000 0.01628  0.05220  0.36381  Biso   1.000  H
  H2690    1.0000 0.96638  0.03069  0.39220  Biso   1.000  H
  H2691    1.0000 0.96931  0.60780  0.96638  Biso   1.000  H
  H2692    1.0000 0.94780  0.63619  0.01628  Biso   1.000  H
  C1690    1.0000 0.93316  0.85975  0.87842  Biso   1.000  C
  C1691    1.0000 0.85975  0.87842  0.93316  Biso   1.000  C
  C1692    1.0000 0.90188  0.15258  0.07871  Biso   1.000  C
  H2693    1.0000 0.89669  0.19471  0.01128  Biso   1.000  H
  H2694    1.0000 0.89310  0.22981  0.06110  Biso   1.000  H
  H2695    1.0000 0.98731  0.31149  0.07360  Biso   1.000  H
  H2696    1.0000 0.92831  0.31200  0.05689  Biso   1.000  H
  C1693    1.0000 0.97345  0.36171  0.01140  Biso   1.000  C
  H2697    1.0000 0.05220  0.36381  0.01628  Biso   1.000  H
  H2698    1.0000 0.03069  0.39220  0.96638  Biso   1.000  H
  H2699    1.0000 0.92640  0.98731  0.68851  Biso   1.000  H
  H2700    1.0000 0.94311  0.92831  0.68800  Biso   1.000  H
  C1694    1.0000 0.98860  0.97345  0.63829  Biso   1.000  C
  H2701    1.0000 0.98372  0.05220  0.63619  Biso   1.000  H
  H2702    1.0000 0.03362  0.03069  0.60780  Biso   1.000  H
  C1695    1.0000 0.92129  0.90188  0.84742  Biso   1.000  C
  H2703    1.0000 0.98872  0.89669  0.80529  Biso   1.000  H
  H2704    1.0000 0.93890  0.89310  0.77019  Biso   1.000  H
  H2705    1.0000 0.96221  0.16071  0.12920  Biso   1.000  H
  C1696    1.0000 0.84742  0.07871  0.09812  Biso   1.000  C
  H2706    1.0000 0.87080  0.03779  0.16071  Biso   1.000  H
  H2707    1.0000 0.96221  0.83929  0.87080  Biso   1.000  H
  C1697    1.0000 0.84742  0.92129  0.90188  Biso   1.000  C
  H2708    1.0000 0.83929  0.87080  0.96221  Biso   1.000  H
  C1698    1.0000 0.85975  0.12158  0.06684  Biso   1.000  C
  H2709    1.0000 0.94780  0.36381  0.98372  Biso   1.000  H
  H2710    1.0000 0.96931  0.39220  0.03362  Biso   1.000  H
  H2711    1.0000 0.96638  0.96931  0.60780  Biso   1.000  H
  H2712    1.0000 0.01628  0.94780  0.63619  Biso   1.000  H
  C1699    1.0000 0.87842  0.93316  0.85975  Biso   1.000  C
  C1700    1.0000 0.79939  0.04549  0.08832  Biso   1.000  C
  C1701    1.0000 0.79939  0.95451  0.91168  Biso   1.000  C
  H2713    1.0000 0.83929  0.12920  0.03779  Biso   1.000  H
  H2714    1.0000 0.87080  0.96221  0.83929  Biso   1.000  H
  N227     1.0000 0.78436  0.03885  0.03346  Biso   1.000  N
  H2715    1.0000 0.80529  0.01128  0.10331  Biso   1.000  H
  H2716    1.0000 0.77019  0.06110  0.10690  Biso   1.000  H
  N228     1.0000 0.78436  0.96115  0.96654  Biso   1.000  N
  H2717    1.0000 0.80529  0.98872  0.89669  Biso   1.000  H
  H2718    1.0000 0.77019  0.93890  0.89310  Biso   1.000  H
  C1702    1.0000 0.73614  0.01097  0.02725  Biso   1.000  C
  C1703    1.0000 0.82411  0.00000  0.00000  Biso   1.000  C
  H2719    1.0000 0.80458  0.01999  0.01698  Biso   1.000  H
  C1704    1.0000 0.73614  0.98903  0.97275  Biso   1.000  C
  H2720    1.0000 0.80458  0.98001  0.98302  Biso   1.000  H
  H2721    1.0000 0.73571  0.98181  0.05208  Biso   1.000  H
  C1705    1.0000 0.68804  0.04389  0.03612  Biso   1.000  C
  C1706    1.0000 0.86541  0.97111  0.02421  Biso   1.000  C
  C1707    1.0000 0.86541  0.02889  0.97579  Biso   1.000  C
  C1708    1.0000 0.68804  0.95611  0.96388  Biso   1.000  C
  H2722    1.0000 0.73571  0.01819  0.94792  Biso   1.000  H
  H2723    1.0000 0.68851  0.07360  0.01269  Biso   1.000  H
  H2724    1.0000 0.68800  0.05689  0.07169  Biso   1.000  H
  C1709    1.0000 0.63829  0.01140  0.02655  Biso   1.000  C
  H2725    1.0000 0.88361  0.95112  0.99820  Biso   1.000  H
  H2726    1.0000 0.85101  0.94792  0.04990  Biso   1.000  H
  H2727    1.0000 0.88931  0.99481  0.04068  Biso   1.000  H
  H2728    1.0000 0.85101  0.05208  0.95010  Biso   1.000  H
  H2729    1.0000 0.88931  0.00519  0.95932  Biso   1.000  H
  H2730    1.0000 0.88361  0.04888  0.00180  Biso   1.000  H
  H2731    1.0000 0.68851  0.92640  0.98731  Biso   1.000  H
  H2732    1.0000 0.68800  0.94311  0.92831  Biso   1.000  H
  C1710    1.0000 0.63829  0.98860  0.97345  Biso   1.000  C
  H2733    1.0000 0.63619  0.98372  0.05220  Biso   1.000  H
  H2734    1.0000 0.60780  0.03362  0.03069  Biso   1.000  H
  H2735    1.0000 0.60780  0.96638  0.96931  Biso   1.000  H
  H2736    1.0000 0.63619  0.01628  0.94780  Biso   1.000  H
  C1711    1.0000 0.70611  0.43804  0.28612  Biso   1.000  C
  H2737    1.0000 0.67640  0.43851  0.26269  Biso   1.000  H
  H2738    1.0000 0.69311  0.43800  0.32169  Biso   1.000  H
  C1712    1.0000 0.73903  0.48614  0.27725  Biso   1.000  C
  C1713    1.0000 0.73860  0.38829  0.27655  Biso   1.000  C
  C1714    1.0000 0.76097  0.48614  0.22275  Biso   1.000  C
  N229     1.0000 0.71115  0.53436  0.28346  Biso   1.000  N
  H2739    1.0000 0.76819  0.48571  0.30208  Biso   1.000  H
  C1715    1.0000 0.76140  0.38829  0.22345  Biso   1.000  C
  H2740    1.0000 0.76628  0.38619  0.30220  Biso   1.000  H
  H2741    1.0000 0.71638  0.35780  0.28069  Biso   1.000  H
  C1716    1.0000 0.79389  0.43804  0.21388  Biso   1.000  C
  N230     1.0000 0.78885  0.53436  0.21654  Biso   1.000  N
  H2742    1.0000 0.73181  0.48571  0.19792  Biso   1.000  H
  C1717    1.0000 0.75000  0.57411  0.25000  Biso   1.000  C
  C1718    1.0000 0.70451  0.54939  0.33832  Biso   1.000  C
  H2743    1.0000 0.73001  0.55458  0.26698  Biso   1.000  H
  H2744    1.0000 0.73372  0.38619  0.19780  Biso   1.000  H
  H2745    1.0000 0.78362  0.35780  0.21931  Biso   1.000  H
  H2746    1.0000 0.82360  0.43851  0.23731  Biso   1.000  H
  H2747    1.0000 0.80689  0.43800  0.17831  Biso   1.000  H
  C1719    1.0000 0.79549  0.54939  0.16168  Biso   1.000  C
  H2748    1.0000 0.76999  0.55458  0.23302  Biso   1.000  H
  C1720    1.0000 0.72111  0.61541  0.22579  Biso   1.000  C
  C1721    1.0000 0.77889  0.61541  0.27421  Biso   1.000  C
  C1722    1.0000 0.67129  0.59742  0.34812  Biso   1.000  C
  H2749    1.0000 0.73872  0.55529  0.35331  Biso   1.000  H
  H2750    1.0000 0.68890  0.52019  0.35690  Biso   1.000  H
  C1723    1.0000 0.82871  0.59742  0.15188  Biso   1.000  C
  H2751    1.0000 0.76128  0.55529  0.14669  Biso   1.000  H
  H2752    1.0000 0.81110  0.52019  0.14310  Biso   1.000  H
  H2753    1.0000 0.70112  0.63361  0.25180  Biso   1.000  H
  H2754    1.0000 0.69792  0.60101  0.20010  Biso   1.000  H
  H2755    1.0000 0.74481  0.63931  0.20932  Biso   1.000  H
  H2756    1.0000 0.79888  0.63361  0.24820  Biso   1.000  H
  H2757    1.0000 0.80208  0.60101  0.29990  Biso   1.000  H
  H2758    1.0000 0.75519  0.63931  0.29068  Biso   1.000  H
  C1724    1.0000 0.68316  0.62842  0.39025  Biso   1.000  C
  C1725    1.0000 0.62842  0.60975  0.31684  Biso   1.000  C
  C1726    1.0000 0.87158  0.60975  0.18316  Biso   1.000  C
  C1727    1.0000 0.81684  0.62842  0.10975  Biso   1.000  C
  H2759    1.0000 0.71221  0.62080  0.41071  Biso   1.000  H
  C1728    1.0000 0.65188  0.67129  0.40258  Biso   1.000  C
  C1729    1.0000 0.59742  0.65188  0.32871  Biso   1.000  C
  H2760    1.0000 0.62080  0.58929  0.28779  Biso   1.000  H
  C1730    1.0000 0.90258  0.65188  0.17129  Biso   1.000  C
  H2761    1.0000 0.87920  0.58929  0.21221  Biso   1.000  H
  C1731    1.0000 0.84812  0.67129  0.09742  Biso   1.000  C
  H2762    1.0000 0.78779  0.62080  0.08929  Biso   1.000  H
  C1732    1.0000 0.60975  0.68316  0.37158  Biso   1.000  C
  C1733    1.0000 0.66168  0.70451  0.45061  Biso   1.000  C
  C1734    1.0000 0.54939  0.66168  0.29549  Biso   1.000  C
  C1735    1.0000 0.89025  0.68316  0.12842  Biso   1.000  C
  C1736    1.0000 0.95061  0.66168  0.20451  Biso   1.000  C
  C1737    1.0000 0.83832  0.70451  0.04939  Biso   1.000  C
  H2763    1.0000 0.58929  0.71221  0.37920  Biso   1.000  H
  N231     1.0000 0.71654  0.71115  0.46564  Biso   1.000  N
  H2764    1.0000 0.64669  0.73872  0.44471  Biso   1.000  H
  H2765    1.0000 0.64310  0.68890  0.47981  Biso   1.000  H
  N232     1.0000 0.53436  0.71654  0.28885  Biso   1.000  N
  H2766    1.0000 0.55529  0.64669  0.26128  Biso   1.000  H
  H2767    1.0000 0.52019  0.64310  0.31110  Biso   1.000  H
  H2768    1.0000 0.91071  0.71221  0.12080  Biso   1.000  H
  N233     1.0000 0.96564  0.71654  0.21115  Biso   1.000  N
  H2769    1.0000 0.94471  0.64669  0.23872  Biso   1.000  H
  H2770    1.0000 0.97981  0.64310  0.18890  Biso   1.000  H
  N234     1.0000 0.78346  0.71115  0.03436  Biso   1.000  N
  H2771    1.0000 0.85331  0.73872  0.05529  Biso   1.000  H
  H2772    1.0000 0.85690  0.68890  0.02019  Biso   1.000  H
  C1738    1.0000 0.75000  0.75000  0.42589  Biso   1.000  C
  C1739    1.0000 0.72275  0.73903  0.51386  Biso   1.000  C
  H2773    1.0000 0.73302  0.73001  0.44542  Biso   1.000  H
  C1740    1.0000 0.57411  0.75000  0.25000  Biso   1.000  C
  C1741    1.0000 0.48614  0.72275  0.26097  Biso   1.000  C
  H2774    1.0000 0.55458  0.73302  0.26999  Biso   1.000  H
  C1742    1.0000 0.92589  0.75000  0.25000  Biso   1.000  C
  H2775    1.0000 0.94542  0.73302  0.23001  Biso   1.000  H
  C1743    1.0000 0.01386  0.72275  0.23903  Biso   1.000  C
  C1744    1.0000 0.75000  0.75000  0.07411  Biso   1.000  C
  H2776    1.0000 0.76698  0.73001  0.05458  Biso   1.000  H
  C1745    1.0000 0.77725  0.73903  0.98614  Biso   1.000  C
  N235     1.0000 0.78346  0.78885  0.46564  Biso   1.000  N
  C1746    1.0000 0.77421  0.72111  0.38459  Biso   1.000  C
  C1747    1.0000 0.72579  0.77889  0.38459  Biso   1.000  C
  H2777    1.0000 0.76698  0.76999  0.44542  Biso   1.000  H
  C1748    1.0000 0.77725  0.76097  0.51386  Biso   1.000  C
  C1749    1.0000 0.71388  0.70611  0.56196  Biso   1.000  C
  H2778    1.0000 0.69792  0.76819  0.51429  Biso   1.000  H
  N236     1.0000 0.53436  0.78346  0.21115  Biso   1.000  N
  C1750    1.0000 0.61541  0.77421  0.27889  Biso   1.000  C
  C1751    1.0000 0.61541  0.72579  0.22111  Biso   1.000  C
  H2779    1.0000 0.55458  0.76698  0.23001  Biso   1.000  H
  C1752    1.0000 0.48614  0.77725  0.23903  Biso   1.000  C
  C1753    1.0000 0.43804  0.71388  0.29389  Biso   1.000  C
  H2780    1.0000 0.48571  0.69792  0.23181  Biso   1.000  H
  C1754    1.0000 0.88459  0.72579  0.27889  Biso   1.000  C
  N237     1.0000 0.96564  0.78346  0.28885  Biso   1.000  N
  C1755    1.0000 0.88459  0.77421  0.22111  Biso   1.000  C
  H2781    1.0000 0.94542  0.76698  0.26999  Biso   1.000  H
  C1756    1.0000 0.06196  0.71388  0.20611  Biso   1.000  C
  H2782    1.0000 0.01429  0.69792  0.26819  Biso   1.000  H
  C1757    1.0000 0.01386  0.77725  0.26097  Biso   1.000  C
  C1758    1.0000 0.77421  0.77889  0.11541  Biso   1.000  C
  N238     1.0000 0.71654  0.78885  0.03436  Biso   1.000  N
  C1759    1.0000 0.72579  0.72111  0.11541  Biso   1.000  C
  H2783    1.0000 0.73302  0.76999  0.05458  Biso   1.000  H
  C1760    1.0000 0.78612  0.70611  0.93804  Biso   1.000  C
  H2784    1.0000 0.80208  0.76819  0.98571  Biso   1.000  H
  C1761    1.0000 0.72275  0.76097  0.98614  Biso   1.000  C
  C1762    1.0000 0.83832  0.79549  0.45061  Biso   1.000  C
  H2785    1.0000 0.74820  0.70112  0.36639  Biso   1.000  H
  H2786    1.0000 0.79990  0.69792  0.39899  Biso   1.000  H
  H2787    1.0000 0.79068  0.74481  0.36069  Biso   1.000  H
  H2788    1.0000 0.75180  0.79888  0.36639  Biso   1.000  H
  H2789    1.0000 0.70010  0.80208  0.39899  Biso   1.000  H
  H2790    1.0000 0.70932  0.75519  0.36069  Biso   1.000  H
  C1763    1.0000 0.78612  0.79389  0.56196  Biso   1.000  C
  H2791    1.0000 0.80208  0.73181  0.51429  Biso   1.000  H
  H2792    1.0000 0.73731  0.67640  0.56149  Biso   1.000  H
  H2793    1.0000 0.67831  0.69311  0.56200  Biso   1.000  H
  C1764    1.0000 0.72345  0.73860  0.61171  Biso   1.000  C
  C1765    1.0000 0.54939  0.83832  0.20451  Biso   1.000  C
  H2794    1.0000 0.63361  0.74820  0.29888  Biso   1.000  H
  H2795    1.0000 0.60101  0.79990  0.30208  Biso   1.000  H
  H2796    1.0000 0.63931  0.79068  0.25519  Biso   1.000  H
  H2797    1.0000 0.63361  0.75180  0.20112  Biso   1.000  H
  H2798    1.0000 0.60101  0.70010  0.19792  Biso   1.000  H
  H2799    1.0000 0.63931  0.70932  0.24481  Biso   1.000  H
  C1766    1.0000 0.43804  0.78612  0.20611  Biso   1.000  C
  H2800    1.0000 0.48571  0.80208  0.26819  Biso   1.000  H
  H2801    1.0000 0.43851  0.73731  0.32360  Biso   1.000  H
  H2802    1.0000 0.43800  0.67831  0.30689  Biso   1.000  H
  C1767    1.0000 0.38829  0.72345  0.26140  Biso   1.000  C
  H2803    1.0000 0.86639  0.75180  0.29888  Biso   1.000  H
  H2804    1.0000 0.89899  0.70010  0.30208  Biso   1.000  H
  H2805    1.0000 0.86069  0.70932  0.25519  Biso   1.000  H
  C1768    1.0000 0.95061  0.83832  0.29549  Biso   1.000  C
  H2806    1.0000 0.86639  0.74820  0.20112  Biso   1.000  H
  H2807    1.0000 0.89899  0.79990  0.19792  Biso   1.000  H
  H2808    1.0000 0.86069  0.79068  0.24481  Biso   1.000  H
  H2809    1.0000 0.06149  0.73731  0.17640  Biso   1.000  H
  H2810    1.0000 0.06200  0.67831  0.19311  Biso   1.000  H
  C1769    1.0000 0.11171  0.72345  0.23860  Biso   1.000  C
  C1770    1.0000 0.06196  0.78612  0.29389  Biso   1.000  C
  H2811    1.0000 0.01429  0.80208  0.23181  Biso   1.000  H
  H2812    1.0000 0.74820  0.79888  0.13361  Biso   1.000  H
  H2813    1.0000 0.79990  0.80208  0.10101  Biso   1.000  H
  H2814    1.0000 0.79068  0.75519  0.13931  Biso   1.000  H
  C1771    1.0000 0.66168  0.79549  0.04939  Biso   1.000  C
  H2815    1.0000 0.75180  0.70112  0.13361  Biso   1.000  H
  H2816    1.0000 0.70010  0.69792  0.10101  Biso   1.000  H
  H2817    1.0000 0.70932  0.74481  0.13931  Biso   1.000  H
  H2818    1.0000 0.76269  0.67640  0.93851  Biso   1.000  H
  H2819    1.0000 0.82169  0.69311  0.93800  Biso   1.000  H
  C1772    1.0000 0.77655  0.73860  0.88829  Biso   1.000  C
  C1773    1.0000 0.71388  0.79389  0.93804  Biso   1.000  C
  H2820    1.0000 0.69792  0.73181  0.98571  Biso   1.000  H
  C1774    1.0000 0.84812  0.82871  0.40258  Biso   1.000  C
  H2821    1.0000 0.85331  0.76128  0.44471  Biso   1.000  H
  H2822    1.0000 0.85690  0.81110  0.47981  Biso   1.000  H
  H2823    1.0000 0.76269  0.82360  0.56149  Biso   1.000  H
  H2824    1.0000 0.82169  0.80689  0.56200  Biso   1.000  H
  C1775    1.0000 0.77655  0.76140  0.61171  Biso   1.000  C
  H2825    1.0000 0.69780  0.76628  0.61381  Biso   1.000  H
  H2826    1.0000 0.71931  0.71638  0.64220  Biso   1.000  H
  C1776    1.0000 0.59742  0.84812  0.17129  Biso   1.000  C
  H2827    1.0000 0.55529  0.85331  0.23872  Biso   1.000  H
  H2828    1.0000 0.52019  0.85690  0.18890  Biso   1.000  H
  H2829    1.0000 0.43851  0.76269  0.17640  Biso   1.000  H
  H2830    1.0000 0.43800  0.82169  0.19311  Biso   1.000  H
  C1777    1.0000 0.38829  0.77655  0.23860  Biso   1.000  C
  H2831    1.0000 0.38619  0.69780  0.23372  Biso   1.000  H
  H2832    1.0000 0.35780  0.71931  0.28362  Biso   1.000  H
  C1778    1.0000 0.90258  0.84812  0.32871  Biso   1.000  C
  H2833    1.0000 0.94471  0.85331  0.26128  Biso   1.000  H
  H2834    1.0000 0.97981  0.85690  0.31110  Biso   1.000  H
  H2835    1.0000 0.11381  0.69780  0.26628  Biso   1.000  H
  H2836    1.0000 0.14220  0.71931  0.21638  Biso   1.000  H
  C1779    1.0000 0.11171  0.77655  0.26140  Biso   1.000  C
  H2837    1.0000 0.06149  0.76269  0.32360  Biso   1.000  H
  H2838    1.0000 0.06200  0.82169  0.30689  Biso   1.000  H
  C1780    1.0000 0.65188  0.82871  0.09742  Biso   1.000  C
  H2839    1.0000 0.64669  0.76128  0.05529  Biso   1.000  H
  H2840    1.0000 0.64310  0.81110  0.02019  Biso   1.000  H
  H2841    1.0000 0.80220  0.76628  0.88619  Biso   1.000  H
  H2842    1.0000 0.78069  0.71638  0.85780  Biso   1.000  H
  C1781    1.0000 0.72345  0.76140  0.88829  Biso   1.000  C
  H2843    1.0000 0.73731  0.82360  0.93851  Biso   1.000  H
  H2844    1.0000 0.67831  0.80689  0.93800  Biso   1.000  H
  C1782    1.0000 0.89025  0.81684  0.37158  Biso   1.000  C
  C1783    1.0000 0.81684  0.87158  0.39025  Biso   1.000  C
  H2845    1.0000 0.80220  0.73372  0.61381  Biso   1.000  H
  H2846    1.0000 0.78069  0.78362  0.64220  Biso   1.000  H
  C1784    1.0000 0.60975  0.81684  0.12842  Biso   1.000  C
  C1785    1.0000 0.62842  0.89025  0.18316  Biso   1.000  C
  H2847    1.0000 0.38619  0.80220  0.26628  Biso   1.000  H
  H2848    1.0000 0.35780  0.78069  0.21638  Biso   1.000  H
  C1786    1.0000 0.87158  0.89025  0.31684  Biso   1.000  C
  H2849    1.0000 0.11381  0.80220  0.23372  Biso   1.000  H
  H2850    1.0000 0.14220  0.78069  0.28362  Biso   1.000  H
  C1787    1.0000 0.68316  0.87158  0.10975  Biso   1.000  C
  H2851    1.0000 0.69780  0.73372  0.88619  Biso   1.000  H
  H2852    1.0000 0.71931  0.78362  0.85780  Biso   1.000  H
  H2853    1.0000 0.91071  0.78779  0.37920  Biso   1.000  H
  C1788    1.0000 0.82871  0.90258  0.34812  Biso   1.000  C
  H2854    1.0000 0.78779  0.87920  0.41071  Biso   1.000  H
  H2855    1.0000 0.58929  0.78779  0.12080  Biso   1.000  H
  C1789    1.0000 0.67129  0.90258  0.15188  Biso   1.000  C
  H2856    1.0000 0.62080  0.91071  0.21221  Biso   1.000  H
  H2857    1.0000 0.87920  0.91071  0.28779  Biso   1.000  H
  H2858    1.0000 0.71221  0.87920  0.08929  Biso   1.000  H
  C1790    1.0000 0.79549  0.95061  0.33832  Biso   1.000  C
  C1791    1.0000 0.70451  0.95061  0.16168  Biso   1.000  C
  N239     1.0000 0.78885  0.96564  0.28346  Biso   1.000  N
  H2859    1.0000 0.76128  0.94471  0.35331  Biso   1.000  H
  H2860    1.0000 0.81110  0.97981  0.35690  Biso   1.000  H
  N240     1.0000 0.71115  0.96564  0.21654  Biso   1.000  N
  H2861    1.0000 0.73872  0.94471  0.14669  Biso   1.000  H
  H2862    1.0000 0.68890  0.97981  0.14310  Biso   1.000  H
  C1792    1.0000 0.75000  0.92589  0.25000  Biso   1.000  C
  H2863    1.0000 0.76999  0.94542  0.26698  Biso   1.000  H
  C1793    1.0000 0.76097  0.01386  0.27725  Biso   1.000  C
  H2864    1.0000 0.73001  0.94542  0.23302  Biso   1.000  H
  C1794    1.0000 0.73903  0.01386  0.22275  Biso   1.000  C
  C1795    1.0000 0.77889  0.88459  0.22579  Biso   1.000  C
  C1796    1.0000 0.72111  0.88459  0.27421  Biso   1.000  C
  C1797    1.0000 0.79389  0.06196  0.28612  Biso   1.000  C
  H2865    1.0000 0.73181  0.01429  0.30208  Biso   1.000  H
  C1798    1.0000 0.70611  0.06196  0.21388  Biso   1.000  C
  H2866    1.0000 0.76819  0.01429  0.19792  Biso   1.000  H
  H2867    1.0000 0.79888  0.86639  0.25180  Biso   1.000  H
  H2868    1.0000 0.80208  0.89899  0.20010  Biso   1.000  H
  H2869    1.0000 0.75519  0.86069  0.20932  Biso   1.000  H
  H2870    1.0000 0.70112  0.86639  0.24820  Biso   1.000  H
  H2871    1.0000 0.69792  0.89899  0.29990  Biso   1.000  H
  H2872    1.0000 0.74481  0.86069  0.29068  Biso   1.000  H
  H2873    1.0000 0.82360  0.06149  0.26269  Biso   1.000  H
  H2874    1.0000 0.80689  0.06200  0.32169  Biso   1.000  H
  C1799    1.0000 0.76140  0.11171  0.27655  Biso   1.000  C
  H2875    1.0000 0.67640  0.06149  0.23731  Biso   1.000  H
  H2876    1.0000 0.69311  0.06200  0.17831  Biso   1.000  H
  C1800    1.0000 0.73860  0.11171  0.22345  Biso   1.000  C
  H2877    1.0000 0.73372  0.11381  0.30220  Biso   1.000  H
  H2878    1.0000 0.78362  0.14220  0.28069  Biso   1.000  H
  H2879    1.0000 0.76628  0.11381  0.19780  Biso   1.000  H
  H2880    1.0000 0.71638  0.14220  0.21931  Biso   1.000  H
  C1801    1.0000 0.70611  0.43804  0.28612  Biso   1.000  C
  C1802    1.0000 0.73903  0.48614  0.27725  Biso   1.000  C
  H2881    1.0000 0.67640  0.43851  0.26269  Biso   1.000  H
  H2882    1.0000 0.69311  0.43800  0.32169  Biso   1.000  H
  C1803    1.0000 0.73860  0.38829  0.27655  Biso   1.000  C
  N241     1.0000 0.71115  0.53436  0.28346  Biso   1.000  N
  H2883    1.0000 0.76819  0.48571  0.30208  Biso   1.000  H
  C1804    1.0000 0.76097  0.48614  0.22275  Biso   1.000  C
  C1805    1.0000 0.76140  0.38829  0.22345  Biso   1.000  C
  H2884    1.0000 0.76628  0.38619  0.30220  Biso   1.000  H
  H2885    1.0000 0.71638  0.35780  0.28069  Biso   1.000  H
  C1806    1.0000 0.75000  0.57411  0.25000  Biso   1.000  C
  C1807    1.0000 0.70451  0.54939  0.33832  Biso   1.000  C
  H2886    1.0000 0.73001  0.55458  0.26698  Biso   1.000  H
  N242     1.0000 0.78885  0.53436  0.21654  Biso   1.000  N
  H2887    1.0000 0.73181  0.48571  0.19792  Biso   1.000  H
  C1808    1.0000 0.79389  0.43804  0.21388  Biso   1.000  C
  H2888    1.0000 0.73372  0.38619  0.19780  Biso   1.000  H
  H2889    1.0000 0.78362  0.35780  0.21931  Biso   1.000  H
  C1809    1.0000 0.72111  0.61541  0.22579  Biso   1.000  C
  C1810    1.0000 0.77889  0.61541  0.27421  Biso   1.000  C
  H2890    1.0000 0.76999  0.55458  0.23302  Biso   1.000  H
  H2891    1.0000 0.73872  0.55529  0.35331  Biso   1.000  H
  H2892    1.0000 0.68890  0.52019  0.35690  Biso   1.000  H
  C1811    1.0000 0.67129  0.59742  0.34812  Biso   1.000  C
  C1812    1.0000 0.79549  0.54939  0.16168  Biso   1.000  C
  H2893    1.0000 0.82360  0.43851  0.23731  Biso   1.000  H
  H2894    1.0000 0.80689  0.43800  0.17831  Biso   1.000  H
  H2895    1.0000 0.70112  0.63361  0.25180  Biso   1.000  H
  H2896    1.0000 0.69792  0.60101  0.20010  Biso   1.000  H
  H2897    1.0000 0.74481  0.63931  0.20932  Biso   1.000  H
  H2898    1.0000 0.79888  0.63361  0.24820  Biso   1.000  H
  H2899    1.0000 0.80208  0.60101  0.29990  Biso   1.000  H
  H2900    1.0000 0.75519  0.63931  0.29068  Biso   1.000  H
  C1813    1.0000 0.68316  0.62842  0.39025  Biso   1.000  C
  C1814    1.0000 0.62842  0.60975  0.31684  Biso   1.000  C
  H2901    1.0000 0.76128  0.55529  0.14669  Biso   1.000  H
  H2902    1.0000 0.81110  0.52019  0.14310  Biso   1.000  H
  C1815    1.0000 0.82871  0.59742  0.15188  Biso   1.000  C
  H2903    1.0000 0.71221  0.62080  0.41071  Biso   1.000  H
  C1816    1.0000 0.65188  0.67129  0.40258  Biso   1.000  C
  C1817    1.0000 0.59742  0.65188  0.32871  Biso   1.000  C
  H2904    1.0000 0.62080  0.58929  0.28779  Biso   1.000  H
  C1818    1.0000 0.87158  0.60975  0.18316  Biso   1.000  C
  C1819    1.0000 0.81684  0.62842  0.10975  Biso   1.000  C
  C1820    1.0000 0.60975  0.68316  0.37158  Biso   1.000  C
  C1821    1.0000 0.66168  0.70451  0.45061  Biso   1.000  C
  C1822    1.0000 0.54939  0.66168  0.29549  Biso   1.000  C
  C1823    1.0000 0.90258  0.65188  0.17129  Biso   1.000  C
  H2905    1.0000 0.87920  0.58929  0.21221  Biso   1.000  H
  C1824    1.0000 0.84812  0.67129  0.09742  Biso   1.000  C
  H2906    1.0000 0.78779  0.62080  0.08929  Biso   1.000  H
  H2907    1.0000 0.58929  0.71221  0.37920  Biso   1.000  H
  N243     1.0000 0.71654  0.71115  0.46564  Biso   1.000  N
  H2908    1.0000 0.64669  0.73872  0.44471  Biso   1.000  H
  H2909    1.0000 0.64310  0.68890  0.47981  Biso   1.000  H
  N244     1.0000 0.53436  0.71654  0.28885  Biso   1.000  N
  H2910    1.0000 0.55529  0.64669  0.26128  Biso   1.000  H
  H2911    1.0000 0.52019  0.64310  0.31110  Biso   1.000  H
  C1825    1.0000 0.89025  0.68316  0.12842  Biso   1.000  C
  C1826    1.0000 0.95061  0.66168  0.20451  Biso   1.000  C
  C1827    1.0000 0.83832  0.70451  0.04939  Biso   1.000  C
  C1828    1.0000 0.75000  0.75000  0.42589  Biso   1.000  C
  C1829    1.0000 0.72275  0.73903  0.51386  Biso   1.000  C
  H2912    1.0000 0.73302  0.73001  0.44542  Biso   1.000  H
  C1830    1.0000 0.57411  0.75000  0.25000  Biso   1.000  C
  C1831    1.0000 0.48614  0.72275  0.26097  Biso   1.000  C
  H2913    1.0000 0.55458  0.73302  0.26999  Biso   1.000  H
  H2914    1.0000 0.91071  0.71221  0.12080  Biso   1.000  H
  N245     1.0000 0.96564  0.71654  0.21115  Biso   1.000  N
  H2915    1.0000 0.94471  0.64669  0.23872  Biso   1.000  H
  H2916    1.0000 0.97981  0.64310  0.18890  Biso   1.000  H
  N246     1.0000 0.78346  0.71115  0.03436  Biso   1.000  N
  H2917    1.0000 0.85331  0.73872  0.05529  Biso   1.000  H
  H2918    1.0000 0.85690  0.68890  0.02019  Biso   1.000  H
  N247     1.0000 0.78346  0.78885  0.46564  Biso   1.000  N
  C1832    1.0000 0.77421  0.72111  0.38459  Biso   1.000  C
  C1833    1.0000 0.72579  0.77889  0.38459  Biso   1.000  C
  H2919    1.0000 0.76698  0.76999  0.44542  Biso   1.000  H
  H2920    1.0000 0.69792  0.76819  0.51429  Biso   1.000  H
  C1834    1.0000 0.77725  0.76097  0.51386  Biso   1.000  C
  C1835    1.0000 0.71388  0.70611  0.56196  Biso   1.000  C
  N248     1.0000 0.53436  0.78346  0.21115  Biso   1.000  N
  C1836    1.0000 0.61541  0.77421  0.27889  Biso   1.000  C
  C1837    1.0000 0.61541  0.72579  0.22111  Biso   1.000  C
  H2921    1.0000 0.55458  0.76698  0.23001  Biso   1.000  H
  H2922    1.0000 0.48571  0.69792  0.23181  Biso   1.000  H
  C1838    1.0000 0.48614  0.77725  0.23903  Biso   1.000  C
  C1839    1.0000 0.43804  0.71388  0.29389  Biso   1.000  C
  C1840    1.0000 0.92589  0.75000  0.25000  Biso   1.000  C
  H2923    1.0000 0.94542  0.73302  0.23001  Biso   1.000  H
  C1841    1.0000 0.01386  0.72275  0.23903  Biso   1.000  C
  C1842    1.0000 0.77725  0.73903  0.98614  Biso   1.000  C
  C1843    1.0000 0.75000  0.75000  0.07411  Biso   1.000  C
  H2924    1.0000 0.76698  0.73001  0.05458  Biso   1.000  H
  C1844    1.0000 0.83832  0.79549  0.45061  Biso   1.000  C
  H2925    1.0000 0.74820  0.70112  0.36639  Biso   1.000  H
  H2926    1.0000 0.79990  0.69792  0.39899  Biso   1.000  H
  H2927    1.0000 0.79068  0.74481  0.36069  Biso   1.000  H
  H2928    1.0000 0.75180  0.79888  0.36639  Biso   1.000  H
  H2929    1.0000 0.70010  0.80208  0.39899  Biso   1.000  H
  H2930    1.0000 0.70932  0.75519  0.36069  Biso   1.000  H
  H2931    1.0000 0.80208  0.73181  0.51429  Biso   1.000  H
  C1845    1.0000 0.78612  0.79389  0.56196  Biso   1.000  C
  H2932    1.0000 0.73731  0.67640  0.56149  Biso   1.000  H
  H2933    1.0000 0.67831  0.69311  0.56200  Biso   1.000  H
  C1846    1.0000 0.72345  0.73860  0.61171  Biso   1.000  C
  C1847    1.0000 0.54939  0.83832  0.20451  Biso   1.000  C
  H2934    1.0000 0.63361  0.74820  0.29888  Biso   1.000  H
  H2935    1.0000 0.60101  0.79990  0.30208  Biso   1.000  H
  H2936    1.0000 0.63931  0.79068  0.25519  Biso   1.000  H
  H2937    1.0000 0.63361  0.75180  0.20112  Biso   1.000  H
  H2938    1.0000 0.60101  0.70010  0.19792  Biso   1.000  H
  H2939    1.0000 0.63931  0.70932  0.24481  Biso   1.000  H
  H2940    1.0000 0.48571  0.80208  0.26819  Biso   1.000  H
  C1848    1.0000 0.43804  0.78612  0.20611  Biso   1.000  C
  H2941    1.0000 0.43851  0.73731  0.32360  Biso   1.000  H
  H2942    1.0000 0.43800  0.67831  0.30689  Biso   1.000  H
  C1849    1.0000 0.38829  0.72345  0.26140  Biso   1.000  C
  N249     1.0000 0.96564  0.78346  0.28885  Biso   1.000  N
  C1850    1.0000 0.88459  0.72579  0.27889  Biso   1.000  C
  C1851    1.0000 0.88459  0.77421  0.22111  Biso   1.000  C
  H2943    1.0000 0.94542  0.76698  0.26999  Biso   1.000  H
  C1852    1.0000 0.06196  0.71388  0.20611  Biso   1.000  C
  H2944    1.0000 0.01429  0.69792  0.26819  Biso   1.000  H
  C1853    1.0000 0.01386  0.77725  0.26097  Biso   1.000  C
  C1854    1.0000 0.78612  0.70611  0.93804  Biso   1.000  C
  H2945    1.0000 0.80208  0.76819  0.98571  Biso   1.000  H
  C1855    1.0000 0.72275  0.76097  0.98614  Biso   1.000  C
  N250     1.0000 0.71654  0.78885  0.03436  Biso   1.000  N
  C1856    1.0000 0.77421  0.77889  0.11541  Biso   1.000  C
  C1857    1.0000 0.72579  0.72111  0.11541  Biso   1.000  C
  H2946    1.0000 0.73302  0.76999  0.05458  Biso   1.000  H
  H2947    1.0000 0.85331  0.76128  0.44471  Biso   1.000  H
  H2948    1.0000 0.85690  0.81110  0.47981  Biso   1.000  H
  C1858    1.0000 0.84812  0.82871  0.40258  Biso   1.000  C
  H2949    1.0000 0.76269  0.82360  0.56149  Biso   1.000  H
  H2950    1.0000 0.82169  0.80689  0.56200  Biso   1.000  H
  C1859    1.0000 0.77655  0.76140  0.61171  Biso   1.000  C
  H2951    1.0000 0.69780  0.76628  0.61381  Biso   1.000  H
  H2952    1.0000 0.71931  0.71638  0.64220  Biso   1.000  H
  H2953    1.0000 0.55529  0.85331  0.23872  Biso   1.000  H
  H2954    1.0000 0.52019  0.85690  0.18890  Biso   1.000  H
  C1860    1.0000 0.59742  0.84812  0.17129  Biso   1.000  C
  H2955    1.0000 0.43851  0.76269  0.17640  Biso   1.000  H
  H2956    1.0000 0.43800  0.82169  0.19311  Biso   1.000  H
  C1861    1.0000 0.38829  0.77655  0.23860  Biso   1.000  C
  H2957    1.0000 0.38619  0.69780  0.23372  Biso   1.000  H
  H2958    1.0000 0.35780  0.71931  0.28362  Biso   1.000  H
  C1862    1.0000 0.95061  0.83832  0.29549  Biso   1.000  C
  H2959    1.0000 0.86639  0.75180  0.29888  Biso   1.000  H
  H2960    1.0000 0.89899  0.70010  0.30208  Biso   1.000  H
  H2961    1.0000 0.86069  0.70932  0.25519  Biso   1.000  H
  H2962    1.0000 0.86639  0.74820  0.20112  Biso   1.000  H
  H2963    1.0000 0.89899  0.79990  0.19792  Biso   1.000  H
  H2964    1.0000 0.86069  0.79068  0.24481  Biso   1.000  H
  H2965    1.0000 0.06149  0.73731  0.17640  Biso   1.000  H
  H2966    1.0000 0.06200  0.67831  0.19311  Biso   1.000  H
  C1863    1.0000 0.11171  0.72345  0.23860  Biso   1.000  C
  C1864    1.0000 0.06196  0.78612  0.29389  Biso   1.000  C
  H2967    1.0000 0.01429  0.80208  0.23181  Biso   1.000  H
  H2968    1.0000 0.76269  0.67640  0.93851  Biso   1.000  H
  H2969    1.0000 0.82169  0.69311  0.93800  Biso   1.000  H
  C1865    1.0000 0.77655  0.73860  0.88829  Biso   1.000  C
  C1866    1.0000 0.71388  0.79389  0.93804  Biso   1.000  C
  H2970    1.0000 0.69792  0.73181  0.98571  Biso   1.000  H
  C1867    1.0000 0.66168  0.79549  0.04939  Biso   1.000  C
  H2971    1.0000 0.74820  0.79888  0.13361  Biso   1.000  H
  H2972    1.0000 0.79990  0.80208  0.10101  Biso   1.000  H
  H2973    1.0000 0.79068  0.75519  0.13931  Biso   1.000  H
  H2974    1.0000 0.75180  0.70112  0.13361  Biso   1.000  H
  H2975    1.0000 0.70010  0.69792  0.10101  Biso   1.000  H
  H2976    1.0000 0.70932  0.74481  0.13931  Biso   1.000  H
  C1868    1.0000 0.89025  0.81684  0.37158  Biso   1.000  C
  C1869    1.0000 0.81684  0.87158  0.39025  Biso   1.000  C
  H2977    1.0000 0.80220  0.73372  0.61381  Biso   1.000  H
  H2978    1.0000 0.78069  0.78362  0.64220  Biso   1.000  H
  C1870    1.0000 0.60975  0.81684  0.12842  Biso   1.000  C
  C1871    1.0000 0.62842  0.89025  0.18316  Biso   1.000  C
  H2979    1.0000 0.38619  0.80220  0.26628  Biso   1.000  H
  H2980    1.0000 0.35780  0.78069  0.21638  Biso   1.000  H
  H2981    1.0000 0.94471  0.85331  0.26128  Biso   1.000  H
  H2982    1.0000 0.97981  0.85690  0.31110  Biso   1.000  H
  C1872    1.0000 0.90258  0.84812  0.32871  Biso   1.000  C
  H2983    1.0000 0.11381  0.69780  0.26628  Biso   1.000  H
  H2984    1.0000 0.14220  0.71931  0.21638  Biso   1.000  H
  C1873    1.0000 0.11171  0.77655  0.26140  Biso   1.000  C
  H2985    1.0000 0.06149  0.76269  0.32360  Biso   1.000  H
  H2986    1.0000 0.06200  0.82169  0.30689  Biso   1.000  H
  H2987    1.0000 0.80220  0.76628  0.88619  Biso   1.000  H
  H2988    1.0000 0.78069  0.71638  0.85780  Biso   1.000  H
  C1874    1.0000 0.72345  0.76140  0.88829  Biso   1.000  C
  H2989    1.0000 0.73731  0.82360  0.93851  Biso   1.000  H
  H2990    1.0000 0.67831  0.80689  0.93800  Biso   1.000  H
  H2991    1.0000 0.64669  0.76128  0.05529  Biso   1.000  H
  H2992    1.0000 0.64310  0.81110  0.02019  Biso   1.000  H
  C1875    1.0000 0.65188  0.82871  0.09742  Biso   1.000  C
  H2993    1.0000 0.91071  0.78779  0.37920  Biso   1.000  H
  C1876    1.0000 0.82871  0.90258  0.34812  Biso   1.000  C
  H2994    1.0000 0.78779  0.87920  0.41071  Biso   1.000  H
  H2995    1.0000 0.58929  0.78779  0.12080  Biso   1.000  H
  C1877    1.0000 0.67129  0.90258  0.15188  Biso   1.000  C
  H2996    1.0000 0.62080  0.91071  0.21221  Biso   1.000  H
  C1878    1.0000 0.87158  0.89025  0.31684  Biso   1.000  C
  H2997    1.0000 0.11381  0.80220  0.23372  Biso   1.000  H
  H2998    1.0000 0.14220  0.78069  0.28362  Biso   1.000  H
  H2999    1.0000 0.69780  0.73372  0.88619  Biso   1.000  H
  H3000    1.0000 0.71931  0.78362  0.85780  Biso   1.000  H
  C1879    1.0000 0.68316  0.87158  0.10975  Biso   1.000  C
  C1880    1.0000 0.79549  0.95061  0.33832  Biso   1.000  C
  C1881    1.0000 0.70451  0.95061  0.16168  Biso   1.000  C
  H3001    1.0000 0.87920  0.91071  0.28779  Biso   1.000  H
  H3002    1.0000 0.71221  0.87920  0.08929  Biso   1.000  H
  N251     1.0000 0.78885  0.96564  0.28346  Biso   1.000  N
  H3003    1.0000 0.76128  0.94471  0.35331  Biso   1.000  H
  H3004    1.0000 0.81110  0.97981  0.35690  Biso   1.000  H
  N252     1.0000 0.71115  0.96564  0.21654  Biso   1.000  N
  H3005    1.0000 0.73872  0.94471  0.14669  Biso   1.000  H
  H3006    1.0000 0.68890  0.97981  0.14310  Biso   1.000  H
  C1882    1.0000 0.75000  0.92589  0.25000  Biso   1.000  C
  H3007    1.0000 0.76999  0.94542  0.26698  Biso   1.000  H
  C1883    1.0000 0.76097  0.01386  0.27725  Biso   1.000  C
  H3008    1.0000 0.73001  0.94542  0.23302  Biso   1.000  H
  C1884    1.0000 0.73903  0.01386  0.22275  Biso   1.000  C
  C1885    1.0000 0.77889  0.88459  0.22579  Biso   1.000  C
  C1886    1.0000 0.72111  0.88459  0.27421  Biso   1.000  C
  C1887    1.0000 0.79389  0.06196  0.28612  Biso   1.000  C
  H3009    1.0000 0.73181  0.01429  0.30208  Biso   1.000  H
  C1888    1.0000 0.70611  0.06196  0.21388  Biso   1.000  C
  H3010    1.0000 0.76819  0.01429  0.19792  Biso   1.000  H
  H3011    1.0000 0.79888  0.86639  0.25180  Biso   1.000  H
  H3012    1.0000 0.80208  0.89899  0.20010  Biso   1.000  H
  H3013    1.0000 0.75519  0.86069  0.20932  Biso   1.000  H
  H3014    1.0000 0.70112  0.86639  0.24820  Biso   1.000  H
  H3015    1.0000 0.69792  0.89899  0.29990  Biso   1.000  H
  H3016    1.0000 0.74481  0.86069  0.29068  Biso   1.000  H
  H3017    1.0000 0.82360  0.06149  0.26269  Biso   1.000  H
  H3018    1.0000 0.80689  0.06200  0.32169  Biso   1.000  H
  C1889    1.0000 0.76140  0.11171  0.27655  Biso   1.000  C
  H3019    1.0000 0.67640  0.06149  0.23731  Biso   1.000  H
  H3020    1.0000 0.69311  0.06200  0.17831  Biso   1.000  H
  C1890    1.0000 0.73860  0.11171  0.22345  Biso   1.000  C
  H3021    1.0000 0.73372  0.11381  0.30220  Biso   1.000  H
  H3022    1.0000 0.78362  0.14220  0.28069  Biso   1.000  H
  H3023    1.0000 0.76628  0.11381  0.19780  Biso   1.000  H
  H3024    1.0000 0.71638  0.14220  0.21931  Biso   1.000  H
  C1891    1.0000 0.43804  0.28612  0.70611  Biso   1.000  C
  C1892    1.0000 0.48614  0.27725  0.73903  Biso   1.000  C
  H3025    1.0000 0.43851  0.26269  0.67640  Biso   1.000  H
  H3026    1.0000 0.43800  0.32169  0.69311  Biso   1.000  H
  C1893    1.0000 0.38829  0.27655  0.73860  Biso   1.000  C
  N253     1.0000 0.53436  0.28346  0.71115  Biso   1.000  N
  C1894    1.0000 0.48614  0.22275  0.76097  Biso   1.000  C
  H3027    1.0000 0.48571  0.30208  0.76819  Biso   1.000  H
  C1895    1.0000 0.38829  0.22345  0.76140  Biso   1.000  C
  H3028    1.0000 0.38619  0.30220  0.76628  Biso   1.000  H
  H3029    1.0000 0.35780  0.28069  0.71638  Biso   1.000  H
  C1896    1.0000 0.54939  0.33832  0.70451  Biso   1.000  C
  C1897    1.0000 0.57411  0.25000  0.75000  Biso   1.000  C
  H3030    1.0000 0.55458  0.26698  0.73001  Biso   1.000  H
  N254     1.0000 0.53436  0.21654  0.78885  Biso   1.000  N
  C1898    1.0000 0.43804  0.21388  0.79389  Biso   1.000  C
  H3031    1.0000 0.48571  0.19792  0.73181  Biso   1.000  H
  H3032    1.0000 0.38619  0.19780  0.73372  Biso   1.000  H
  H3033    1.0000 0.35780  0.21931  0.78362  Biso   1.000  H
  C1899    1.0000 0.59742  0.34812  0.67129  Biso   1.000  C
  H3034    1.0000 0.55529  0.35331  0.73872  Biso   1.000  H
  H3035    1.0000 0.52019  0.35690  0.68890  Biso   1.000  H
  C1900    1.0000 0.61541  0.22579  0.72111  Biso   1.000  C
  C1901    1.0000 0.61541  0.27421  0.77889  Biso   1.000  C
  H3036    1.0000 0.55458  0.23302  0.76999  Biso   1.000  H
  C1902    1.0000 0.54939  0.16168  0.79549  Biso   1.000  C
  H3037    1.0000 0.43851  0.23731  0.82360  Biso   1.000  H
  H3038    1.0000 0.43800  0.17831  0.80689  Biso   1.000  H
  C1903    1.0000 0.60975  0.31684  0.62842  Biso   1.000  C
  C1904    1.0000 0.62842  0.39025  0.68316  Biso   1.000  C
  H3039    1.0000 0.63361  0.25180  0.70112  Biso   1.000  H
  H3040    1.0000 0.60101  0.20010  0.69792  Biso   1.000  H
  H3041    1.0000 0.63931  0.20932  0.74481  Biso   1.000  H
  H3042    1.0000 0.63361  0.24820  0.79888  Biso   1.000  H
  H3043    1.0000 0.60101  0.29990  0.80208  Biso   1.000  H
  H3044    1.0000 0.63931  0.29068  0.75519  Biso   1.000  H
  C1905    1.0000 0.59742  0.15188  0.82871  Biso   1.000  C
  H3045    1.0000 0.55529  0.14669  0.76128  Biso   1.000  H
  H3046    1.0000 0.52019  0.14310  0.81110  Biso   1.000  H
  C1906    1.0000 0.65188  0.32871  0.59742  Biso   1.000  C
  H3047    1.0000 0.58929  0.28779  0.62080  Biso   1.000  H
  C1907    1.0000 0.67129  0.40258  0.65188  Biso   1.000  C
  H3048    1.0000 0.62080  0.41071  0.71221  Biso   1.000  H
  C1908    1.0000 0.60975  0.18316  0.87158  Biso   1.000  C
  C1909    1.0000 0.62842  0.10975  0.81684  Biso   1.000  C
  C1910    1.0000 0.66168  0.29549  0.54939  Biso   1.000  C
  C1911    1.0000 0.68316  0.37158  0.60975  Biso   1.000  C
  C1912    1.0000 0.70451  0.45061  0.66168  Biso   1.000  C
  C1913    1.0000 0.65188  0.17129  0.90258  Biso   1.000  C
  H3049    1.0000 0.58929  0.21221  0.87920  Biso   1.000  H
  C1914    1.0000 0.67129  0.09742  0.84812  Biso   1.000  C
  H3050    1.0000 0.62080  0.08929  0.78779  Biso   1.000  H
  N255     1.0000 0.71654  0.28885  0.53436  Biso   1.000  N
  H3051    1.0000 0.64669  0.26128  0.55529  Biso   1.000  H
  H3052    1.0000 0.64310  0.31110  0.52019  Biso   1.000  H
  H3053    1.0000 0.71221  0.37920  0.58929  Biso   1.000  H
  N256     1.0000 0.71115  0.46564  0.71654  Biso   1.000  N
  H3054    1.0000 0.73872  0.44471  0.64669  Biso   1.000  H
  H3055    1.0000 0.68890  0.47981  0.64310  Biso   1.000  H
  C1915    1.0000 0.68316  0.12842  0.89025  Biso   1.000  C
  C1916    1.0000 0.66168  0.20451  0.95061  Biso   1.000  C
  C1917    1.0000 0.70451  0.04939  0.83832  Biso   1.000  C
  C1918    1.0000 0.72275  0.26097  0.48614  Biso   1.000  C
  C1919    1.0000 0.75000  0.25000  0.57411  Biso   1.000  C
  H3056    1.0000 0.73302  0.26999  0.55458  Biso   1.000  H
  C1920    1.0000 0.75000  0.42589  0.75000  Biso   1.000  C
  C1921    1.0000 0.73903  0.51386  0.72275  Biso   1.000  C
  H3057    1.0000 0.73001  0.44542  0.73302  Biso   1.000  H
  H3058    1.0000 0.71221  0.12080  0.91071  Biso   1.000  H
  N257     1.0000 0.71654  0.21115  0.96564  Biso   1.000  N
  H3059    1.0000 0.64669  0.23872  0.94471  Biso   1.000  H
  H3060    1.0000 0.64310  0.18890  0.97981  Biso   1.000  H
  N258     1.0000 0.71115  0.03436  0.78346  Biso   1.000  N
  H3061    1.0000 0.73872  0.05529  0.85331  Biso   1.000  H
  H3062    1.0000 0.68890  0.02019  0.85690  Biso   1.000  H
  C1922    1.0000 0.71388  0.29389  0.43804  Biso   1.000  C
  C1923    1.0000 0.77725  0.23903  0.48614  Biso   1.000  C
  H3063    1.0000 0.69792  0.23181  0.48571  Biso   1.000  H
  N259     1.0000 0.78346  0.21115  0.53436  Biso   1.000  N
  H3064    1.0000 0.76698  0.23001  0.55458  Biso   1.000  H
  C1924    1.0000 0.77421  0.27889  0.61541  Biso   1.000  C
  C1925    1.0000 0.72579  0.22111  0.61541  Biso   1.000  C
  N260     1.0000 0.78885  0.46564  0.78346  Biso   1.000  N
  C1926    1.0000 0.72111  0.38459  0.77421  Biso   1.000  C
  C1927    1.0000 0.77889  0.38459  0.72579  Biso   1.000  C
  H3065    1.0000 0.76999  0.44542  0.76698  Biso   1.000  H
  C1928    1.0000 0.76097  0.51386  0.77725  Biso   1.000  C
  C1929    1.0000 0.70611  0.56196  0.71388  Biso   1.000  C
  H3066    1.0000 0.76819  0.51429  0.69792  Biso   1.000  H
  C1930    1.0000 0.75000  0.25000  0.92589  Biso   1.000  C
  H3067    1.0000 0.73302  0.23001  0.94542  Biso   1.000  H
  C1931    1.0000 0.72275  0.23903  0.01386  Biso   1.000  C
  C1932    1.0000 0.75000  0.07411  0.75000  Biso   1.000  C
  H3068    1.0000 0.73001  0.05458  0.76698  Biso   1.000  H
  C1933    1.0000 0.73903  0.98614  0.77725  Biso   1.000  C
  C1934    1.0000 0.72345  0.26140  0.38829  Biso   1.000  C
  H3069    1.0000 0.73731  0.32360  0.43851  Biso   1.000  H
  H3070    1.0000 0.67831  0.30689  0.43800  Biso   1.000  H
  C1935    1.0000 0.78612  0.20611  0.43804  Biso   1.000  C
  H3071    1.0000 0.80208  0.26819  0.48571  Biso   1.000  H
  C1936    1.0000 0.83832  0.20451  0.54939  Biso   1.000  C
  H3072    1.0000 0.74820  0.29888  0.63361  Biso   1.000  H
  H3073    1.0000 0.79990  0.30208  0.60101  Biso   1.000  H
  H3074    1.0000 0.79068  0.25519  0.63931  Biso   1.000  H
  H3075    1.0000 0.75180  0.20112  0.63361  Biso   1.000  H
  H3076    1.0000 0.70010  0.19792  0.60101  Biso   1.000  H
  H3077    1.0000 0.70932  0.24481  0.63931  Biso   1.000  H
  C1937    1.0000 0.79549  0.45061  0.83832  Biso   1.000  C
  H3078    1.0000 0.70112  0.36639  0.74820  Biso   1.000  H
  H3079    1.0000 0.69792  0.39899  0.79990  Biso   1.000  H
  H3080    1.0000 0.74481  0.36069  0.79068  Biso   1.000  H
  H3081    1.0000 0.79888  0.36639  0.75180  Biso   1.000  H
  H3082    1.0000 0.80208  0.39899  0.70010  Biso   1.000  H
  H3083    1.0000 0.75519  0.36069  0.70932  Biso   1.000  H
  C1938    1.0000 0.79389  0.56196  0.78612  Biso   1.000  C
  H3084    1.0000 0.73181  0.51429  0.80208  Biso   1.000  H
  H3085    1.0000 0.67640  0.56149  0.73731  Biso   1.000  H
  H3086    1.0000 0.69311  0.56200  0.67831  Biso   1.000  H
  C1939    1.0000 0.73860  0.61171  0.72345  Biso   1.000  C
  N261     1.0000 0.78346  0.28885  0.96564  Biso   1.000  N
  H3087    1.0000 0.76698  0.26999  0.94542  Biso   1.000  H
  C1940    1.0000 0.77421  0.22111  0.88459  Biso   1.000  C
  C1941    1.0000 0.72579  0.27889  0.88459  Biso   1.000  C
  C1942    1.0000 0.77725  0.26097  0.01386  Biso   1.000  C
  C1943    1.0000 0.71388  0.20611  0.06196  Biso   1.000  C
  H3088    1.0000 0.69792  0.26819  0.01429  Biso   1.000  H
  N262     1.0000 0.78885  0.03436  0.71654  Biso   1.000  N
  H3089    1.0000 0.76999  0.05458  0.73302  Biso   1.000  H
  C1944    1.0000 0.77889  0.11541  0.77421  Biso   1.000  C
  C1945    1.0000 0.72111  0.11541  0.72579  Biso   1.000  C
  C1946    1.0000 0.76097  0.98614  0.72275  Biso   1.000  C
  C1947    1.0000 0.70611  0.93804  0.78612  Biso   1.000  C
  H3090    1.0000 0.76819  0.98571  0.80208  Biso   1.000  H
  C1948    1.0000 0.77655  0.23860  0.38829  Biso   1.000  C
  H3091    1.0000 0.69780  0.23372  0.38619  Biso   1.000  H
  H3092    1.0000 0.71931  0.28362  0.35780  Biso   1.000  H
  H3093    1.0000 0.76269  0.17640  0.43851  Biso   1.000  H
  H3094    1.0000 0.82169  0.19311  0.43800  Biso   1.000  H
  C1949    1.0000 0.84812  0.17129  0.59742  Biso   1.000  C
  H3095    1.0000 0.85331  0.23872  0.55529  Biso   1.000  H
  H3096    1.0000 0.85690  0.18890  0.52019  Biso   1.000  H
  C1950    1.0000 0.82871  0.40258  0.84812  Biso   1.000  C
  H3097    1.0000 0.76128  0.44471  0.85331  Biso   1.000  H
  H3098    1.0000 0.81110  0.47981  0.85690  Biso   1.000  H
  H3099    1.0000 0.82360  0.56149  0.76269  Biso   1.000  H
  H3100    1.0000 0.80689  0.56200  0.82169  Biso   1.000  H
  C1951    1.0000 0.76140  0.61171  0.77655  Biso   1.000  C
  H3101    1.0000 0.76628  0.61381  0.69780  Biso   1.000  H
  H3102    1.0000 0.71638  0.64220  0.71931  Biso   1.000  H
  C1952    1.0000 0.83832  0.29549  0.95061  Biso   1.000  C
  H3103    1.0000 0.74820  0.20112  0.86639  Biso   1.000  H
  H3104    1.0000 0.79990  0.19792  0.89899  Biso   1.000  H
  H3105    1.0000 0.79068  0.24481  0.86069  Biso   1.000  H
  H3106    1.0000 0.75180  0.29888  0.86639  Biso   1.000  H
  H3107    1.0000 0.70010  0.30208  0.89899  Biso   1.000  H
  H3108    1.0000 0.70932  0.25519  0.86069  Biso   1.000  H
  C1953    1.0000 0.78612  0.29389  0.06196  Biso   1.000  C
  H3109    1.0000 0.80208  0.23181  0.01429  Biso   1.000  H
  H3110    1.0000 0.73731  0.17640  0.06149  Biso   1.000  H
  H3111    1.0000 0.67831  0.19311  0.06200  Biso   1.000  H
  C1954    1.0000 0.72345  0.23860  0.11171  Biso   1.000  C
  C1955    1.0000 0.79549  0.04939  0.66168  Biso   1.000  C
  H3112    1.0000 0.79888  0.13361  0.74820  Biso   1.000  H
  H3113    1.0000 0.80208  0.10101  0.79990  Biso   1.000  H
  H3114    1.0000 0.75519  0.13931  0.79068  Biso   1.000  H
  H3115    1.0000 0.70112  0.13361  0.75180  Biso   1.000  H
  H3116    1.0000 0.69792  0.10101  0.70010  Biso   1.000  H
  H3117    1.0000 0.74481  0.13931  0.70932  Biso   1.000  H
  C1956    1.0000 0.79389  0.93804  0.71388  Biso   1.000  C
  H3118    1.0000 0.73181  0.98571  0.69792  Biso   1.000  H
  H3119    1.0000 0.67640  0.93851  0.76269  Biso   1.000  H
  H3120    1.0000 0.69311  0.93800  0.82169  Biso   1.000  H
  C1957    1.0000 0.73860  0.88829  0.77655  Biso   1.000  C
  H3121    1.0000 0.80220  0.26628  0.38619  Biso   1.000  H
  H3122    1.0000 0.78069  0.21638  0.35780  Biso   1.000  H
  C1958    1.0000 0.89025  0.18316  0.62842  Biso   1.000  C
  C1959    1.0000 0.81684  0.12842  0.60975  Biso   1.000  C
  C1960    1.0000 0.87158  0.39025  0.81684  Biso   1.000  C
  C1961    1.0000 0.81684  0.37158  0.89025  Biso   1.000  C
  H3123    1.0000 0.73372  0.61381  0.80220  Biso   1.000  H
  H3124    1.0000 0.78362  0.64220  0.78069  Biso   1.000  H
  C1962    1.0000 0.84812  0.32871  0.90258  Biso   1.000  C
  H3125    1.0000 0.85331  0.26128  0.94471  Biso   1.000  H
  H3126    1.0000 0.85690  0.31110  0.97981  Biso   1.000  H
  H3127    1.0000 0.76269  0.32360  0.06149  Biso   1.000  H
  H3128    1.0000 0.82169  0.30689  0.06200  Biso   1.000  H
  C1963    1.0000 0.77655  0.26140  0.11171  Biso   1.000  C
  H3129    1.0000 0.69780  0.26628  0.11381  Biso   1.000  H
  H3130    1.0000 0.71931  0.21638  0.14220  Biso   1.000  H
  C1964    1.0000 0.82871  0.09742  0.65188  Biso   1.000  C
  H3131    1.0000 0.76128  0.05529  0.64669  Biso   1.000  H
  H3132    1.0000 0.81110  0.02019  0.64310  Biso   1.000  H
  H3133    1.0000 0.82360  0.93851  0.73731  Biso   1.000  H
  H3134    1.0000 0.80689  0.93800  0.67831  Biso   1.000  H
  C1965    1.0000 0.76140  0.88829  0.72345  Biso   1.000  C
  H3135    1.0000 0.76628  0.88619  0.80220  Biso   1.000  H
  H3136    1.0000 0.71638  0.85780  0.78069  Biso   1.000  H
  C1966    1.0000 0.90258  0.15188  0.67129  Biso   1.000  C
  H3137    1.0000 0.91071  0.21221  0.62080  Biso   1.000  H
  H3138    1.0000 0.78779  0.12080  0.58929  Biso   1.000  H
  C1967    1.0000 0.90258  0.34812  0.82871  Biso   1.000  C
  H3139    1.0000 0.87920  0.41071  0.78779  Biso   1.000  H
  H3140    1.0000 0.78779  0.37920  0.91071  Biso   1.000  H
  C1968    1.0000 0.89025  0.31684  0.87158  Biso   1.000  C
  H3141    1.0000 0.80220  0.23372  0.11381  Biso   1.000  H
  H3142    1.0000 0.78069  0.28362  0.14220  Biso   1.000  H
  C1969    1.0000 0.87158  0.10975  0.68316  Biso   1.000  C
  H3143    1.0000 0.73372  0.88619  0.69780  Biso   1.000  H
  H3144    1.0000 0.78362  0.85780  0.71931  Biso   1.000  H
  C1970    1.0000 0.95061  0.16168  0.70451  Biso   1.000  C
  C1971    1.0000 0.95061  0.33832  0.79549  Biso   1.000  C
  H3145    1.0000 0.91071  0.28779  0.87920  Biso   1.000  H
  H3146    1.0000 0.87920  0.08929  0.71221  Biso   1.000  H
  N263     1.0000 0.96564  0.21654  0.71115  Biso   1.000  N
  H3147    1.0000 0.94471  0.14669  0.73872  Biso   1.000  H
  H3148    1.0000 0.97981  0.14310  0.68890  Biso   1.000  H
  N264     1.0000 0.96564  0.28346  0.78885  Biso   1.000  N
  H3149    1.0000 0.94471  0.35331  0.76128  Biso   1.000  H
  H3150    1.0000 0.97981  0.35690  0.81110  Biso   1.000  H
  C1972    1.0000 0.92589  0.25000  0.75000  Biso   1.000  C
  H3151    1.0000 0.94542  0.23302  0.73001  Biso   1.000  H
  C1973    1.0000 0.01386  0.22275  0.73903  Biso   1.000  C
  H3152    1.0000 0.94542  0.26698  0.76999  Biso   1.000  H
  C1974    1.0000 0.01386  0.27725  0.76097  Biso   1.000  C
  C1975    1.0000 0.88459  0.27421  0.72111  Biso   1.000  C
  C1976    1.0000 0.88459  0.22579  0.77889  Biso   1.000  C
  C1977    1.0000 0.06196  0.21388  0.70611  Biso   1.000  C
  H3153    1.0000 0.01429  0.19792  0.76819  Biso   1.000  H
  C1978    1.0000 0.06196  0.28612  0.79389  Biso   1.000  C
  H3154    1.0000 0.01429  0.30208  0.73181  Biso   1.000  H
  H3155    1.0000 0.86639  0.24820  0.70112  Biso   1.000  H
  H3156    1.0000 0.89899  0.29990  0.69792  Biso   1.000  H
  H3157    1.0000 0.86069  0.29068  0.74481  Biso   1.000  H
  H3158    1.0000 0.86639  0.25180  0.79888  Biso   1.000  H
  H3159    1.0000 0.89899  0.20010  0.80208  Biso   1.000  H
  H3160    1.0000 0.86069  0.20932  0.75519  Biso   1.000  H
  H3161    1.0000 0.06149  0.23731  0.67640  Biso   1.000  H
  H3162    1.0000 0.06200  0.17831  0.69311  Biso   1.000  H
  C1979    1.0000 0.11171  0.22345  0.73860  Biso   1.000  C
  H3163    1.0000 0.06149  0.26269  0.82360  Biso   1.000  H
  H3164    1.0000 0.06200  0.32169  0.80689  Biso   1.000  H
  C1980    1.0000 0.11171  0.27655  0.76140  Biso   1.000  C
  H3165    1.0000 0.11381  0.19780  0.76628  Biso   1.000  H
  H3166    1.0000 0.14220  0.21931  0.71638  Biso   1.000  H
  H3167    1.0000 0.11381  0.30220  0.73372  Biso   1.000  H
  H3168    1.0000 0.14220  0.28069  0.78362  Biso   1.000  H
  C1981    1.0000 0.43804  0.28612  0.70611  Biso   1.000  C
  C1982    1.0000 0.48614  0.27725  0.73903  Biso   1.000  C
  H3169    1.0000 0.43851  0.26269  0.67640  Biso   1.000  H
  H3170    1.0000 0.43800  0.32169  0.69311  Biso   1.000  H
  C1983    1.0000 0.38829  0.27655  0.73860  Biso   1.000  C
  N265     1.0000 0.53436  0.28346  0.71115  Biso   1.000  N
  H3171    1.0000 0.48571  0.30208  0.76819  Biso   1.000  H
  C1984    1.0000 0.48614  0.22275  0.76097  Biso   1.000  C
  C1985    1.0000 0.38829  0.22345  0.76140  Biso   1.000  C
  H3172    1.0000 0.38619  0.30220  0.76628  Biso   1.000  H
  H3173    1.0000 0.35780  0.28069  0.71638  Biso   1.000  H
  C1986    1.0000 0.57411  0.25000  0.75000  Biso   1.000  C
  C1987    1.0000 0.54939  0.33832  0.70451  Biso   1.000  C
  H3174    1.0000 0.55458  0.26698  0.73001  Biso   1.000  H
  N266     1.0000 0.53436  0.21654  0.78885  Biso   1.000  N
  H3175    1.0000 0.48571  0.19792  0.73181  Biso   1.000  H
  C1988    1.0000 0.43804  0.21388  0.79389  Biso   1.000  C
  H3176    1.0000 0.38619  0.19780  0.73372  Biso   1.000  H
  H3177    1.0000 0.35780  0.21931  0.78362  Biso   1.000  H
  C1989    1.0000 0.61541  0.22579  0.72111  Biso   1.000  C
  C1990    1.0000 0.61541  0.27421  0.77889  Biso   1.000  C
  H3178    1.0000 0.55458  0.23302  0.76999  Biso   1.000  H
  H3179    1.0000 0.55529  0.35331  0.73872  Biso   1.000  H
  H3180    1.0000 0.52019  0.35690  0.68890  Biso   1.000  H
  C1991    1.0000 0.59742  0.34812  0.67129  Biso   1.000  C
  C1992    1.0000 0.54939  0.16168  0.79549  Biso   1.000  C
  H3181    1.0000 0.43851  0.23731  0.82360  Biso   1.000  H
  H3182    1.0000 0.43800  0.17831  0.80689  Biso   1.000  H
  H3183    1.0000 0.63361  0.25180  0.70112  Biso   1.000  H
  H3184    1.0000 0.60101  0.20010  0.69792  Biso   1.000  H
  H3185    1.0000 0.63931  0.20932  0.74481  Biso   1.000  H
  H3186    1.0000 0.63361  0.24820  0.79888  Biso   1.000  H
  H3187    1.0000 0.60101  0.29990  0.80208  Biso   1.000  H
  H3188    1.0000 0.63931  0.29068  0.75519  Biso   1.000  H
  C1993    1.0000 0.60975  0.31684  0.62842  Biso   1.000  C
  C1994    1.0000 0.62842  0.39025  0.68316  Biso   1.000  C
  H3189    1.0000 0.55529  0.14669  0.76128  Biso   1.000  H
  H3190    1.0000 0.52019  0.14310  0.81110  Biso   1.000  H
  C1995    1.0000 0.59742  0.15188  0.82871  Biso   1.000  C
  C1996    1.0000 0.65188  0.32871  0.59742  Biso   1.000  C
  H3191    1.0000 0.58929  0.28779  0.62080  Biso   1.000  H
  C1997    1.0000 0.67129  0.40258  0.65188  Biso   1.000  C
  H3192    1.0000 0.62080  0.41071  0.71221  Biso   1.000  H
  C1998    1.0000 0.60975  0.18316  0.87158  Biso   1.000  C
  C1999    1.0000 0.62842  0.10975  0.81684  Biso   1.000  C
  C2000    1.0000 0.68316  0.37158  0.60975  Biso   1.000  C
  C2001    1.0000 0.66168  0.29549  0.54939  Biso   1.000  C
  C2002    1.0000 0.70451  0.45061  0.66168  Biso   1.000  C
  C2003    1.0000 0.65188  0.17129  0.90258  Biso   1.000  C
  H3193    1.0000 0.58929  0.21221  0.87920  Biso   1.000  H
  C2004    1.0000 0.67129  0.09742  0.84812  Biso   1.000  C
  H3194    1.0000 0.62080  0.08929  0.78779  Biso   1.000  H
  H3195    1.0000 0.71221  0.37920  0.58929  Biso   1.000  H
  N267     1.0000 0.71654  0.28885  0.53436  Biso   1.000  N
  H3196    1.0000 0.64669  0.26128  0.55529  Biso   1.000  H
  H3197    1.0000 0.64310  0.31110  0.52019  Biso   1.000  H
  N268     1.0000 0.71115  0.46564  0.71654  Biso   1.000  N
  H3198    1.0000 0.73872  0.44471  0.64669  Biso   1.000  H
  H3199    1.0000 0.68890  0.47981  0.64310  Biso   1.000  H
  C2005    1.0000 0.66168  0.20451  0.95061  Biso   1.000  C
  C2006    1.0000 0.68316  0.12842  0.89025  Biso   1.000  C
  C2007    1.0000 0.70451  0.04939  0.83832  Biso   1.000  C
  C2008    1.0000 0.75000  0.25000  0.57411  Biso   1.000  C
  C2009    1.0000 0.72275  0.26097  0.48614  Biso   1.000  C
  H3200    1.0000 0.73302  0.26999  0.55458  Biso   1.000  H
  C2010    1.0000 0.75000  0.42589  0.75000  Biso   1.000  C
  C2011    1.0000 0.73903  0.51386  0.72275  Biso   1.000  C
  H3201    1.0000 0.73001  0.44542  0.73302  Biso   1.000  H
  N269     1.0000 0.71654  0.21115  0.96564  Biso   1.000  N
  H3202    1.0000 0.64669  0.23872  0.94471  Biso   1.000  H
  H3203    1.0000 0.64310  0.18890  0.97981  Biso   1.000  H
  H3204    1.0000 0.71221  0.12080  0.91071  Biso   1.000  H
  N270     1.0000 0.71115  0.03436  0.78346  Biso   1.000  N
  H3205    1.0000 0.73872  0.05529  0.85331  Biso   1.000  H
  H3206    1.0000 0.68890  0.02019  0.85690  Biso   1.000  H
  N271     1.0000 0.78346  0.21115  0.53436  Biso   1.000  N
  C2012    1.0000 0.77421  0.27889  0.61541  Biso   1.000  C
  C2013    1.0000 0.72579  0.22111  0.61541  Biso   1.000  C
  H3207    1.0000 0.76698  0.23001  0.55458  Biso   1.000  H
  H3208    1.0000 0.69792  0.23181  0.48571  Biso   1.000  H
  C2014    1.0000 0.77725  0.23903  0.48614  Biso   1.000  C
  C2015    1.0000 0.71388  0.29389  0.43804  Biso   1.000  C
  N272     1.0000 0.78885  0.46564  0.78346  Biso   1.000  N
  C2016    1.0000 0.72111  0.38459  0.77421  Biso   1.000  C
  C2017    1.0000 0.77889  0.38459  0.72579  Biso   1.000  C
  H3209    1.0000 0.76999  0.44542  0.76698  Biso   1.000  H
  H3210    1.0000 0.76819  0.51429  0.69792  Biso   1.000  H
  C2018    1.0000 0.76097  0.51386  0.77725  Biso   1.000  C
  C2019    1.0000 0.70611  0.56196  0.71388  Biso   1.000  C
  C2020    1.0000 0.75000  0.25000  0.92589  Biso   1.000  C
  H3211    1.0000 0.73302  0.23001  0.94542  Biso   1.000  H
  C2021    1.0000 0.72275  0.23903  0.01386  Biso   1.000  C
  C2022    1.0000 0.73903  0.98614  0.77725  Biso   1.000  C
  C2023    1.0000 0.75000  0.07411  0.75000  Biso   1.000  C
  H3212    1.0000 0.73001  0.05458  0.76698  Biso   1.000  H
  C2024    1.0000 0.83832  0.20451  0.54939  Biso   1.000  C
  H3213    1.0000 0.74820  0.29888  0.63361  Biso   1.000  H
  H3214    1.0000 0.79990  0.30208  0.60101  Biso   1.000  H
  H3215    1.0000 0.79068  0.25519  0.63931  Biso   1.000  H
  H3216    1.0000 0.75180  0.20112  0.63361  Biso   1.000  H
  H3217    1.0000 0.70010  0.19792  0.60101  Biso   1.000  H
  H3218    1.0000 0.70932  0.24481  0.63931  Biso   1.000  H
  H3219    1.0000 0.80208  0.26819  0.48571  Biso   1.000  H
  C2025    1.0000 0.78612  0.20611  0.43804  Biso   1.000  C
  H3220    1.0000 0.73731  0.32360  0.43851  Biso   1.000  H
  H3221    1.0000 0.67831  0.30689  0.43800  Biso   1.000  H
  C2026    1.0000 0.72345  0.26140  0.38829  Biso   1.000  C
  C2027    1.0000 0.79549  0.45061  0.83832  Biso   1.000  C
  H3222    1.0000 0.70112  0.36639  0.74820  Biso   1.000  H
  H3223    1.0000 0.69792  0.39899  0.79990  Biso   1.000  H
  H3224    1.0000 0.74481  0.36069  0.79068  Biso   1.000  H
  H3225    1.0000 0.79888  0.36639  0.75180  Biso   1.000  H
  H3226    1.0000 0.80208  0.39899  0.70010  Biso   1.000  H
  H3227    1.0000 0.75519  0.36069  0.70932  Biso   1.000  H
  H3228    1.0000 0.73181  0.51429  0.80208  Biso   1.000  H
  C2028    1.0000 0.79389  0.56196  0.78612  Biso   1.000  C
  H3229    1.0000 0.67640  0.56149  0.73731  Biso   1.000  H
  H3230    1.0000 0.69311  0.56200  0.67831  Biso   1.000  H
  C2029    1.0000 0.73860  0.61171  0.72345  Biso   1.000  C
  N273     1.0000 0.78346  0.28885  0.96564  Biso   1.000  N
  C2030    1.0000 0.77421  0.22111  0.88459  Biso   1.000  C
  C2031    1.0000 0.72579  0.27889  0.88459  Biso   1.000  C
  H3231    1.0000 0.76698  0.26999  0.94542  Biso   1.000  H
  C2032    1.0000 0.77725  0.26097  0.01386  Biso   1.000  C
  C2033    1.0000 0.71388  0.20611  0.06196  Biso   1.000  C
  H3232    1.0000 0.69792  0.26819  0.01429  Biso   1.000  H
  C2034    1.0000 0.70611  0.93804  0.78612  Biso   1.000  C
  H3233    1.0000 0.76819  0.98571  0.80208  Biso   1.000  H
  C2035    1.0000 0.76097  0.98614  0.72275  Biso   1.000  C
  N274     1.0000 0.78885  0.03436  0.71654  Biso   1.000  N
  C2036    1.0000 0.77889  0.11541  0.77421  Biso   1.000  C
  C2037    1.0000 0.72111  0.11541  0.72579  Biso   1.000  C
  H3234    1.0000 0.76999  0.05458  0.73302  Biso   1.000  H
  H3235    1.0000 0.85331  0.23872  0.55529  Biso   1.000  H
  H3236    1.0000 0.85690  0.18890  0.52019  Biso   1.000  H
  C2038    1.0000 0.84812  0.17129  0.59742  Biso   1.000  C
  H3237    1.0000 0.76269  0.17640  0.43851  Biso   1.000  H
  H3238    1.0000 0.82169  0.19311  0.43800  Biso   1.000  H
  C2039    1.0000 0.77655  0.23860  0.38829  Biso   1.000  C
  H3239    1.0000 0.69780  0.23372  0.38619  Biso   1.000  H
  H3240    1.0000 0.71931  0.28362  0.35780  Biso   1.000  H
  H3241    1.0000 0.76128  0.44471  0.85331  Biso   1.000  H
  H3242    1.0000 0.81110  0.47981  0.85690  Biso   1.000  H
  C2040    1.0000 0.82871  0.40258  0.84812  Biso   1.000  C
  H3243    1.0000 0.82360  0.56149  0.76269  Biso   1.000  H
  H3244    1.0000 0.80689  0.56200  0.82169  Biso   1.000  H
  C2041    1.0000 0.76140  0.61171  0.77655  Biso   1.000  C
  H3245    1.0000 0.76628  0.61381  0.69780  Biso   1.000  H
  H3246    1.0000 0.71638  0.64220  0.71931  Biso   1.000  H
  C2042    1.0000 0.83832  0.29549  0.95061  Biso   1.000  C
  H3247    1.0000 0.74820  0.20112  0.86639  Biso   1.000  H
  H3248    1.0000 0.79990  0.19792  0.89899  Biso   1.000  H
  H3249    1.0000 0.79068  0.24481  0.86069  Biso   1.000  H
  H3250    1.0000 0.75180  0.29888  0.86639  Biso   1.000  H
  H3251    1.0000 0.70010  0.30208  0.89899  Biso   1.000  H
  H3252    1.0000 0.70932  0.25519  0.86069  Biso   1.000  H
  C2043    1.0000 0.78612  0.29389  0.06196  Biso   1.000  C
  H3253    1.0000 0.80208  0.23181  0.01429  Biso   1.000  H
  H3254    1.0000 0.73731  0.17640  0.06149  Biso   1.000  H
  H3255    1.0000 0.67831  0.19311  0.06200  Biso   1.000  H
  C2044    1.0000 0.72345  0.23860  0.11171  Biso   1.000  C
  H3256    1.0000 0.67640  0.93851  0.76269  Biso   1.000  H
  H3257    1.0000 0.69311  0.93800  0.82169  Biso   1.000  H
  C2045    1.0000 0.73860  0.88829  0.77655  Biso   1.000  C
  C2046    1.0000 0.79389  0.93804  0.71388  Biso   1.000  C
  H3258    1.0000 0.73181  0.98571  0.69792  Biso   1.000  H
  C2047    1.0000 0.79549  0.04939  0.66168  Biso   1.000  C
  H3259    1.0000 0.79888  0.13361  0.74820  Biso   1.000  H
  H3260    1.0000 0.80208  0.10101  0.79990  Biso   1.000  H
  H3261    1.0000 0.75519  0.13931  0.79068  Biso   1.000  H
  H3262    1.0000 0.70112  0.13361  0.75180  Biso   1.000  H
  H3263    1.0000 0.69792  0.10101  0.70010  Biso   1.000  H
  H3264    1.0000 0.74481  0.13931  0.70932  Biso   1.000  H
  C2048    1.0000 0.89025  0.18316  0.62842  Biso   1.000  C
  C2049    1.0000 0.81684  0.12842  0.60975  Biso   1.000  C
  H3265    1.0000 0.80220  0.26628  0.38619  Biso   1.000  H
  H3266    1.0000 0.78069  0.21638  0.35780  Biso   1.000  H
  C2050    1.0000 0.87158  0.39025  0.81684  Biso   1.000  C
  C2051    1.0000 0.81684  0.37158  0.89025  Biso   1.000  C
  H3267    1.0000 0.73372  0.61381  0.80220  Biso   1.000  H
  H3268    1.0000 0.78362  0.64220  0.78069  Biso   1.000  H
  H3269    1.0000 0.85331  0.26128  0.94471  Biso   1.000  H
  H3270    1.0000 0.85690  0.31110  0.97981  Biso   1.000  H
  C2052    1.0000 0.84812  0.32871  0.90258  Biso   1.000  C
  H3271    1.0000 0.76269  0.32360  0.06149  Biso   1.000  H
  H3272    1.0000 0.82169  0.30689  0.06200  Biso   1.000  H
  C2053    1.0000 0.77655  0.26140  0.11171  Biso   1.000  C
  H3273    1.0000 0.69780  0.26628  0.11381  Biso   1.000  H
  H3274    1.0000 0.71931  0.21638  0.14220  Biso   1.000  H
  H3275    1.0000 0.76628  0.88619  0.80220  Biso   1.000  H
  H3276    1.0000 0.71638  0.85780  0.78069  Biso   1.000  H
  C2054    1.0000 0.76140  0.88829  0.72345  Biso   1.000  C
  H3277    1.0000 0.82360  0.93851  0.73731  Biso   1.000  H
  H3278    1.0000 0.80689  0.93800  0.67831  Biso   1.000  H
  H3279    1.0000 0.76128  0.05529  0.64669  Biso   1.000  H
  H3280    1.0000 0.81110  0.02019  0.64310  Biso   1.000  H
  C2055    1.0000 0.82871  0.09742  0.65188  Biso   1.000  C
  C2056    1.0000 0.90258  0.15188  0.67129  Biso   1.000  C
  H3281    1.0000 0.91071  0.21221  0.62080  Biso   1.000  H
  H3282    1.0000 0.78779  0.12080  0.58929  Biso   1.000  H
  C2057    1.0000 0.90258  0.34812  0.82871  Biso   1.000  C
  H3283    1.0000 0.87920  0.41071  0.78779  Biso   1.000  H
  H3284    1.0000 0.78779  0.37920  0.91071  Biso   1.000  H
  C2058    1.0000 0.89025  0.31684  0.87158  Biso   1.000  C
  H3285    1.0000 0.80220  0.23372  0.11381  Biso   1.000  H
  H3286    1.0000 0.78069  0.28362  0.14220  Biso   1.000  H
  H3287    1.0000 0.73372  0.88619  0.69780  Biso   1.000  H
  H3288    1.0000 0.78362  0.85780  0.71931  Biso   1.000  H
  C2059    1.0000 0.87158  0.10975  0.68316  Biso   1.000  C
  C2060    1.0000 0.95061  0.16168  0.70451  Biso   1.000  C
  C2061    1.0000 0.95061  0.33832  0.79549  Biso   1.000  C
  H3289    1.0000 0.91071  0.28779  0.87920  Biso   1.000  H
  H3290    1.0000 0.87920  0.08929  0.71221  Biso   1.000  H
  N275     1.0000 0.96564  0.21654  0.71115  Biso   1.000  N
  H3291    1.0000 0.94471  0.14669  0.73872  Biso   1.000  H
  H3292    1.0000 0.97981  0.14310  0.68890  Biso   1.000  H
  N276     1.0000 0.96564  0.28346  0.78885  Biso   1.000  N
  H3293    1.0000 0.94471  0.35331  0.76128  Biso   1.000  H
  H3294    1.0000 0.97981  0.35690  0.81110  Biso   1.000  H
  C2062    1.0000 0.92589  0.25000  0.75000  Biso   1.000  C
  H3295    1.0000 0.94542  0.23302  0.73001  Biso   1.000  H
  C2063    1.0000 0.01386  0.22275  0.73903  Biso   1.000  C
  H3296    1.0000 0.94542  0.26698  0.76999  Biso   1.000  H
  C2064    1.0000 0.01386  0.27725  0.76097  Biso   1.000  C
  C2065    1.0000 0.88459  0.27421  0.72111  Biso   1.000  C
  C2066    1.0000 0.88459  0.22579  0.77889  Biso   1.000  C
  C2067    1.0000 0.06196  0.21388  0.70611  Biso   1.000  C
  H3297    1.0000 0.01429  0.19792  0.76819  Biso   1.000  H
  C2068    1.0000 0.06196  0.28612  0.79389  Biso   1.000  C
  H3298    1.0000 0.01429  0.30208  0.73181  Biso   1.000  H
  H3299    1.0000 0.86639  0.24820  0.70112  Biso   1.000  H
  H3300    1.0000 0.89899  0.29990  0.69792  Biso   1.000  H
  H3301    1.0000 0.86069  0.29068  0.74481  Biso   1.000  H
  H3302    1.0000 0.86639  0.25180  0.79888  Biso   1.000  H
  H3303    1.0000 0.89899  0.20010  0.80208  Biso   1.000  H
  H3304    1.0000 0.86069  0.20932  0.75519  Biso   1.000  H
  H3305    1.0000 0.06149  0.23731  0.67640  Biso   1.000  H
  H3306    1.0000 0.06200  0.17831  0.69311  Biso   1.000  H
  C2069    1.0000 0.11171  0.22345  0.73860  Biso   1.000  C
  H3307    1.0000 0.06149  0.26269  0.82360  Biso   1.000  H
  H3308    1.0000 0.06200  0.32169  0.80689  Biso   1.000  H
  C2070    1.0000 0.11171  0.27655  0.76140  Biso   1.000  C
  H3309    1.0000 0.11381  0.19780  0.76628  Biso   1.000  H
  H3310    1.0000 0.14220  0.21931  0.71638  Biso   1.000  H
  H3311    1.0000 0.11381  0.30220  0.73372  Biso   1.000  H
  H3312    1.0000 0.14220  0.28069  0.78362  Biso   1.000  H
  C2071    1.0000 0.28612  0.70611  0.43804  Biso   1.000  C
  C2072    1.0000 0.27725  0.73903  0.48614  Biso   1.000  C
  H3313    1.0000 0.26269  0.67640  0.43851  Biso   1.000  H
  H3314    1.0000 0.32169  0.69311  0.43800  Biso   1.000  H
  C2073    1.0000 0.27655  0.73860  0.38829  Biso   1.000  C
  N277     1.0000 0.28346  0.71115  0.53436  Biso   1.000  N
  C2074    1.0000 0.22275  0.76097  0.48614  Biso   1.000  C
  H3315    1.0000 0.30208  0.76819  0.48571  Biso   1.000  H
  C2075    1.0000 0.22345  0.76140  0.38829  Biso   1.000  C
  H3316    1.0000 0.30220  0.76628  0.38619  Biso   1.000  H
  H3317    1.0000 0.28069  0.71638  0.35780  Biso   1.000  H
  C2076    1.0000 0.33832  0.70451  0.54939  Biso   1.000  C
  C2077    1.0000 0.25000  0.75000  0.57411  Biso   1.000  C
  H3318    1.0000 0.26698  0.73001  0.55458  Biso   1.000  H
  N278     1.0000 0.21654  0.78885  0.53436  Biso   1.000  N
  C2078    1.0000 0.21388  0.79389  0.43804  Biso   1.000  C
  H3319    1.0000 0.19792  0.73181  0.48571  Biso   1.000  H
  H3320    1.0000 0.19780  0.73372  0.38619  Biso   1.000  H
  H3321    1.0000 0.21931  0.78362  0.35780  Biso   1.000  H
  C2079    1.0000 0.34812  0.67129  0.59742  Biso   1.000  C
  H3322    1.0000 0.35331  0.73872  0.55529  Biso   1.000  H
  H3323    1.0000 0.35690  0.68890  0.52019  Biso   1.000  H
  C2080    1.0000 0.22579  0.72111  0.61541  Biso   1.000  C
  C2081    1.0000 0.27421  0.77889  0.61541  Biso   1.000  C
  H3324    1.0000 0.23302  0.76999  0.55458  Biso   1.000  H
  C2082    1.0000 0.16168  0.79549  0.54939  Biso   1.000  C
  H3325    1.0000 0.23731  0.82360  0.43851  Biso   1.000  H
  H3326    1.0000 0.17831  0.80689  0.43800  Biso   1.000  H
  C2083    1.0000 0.31684  0.62842  0.60975  Biso   1.000  C
  C2084    1.0000 0.39025  0.68316  0.62842  Biso   1.000  C
  H3327    1.0000 0.25180  0.70112  0.63361  Biso   1.000  H
  H3328    1.0000 0.20010  0.69792  0.60101  Biso   1.000  H
  H3329    1.0000 0.20932  0.74481  0.63931  Biso   1.000  H
  H3330    1.0000 0.24820  0.79888  0.63361  Biso   1.000  H
  H3331    1.0000 0.29990  0.80208  0.60101  Biso   1.000  H
  H3332    1.0000 0.29068  0.75519  0.63931  Biso   1.000  H
  C2085    1.0000 0.15188  0.82871  0.59742  Biso   1.000  C
  H3333    1.0000 0.14669  0.76128  0.55529  Biso   1.000  H
  H3334    1.0000 0.14310  0.81110  0.52019  Biso   1.000  H
  C2086    1.0000 0.32871  0.59742  0.65188  Biso   1.000  C
  H3335    1.0000 0.28779  0.62080  0.58929  Biso   1.000  H
  C2087    1.0000 0.40258  0.65188  0.67129  Biso   1.000  C
  H3336    1.0000 0.41071  0.71221  0.62080  Biso   1.000  H
  C2088    1.0000 0.10975  0.81684  0.62842  Biso   1.000  C
  C2089    1.0000 0.18316  0.87158  0.60975  Biso   1.000  C
  C2090    1.0000 0.29549  0.54939  0.66168  Biso   1.000  C
  C2091    1.0000 0.37158  0.60975  0.68316  Biso   1.000  C
  C2092    1.0000 0.45061  0.66168  0.70451  Biso   1.000  C
  C2093    1.0000 0.09742  0.84812  0.67129  Biso   1.000  C
  H3337    1.0000 0.08929  0.78779  0.62080  Biso   1.000  H
  C2094    1.0000 0.17129  0.90258  0.65188  Biso   1.000  C
  H3338    1.0000 0.21221  0.87920  0.58929  Biso   1.000  H
  N279     1.0000 0.28885  0.53436  0.71654  Biso   1.000  N
  H3339    1.0000 0.26128  0.55529  0.64669  Biso   1.000  H
  H3340    1.0000 0.31110  0.52019  0.64310  Biso   1.000  H
  H3341    1.0000 0.37920  0.58929  0.71221  Biso   1.000  H
  N280     1.0000 0.46564  0.71654  0.71115  Biso   1.000  N
  H3342    1.0000 0.44471  0.64669  0.73872  Biso   1.000  H
  H3343    1.0000 0.47981  0.64310  0.68890  Biso   1.000  H
  C2095    1.0000 0.04939  0.83832  0.70451  Biso   1.000  C
  C2096    1.0000 0.12842  0.89025  0.68316  Biso   1.000  C
  C2097    1.0000 0.20451  0.95061  0.66168  Biso   1.000  C
  C2098    1.0000 0.26097  0.48614  0.72275  Biso   1.000  C
  C2099    1.0000 0.25000  0.57411  0.75000  Biso   1.000  C
  H3344    1.0000 0.26999  0.55458  0.73302  Biso   1.000  H
  C2100    1.0000 0.42589  0.75000  0.75000  Biso   1.000  C
  C2101    1.0000 0.51386  0.72275  0.73903  Biso   1.000  C
  H3345    1.0000 0.44542  0.73302  0.73001  Biso   1.000  H
  N281     1.0000 0.03436  0.78346  0.71115  Biso   1.000  N
  H3346    1.0000 0.05529  0.85331  0.73872  Biso   1.000  H
  H3347    1.0000 0.02019  0.85690  0.68890  Biso   1.000  H
  H3348    1.0000 0.12080  0.91071  0.71221  Biso   1.000  H
  N282     1.0000 0.21115  0.96564  0.71654  Biso   1.000  N
  H3349    1.0000 0.23872  0.94471  0.64669  Biso   1.000  H
  H3350    1.0000 0.18890  0.97981  0.64310  Biso   1.000  H
  C2102    1.0000 0.29389  0.43804  0.71388  Biso   1.000  C
  C2103    1.0000 0.23903  0.48614  0.77725  Biso   1.000  C
  H3351    1.0000 0.23181  0.48571  0.69792  Biso   1.000  H
  N283     1.0000 0.21115  0.53436  0.78346  Biso   1.000  N
  H3352    1.0000 0.23001  0.55458  0.76698  Biso   1.000  H
  C2104    1.0000 0.27889  0.61541  0.77421  Biso   1.000  C
  C2105    1.0000 0.22111  0.61541  0.72579  Biso   1.000  C
  N284     1.0000 0.46564  0.78346  0.78885  Biso   1.000  N
  C2106    1.0000 0.38459  0.77421  0.72111  Biso   1.000  C
  C2107    1.0000 0.38459  0.72579  0.77889  Biso   1.000  C
  H3353    1.0000 0.44542  0.76698  0.76999  Biso   1.000  H
  C2108    1.0000 0.51386  0.77725  0.76097  Biso   1.000  C
  C2109    1.0000 0.56196  0.71388  0.70611  Biso   1.000  C
  H3354    1.0000 0.51429  0.69792  0.76819  Biso   1.000  H
  C2110    1.0000 0.07411  0.75000  0.75000  Biso   1.000  C
  H3355    1.0000 0.05458  0.76698  0.73001  Biso   1.000  H
  C2111    1.0000 0.98614  0.77725  0.73903  Biso   1.000  C
  C2112    1.0000 0.25000  0.92589  0.75000  Biso   1.000  C
  H3356    1.0000 0.23001  0.94542  0.73302  Biso   1.000  H
  C2113    1.0000 0.23903  0.01386  0.72275  Biso   1.000  C
  C2114    1.0000 0.26140  0.38829  0.72345  Biso   1.000  C
  H3357    1.0000 0.32360  0.43851  0.73731  Biso   1.000  H
  H3358    1.0000 0.30689  0.43800  0.67831  Biso   1.000  H
  C2115    1.0000 0.20611  0.43804  0.78612  Biso   1.000  C
  H3359    1.0000 0.26819  0.48571  0.80208  Biso   1.000  H
  C2116    1.0000 0.20451  0.54939  0.83832  Biso   1.000  C
  H3360    1.0000 0.29888  0.63361  0.74820  Biso   1.000  H
  H3361    1.0000 0.30208  0.60101  0.79990  Biso   1.000  H
  H3362    1.0000 0.25519  0.63931  0.79068  Biso   1.000  H
  H3363    1.0000 0.20112  0.63361  0.75180  Biso   1.000  H
  H3364    1.0000 0.19792  0.60101  0.70010  Biso   1.000  H
  H3365    1.0000 0.24481  0.63931  0.70932  Biso   1.000  H
  C2117    1.0000 0.45061  0.83832  0.79549  Biso   1.000  C
  H3366    1.0000 0.36639  0.74820  0.70112  Biso   1.000  H
  H3367    1.0000 0.39899  0.79990  0.69792  Biso   1.000  H
  H3368    1.0000 0.36069  0.79068  0.74481  Biso   1.000  H
  H3369    1.0000 0.36639  0.75180  0.79888  Biso   1.000  H
  H3370    1.0000 0.39899  0.70010  0.80208  Biso   1.000  H
  H3371    1.0000 0.36069  0.70932  0.75519  Biso   1.000  H
  C2118    1.0000 0.56196  0.78612  0.79389  Biso   1.000  C
  H3372    1.0000 0.51429  0.80208  0.73181  Biso   1.000  H
  H3373    1.0000 0.56149  0.73731  0.67640  Biso   1.000  H
  H3374    1.0000 0.56200  0.67831  0.69311  Biso   1.000  H
  C2119    1.0000 0.61171  0.72345  0.73860  Biso   1.000  C
  N285     1.0000 0.03436  0.71654  0.78885  Biso   1.000  N
  H3375    1.0000 0.05458  0.73302  0.76999  Biso   1.000  H
  C2120    1.0000 0.11541  0.72579  0.72111  Biso   1.000  C
  C2121    1.0000 0.11541  0.77421  0.77889  Biso   1.000  C
  C2122    1.0000 0.98614  0.72275  0.76097  Biso   1.000  C
  C2123    1.0000 0.93804  0.78612  0.70611  Biso   1.000  C
  H3376    1.0000 0.98571  0.80208  0.76819  Biso   1.000  H
  N286     1.0000 0.28885  0.96564  0.78346  Biso   1.000  N
  H3377    1.0000 0.26999  0.94542  0.76698  Biso   1.000  H
  C2124    1.0000 0.22111  0.88459  0.77421  Biso   1.000  C
  C2125    1.0000 0.27889  0.88459  0.72579  Biso   1.000  C
  C2126    1.0000 0.26097  0.01386  0.77725  Biso   1.000  C
  C2127    1.0000 0.20611  0.06196  0.71388  Biso   1.000  C
  H3378    1.0000 0.26819  0.01429  0.69792  Biso   1.000  H
  C2128    1.0000 0.23860  0.38829  0.77655  Biso   1.000  C
  H3379    1.0000 0.23372  0.38619  0.69780  Biso   1.000  H
  H3380    1.0000 0.28362  0.35780  0.71931  Biso   1.000  H
  H3381    1.0000 0.17640  0.43851  0.76269  Biso   1.000  H
  H3382    1.0000 0.19311  0.43800  0.82169  Biso   1.000  H
  C2129    1.0000 0.17129  0.59742  0.84812  Biso   1.000  C
  H3383    1.0000 0.23872  0.55529  0.85331  Biso   1.000  H
  H3384    1.0000 0.18890  0.52019  0.85690  Biso   1.000  H
  C2130    1.0000 0.40258  0.84812  0.82871  Biso   1.000  C
  H3385    1.0000 0.44471  0.85331  0.76128  Biso   1.000  H
  H3386    1.0000 0.47981  0.85690  0.81110  Biso   1.000  H
  H3387    1.0000 0.56149  0.76269  0.82360  Biso   1.000  H
  H3388    1.0000 0.56200  0.82169  0.80689  Biso   1.000  H
  C2131    1.0000 0.61171  0.77655  0.76140  Biso   1.000  C
  H3389    1.0000 0.61381  0.69780  0.76628  Biso   1.000  H
  H3390    1.0000 0.64220  0.71931  0.71638  Biso   1.000  H
  C2132    1.0000 0.04939  0.66168  0.79549  Biso   1.000  C
  H3391    1.0000 0.13361  0.75180  0.70112  Biso   1.000  H
  H3392    1.0000 0.10101  0.70010  0.69792  Biso   1.000  H
  H3393    1.0000 0.13931  0.70932  0.74481  Biso   1.000  H
  H3394    1.0000 0.13361  0.74820  0.79888  Biso   1.000  H
  H3395    1.0000 0.10101  0.79990  0.80208  Biso   1.000  H
  H3396    1.0000 0.13931  0.79068  0.75519  Biso   1.000  H
  C2133    1.0000 0.93804  0.71388  0.79389  Biso   1.000  C
  H3397    1.0000 0.98571  0.69792  0.73181  Biso   1.000  H
  C2134    1.0000 0.88829  0.77655  0.73860  Biso   1.000  C
  H3398    1.0000 0.93851  0.76269  0.67640  Biso   1.000  H
  H3399    1.0000 0.93800  0.82169  0.69311  Biso   1.000  H
  C2135    1.0000 0.29549  0.95061  0.83832  Biso   1.000  C
  H3400    1.0000 0.20112  0.86639  0.74820  Biso   1.000  H
  H3401    1.0000 0.19792  0.89899  0.79990  Biso   1.000  H
  H3402    1.0000 0.24481  0.86069  0.79068  Biso   1.000  H
  H3403    1.0000 0.29888  0.86639  0.75180  Biso   1.000  H
  H3404    1.0000 0.30208  0.89899  0.70010  Biso   1.000  H
  H3405    1.0000 0.25519  0.86069  0.70932  Biso   1.000  H
  C2136    1.0000 0.29389  0.06196  0.78612  Biso   1.000  C
  H3406    1.0000 0.23181  0.01429  0.80208  Biso   1.000  H
  H3407    1.0000 0.17640  0.06149  0.73731  Biso   1.000  H
  H3408    1.0000 0.19311  0.06200  0.67831  Biso   1.000  H
  C2137    1.0000 0.23860  0.11171  0.72345  Biso   1.000  C
  H3409    1.0000 0.26628  0.38619  0.80220  Biso   1.000  H
  H3410    1.0000 0.21638  0.35780  0.78069  Biso   1.000  H
  C2138    1.0000 0.12842  0.60975  0.81684  Biso   1.000  C
  C2139    1.0000 0.18316  0.62842  0.89025  Biso   1.000  C
  C2140    1.0000 0.39025  0.81684  0.87158  Biso   1.000  C
  C2141    1.0000 0.37158  0.89025  0.81684  Biso   1.000  C
  H3411    1.0000 0.61381  0.80220  0.73372  Biso   1.000  H
  H3412    1.0000 0.64220  0.78069  0.78362  Biso   1.000  H
  C2142    1.0000 0.09742  0.65188  0.82871  Biso   1.000  C
  H3413    1.0000 0.05529  0.64669  0.76128  Biso   1.000  H
  H3414    1.0000 0.02019  0.64310  0.81110  Biso   1.000  H
  H3415    1.0000 0.93851  0.73731  0.82360  Biso   1.000  H
  H3416    1.0000 0.93800  0.67831  0.80689  Biso   1.000  H
  C2143    1.0000 0.88829  0.72345  0.76140  Biso   1.000  C
  H3417    1.0000 0.88619  0.80220  0.76628  Biso   1.000  H
  H3418    1.0000 0.85780  0.78069  0.71638  Biso   1.000  H
  C2144    1.0000 0.32871  0.90258  0.84812  Biso   1.000  C
  H3419    1.0000 0.26128  0.94471  0.85331  Biso   1.000  H
  H3420    1.0000 0.31110  0.97981  0.85690  Biso   1.000  H
  H3421    1.0000 0.32360  0.06149  0.76269  Biso   1.000  H
  H3422    1.0000 0.30689  0.06200  0.82169  Biso   1.000  H
  C2145    1.0000 0.26140  0.11171  0.77655  Biso   1.000  C
  H3423    1.0000 0.26628  0.11381  0.69780  Biso   1.000  H
  H3424    1.0000 0.21638  0.14220  0.71931  Biso   1.000  H
  H3425    1.0000 0.12080  0.58929  0.78779  Biso   1.000  H
  C2146    1.0000 0.15188  0.67129  0.90258  Biso   1.000  C
  H3426    1.0000 0.21221  0.62080  0.91071  Biso   1.000  H
  C2147    1.0000 0.34812  0.82871  0.90258  Biso   1.000  C
  H3427    1.0000 0.41071  0.78779  0.87920  Biso   1.000  H
  H3428    1.0000 0.37920  0.91071  0.78779  Biso   1.000  H
  C2148    1.0000 0.10975  0.68316  0.87158  Biso   1.000  C
  H3429    1.0000 0.88619  0.69780  0.73372  Biso   1.000  H
  H3430    1.0000 0.85780  0.71931  0.78362  Biso   1.000  H
  C2149    1.0000 0.31684  0.87158  0.89025  Biso   1.000  C
  H3431    1.0000 0.23372  0.11381  0.80220  Biso   1.000  H
  H3432    1.0000 0.28362  0.14220  0.78069  Biso   1.000  H
  C2150    1.0000 0.16168  0.70451  0.95061  Biso   1.000  C
  C2151    1.0000 0.33832  0.79549  0.95061  Biso   1.000  C
  H3433    1.0000 0.08929  0.71221  0.87920  Biso   1.000  H
  H3434    1.0000 0.28779  0.87920  0.91071  Biso   1.000  H
  N287     1.0000 0.21654  0.71115  0.96564  Biso   1.000  N
  H3435    1.0000 0.14669  0.73872  0.94471  Biso   1.000  H
  H3436    1.0000 0.14310  0.68890  0.97981  Biso   1.000  H
  N288     1.0000 0.28346  0.78885  0.96564  Biso   1.000  N
  H3437    1.0000 0.35331  0.76128  0.94471  Biso   1.000  H
  H3438    1.0000 0.35690  0.81110  0.97981  Biso   1.000  H
  C2152    1.0000 0.25000  0.75000  0.92589  Biso   1.000  C
  H3439    1.0000 0.23302  0.73001  0.94542  Biso   1.000  H
  C2153    1.0000 0.22275  0.73903  0.01386  Biso   1.000  C
  H3440    1.0000 0.26698  0.76999  0.94542  Biso   1.000  H
  C2154    1.0000 0.27725  0.76097  0.01386  Biso   1.000  C
  C2155    1.0000 0.22579  0.77889  0.88459  Biso   1.000  C
  C2156    1.0000 0.27421  0.72111  0.88459  Biso   1.000  C
  C2157    1.0000 0.21388  0.70611  0.06196  Biso   1.000  C
  H3441    1.0000 0.19792  0.76819  0.01429  Biso   1.000  H
  C2158    1.0000 0.28612  0.79389  0.06196  Biso   1.000  C
  H3442    1.0000 0.30208  0.73181  0.01429  Biso   1.000  H
  H3443    1.0000 0.25180  0.79888  0.86639  Biso   1.000  H
  H3444    1.0000 0.20010  0.80208  0.89899  Biso   1.000  H
  H3445    1.0000 0.20932  0.75519  0.86069  Biso   1.000  H
  H3446    1.0000 0.24820  0.70112  0.86639  Biso   1.000  H
  H3447    1.0000 0.29990  0.69792  0.89899  Biso   1.000  H
  H3448    1.0000 0.29068  0.74481  0.86069  Biso   1.000  H
  H3449    1.0000 0.23731  0.67640  0.06149  Biso   1.000  H
  H3450    1.0000 0.17831  0.69311  0.06200  Biso   1.000  H
  C2159    1.0000 0.22345  0.73860  0.11171  Biso   1.000  C
  C2160    1.0000 0.27655  0.76140  0.11171  Biso   1.000  C
  H3451    1.0000 0.26269  0.82360  0.06149  Biso   1.000  H
  H3452    1.0000 0.32169  0.80689  0.06200  Biso   1.000  H
  H3453    1.0000 0.19780  0.76628  0.11381  Biso   1.000  H
  H3454    1.0000 0.21931  0.71638  0.14220  Biso   1.000  H
  H3455    1.0000 0.30220  0.73372  0.11381  Biso   1.000  H
  H3456    1.0000 0.28069  0.78362  0.14220  Biso   1.000  H
  C2161    1.0000 0.28612  0.70611  0.43804  Biso   1.000  C
  C2162    1.0000 0.27725  0.73903  0.48614  Biso   1.000  C
  H3457    1.0000 0.26269  0.67640  0.43851  Biso   1.000  H
  H3458    1.0000 0.32169  0.69311  0.43800  Biso   1.000  H
  C2163    1.0000 0.27655  0.73860  0.38829  Biso   1.000  C
  N289     1.0000 0.28346  0.71115  0.53436  Biso   1.000  N
  H3459    1.0000 0.30208  0.76819  0.48571  Biso   1.000  H
  C2164    1.0000 0.22275  0.76097  0.48614  Biso   1.000  C
  C2165    1.0000 0.22345  0.76140  0.38829  Biso   1.000  C
  H3460    1.0000 0.30220  0.76628  0.38619  Biso   1.000  H
  H3461    1.0000 0.28069  0.71638  0.35780  Biso   1.000  H
  C2166    1.0000 0.25000  0.75000  0.57411  Biso   1.000  C
  C2167    1.0000 0.33832  0.70451  0.54939  Biso   1.000  C
  H3462    1.0000 0.26698  0.73001  0.55458  Biso   1.000  H
  N290     1.0000 0.21654  0.78885  0.53436  Biso   1.000  N
  H3463    1.0000 0.19792  0.73181  0.48571  Biso   1.000  H
  C2168    1.0000 0.21388  0.79389  0.43804  Biso   1.000  C
  H3464    1.0000 0.19780  0.73372  0.38619  Biso   1.000  H
  H3465    1.0000 0.21931  0.78362  0.35780  Biso   1.000  H
  C2169    1.0000 0.22579  0.72111  0.61541  Biso   1.000  C
  C2170    1.0000 0.27421  0.77889  0.61541  Biso   1.000  C
  H3466    1.0000 0.23302  0.76999  0.55458  Biso   1.000  H
  H3467    1.0000 0.35331  0.73872  0.55529  Biso   1.000  H
  H3468    1.0000 0.35690  0.68890  0.52019  Biso   1.000  H
  C2171    1.0000 0.34812  0.67129  0.59742  Biso   1.000  C
  C2172    1.0000 0.16168  0.79549  0.54939  Biso   1.000  C
  H3469    1.0000 0.23731  0.82360  0.43851  Biso   1.000  H
  H3470    1.0000 0.17831  0.80689  0.43800  Biso   1.000  H
  H3471    1.0000 0.25180  0.70112  0.63361  Biso   1.000  H
  H3472    1.0000 0.20010  0.69792  0.60101  Biso   1.000  H
  H3473    1.0000 0.20932  0.74481  0.63931  Biso   1.000  H
  H3474    1.0000 0.24820  0.79888  0.63361  Biso   1.000  H
  H3475    1.0000 0.29990  0.80208  0.60101  Biso   1.000  H
  H3476    1.0000 0.29068  0.75519  0.63931  Biso   1.000  H
  C2173    1.0000 0.31684  0.62842  0.60975  Biso   1.000  C
  C2174    1.0000 0.39025  0.68316  0.62842  Biso   1.000  C
  H3477    1.0000 0.14669  0.76128  0.55529  Biso   1.000  H
  H3478    1.0000 0.14310  0.81110  0.52019  Biso   1.000  H
  C2175    1.0000 0.15188  0.82871  0.59742  Biso   1.000  C
  C2176    1.0000 0.32871  0.59742  0.65188  Biso   1.000  C
  H3479    1.0000 0.28779  0.62080  0.58929  Biso   1.000  H
  H3480    1.0000 0.41071  0.71221  0.62080  Biso   1.000  H
  C2177    1.0000 0.40258  0.65188  0.67129  Biso   1.000  C
  C2178    1.0000 0.10975  0.81684  0.62842  Biso   1.000  C
  C2179    1.0000 0.18316  0.87158  0.60975  Biso   1.000  C
  C2180    1.0000 0.29549  0.54939  0.66168  Biso   1.000  C
  C2181    1.0000 0.37158  0.60975  0.68316  Biso   1.000  C
  C2182    1.0000 0.45061  0.66168  0.70451  Biso   1.000  C
  C2183    1.0000 0.09742  0.84812  0.67129  Biso   1.000  C
  H3481    1.0000 0.08929  0.78779  0.62080  Biso   1.000  H
  C2184    1.0000 0.17129  0.90258  0.65188  Biso   1.000  C
  H3482    1.0000 0.21221  0.87920  0.58929  Biso   1.000  H
  N291     1.0000 0.28885  0.53436  0.71654  Biso   1.000  N
  H3483    1.0000 0.26128  0.55529  0.64669  Biso   1.000  H
  H3484    1.0000 0.31110  0.52019  0.64310  Biso   1.000  H
  H3485    1.0000 0.37920  0.58929  0.71221  Biso   1.000  H
  N292     1.0000 0.46564  0.71654  0.71115  Biso   1.000  N
  H3486    1.0000 0.44471  0.64669  0.73872  Biso   1.000  H
  H3487    1.0000 0.47981  0.64310  0.68890  Biso   1.000  H
  C2185    1.0000 0.12842  0.89025  0.68316  Biso   1.000  C
  C2186    1.0000 0.04939  0.83832  0.70451  Biso   1.000  C
  C2187    1.0000 0.20451  0.95061  0.66168  Biso   1.000  C
  C2188    1.0000 0.25000  0.57411  0.75000  Biso   1.000  C
  C2189    1.0000 0.26097  0.48614  0.72275  Biso   1.000  C
  H3488    1.0000 0.26999  0.55458  0.73302  Biso   1.000  H
  C2190    1.0000 0.42589  0.75000  0.75000  Biso   1.000  C
  C2191    1.0000 0.51386  0.72275  0.73903  Biso   1.000  C
  H3489    1.0000 0.44542  0.73302  0.73001  Biso   1.000  H
  H3490    1.0000 0.12080  0.91071  0.71221  Biso   1.000  H
  N293     1.0000 0.03436  0.78346  0.71115  Biso   1.000  N
  H3491    1.0000 0.05529  0.85331  0.73872  Biso   1.000  H
  H3492    1.0000 0.02019  0.85690  0.68890  Biso   1.000  H
  N294     1.0000 0.21115  0.96564  0.71654  Biso   1.000  N
  H3493    1.0000 0.23872  0.94471  0.64669  Biso   1.000  H
  H3494    1.0000 0.18890  0.97981  0.64310  Biso   1.000  H
  N295     1.0000 0.21115  0.53436  0.78346  Biso   1.000  N
  C2192    1.0000 0.27889  0.61541  0.77421  Biso   1.000  C
  C2193    1.0000 0.22111  0.61541  0.72579  Biso   1.000  C
  H3495    1.0000 0.23001  0.55458  0.76698  Biso   1.000  H
  H3496    1.0000 0.23181  0.48571  0.69792  Biso   1.000  H
  C2194    1.0000 0.23903  0.48614  0.77725  Biso   1.000  C
  C2195    1.0000 0.29389  0.43804  0.71388  Biso   1.000  C
  N296     1.0000 0.46564  0.78346  0.78885  Biso   1.000  N
  C2196    1.0000 0.38459  0.77421  0.72111  Biso   1.000  C
  C2197    1.0000 0.38459  0.72579  0.77889  Biso   1.000  C
  H3497    1.0000 0.44542  0.76698  0.76999  Biso   1.000  H
  H3498    1.0000 0.51429  0.69792  0.76819  Biso   1.000  H
  C2198    1.0000 0.51386  0.77725  0.76097  Biso   1.000  C
  C2199    1.0000 0.56196  0.71388  0.70611  Biso   1.000  C
  C2200    1.0000 0.98614  0.77725  0.73903  Biso   1.000  C
  C2201    1.0000 0.07411  0.75000  0.75000  Biso   1.000  C
  H3499    1.0000 0.05458  0.76698  0.73001  Biso   1.000  H
  C2202    1.0000 0.25000  0.92589  0.75000  Biso   1.000  C
  H3500    1.0000 0.23001  0.94542  0.73302  Biso   1.000  H
  C2203    1.0000 0.23903  0.01386  0.72275  Biso   1.000  C
  C2204    1.0000 0.20451  0.54939  0.83832  Biso   1.000  C
  H3501    1.0000 0.29888  0.63361  0.74820  Biso   1.000  H
  H3502    1.0000 0.30208  0.60101  0.79990  Biso   1.000  H
  H3503    1.0000 0.25519  0.63931  0.79068  Biso   1.000  H
  H3504    1.0000 0.20112  0.63361  0.75180  Biso   1.000  H
  H3505    1.0000 0.19792  0.60101  0.70010  Biso   1.000  H
  H3506    1.0000 0.24481  0.63931  0.70932  Biso   1.000  H
  H3507    1.0000 0.26819  0.48571  0.80208  Biso   1.000  H
  C2205    1.0000 0.20611  0.43804  0.78612  Biso   1.000  C
  H3508    1.0000 0.32360  0.43851  0.73731  Biso   1.000  H
  H3509    1.0000 0.30689  0.43800  0.67831  Biso   1.000  H
  C2206    1.0000 0.26140  0.38829  0.72345  Biso   1.000  C
  C2207    1.0000 0.45061  0.83832  0.79549  Biso   1.000  C
  H3510    1.0000 0.36639  0.74820  0.70112  Biso   1.000  H
  H3511    1.0000 0.39899  0.79990  0.69792  Biso   1.000  H
  H3512    1.0000 0.36069  0.79068  0.74481  Biso   1.000  H
  H3513    1.0000 0.36639  0.75180  0.79888  Biso   1.000  H
  H3514    1.0000 0.39899  0.70010  0.80208  Biso   1.000  H
  H3515    1.0000 0.36069  0.70932  0.75519  Biso   1.000  H
  H3516    1.0000 0.51429  0.80208  0.73181  Biso   1.000  H
  C2208    1.0000 0.56196  0.78612  0.79389  Biso   1.000  C
  H3517    1.0000 0.56149  0.73731  0.67640  Biso   1.000  H
  H3518    1.0000 0.56200  0.67831  0.69311  Biso   1.000  H
  C2209    1.0000 0.61171  0.72345  0.73860  Biso   1.000  C
  C2210    1.0000 0.98614  0.72275  0.76097  Biso   1.000  C
  C2211    1.0000 0.93804  0.78612  0.70611  Biso   1.000  C
  H3519    1.0000 0.98571  0.80208  0.76819  Biso   1.000  H
  N297     1.0000 0.03436  0.71654  0.78885  Biso   1.000  N
  C2212    1.0000 0.11541  0.72579  0.72111  Biso   1.000  C
  C2213    1.0000 0.11541  0.77421  0.77889  Biso   1.000  C
  H3520    1.0000 0.05458  0.73302  0.76999  Biso   1.000  H
  N298     1.0000 0.28885  0.96564  0.78346  Biso   1.000  N
  C2214    1.0000 0.22111  0.88459  0.77421  Biso   1.000  C
  C2215    1.0000 0.27889  0.88459  0.72579  Biso   1.000  C
  H3521    1.0000 0.26999  0.94542  0.76698  Biso   1.000  H
  C2216    1.0000 0.26097  0.01386  0.77725  Biso   1.000  C
  C2217    1.0000 0.20611  0.06196  0.71388  Biso   1.000  C
  H3522    1.0000 0.26819  0.01429  0.69792  Biso   1.000  H
  H3523    1.0000 0.23872  0.55529  0.85331  Biso   1.000  H
  H3524    1.0000 0.18890  0.52019  0.85690  Biso   1.000  H
  C2218    1.0000 0.17129  0.59742  0.84812  Biso   1.000  C
  H3525    1.0000 0.17640  0.43851  0.76269  Biso   1.000  H
  H3526    1.0000 0.19311  0.43800  0.82169  Biso   1.000  H
  C2219    1.0000 0.23860  0.38829  0.77655  Biso   1.000  C
  H3527    1.0000 0.23372  0.38619  0.69780  Biso   1.000  H
  H3528    1.0000 0.28362  0.35780  0.71931  Biso   1.000  H
  H3529    1.0000 0.44471  0.85331  0.76128  Biso   1.000  H
  H3530    1.0000 0.47981  0.85690  0.81110  Biso   1.000  H
  C2220    1.0000 0.40258  0.84812  0.82871  Biso   1.000  C
  H3531    1.0000 0.56149  0.76269  0.82360  Biso   1.000  H
  H3532    1.0000 0.56200  0.82169  0.80689  Biso   1.000  H
  C2221    1.0000 0.61171  0.77655  0.76140  Biso   1.000  C
  H3533    1.0000 0.61381  0.69780  0.76628  Biso   1.000  H
  H3534    1.0000 0.64220  0.71931  0.71638  Biso   1.000  H
  C2222    1.0000 0.93804  0.71388  0.79389  Biso   1.000  C
  H3535    1.0000 0.98571  0.69792  0.73181  Biso   1.000  H
  H3536    1.0000 0.93851  0.76269  0.67640  Biso   1.000  H
  H3537    1.0000 0.93800  0.82169  0.69311  Biso   1.000  H
  C2223    1.0000 0.88829  0.77655  0.73860  Biso   1.000  C
  C2224    1.0000 0.04939  0.66168  0.79549  Biso   1.000  C
  H3538    1.0000 0.13361  0.75180  0.70112  Biso   1.000  H
  H3539    1.0000 0.10101  0.70010  0.69792  Biso   1.000  H
  H3540    1.0000 0.13931  0.70932  0.74481  Biso   1.000  H
  H3541    1.0000 0.13361  0.74820  0.79888  Biso   1.000  H
  H3542    1.0000 0.10101  0.79990  0.80208  Biso   1.000  H
  H3543    1.0000 0.13931  0.79068  0.75519  Biso   1.000  H
  C2225    1.0000 0.29549  0.95061  0.83832  Biso   1.000  C
  H3544    1.0000 0.20112  0.86639  0.74820  Biso   1.000  H
  H3545    1.0000 0.19792  0.89899  0.79990  Biso   1.000  H
  H3546    1.0000 0.24481  0.86069  0.79068  Biso   1.000  H
  H3547    1.0000 0.29888  0.86639  0.75180  Biso   1.000  H
  H3548    1.0000 0.30208  0.89899  0.70010  Biso   1.000  H
  H3549    1.0000 0.25519  0.86069  0.70932  Biso   1.000  H
  C2226    1.0000 0.29389  0.06196  0.78612  Biso   1.000  C
  H3550    1.0000 0.23181  0.01429  0.80208  Biso   1.000  H
  H3551    1.0000 0.17640  0.06149  0.73731  Biso   1.000  H
  H3552    1.0000 0.19311  0.06200  0.67831  Biso   1.000  H
  C2227    1.0000 0.23860  0.11171  0.72345  Biso   1.000  C
  C2228    1.0000 0.12842  0.60975  0.81684  Biso   1.000  C
  C2229    1.0000 0.18316  0.62842  0.89025  Biso   1.000  C
  H3553    1.0000 0.26628  0.38619  0.80220  Biso   1.000  H
  H3554    1.0000 0.21638  0.35780  0.78069  Biso   1.000  H
  C2230    1.0000 0.39025  0.81684  0.87158  Biso   1.000  C
  C2231    1.0000 0.37158  0.89025  0.81684  Biso   1.000  C
  H3555    1.0000 0.61381  0.80220  0.73372  Biso   1.000  H
  H3556    1.0000 0.64220  0.78069  0.78362  Biso   1.000  H
  H3557    1.0000 0.93851  0.73731  0.82360  Biso   1.000  H
  H3558    1.0000 0.93800  0.67831  0.80689  Biso   1.000  H
  C2232    1.0000 0.88829  0.72345  0.76140  Biso   1.000  C
  H3559    1.0000 0.88619  0.80220  0.76628  Biso   1.000  H
  H3560    1.0000 0.85780  0.78069  0.71638  Biso   1.000  H
  H3561    1.0000 0.05529  0.64669  0.76128  Biso   1.000  H
  H3562    1.0000 0.02019  0.64310  0.81110  Biso   1.000  H
  C2233    1.0000 0.09742  0.65188  0.82871  Biso   1.000  C
  H3563    1.0000 0.26128  0.94471  0.85331  Biso   1.000  H
  H3564    1.0000 0.31110  0.97981  0.85690  Biso   1.000  H
  C2234    1.0000 0.32871  0.90258  0.84812  Biso   1.000  C
  H3565    1.0000 0.32360  0.06149  0.76269  Biso   1.000  H
  H3566    1.0000 0.30689  0.06200  0.82169  Biso   1.000  H
  C2235    1.0000 0.26140  0.11171  0.77655  Biso   1.000  C
  H3567    1.0000 0.26628  0.11381  0.69780  Biso   1.000  H
  H3568    1.0000 0.21638  0.14220  0.71931  Biso   1.000  H
  H3569    1.0000 0.12080  0.58929  0.78779  Biso   1.000  H
  C2236    1.0000 0.15188  0.67129  0.90258  Biso   1.000  C
  H3570    1.0000 0.21221  0.62080  0.91071  Biso   1.000  H
  C2237    1.0000 0.34812  0.82871  0.90258  Biso   1.000  C
  H3571    1.0000 0.41071  0.78779  0.87920  Biso   1.000  H
  H3572    1.0000 0.37920  0.91071  0.78779  Biso   1.000  H
  H3573    1.0000 0.88619  0.69780  0.73372  Biso   1.000  H
  H3574    1.0000 0.85780  0.71931  0.78362  Biso   1.000  H
  C2238    1.0000 0.10975  0.68316  0.87158  Biso   1.000  C
  C2239    1.0000 0.31684  0.87158  0.89025  Biso   1.000  C
  H3575    1.0000 0.23372  0.11381  0.80220  Biso   1.000  H
  H3576    1.0000 0.28362  0.14220  0.78069  Biso   1.000  H
  C2240    1.0000 0.16168  0.70451  0.95061  Biso   1.000  C
  C2241    1.0000 0.33832  0.79549  0.95061  Biso   1.000  C
  H3577    1.0000 0.08929  0.71221  0.87920  Biso   1.000  H
  H3578    1.0000 0.28779  0.87920  0.91071  Biso   1.000  H
  N299     1.0000 0.21654  0.71115  0.96564  Biso   1.000  N
  H3579    1.0000 0.14669  0.73872  0.94471  Biso   1.000  H
  H3580    1.0000 0.14310  0.68890  0.97981  Biso   1.000  H
  N300     1.0000 0.28346  0.78885  0.96564  Biso   1.000  N
  H3581    1.0000 0.35331  0.76128  0.94471  Biso   1.000  H
  H3582    1.0000 0.35690  0.81110  0.97981  Biso   1.000  H
  C2242    1.0000 0.25000  0.75000  0.92589  Biso   1.000  C
  H3583    1.0000 0.23302  0.73001  0.94542  Biso   1.000  H
  C2243    1.0000 0.22275  0.73903  0.01386  Biso   1.000  C
  H3584    1.0000 0.26698  0.76999  0.94542  Biso   1.000  H
  C2244    1.0000 0.27725  0.76097  0.01386  Biso   1.000  C
  C2245    1.0000 0.22579  0.77889  0.88459  Biso   1.000  C
  C2246    1.0000 0.27421  0.72111  0.88459  Biso   1.000  C
  C2247    1.0000 0.21388  0.70611  0.06196  Biso   1.000  C
  H3585    1.0000 0.19792  0.76819  0.01429  Biso   1.000  H
  C2248    1.0000 0.28612  0.79389  0.06196  Biso   1.000  C
  H3586    1.0000 0.30208  0.73181  0.01429  Biso   1.000  H
  H3587    1.0000 0.25180  0.79888  0.86639  Biso   1.000  H
  H3588    1.0000 0.20010  0.80208  0.89899  Biso   1.000  H
  H3589    1.0000 0.20932  0.75519  0.86069  Biso   1.000  H
  H3590    1.0000 0.24820  0.70112  0.86639  Biso   1.000  H
  H3591    1.0000 0.29990  0.69792  0.89899  Biso   1.000  H
  H3592    1.0000 0.29068  0.74481  0.86069  Biso   1.000  H
  H3593    1.0000 0.23731  0.67640  0.06149  Biso   1.000  H
  H3594    1.0000 0.17831  0.69311  0.06200  Biso   1.000  H
  C2249    1.0000 0.22345  0.73860  0.11171  Biso   1.000  C
  H3595    1.0000 0.26269  0.82360  0.06149  Biso   1.000  H
  H3596    1.0000 0.32169  0.80689  0.06200  Biso   1.000  H
  C2250    1.0000 0.27655  0.76140  0.11171  Biso   1.000  C
  H3597    1.0000 0.19780  0.76628  0.11381  Biso   1.000  H
  H3598    1.0000 0.21931  0.71638  0.14220  Biso   1.000  H
  H3599    1.0000 0.30220  0.73372  0.11381  Biso   1.000  H
  H3600    1.0000 0.28069  0.78362  0.14220  Biso   1.000  H
