data_image0
_cell_length_a       25.712
_cell_length_b       25.712
_cell_length_c       25.712
_cell_angle_alpha    90
_cell_angle_beta     90
_cell_angle_gamma    90

_symmetry_space_group_name_H-M    "P 1"
_symmetry_int_tables_number       1

loop_
  _symmetry_equiv_pos_as_xyz
  'x, y, z'

loop_
  _atom_site_label
  _atom_site_occupancy
  _atom_site_fract_x
  _atom_site_fract_y
  _atom_site_fract_z
  _atom_site_thermal_displace_type
  _atom_site_B_iso_or_equiv
  _atom_site_type_symbol
  C1       1.0000 0.39289  0.37679  0.32094  Biso   1.000  C
  C2       1.0000 0.40658  0.33331  0.35026  Biso   1.000  C
  H1       1.0000 0.41311  0.38589  0.29231  Biso   1.000  H
  C3       1.0000 0.35026  0.40658  0.33331  Biso   1.000  C
  C4       1.0000 0.45543  0.30320  0.33949  Biso   1.000  C
  C5       1.0000 0.37679  0.32094  0.39289  Biso   1.000  C
  C6       1.0000 0.32094  0.39289  0.37679  Biso   1.000  C
  C7       1.0000 0.33949  0.45543  0.30320  Biso   1.000  C
  N1       1.0000 0.46511  0.29313  0.28520  Biso   1.000  N
  H2       1.0000 0.48472  0.32230  0.35361  Biso   1.000  H
  H3       1.0000 0.45348  0.27019  0.35769  Biso   1.000  H
  H4       1.0000 0.38589  0.29231  0.41311  Biso   1.000  H
  C8       1.0000 0.33331  0.35026  0.40658  Biso   1.000  C
  H5       1.0000 0.29231  0.41311  0.38589  Biso   1.000  H
  N2       1.0000 0.28520  0.46511  0.29313  Biso   1.000  N
  H6       1.0000 0.35361  0.48472  0.32230  Biso   1.000  H
  H7       1.0000 0.35769  0.45348  0.27019  Biso   1.000  H
  H8       1.0000 0.43999  0.27999  0.27201  Biso   1.000  H
  C9       1.0000 0.51256  0.26186  0.27722  Biso   1.000  C
  C10      1.0000 0.30320  0.33949  0.45543  Biso   1.000  C
  H9       1.0000 0.27201  0.43999  0.27999  Biso   1.000  H
  C11      1.0000 0.27722  0.51256  0.26186  Biso   1.000  C
  C12      1.0000 0.51256  0.23814  0.22278  Biso   1.000  C
  H10      1.0000 0.51260  0.23351  0.30270  Biso   1.000  H
  C13      1.0000 0.56203  0.29426  0.28528  Biso   1.000  C
  N3       1.0000 0.29313  0.28520  0.46511  Biso   1.000  N
  H11      1.0000 0.32230  0.35361  0.48472  Biso   1.000  H
  H12      1.0000 0.27019  0.35769  0.45348  Biso   1.000  H
  H13      1.0000 0.30270  0.51260  0.23351  Biso   1.000  H
  C14      1.0000 0.28528  0.56203  0.29426  Biso   1.000  C
  C15      1.0000 0.22278  0.51256  0.23814  Biso   1.000  C
  N4       1.0000 0.46511  0.20687  0.21480  Biso   1.000  N
  H14      1.0000 0.51260  0.26649  0.19730  Biso   1.000  H
  C16      1.0000 0.56203  0.20574  0.21472  Biso   1.000  C
  H15      1.0000 0.56180  0.32339  0.26132  Biso   1.000  H
  H16      1.0000 0.56219  0.30811  0.32040  Biso   1.000  H
  C17      1.0000 0.61135  0.26237  0.27672  Biso   1.000  C
  H17      1.0000 0.27999  0.27201  0.43999  Biso   1.000  H
  C18      1.0000 0.26186  0.27722  0.51256  Biso   1.000  C
  H18      1.0000 0.26132  0.56180  0.32339  Biso   1.000  H
  H19      1.0000 0.32040  0.56219  0.30811  Biso   1.000  H
  C19      1.0000 0.27672  0.61135  0.26237  Biso   1.000  C
  N5       1.0000 0.21480  0.46511  0.20687  Biso   1.000  N
  H20      1.0000 0.19730  0.51260  0.26649  Biso   1.000  H
  C20      1.0000 0.21472  0.56203  0.20574  Biso   1.000  C
  H21      1.0000 0.43999  0.22001  0.22799  Biso   1.000  H
  C21      1.0000 0.45543  0.19680  0.16051  Biso   1.000  C
  H22      1.0000 0.56180  0.17661  0.23868  Biso   1.000  H
  H23      1.0000 0.56219  0.19189  0.17960  Biso   1.000  H
  C22      1.0000 0.61135  0.23763  0.22328  Biso   1.000  C
  H24      1.0000 0.64149  0.28469  0.28022  Biso   1.000  H
  H25      1.0000 0.61360  0.23542  0.30301  Biso   1.000  H
  H26      1.0000 0.23351  0.30270  0.51260  Biso   1.000  H
  C23      1.0000 0.29426  0.28528  0.56203  Biso   1.000  C
  C24      1.0000 0.23814  0.22278  0.51256  Biso   1.000  C
  H27      1.0000 0.28022  0.64149  0.28469  Biso   1.000  H
  H28      1.0000 0.30301  0.61360  0.23542  Biso   1.000  H
  C25      1.0000 0.22328  0.61135  0.23763  Biso   1.000  C
  H29      1.0000 0.22799  0.43999  0.22001  Biso   1.000  H
  C26      1.0000 0.16051  0.45543  0.19680  Biso   1.000  C
  H30      1.0000 0.23868  0.56180  0.17661  Biso   1.000  H
  H31      1.0000 0.17960  0.56219  0.19189  Biso   1.000  H
  C27      1.0000 0.40658  0.16669  0.14974  Biso   1.000  C
  H32      1.0000 0.48472  0.17770  0.14639  Biso   1.000  H
  H33      1.0000 0.45348  0.22981  0.14231  Biso   1.000  H
  H34      1.0000 0.64149  0.21531  0.21978  Biso   1.000  H
  H35      1.0000 0.61360  0.26458  0.19699  Biso   1.000  H
  H36      1.0000 0.32339  0.26132  0.56180  Biso   1.000  H
  H37      1.0000 0.30811  0.32040  0.56219  Biso   1.000  H
  C28      1.0000 0.26237  0.27672  0.61135  Biso   1.000  C
  N6       1.0000 0.20687  0.21480  0.46511  Biso   1.000  N
  H38      1.0000 0.26649  0.19730  0.51260  Biso   1.000  H
  C29      1.0000 0.20574  0.21472  0.56203  Biso   1.000  C
  H39      1.0000 0.21978  0.64149  0.21531  Biso   1.000  H
  H40      1.0000 0.19699  0.61360  0.26458  Biso   1.000  H
  C30      1.0000 0.14974  0.40658  0.16669  Biso   1.000  C
  H41      1.0000 0.14639  0.48472  0.17770  Biso   1.000  H
  H42      1.0000 0.14231  0.45348  0.22981  Biso   1.000  H
  C31      1.0000 0.39289  0.12321  0.17906  Biso   1.000  C
  C32      1.0000 0.37679  0.17906  0.10711  Biso   1.000  C
  H43      1.0000 0.28469  0.28022  0.64149  Biso   1.000  H
  H44      1.0000 0.23542  0.30301  0.61360  Biso   1.000  H
  C33      1.0000 0.23763  0.22328  0.61135  Biso   1.000  C
  H45      1.0000 0.22001  0.22799  0.43999  Biso   1.000  H
  C34      1.0000 0.19680  0.16051  0.45543  Biso   1.000  C
  H46      1.0000 0.17661  0.23868  0.56180  Biso   1.000  H
  H47      1.0000 0.19189  0.17960  0.56219  Biso   1.000  H
  C35      1.0000 0.17906  0.39289  0.12321  Biso   1.000  C
  C36      1.0000 0.10711  0.37679  0.17906  Biso   1.000  C
  H48      1.0000 0.41311  0.11411  0.20769  Biso   1.000  H
  C37      1.0000 0.35026  0.09342  0.16669  Biso   1.000  C
  H49      1.0000 0.38589  0.20769  0.08689  Biso   1.000  H
  C38      1.0000 0.33331  0.14974  0.09342  Biso   1.000  C
  H50      1.0000 0.21531  0.21978  0.64149  Biso   1.000  H
  H51      1.0000 0.26458  0.19699  0.61360  Biso   1.000  H
  C39      1.0000 0.16669  0.14974  0.40658  Biso   1.000  C
  H52      1.0000 0.17770  0.14639  0.48472  Biso   1.000  H
  H53      1.0000 0.22981  0.14231  0.45348  Biso   1.000  H
  C40      1.0000 0.16669  0.35026  0.09342  Biso   1.000  C
  H54      1.0000 0.20769  0.41311  0.11411  Biso   1.000  H
  H55      1.0000 0.08689  0.38589  0.20769  Biso   1.000  H
  C41      1.0000 0.09342  0.33331  0.14974  Biso   1.000  C
  C42      1.0000 0.32094  0.10711  0.12321  Biso   1.000  C
  C43      1.0000 0.33949  0.04457  0.19680  Biso   1.000  C
  C44      1.0000 0.30320  0.16051  0.04457  Biso   1.000  C
  C45      1.0000 0.17906  0.10711  0.37679  Biso   1.000  C
  C46      1.0000 0.12321  0.17906  0.39289  Biso   1.000  C
  C47      1.0000 0.12321  0.32094  0.10711  Biso   1.000  C
  C48      1.0000 0.19680  0.33949  0.04457  Biso   1.000  C
  C49      1.0000 0.04457  0.30320  0.16051  Biso   1.000  C
  H56      1.0000 0.29231  0.08689  0.11411  Biso   1.000  H
  N7       1.0000 0.28520  0.03489  0.20687  Biso   1.000  N
  H57      1.0000 0.35361  0.01528  0.17770  Biso   1.000  H
  H58      1.0000 0.35769  0.04652  0.22981  Biso   1.000  H
  N8       1.0000 0.29313  0.21480  0.03489  Biso   1.000  N
  H59      1.0000 0.32230  0.14639  0.01528  Biso   1.000  H
  H60      1.0000 0.27019  0.14231  0.04652  Biso   1.000  H
  H61      1.0000 0.20769  0.08689  0.38589  Biso   1.000  H
  C50      1.0000 0.14974  0.09342  0.33331  Biso   1.000  C
  H62      1.0000 0.11411  0.20769  0.41311  Biso   1.000  H
  C51      1.0000 0.09342  0.16669  0.35026  Biso   1.000  C
  H63      1.0000 0.11411  0.29231  0.08689  Biso   1.000  H
  N9       1.0000 0.20687  0.28520  0.03489  Biso   1.000  N
  H64      1.0000 0.17770  0.35361  0.01528  Biso   1.000  H
  H65      1.0000 0.22981  0.35769  0.04652  Biso   1.000  H
  N10      1.0000 0.03489  0.29313  0.21480  Biso   1.000  N
  H66      1.0000 0.01528  0.32230  0.14639  Biso   1.000  H
  H67      1.0000 0.04652  0.27019  0.14231  Biso   1.000  H
  H68      1.0000 0.27201  0.06001  0.22001  Biso   1.000  H
  C52      1.0000 0.27722  0.98744  0.23814  Biso   1.000  C
  H69      1.0000 0.27999  0.22799  0.06001  Biso   1.000  H
  C53      1.0000 0.26186  0.22278  0.98744  Biso   1.000  C
  C54      1.0000 0.16051  0.04457  0.30320  Biso   1.000  C
  C55      1.0000 0.10711  0.12321  0.32094  Biso   1.000  C
  C56      1.0000 0.04457  0.19680  0.33949  Biso   1.000  C
  C57      1.0000 0.23814  0.27722  0.98744  Biso   1.000  C
  H70      1.0000 0.22001  0.27201  0.06001  Biso   1.000  H
  H71      1.0000 0.06001  0.27999  0.22799  Biso   1.000  H
  C58      1.0000 0.98744  0.26186  0.22278  Biso   1.000  C
  H72      1.0000 0.30270  0.98740  0.26649  Biso   1.000  H
  C59      1.0000 0.28528  0.93797  0.20574  Biso   1.000  C
  C60      1.0000 0.22278  0.98744  0.26186  Biso   1.000  C
  H73      1.0000 0.23351  0.19730  0.98740  Biso   1.000  H
  C61      1.0000 0.29426  0.21472  0.93797  Biso   1.000  C
  N11      1.0000 0.21480  0.03489  0.29313  Biso   1.000  N
  H74      1.0000 0.14639  0.01528  0.32230  Biso   1.000  H
  H75      1.0000 0.14231  0.04652  0.27019  Biso   1.000  H
  H76      1.0000 0.08689  0.11411  0.29231  Biso   1.000  H
  N12      1.0000 0.03489  0.20687  0.28520  Biso   1.000  N
  H77      1.0000 0.01528  0.17770  0.35361  Biso   1.000  H
  H78      1.0000 0.04652  0.22981  0.35769  Biso   1.000  H
  H79      1.0000 0.26649  0.30270  0.98740  Biso   1.000  H
  C62      1.0000 0.20574  0.28528  0.93797  Biso   1.000  C
  C63      1.0000 0.98744  0.23814  0.27722  Biso   1.000  C
  H80      1.0000 0.98740  0.23351  0.19730  Biso   1.000  H
  C64      1.0000 0.93797  0.29426  0.21472  Biso   1.000  C
  H81      1.0000 0.26132  0.93820  0.17661  Biso   1.000  H
  H82      1.0000 0.32040  0.93781  0.19189  Biso   1.000  H
  C65      1.0000 0.27672  0.88865  0.23763  Biso   1.000  C
  H83      1.0000 0.19730  0.98740  0.23351  Biso   1.000  H
  C66      1.0000 0.21472  0.93797  0.29426  Biso   1.000  C
  H84      1.0000 0.32339  0.23868  0.93820  Biso   1.000  H
  H85      1.0000 0.30811  0.17960  0.93781  Biso   1.000  H
  C67      1.0000 0.26237  0.22328  0.88865  Biso   1.000  C
  H86      1.0000 0.22799  0.06001  0.27999  Biso   1.000  H
  H87      1.0000 0.06001  0.22001  0.27201  Biso   1.000  H
  C68      1.0000 0.23763  0.27672  0.88865  Biso   1.000  C
  H88      1.0000 0.17661  0.26132  0.93820  Biso   1.000  H
  H89      1.0000 0.19189  0.32040  0.93781  Biso   1.000  H
  H90      1.0000 0.98740  0.26649  0.30270  Biso   1.000  H
  C69      1.0000 0.93797  0.20574  0.28528  Biso   1.000  C
  H91      1.0000 0.93820  0.32339  0.23868  Biso   1.000  H
  H92      1.0000 0.93781  0.30811  0.17960  Biso   1.000  H
  C70      1.0000 0.88865  0.26237  0.22328  Biso   1.000  C
  H93      1.0000 0.28022  0.85851  0.21531  Biso   1.000  H
  H94      1.0000 0.30301  0.88640  0.26458  Biso   1.000  H
  C71      1.0000 0.22328  0.88865  0.26237  Biso   1.000  C
  H95      1.0000 0.23868  0.93820  0.32339  Biso   1.000  H
  H96      1.0000 0.17960  0.93781  0.30811  Biso   1.000  H
  H97      1.0000 0.28469  0.21978  0.85851  Biso   1.000  H
  H98      1.0000 0.23542  0.19699  0.88640  Biso   1.000  H
  H99      1.0000 0.21531  0.28022  0.85851  Biso   1.000  H
  H100     1.0000 0.26458  0.30301  0.88640  Biso   1.000  H
  H101     1.0000 0.93820  0.17661  0.26132  Biso   1.000  H
  H102     1.0000 0.93781  0.19189  0.32040  Biso   1.000  H
  C72      1.0000 0.88865  0.23763  0.27672  Biso   1.000  C
  H103     1.0000 0.85851  0.28469  0.21978  Biso   1.000  H
  H104     1.0000 0.88640  0.23542  0.19699  Biso   1.000  H
  H105     1.0000 0.21978  0.85851  0.28469  Biso   1.000  H
  H106     1.0000 0.19699  0.88640  0.23542  Biso   1.000  H
  H107     1.0000 0.85851  0.21531  0.28022  Biso   1.000  H
  H108     1.0000 0.88640  0.26458  0.30301  Biso   1.000  H
  C73      1.0000 0.51237  0.36135  0.47328  Biso   1.000  C
  C74      1.0000 0.54426  0.31203  0.46472  Biso   1.000  C
  H109     1.0000 0.53469  0.39149  0.46978  Biso   1.000  H
  H110     1.0000 0.48542  0.36360  0.44699  Biso   1.000  H
  C75      1.0000 0.48763  0.36135  0.52672  Biso   1.000  C
  C76      1.0000 0.51186  0.26256  0.47278  Biso   1.000  C
  H111     1.0000 0.57339  0.31180  0.48868  Biso   1.000  H
  H112     1.0000 0.55811  0.31219  0.42960  Biso   1.000  H
  C77      1.0000 0.45574  0.31203  0.53528  Biso   1.000  C
  H113     1.0000 0.46531  0.39149  0.53022  Biso   1.000  H
  H114     1.0000 0.51458  0.36360  0.55301  Biso   1.000  H
  N13      1.0000 0.54313  0.21511  0.46480  Biso   1.000  N
  H115     1.0000 0.48351  0.26260  0.44730  Biso   1.000  H
  C78      1.0000 0.48814  0.26256  0.52722  Biso   1.000  C
  H116     1.0000 0.42661  0.31180  0.51132  Biso   1.000  H
  H117     1.0000 0.44189  0.31219  0.57040  Biso   1.000  H
  H118     1.0000 0.52999  0.18999  0.47799  Biso   1.000  H
  C79      1.0000 0.55320  0.20543  0.41051  Biso   1.000  C
  N14      1.0000 0.45687  0.21511  0.53520  Biso   1.000  N
  H119     1.0000 0.51649  0.26260  0.55270  Biso   1.000  H
  C80      1.0000 0.58331  0.15658  0.39974  Biso   1.000  C
  H120     1.0000 0.57230  0.23472  0.39639  Biso   1.000  H
  H121     1.0000 0.52019  0.20348  0.39231  Biso   1.000  H
  H122     1.0000 0.47001  0.18999  0.52201  Biso   1.000  H
  C81      1.0000 0.44680  0.20543  0.58949  Biso   1.000  C
  C82      1.0000 0.62679  0.14289  0.42906  Biso   1.000  C
  C83      1.0000 0.57094  0.12679  0.35711  Biso   1.000  C
  C84      1.0000 0.41669  0.15658  0.60026  Biso   1.000  C
  H123     1.0000 0.42770  0.23472  0.60361  Biso   1.000  H
  H124     1.0000 0.47981  0.20348  0.60769  Biso   1.000  H
  H125     1.0000 0.63589  0.16311  0.45769  Biso   1.000  H
  C85      1.0000 0.65658  0.10026  0.41669  Biso   1.000  C
  H126     1.0000 0.54231  0.13589  0.33689  Biso   1.000  H
  C86      1.0000 0.60026  0.08331  0.34342  Biso   1.000  C
  C87      1.0000 0.37321  0.14289  0.57094  Biso   1.000  C
  C88      1.0000 0.42906  0.12679  0.64289  Biso   1.000  C
  C89      1.0000 0.64289  0.07094  0.37321  Biso   1.000  C
  C90      1.0000 0.70543  0.08949  0.44680  Biso   1.000  C
  C91      1.0000 0.58949  0.05320  0.29457  Biso   1.000  C
  H127     1.0000 0.36411  0.16311  0.54231  Biso   1.000  H
  C92      1.0000 0.34342  0.10026  0.58331  Biso   1.000  C
  H128     1.0000 0.45769  0.13589  0.66311  Biso   1.000  H
  C93      1.0000 0.39974  0.08331  0.65658  Biso   1.000  C
  H129     1.0000 0.66311  0.04231  0.36411  Biso   1.000  H
  N15      1.0000 0.71511  0.03520  0.45687  Biso   1.000  N
  H130     1.0000 0.73472  0.10361  0.42770  Biso   1.000  H
  H131     1.0000 0.70348  0.10769  0.47981  Biso   1.000  H
  N16      1.0000 0.53520  0.04313  0.28489  Biso   1.000  N
  H132     1.0000 0.60361  0.07230  0.26528  Biso   1.000  H
  H133     1.0000 0.60769  0.02019  0.29652  Biso   1.000  H
  C94      1.0000 0.35711  0.07094  0.62679  Biso   1.000  C
  C95      1.0000 0.29457  0.08949  0.55320  Biso   1.000  C
  C96      1.0000 0.41051  0.05320  0.70543  Biso   1.000  C
  H134     1.0000 0.68999  0.02201  0.47001  Biso   1.000  H
  C97      1.0000 0.76256  0.02722  0.48814  Biso   1.000  C
  H135     1.0000 0.52201  0.02999  0.31001  Biso   1.000  H
  C98      1.0000 0.52722  0.01186  0.23744  Biso   1.000  C
  H136     1.0000 0.33689  0.04231  0.63589  Biso   1.000  H
  N17      1.0000 0.28489  0.03520  0.54313  Biso   1.000  N
  H137     1.0000 0.26528  0.10361  0.57230  Biso   1.000  H
  H138     1.0000 0.29652  0.10769  0.52019  Biso   1.000  H
  N18      1.0000 0.46480  0.04313  0.71511  Biso   1.000  N
  H139     1.0000 0.39639  0.07230  0.73472  Biso   1.000  H
  H140     1.0000 0.39231  0.02019  0.70348  Biso   1.000  H
  H141     1.0000 0.76260  0.05270  0.51649  Biso   1.000  H
  C99      1.0000 0.81203  0.03528  0.45574  Biso   1.000  C
  C100     1.0000 0.76256  0.97278  0.51186  Biso   1.000  C
  C101     1.0000 0.53528  0.04426  0.18797  Biso   1.000  C
  H142     1.0000 0.55270  0.98351  0.23740  Biso   1.000  H
  C102     1.0000 0.47278  0.98814  0.23744  Biso   1.000  C
  H143     1.0000 0.31001  0.02201  0.52999  Biso   1.000  H
  C103     1.0000 0.23744  0.02722  0.51186  Biso   1.000  C
  H144     1.0000 0.47799  0.02999  0.68999  Biso   1.000  H
  C104     1.0000 0.47278  0.01186  0.76256  Biso   1.000  C
  H145     1.0000 0.81180  0.01132  0.42661  Biso   1.000  H
  H146     1.0000 0.81219  0.07040  0.44189  Biso   1.000  H
  C105     1.0000 0.86135  0.02672  0.48763  Biso   1.000  C
  N19      1.0000 0.71511  0.96480  0.54313  Biso   1.000  N
  H147     1.0000 0.76260  0.94730  0.48351  Biso   1.000  H
  C106     1.0000 0.81203  0.96472  0.54426  Biso   1.000  C
  H148     1.0000 0.51132  0.07339  0.18820  Biso   1.000  H
  H149     1.0000 0.57040  0.05811  0.18781  Biso   1.000  H
  C107     1.0000 0.52672  0.01237  0.13865  Biso   1.000  C
  H150     1.0000 0.44730  0.01649  0.23740  Biso   1.000  H
  N20      1.0000 0.46480  0.95687  0.28489  Biso   1.000  N
  C108     1.0000 0.46472  0.95574  0.18797  Biso   1.000  C
  H151     1.0000 0.23740  0.05270  0.48351  Biso   1.000  H
  C109     1.0000 0.18797  0.03528  0.54426  Biso   1.000  C
  C110     1.0000 0.23744  0.97278  0.48814  Biso   1.000  C
  C111     1.0000 0.46472  0.04426  0.81203  Biso   1.000  C
  H152     1.0000 0.44730  0.98351  0.76260  Biso   1.000  H
  C112     1.0000 0.52722  0.98814  0.76256  Biso   1.000  C
  H153     1.0000 0.89149  0.03022  0.46531  Biso   1.000  H
  H154     1.0000 0.86360  0.05301  0.51458  Biso   1.000  H
  C113     1.0000 0.86135  0.97328  0.51237  Biso   1.000  C
  H155     1.0000 0.68999  0.97799  0.52999  Biso   1.000  H
  C114     1.0000 0.70543  0.91051  0.55320  Biso   1.000  C
  H156     1.0000 0.81180  0.98868  0.57339  Biso   1.000  H
  H157     1.0000 0.81219  0.92960  0.55811  Biso   1.000  H
  H158     1.0000 0.53022  0.03469  0.10851  Biso   1.000  H
  H159     1.0000 0.55301  0.98542  0.13640  Biso   1.000  H
  C115     1.0000 0.47328  0.98763  0.13865  Biso   1.000  C
  H160     1.0000 0.47799  0.97001  0.31001  Biso   1.000  H
  C116     1.0000 0.41051  0.94680  0.29457  Biso   1.000  C
  H161     1.0000 0.48868  0.92661  0.18820  Biso   1.000  H
  H162     1.0000 0.42960  0.94189  0.18781  Biso   1.000  H
  H163     1.0000 0.18820  0.01132  0.57339  Biso   1.000  H
  H164     1.0000 0.18781  0.07040  0.55811  Biso   1.000  H
  C117     1.0000 0.13865  0.02672  0.51237  Biso   1.000  C
  N21      1.0000 0.28489  0.96480  0.45687  Biso   1.000  N
  H165     1.0000 0.23740  0.94730  0.51649  Biso   1.000  H
  C118     1.0000 0.18797  0.96472  0.45574  Biso   1.000  C
  H166     1.0000 0.48868  0.07339  0.81180  Biso   1.000  H
  H167     1.0000 0.42960  0.05811  0.81219  Biso   1.000  H
  C119     1.0000 0.47328  0.01237  0.86135  Biso   1.000  C
  H168     1.0000 0.55270  0.01649  0.76260  Biso   1.000  H
  N22      1.0000 0.53520  0.95687  0.71511  Biso   1.000  N
  C120     1.0000 0.53528  0.95574  0.81203  Biso   1.000  C
  H169     1.0000 0.89149  0.96978  0.53469  Biso   1.000  H
  H170     1.0000 0.86360  0.94699  0.48542  Biso   1.000  H
  C121     1.0000 0.65658  0.89974  0.58331  Biso   1.000  C
  H171     1.0000 0.73472  0.89639  0.57230  Biso   1.000  H
  H172     1.0000 0.70348  0.89231  0.52019  Biso   1.000  H
  H173     1.0000 0.44699  0.01458  0.13640  Biso   1.000  H
  H174     1.0000 0.46978  0.96531  0.10851  Biso   1.000  H
  C122     1.0000 0.39974  0.91669  0.34342  Biso   1.000  C
  H175     1.0000 0.39639  0.92770  0.26528  Biso   1.000  H
  H176     1.0000 0.39231  0.97981  0.29652  Biso   1.000  H
  H177     1.0000 0.10851  0.03022  0.53469  Biso   1.000  H
  H178     1.0000 0.13640  0.05301  0.48542  Biso   1.000  H
  C123     1.0000 0.13865  0.97328  0.48763  Biso   1.000  C
  H179     1.0000 0.31001  0.97799  0.47001  Biso   1.000  H
  C124     1.0000 0.29457  0.91051  0.44680  Biso   1.000  C
  H180     1.0000 0.18820  0.98868  0.42661  Biso   1.000  H
  H181     1.0000 0.18781  0.92960  0.44189  Biso   1.000  H
  H182     1.0000 0.46978  0.03469  0.89149  Biso   1.000  H
  H183     1.0000 0.44699  0.98542  0.86360  Biso   1.000  H
  C125     1.0000 0.52672  0.98763  0.86135  Biso   1.000  C
  H184     1.0000 0.52201  0.97001  0.68999  Biso   1.000  H
  C126     1.0000 0.58949  0.94680  0.70543  Biso   1.000  C
  H185     1.0000 0.51132  0.92661  0.81180  Biso   1.000  H
  H186     1.0000 0.57040  0.94189  0.81219  Biso   1.000  H
  C127     1.0000 0.64289  0.92906  0.62679  Biso   1.000  C
  C128     1.0000 0.62679  0.85711  0.57094  Biso   1.000  C
  C129     1.0000 0.42906  0.87321  0.35711  Biso   1.000  C
  C130     1.0000 0.35711  0.92906  0.37321  Biso   1.000  C
  H187     1.0000 0.10851  0.96978  0.46531  Biso   1.000  H
  H188     1.0000 0.13640  0.94699  0.51458  Biso   1.000  H
  C131     1.0000 0.34342  0.89974  0.41669  Biso   1.000  C
  H189     1.0000 0.26528  0.89639  0.42770  Biso   1.000  H
  H190     1.0000 0.29652  0.89231  0.47981  Biso   1.000  H
  H191     1.0000 0.55301  0.01458  0.86360  Biso   1.000  H
  H192     1.0000 0.53022  0.96531  0.89149  Biso   1.000  H
  C132     1.0000 0.60026  0.91669  0.65658  Biso   1.000  C
  H193     1.0000 0.60361  0.92770  0.73472  Biso   1.000  H
  H194     1.0000 0.60769  0.97981  0.70348  Biso   1.000  H
  H195     1.0000 0.66311  0.95769  0.63589  Biso   1.000  H
  H196     1.0000 0.63589  0.83689  0.54231  Biso   1.000  H
  C133     1.0000 0.58331  0.84342  0.60026  Biso   1.000  C
  H197     1.0000 0.45769  0.86411  0.33689  Biso   1.000  H
  C134     1.0000 0.41669  0.84342  0.39974  Biso   1.000  C
  H198     1.0000 0.33689  0.95769  0.36411  Biso   1.000  H
  C135     1.0000 0.37321  0.85711  0.42906  Biso   1.000  C
  C136     1.0000 0.57094  0.87321  0.64289  Biso   1.000  C
  C137     1.0000 0.55320  0.79457  0.58949  Biso   1.000  C
  C138     1.0000 0.44680  0.79457  0.41051  Biso   1.000  C
  H199     1.0000 0.36411  0.83689  0.45769  Biso   1.000  H
  H200     1.0000 0.54231  0.86411  0.66311  Biso   1.000  H
  N23      1.0000 0.54313  0.78489  0.53520  Biso   1.000  N
  H201     1.0000 0.57230  0.76528  0.60361  Biso   1.000  H
  H202     1.0000 0.52019  0.79652  0.60769  Biso   1.000  H
  N24      1.0000 0.45687  0.78489  0.46480  Biso   1.000  N
  H203     1.0000 0.42770  0.76528  0.39639  Biso   1.000  H
  H204     1.0000 0.47981  0.79652  0.39231  Biso   1.000  H
  H205     1.0000 0.52999  0.81001  0.52201  Biso   1.000  H
  C139     1.0000 0.51186  0.73744  0.52722  Biso   1.000  C
  H206     1.0000 0.47001  0.81001  0.47799  Biso   1.000  H
  C140     1.0000 0.48814  0.73744  0.47278  Biso   1.000  C
  H207     1.0000 0.48351  0.73740  0.55270  Biso   1.000  H
  C141     1.0000 0.54426  0.68797  0.53528  Biso   1.000  C
  H208     1.0000 0.51649  0.73740  0.44730  Biso   1.000  H
  C142     1.0000 0.45574  0.68797  0.46472  Biso   1.000  C
  H209     1.0000 0.57339  0.68820  0.51132  Biso   1.000  H
  H210     1.0000 0.55811  0.68781  0.57040  Biso   1.000  H
  C143     1.0000 0.51237  0.63865  0.52672  Biso   1.000  C
  H211     1.0000 0.42661  0.68820  0.48868  Biso   1.000  H
  H212     1.0000 0.44189  0.68781  0.42960  Biso   1.000  H
  C144     1.0000 0.48763  0.63865  0.47328  Biso   1.000  C
  H213     1.0000 0.53469  0.60851  0.53022  Biso   1.000  H
  H214     1.0000 0.48542  0.63640  0.55301  Biso   1.000  H
  H215     1.0000 0.46531  0.60851  0.46978  Biso   1.000  H
  H216     1.0000 0.51458  0.63640  0.44699  Biso   1.000  H
  C145     1.0000 0.51237  0.36135  0.47328  Biso   1.000  C
  C146     1.0000 0.54426  0.31203  0.46472  Biso   1.000  C
  H217     1.0000 0.53469  0.39149  0.46978  Biso   1.000  H
  H218     1.0000 0.48542  0.36360  0.44699  Biso   1.000  H
  C147     1.0000 0.48763  0.36135  0.52672  Biso   1.000  C
  C148     1.0000 0.51186  0.26256  0.47278  Biso   1.000  C
  H219     1.0000 0.57339  0.31180  0.48868  Biso   1.000  H
  H220     1.0000 0.55811  0.31219  0.42960  Biso   1.000  H
  C149     1.0000 0.45574  0.31203  0.53528  Biso   1.000  C
  H221     1.0000 0.46531  0.39149  0.53022  Biso   1.000  H
  H222     1.0000 0.51458  0.36360  0.55301  Biso   1.000  H
  N25      1.0000 0.54313  0.21511  0.46480  Biso   1.000  N
  H223     1.0000 0.48351  0.26260  0.44730  Biso   1.000  H
  C150     1.0000 0.48814  0.26256  0.52722  Biso   1.000  C
  H224     1.0000 0.42661  0.31180  0.51132  Biso   1.000  H
  H225     1.0000 0.44189  0.31219  0.57040  Biso   1.000  H
  H226     1.0000 0.52999  0.18999  0.47799  Biso   1.000  H
  C151     1.0000 0.55320  0.20543  0.41051  Biso   1.000  C
  N26      1.0000 0.45687  0.21511  0.53520  Biso   1.000  N
  H227     1.0000 0.51649  0.26260  0.55270  Biso   1.000  H
  C152     1.0000 0.58331  0.15658  0.39974  Biso   1.000  C
  H228     1.0000 0.57230  0.23472  0.39639  Biso   1.000  H
  H229     1.0000 0.52019  0.20348  0.39231  Biso   1.000  H
  H230     1.0000 0.47001  0.18999  0.52201  Biso   1.000  H
  C153     1.0000 0.44680  0.20543  0.58949  Biso   1.000  C
  C154     1.0000 0.62679  0.14289  0.42906  Biso   1.000  C
  C155     1.0000 0.57094  0.12679  0.35711  Biso   1.000  C
  C156     1.0000 0.41669  0.15658  0.60026  Biso   1.000  C
  H231     1.0000 0.42770  0.23472  0.60361  Biso   1.000  H
  H232     1.0000 0.47981  0.20348  0.60769  Biso   1.000  H
  H233     1.0000 0.63589  0.16311  0.45769  Biso   1.000  H
  C157     1.0000 0.65658  0.10026  0.41669  Biso   1.000  C
  H234     1.0000 0.54231  0.13589  0.33689  Biso   1.000  H
  C158     1.0000 0.60026  0.08331  0.34342  Biso   1.000  C
  C159     1.0000 0.37321  0.14289  0.57094  Biso   1.000  C
  C160     1.0000 0.42906  0.12679  0.64289  Biso   1.000  C
  C161     1.0000 0.64289  0.07094  0.37321  Biso   1.000  C
  C162     1.0000 0.70543  0.08949  0.44680  Biso   1.000  C
  C163     1.0000 0.58949  0.05320  0.29457  Biso   1.000  C
  H235     1.0000 0.36411  0.16311  0.54231  Biso   1.000  H
  C164     1.0000 0.34342  0.10026  0.58331  Biso   1.000  C
  H236     1.0000 0.45769  0.13589  0.66311  Biso   1.000  H
  C165     1.0000 0.39974  0.08331  0.65658  Biso   1.000  C
  H237     1.0000 0.66311  0.04231  0.36411  Biso   1.000  H
  N27      1.0000 0.71511  0.03520  0.45687  Biso   1.000  N
  H238     1.0000 0.73472  0.10361  0.42770  Biso   1.000  H
  H239     1.0000 0.70348  0.10769  0.47981  Biso   1.000  H
  N28      1.0000 0.53520  0.04313  0.28489  Biso   1.000  N
  H240     1.0000 0.60361  0.07230  0.26528  Biso   1.000  H
  H241     1.0000 0.60769  0.02019  0.29652  Biso   1.000  H
  C166     1.0000 0.35711  0.07094  0.62679  Biso   1.000  C
  C167     1.0000 0.29457  0.08949  0.55320  Biso   1.000  C
  C168     1.0000 0.41051  0.05320  0.70543  Biso   1.000  C
  H242     1.0000 0.68999  0.02201  0.47001  Biso   1.000  H
  C169     1.0000 0.76256  0.02722  0.48814  Biso   1.000  C
  H243     1.0000 0.52201  0.02999  0.31001  Biso   1.000  H
  C170     1.0000 0.52722  0.01186  0.23744  Biso   1.000  C
  H244     1.0000 0.33689  0.04231  0.63589  Biso   1.000  H
  N29      1.0000 0.28489  0.03520  0.54313  Biso   1.000  N
  H245     1.0000 0.26528  0.10361  0.57230  Biso   1.000  H
  H246     1.0000 0.29652  0.10769  0.52019  Biso   1.000  H
  N30      1.0000 0.46480  0.04313  0.71511  Biso   1.000  N
  H247     1.0000 0.39639  0.07230  0.73472  Biso   1.000  H
  H248     1.0000 0.39231  0.02019  0.70348  Biso   1.000  H
  H249     1.0000 0.76260  0.05270  0.51649  Biso   1.000  H
  C171     1.0000 0.81203  0.03528  0.45574  Biso   1.000  C
  C172     1.0000 0.76256  0.97278  0.51186  Biso   1.000  C
  C173     1.0000 0.53528  0.04426  0.18797  Biso   1.000  C
  H250     1.0000 0.55270  0.98351  0.23740  Biso   1.000  H
  C174     1.0000 0.47278  0.98814  0.23744  Biso   1.000  C
  H251     1.0000 0.31001  0.02201  0.52999  Biso   1.000  H
  C175     1.0000 0.23744  0.02722  0.51186  Biso   1.000  C
  H252     1.0000 0.47799  0.02999  0.68999  Biso   1.000  H
  C176     1.0000 0.47278  0.01186  0.76256  Biso   1.000  C
  H253     1.0000 0.81180  0.01132  0.42661  Biso   1.000  H
  H254     1.0000 0.81219  0.07040  0.44189  Biso   1.000  H
  C177     1.0000 0.86135  0.02672  0.48763  Biso   1.000  C
  N31      1.0000 0.71511  0.96480  0.54313  Biso   1.000  N
  H255     1.0000 0.76260  0.94730  0.48351  Biso   1.000  H
  C178     1.0000 0.81203  0.96472  0.54426  Biso   1.000  C
  H256     1.0000 0.51132  0.07339  0.18820  Biso   1.000  H
  H257     1.0000 0.57040  0.05811  0.18781  Biso   1.000  H
  C179     1.0000 0.52672  0.01237  0.13865  Biso   1.000  C
  H258     1.0000 0.44730  0.01649  0.23740  Biso   1.000  H
  N32      1.0000 0.46480  0.95687  0.28489  Biso   1.000  N
  C180     1.0000 0.46472  0.95574  0.18797  Biso   1.000  C
  H259     1.0000 0.23740  0.05270  0.48351  Biso   1.000  H
  C181     1.0000 0.18797  0.03528  0.54426  Biso   1.000  C
  C182     1.0000 0.23744  0.97278  0.48814  Biso   1.000  C
  C183     1.0000 0.46472  0.04426  0.81203  Biso   1.000  C
  H260     1.0000 0.44730  0.98351  0.76260  Biso   1.000  H
  C184     1.0000 0.52722  0.98814  0.76256  Biso   1.000  C
  H261     1.0000 0.89149  0.03022  0.46531  Biso   1.000  H
  H262     1.0000 0.86360  0.05301  0.51458  Biso   1.000  H
  C185     1.0000 0.86135  0.97328  0.51237  Biso   1.000  C
  H263     1.0000 0.68999  0.97799  0.52999  Biso   1.000  H
  C186     1.0000 0.70543  0.91051  0.55320  Biso   1.000  C
  H264     1.0000 0.81180  0.98868  0.57339  Biso   1.000  H
  H265     1.0000 0.81219  0.92960  0.55811  Biso   1.000  H
  H266     1.0000 0.53022  0.03469  0.10851  Biso   1.000  H
  H267     1.0000 0.55301  0.98542  0.13640  Biso   1.000  H
  C187     1.0000 0.47328  0.98763  0.13865  Biso   1.000  C
  H268     1.0000 0.47799  0.97001  0.31001  Biso   1.000  H
  C188     1.0000 0.41051  0.94680  0.29457  Biso   1.000  C
  H269     1.0000 0.48868  0.92661  0.18820  Biso   1.000  H
  H270     1.0000 0.42960  0.94189  0.18781  Biso   1.000  H
  H271     1.0000 0.18820  0.01132  0.57339  Biso   1.000  H
  H272     1.0000 0.18781  0.07040  0.55811  Biso   1.000  H
  C189     1.0000 0.13865  0.02672  0.51237  Biso   1.000  C
  N33      1.0000 0.28489  0.96480  0.45687  Biso   1.000  N
  H273     1.0000 0.23740  0.94730  0.51649  Biso   1.000  H
  C190     1.0000 0.18797  0.96472  0.45574  Biso   1.000  C
  H274     1.0000 0.48868  0.07339  0.81180  Biso   1.000  H
  H275     1.0000 0.42960  0.05811  0.81219  Biso   1.000  H
  C191     1.0000 0.47328  0.01237  0.86135  Biso   1.000  C
  H276     1.0000 0.55270  0.01649  0.76260  Biso   1.000  H
  N34      1.0000 0.53520  0.95687  0.71511  Biso   1.000  N
  C192     1.0000 0.53528  0.95574  0.81203  Biso   1.000  C
  H277     1.0000 0.89149  0.96978  0.53469  Biso   1.000  H
  H278     1.0000 0.86360  0.94699  0.48542  Biso   1.000  H
  C193     1.0000 0.65658  0.89974  0.58331  Biso   1.000  C
  H279     1.0000 0.73472  0.89639  0.57230  Biso   1.000  H
  H280     1.0000 0.70348  0.89231  0.52019  Biso   1.000  H
  H281     1.0000 0.44699  0.01458  0.13640  Biso   1.000  H
  H282     1.0000 0.46978  0.96531  0.10851  Biso   1.000  H
  C194     1.0000 0.39974  0.91669  0.34342  Biso   1.000  C
  H283     1.0000 0.39639  0.92770  0.26528  Biso   1.000  H
  H284     1.0000 0.39231  0.97981  0.29652  Biso   1.000  H
  H285     1.0000 0.10851  0.03022  0.53469  Biso   1.000  H
  H286     1.0000 0.13640  0.05301  0.48542  Biso   1.000  H
  C195     1.0000 0.13865  0.97328  0.48763  Biso   1.000  C
  H287     1.0000 0.31001  0.97799  0.47001  Biso   1.000  H
  C196     1.0000 0.29457  0.91051  0.44680  Biso   1.000  C
  H288     1.0000 0.18820  0.98868  0.42661  Biso   1.000  H
  H289     1.0000 0.18781  0.92960  0.44189  Biso   1.000  H
  H290     1.0000 0.46978  0.03469  0.89149  Biso   1.000  H
  H291     1.0000 0.44699  0.98542  0.86360  Biso   1.000  H
  C197     1.0000 0.52672  0.98763  0.86135  Biso   1.000  C
  H292     1.0000 0.52201  0.97001  0.68999  Biso   1.000  H
  C198     1.0000 0.58949  0.94680  0.70543  Biso   1.000  C
  H293     1.0000 0.51132  0.92661  0.81180  Biso   1.000  H
  H294     1.0000 0.57040  0.94189  0.81219  Biso   1.000  H
  C199     1.0000 0.64289  0.92906  0.62679  Biso   1.000  C
  C200     1.0000 0.62679  0.85711  0.57094  Biso   1.000  C
  C201     1.0000 0.42906  0.87321  0.35711  Biso   1.000  C
  C202     1.0000 0.35711  0.92906  0.37321  Biso   1.000  C
  H295     1.0000 0.10851  0.96978  0.46531  Biso   1.000  H
  H296     1.0000 0.13640  0.94699  0.51458  Biso   1.000  H
  C203     1.0000 0.34342  0.89974  0.41669  Biso   1.000  C
  H297     1.0000 0.26528  0.89639  0.42770  Biso   1.000  H
  H298     1.0000 0.29652  0.89231  0.47981  Biso   1.000  H
  H299     1.0000 0.55301  0.01458  0.86360  Biso   1.000  H
  H300     1.0000 0.53022  0.96531  0.89149  Biso   1.000  H
  C204     1.0000 0.60026  0.91669  0.65658  Biso   1.000  C
  H301     1.0000 0.60361  0.92770  0.73472  Biso   1.000  H
  H302     1.0000 0.60769  0.97981  0.70348  Biso   1.000  H
  H303     1.0000 0.66311  0.95769  0.63589  Biso   1.000  H
  H304     1.0000 0.63589  0.83689  0.54231  Biso   1.000  H
  C205     1.0000 0.58331  0.84342  0.60026  Biso   1.000  C
  H305     1.0000 0.45769  0.86411  0.33689  Biso   1.000  H
  C206     1.0000 0.41669  0.84342  0.39974  Biso   1.000  C
  H306     1.0000 0.33689  0.95769  0.36411  Biso   1.000  H
  C207     1.0000 0.37321  0.85711  0.42906  Biso   1.000  C
  C208     1.0000 0.57094  0.87321  0.64289  Biso   1.000  C
  C209     1.0000 0.55320  0.79457  0.58949  Biso   1.000  C
  C210     1.0000 0.44680  0.79457  0.41051  Biso   1.000  C
  H307     1.0000 0.36411  0.83689  0.45769  Biso   1.000  H
  H308     1.0000 0.54231  0.86411  0.66311  Biso   1.000  H
  N35      1.0000 0.54313  0.78489  0.53520  Biso   1.000  N
  H309     1.0000 0.57230  0.76528  0.60361  Biso   1.000  H
  H310     1.0000 0.52019  0.79652  0.60769  Biso   1.000  H
  N36      1.0000 0.45687  0.78489  0.46480  Biso   1.000  N
  H311     1.0000 0.42770  0.76528  0.39639  Biso   1.000  H
  H312     1.0000 0.47981  0.79652  0.39231  Biso   1.000  H
  H313     1.0000 0.52999  0.81001  0.52201  Biso   1.000  H
  C211     1.0000 0.51186  0.73744  0.52722  Biso   1.000  C
  H314     1.0000 0.47001  0.81001  0.47799  Biso   1.000  H
  C212     1.0000 0.48814  0.73744  0.47278  Biso   1.000  C
  H315     1.0000 0.48351  0.73740  0.55270  Biso   1.000  H
  C213     1.0000 0.54426  0.68797  0.53528  Biso   1.000  C
  H316     1.0000 0.51649  0.73740  0.44730  Biso   1.000  H
  C214     1.0000 0.45574  0.68797  0.46472  Biso   1.000  C
  H317     1.0000 0.57339  0.68820  0.51132  Biso   1.000  H
  H318     1.0000 0.55811  0.68781  0.57040  Biso   1.000  H
  C215     1.0000 0.51237  0.63865  0.52672  Biso   1.000  C
  H319     1.0000 0.42661  0.68820  0.48868  Biso   1.000  H
  H320     1.0000 0.44189  0.68781  0.42960  Biso   1.000  H
  C216     1.0000 0.48763  0.63865  0.47328  Biso   1.000  C
  H321     1.0000 0.53469  0.60851  0.53022  Biso   1.000  H
  H322     1.0000 0.48542  0.63640  0.55301  Biso   1.000  H
  H323     1.0000 0.46531  0.60851  0.46978  Biso   1.000  H
  H324     1.0000 0.51458  0.63640  0.44699  Biso   1.000  H
  C217     1.0000 0.47328  0.51237  0.36135  Biso   1.000  C
  C218     1.0000 0.52672  0.48763  0.36135  Biso   1.000  C
  C219     1.0000 0.46472  0.54426  0.31203  Biso   1.000  C
  H325     1.0000 0.46978  0.53469  0.39149  Biso   1.000  H
  H326     1.0000 0.44699  0.48542  0.36360  Biso   1.000  H
  C220     1.0000 0.53528  0.45574  0.31203  Biso   1.000  C
  H327     1.0000 0.53022  0.46531  0.39149  Biso   1.000  H
  H328     1.0000 0.55301  0.51458  0.36360  Biso   1.000  H
  C221     1.0000 0.47278  0.51186  0.26256  Biso   1.000  C
  H329     1.0000 0.48868  0.57339  0.31180  Biso   1.000  H
  H330     1.0000 0.42960  0.55811  0.31219  Biso   1.000  H
  C222     1.0000 0.52722  0.48814  0.26256  Biso   1.000  C
  H331     1.0000 0.51132  0.42661  0.31180  Biso   1.000  H
  H332     1.0000 0.57040  0.44189  0.31219  Biso   1.000  H
  N37      1.0000 0.46480  0.54313  0.21511  Biso   1.000  N
  H333     1.0000 0.44730  0.48351  0.26260  Biso   1.000  H
  N38      1.0000 0.53520  0.45687  0.21511  Biso   1.000  N
  H334     1.0000 0.55270  0.51649  0.26260  Biso   1.000  H
  H335     1.0000 0.47799  0.52999  0.18999  Biso   1.000  H
  C223     1.0000 0.41051  0.55320  0.20543  Biso   1.000  C
  C224     1.0000 0.58949  0.44680  0.20543  Biso   1.000  C
  H336     1.0000 0.52201  0.47001  0.18999  Biso   1.000  H
  C225     1.0000 0.39974  0.58331  0.15658  Biso   1.000  C
  H337     1.0000 0.39639  0.57230  0.23472  Biso   1.000  H
  H338     1.0000 0.39231  0.52019  0.20348  Biso   1.000  H
  C226     1.0000 0.60026  0.41669  0.15658  Biso   1.000  C
  H339     1.0000 0.60361  0.42770  0.23472  Biso   1.000  H
  H340     1.0000 0.60769  0.47981  0.20348  Biso   1.000  H
  C227     1.0000 0.35711  0.57094  0.12679  Biso   1.000  C
  C228     1.0000 0.42906  0.62679  0.14289  Biso   1.000  C
  C229     1.0000 0.57094  0.37321  0.14289  Biso   1.000  C
  C230     1.0000 0.64289  0.42906  0.12679  Biso   1.000  C
  C231     1.0000 0.34342  0.60026  0.08331  Biso   1.000  C
  H341     1.0000 0.33689  0.54231  0.13589  Biso   1.000  H
  H342     1.0000 0.45769  0.63589  0.16311  Biso   1.000  H
  C232     1.0000 0.41669  0.65658  0.10026  Biso   1.000  C
  C233     1.0000 0.58331  0.34342  0.10026  Biso   1.000  C
  H343     1.0000 0.54231  0.36411  0.16311  Biso   1.000  H
  C234     1.0000 0.65658  0.39974  0.08331  Biso   1.000  C
  H344     1.0000 0.66311  0.45769  0.13589  Biso   1.000  H
  C235     1.0000 0.29457  0.58949  0.05320  Biso   1.000  C
  C236     1.0000 0.37321  0.64289  0.07094  Biso   1.000  C
  C237     1.0000 0.44680  0.70543  0.08949  Biso   1.000  C
  C238     1.0000 0.55320  0.29457  0.08949  Biso   1.000  C
  C239     1.0000 0.62679  0.35711  0.07094  Biso   1.000  C
  C240     1.0000 0.70543  0.41051  0.05320  Biso   1.000  C
  N39      1.0000 0.28489  0.53520  0.04313  Biso   1.000  N
  H345     1.0000 0.26528  0.60361  0.07230  Biso   1.000  H
  H346     1.0000 0.29652  0.60769  0.02019  Biso   1.000  H
  H347     1.0000 0.36411  0.66311  0.04231  Biso   1.000  H
  N40      1.0000 0.45687  0.71511  0.03520  Biso   1.000  N
  H348     1.0000 0.42770  0.73472  0.10361  Biso   1.000  H
  H349     1.0000 0.47981  0.70348  0.10769  Biso   1.000  H
  N41      1.0000 0.54313  0.28489  0.03520  Biso   1.000  N
  H350     1.0000 0.57230  0.26528  0.10361  Biso   1.000  H
  H351     1.0000 0.52019  0.29652  0.10769  Biso   1.000  H
  H352     1.0000 0.63589  0.33689  0.04231  Biso   1.000  H
  N42      1.0000 0.71511  0.46480  0.04313  Biso   1.000  N
  H353     1.0000 0.73472  0.39639  0.07230  Biso   1.000  H
  H354     1.0000 0.70348  0.39231  0.02019  Biso   1.000  H
  C241     1.0000 0.23744  0.52722  0.01186  Biso   1.000  C
  H355     1.0000 0.31001  0.52201  0.02999  Biso   1.000  H
  H356     1.0000 0.47001  0.68999  0.02201  Biso   1.000  H
  C242     1.0000 0.48814  0.76256  0.02722  Biso   1.000  C
  C243     1.0000 0.51186  0.23744  0.02722  Biso   1.000  C
  H357     1.0000 0.52999  0.31001  0.02201  Biso   1.000  H
  H358     1.0000 0.68999  0.47799  0.02999  Biso   1.000  H
  C244     1.0000 0.76256  0.47278  0.01186  Biso   1.000  C
  C245     1.0000 0.23744  0.47278  0.98814  Biso   1.000  C
  C246     1.0000 0.18797  0.53528  0.04426  Biso   1.000  C
  H359     1.0000 0.23740  0.55270  0.98351  Biso   1.000  H
  C247     1.0000 0.51186  0.76256  0.97278  Biso   1.000  C
  H360     1.0000 0.51649  0.76260  0.05270  Biso   1.000  H
  C248     1.0000 0.45574  0.81203  0.03528  Biso   1.000  C
  H361     1.0000 0.48351  0.23740  0.05270  Biso   1.000  H
  C249     1.0000 0.54426  0.18797  0.03528  Biso   1.000  C
  C250     1.0000 0.48814  0.23744  0.97278  Biso   1.000  C
  C251     1.0000 0.81203  0.46472  0.04426  Biso   1.000  C
  H362     1.0000 0.76260  0.44730  0.98351  Biso   1.000  H
  C252     1.0000 0.76256  0.52722  0.98814  Biso   1.000  C
  N43      1.0000 0.28489  0.46480  0.95687  Biso   1.000  N
  H363     1.0000 0.23740  0.44730  0.01649  Biso   1.000  H
  C253     1.0000 0.18797  0.46472  0.95574  Biso   1.000  C
  H364     1.0000 0.18820  0.51132  0.07339  Biso   1.000  H
  H365     1.0000 0.18781  0.57040  0.05811  Biso   1.000  H
  C254     1.0000 0.13865  0.52672  0.01237  Biso   1.000  C
  N44      1.0000 0.54313  0.71511  0.96480  Biso   1.000  N
  H366     1.0000 0.48351  0.76260  0.94730  Biso   1.000  H
  C255     1.0000 0.54426  0.81203  0.96472  Biso   1.000  C
  H367     1.0000 0.42661  0.81180  0.01132  Biso   1.000  H
  H368     1.0000 0.44189  0.81219  0.07040  Biso   1.000  H
  C256     1.0000 0.48763  0.86135  0.02672  Biso   1.000  C
  H369     1.0000 0.57339  0.18820  0.01132  Biso   1.000  H
  H370     1.0000 0.55811  0.18781  0.07040  Biso   1.000  H
  C257     1.0000 0.51237  0.13865  0.02672  Biso   1.000  C
  N45      1.0000 0.45687  0.28489  0.96480  Biso   1.000  N
  H371     1.0000 0.51649  0.23740  0.94730  Biso   1.000  H
  C258     1.0000 0.45574  0.18797  0.96472  Biso   1.000  C
  H372     1.0000 0.81180  0.48868  0.07339  Biso   1.000  H
  H373     1.0000 0.81219  0.42960  0.05811  Biso   1.000  H
  C259     1.0000 0.86135  0.47328  0.01237  Biso   1.000  C
  H374     1.0000 0.76260  0.55270  0.01649  Biso   1.000  H
  N46      1.0000 0.71511  0.53520  0.95687  Biso   1.000  N
  C260     1.0000 0.81203  0.53528  0.95574  Biso   1.000  C
  C261     1.0000 0.29457  0.41051  0.94680  Biso   1.000  C
  H375     1.0000 0.31001  0.47799  0.97001  Biso   1.000  H
  H376     1.0000 0.18820  0.48868  0.92661  Biso   1.000  H
  H377     1.0000 0.18781  0.42960  0.94189  Biso   1.000  H
  C262     1.0000 0.13865  0.47328  0.98763  Biso   1.000  C
  H378     1.0000 0.10851  0.53022  0.03469  Biso   1.000  H
  H379     1.0000 0.13640  0.55301  0.98542  Biso   1.000  H
  C263     1.0000 0.55320  0.70543  0.91051  Biso   1.000  C
  H380     1.0000 0.52999  0.68999  0.97799  Biso   1.000  H
  H381     1.0000 0.57339  0.81180  0.98868  Biso   1.000  H
  H382     1.0000 0.55811  0.81219  0.92960  Biso   1.000  H
  C264     1.0000 0.51237  0.86135  0.97328  Biso   1.000  C
  H383     1.0000 0.46531  0.89149  0.03022  Biso   1.000  H
  H384     1.0000 0.51458  0.86360  0.05301  Biso   1.000  H
  H385     1.0000 0.53469  0.10851  0.03022  Biso   1.000  H
  H386     1.0000 0.48542  0.13640  0.05301  Biso   1.000  H
  C265     1.0000 0.48763  0.13865  0.97328  Biso   1.000  C
  H387     1.0000 0.47001  0.31001  0.97799  Biso   1.000  H
  C266     1.0000 0.44680  0.29457  0.91051  Biso   1.000  C
  H388     1.0000 0.42661  0.18820  0.98868  Biso   1.000  H
  H389     1.0000 0.44189  0.18781  0.92960  Biso   1.000  H
  H390     1.0000 0.89149  0.46978  0.03469  Biso   1.000  H
  H391     1.0000 0.86360  0.44699  0.98542  Biso   1.000  H
  C267     1.0000 0.86135  0.52672  0.98763  Biso   1.000  C
  H392     1.0000 0.68999  0.52201  0.97001  Biso   1.000  H
  C268     1.0000 0.70543  0.58949  0.94680  Biso   1.000  C
  H393     1.0000 0.81180  0.51132  0.92661  Biso   1.000  H
  H394     1.0000 0.81219  0.57040  0.94189  Biso   1.000  H
  C269     1.0000 0.34342  0.39974  0.91669  Biso   1.000  C
  H395     1.0000 0.26528  0.39639  0.92770  Biso   1.000  H
  H396     1.0000 0.29652  0.39231  0.97981  Biso   1.000  H
  H397     1.0000 0.13640  0.44699  0.01458  Biso   1.000  H
  H398     1.0000 0.10851  0.46978  0.96531  Biso   1.000  H
  C270     1.0000 0.58331  0.65658  0.89974  Biso   1.000  C
  H399     1.0000 0.57230  0.73472  0.89639  Biso   1.000  H
  H400     1.0000 0.52019  0.70348  0.89231  Biso   1.000  H
  H401     1.0000 0.53469  0.89149  0.96978  Biso   1.000  H
  H402     1.0000 0.48542  0.86360  0.94699  Biso   1.000  H
  H403     1.0000 0.46531  0.10851  0.96978  Biso   1.000  H
  H404     1.0000 0.51458  0.13640  0.94699  Biso   1.000  H
  C271     1.0000 0.41669  0.34342  0.89974  Biso   1.000  C
  H405     1.0000 0.42770  0.26528  0.89639  Biso   1.000  H
  H406     1.0000 0.47981  0.29652  0.89231  Biso   1.000  H
  H407     1.0000 0.86360  0.55301  0.01458  Biso   1.000  H
  H408     1.0000 0.89149  0.53022  0.96531  Biso   1.000  H
  C272     1.0000 0.65658  0.60026  0.91669  Biso   1.000  C
  H409     1.0000 0.73472  0.60361  0.92770  Biso   1.000  H
  H410     1.0000 0.70348  0.60769  0.97981  Biso   1.000  H
  C273     1.0000 0.37321  0.35711  0.92906  Biso   1.000  C
  C274     1.0000 0.35711  0.42906  0.87321  Biso   1.000  C
  C275     1.0000 0.62679  0.64289  0.92906  Biso   1.000  C
  C276     1.0000 0.57094  0.62679  0.85711  Biso   1.000  C
  C277     1.0000 0.42906  0.37321  0.85711  Biso   1.000  C
  C278     1.0000 0.64289  0.57094  0.87321  Biso   1.000  C
  H411     1.0000 0.36411  0.33689  0.95769  Biso   1.000  H
  C279     1.0000 0.39974  0.41669  0.84342  Biso   1.000  C
  H412     1.0000 0.33689  0.45769  0.86411  Biso   1.000  H
  H413     1.0000 0.63589  0.66311  0.95769  Biso   1.000  H
  C280     1.0000 0.60026  0.58331  0.84342  Biso   1.000  C
  H414     1.0000 0.54231  0.63589  0.83689  Biso   1.000  H
  H415     1.0000 0.45769  0.36411  0.83689  Biso   1.000  H
  H416     1.0000 0.66311  0.54231  0.86411  Biso   1.000  H
  C281     1.0000 0.41051  0.44680  0.79457  Biso   1.000  C
  C282     1.0000 0.58949  0.55320  0.79457  Biso   1.000  C
  N47      1.0000 0.46480  0.45687  0.78489  Biso   1.000  N
  H417     1.0000 0.39639  0.42770  0.76528  Biso   1.000  H
  H418     1.0000 0.39231  0.47981  0.79652  Biso   1.000  H
  N48      1.0000 0.53520  0.54313  0.78489  Biso   1.000  N
  H419     1.0000 0.60361  0.57230  0.76528  Biso   1.000  H
  H420     1.0000 0.60769  0.52019  0.79652  Biso   1.000  H
  H421     1.0000 0.47799  0.47001  0.81001  Biso   1.000  H
  C283     1.0000 0.47278  0.48814  0.73744  Biso   1.000  C
  C284     1.0000 0.52722  0.51186  0.73744  Biso   1.000  C
  H422     1.0000 0.52201  0.52999  0.81001  Biso   1.000  H
  H423     1.0000 0.44730  0.51649  0.73740  Biso   1.000  H
  C285     1.0000 0.46472  0.45574  0.68797  Biso   1.000  C
  H424     1.0000 0.55270  0.48351  0.73740  Biso   1.000  H
  C286     1.0000 0.53528  0.54426  0.68797  Biso   1.000  C
  H425     1.0000 0.48868  0.42661  0.68820  Biso   1.000  H
  H426     1.0000 0.42960  0.44189  0.68781  Biso   1.000  H
  C287     1.0000 0.47328  0.48763  0.63865  Biso   1.000  C
  C288     1.0000 0.52672  0.51237  0.63865  Biso   1.000  C
  H427     1.0000 0.51132  0.57339  0.68820  Biso   1.000  H
  H428     1.0000 0.57040  0.55811  0.68781  Biso   1.000  H
  H429     1.0000 0.46978  0.46531  0.60851  Biso   1.000  H
  H430     1.0000 0.44699  0.51458  0.63640  Biso   1.000  H
  H431     1.0000 0.53022  0.53469  0.60851  Biso   1.000  H
  H432     1.0000 0.55301  0.48542  0.63640  Biso   1.000  H
  C289     1.0000 0.47328  0.51237  0.36135  Biso   1.000  C
  C290     1.0000 0.52672  0.48763  0.36135  Biso   1.000  C
  C291     1.0000 0.46472  0.54426  0.31203  Biso   1.000  C
  H433     1.0000 0.46978  0.53469  0.39149  Biso   1.000  H
  H434     1.0000 0.44699  0.48542  0.36360  Biso   1.000  H
  C292     1.0000 0.53528  0.45574  0.31203  Biso   1.000  C
  H435     1.0000 0.53022  0.46531  0.39149  Biso   1.000  H
  H436     1.0000 0.55301  0.51458  0.36360  Biso   1.000  H
  C293     1.0000 0.47278  0.51186  0.26256  Biso   1.000  C
  H437     1.0000 0.48868  0.57339  0.31180  Biso   1.000  H
  H438     1.0000 0.42960  0.55811  0.31219  Biso   1.000  H
  C294     1.0000 0.52722  0.48814  0.26256  Biso   1.000  C
  H439     1.0000 0.51132  0.42661  0.31180  Biso   1.000  H
  H440     1.0000 0.57040  0.44189  0.31219  Biso   1.000  H
  N49      1.0000 0.46480  0.54313  0.21511  Biso   1.000  N
  H441     1.0000 0.44730  0.48351  0.26260  Biso   1.000  H
  N50      1.0000 0.53520  0.45687  0.21511  Biso   1.000  N
  H442     1.0000 0.55270  0.51649  0.26260  Biso   1.000  H
  H443     1.0000 0.47799  0.52999  0.18999  Biso   1.000  H
  C295     1.0000 0.41051  0.55320  0.20543  Biso   1.000  C
  C296     1.0000 0.58949  0.44680  0.20543  Biso   1.000  C
  H444     1.0000 0.52201  0.47001  0.18999  Biso   1.000  H
  C297     1.0000 0.39974  0.58331  0.15658  Biso   1.000  C
  H445     1.0000 0.39639  0.57230  0.23472  Biso   1.000  H
  H446     1.0000 0.39231  0.52019  0.20348  Biso   1.000  H
  C298     1.0000 0.60026  0.41669  0.15658  Biso   1.000  C
  H447     1.0000 0.60361  0.42770  0.23472  Biso   1.000  H
  H448     1.0000 0.60769  0.47981  0.20348  Biso   1.000  H
  C299     1.0000 0.35711  0.57094  0.12679  Biso   1.000  C
  C300     1.0000 0.42906  0.62679  0.14289  Biso   1.000  C
  C301     1.0000 0.57094  0.37321  0.14289  Biso   1.000  C
  C302     1.0000 0.64289  0.42906  0.12679  Biso   1.000  C
  C303     1.0000 0.34342  0.60026  0.08331  Biso   1.000  C
  H449     1.0000 0.33689  0.54231  0.13589  Biso   1.000  H
  H450     1.0000 0.45769  0.63589  0.16311  Biso   1.000  H
  C304     1.0000 0.41669  0.65658  0.10026  Biso   1.000  C
  C305     1.0000 0.58331  0.34342  0.10026  Biso   1.000  C
  H451     1.0000 0.54231  0.36411  0.16311  Biso   1.000  H
  C306     1.0000 0.65658  0.39974  0.08331  Biso   1.000  C
  H452     1.0000 0.66311  0.45769  0.13589  Biso   1.000  H
  C307     1.0000 0.29457  0.58949  0.05320  Biso   1.000  C
  C308     1.0000 0.37321  0.64289  0.07094  Biso   1.000  C
  C309     1.0000 0.44680  0.70543  0.08949  Biso   1.000  C
  C310     1.0000 0.55320  0.29457  0.08949  Biso   1.000  C
  C311     1.0000 0.62679  0.35711  0.07094  Biso   1.000  C
  C312     1.0000 0.70543  0.41051  0.05320  Biso   1.000  C
  N51      1.0000 0.28489  0.53520  0.04313  Biso   1.000  N
  H453     1.0000 0.26528  0.60361  0.07230  Biso   1.000  H
  H454     1.0000 0.29652  0.60769  0.02019  Biso   1.000  H
  H455     1.0000 0.36411  0.66311  0.04231  Biso   1.000  H
  N52      1.0000 0.45687  0.71511  0.03520  Biso   1.000  N
  H456     1.0000 0.42770  0.73472  0.10361  Biso   1.000  H
  H457     1.0000 0.47981  0.70348  0.10769  Biso   1.000  H
  N53      1.0000 0.54313  0.28489  0.03520  Biso   1.000  N
  H458     1.0000 0.57230  0.26528  0.10361  Biso   1.000  H
  H459     1.0000 0.52019  0.29652  0.10769  Biso   1.000  H
  H460     1.0000 0.63589  0.33689  0.04231  Biso   1.000  H
  N54      1.0000 0.71511  0.46480  0.04313  Biso   1.000  N
  H461     1.0000 0.73472  0.39639  0.07230  Biso   1.000  H
  H462     1.0000 0.70348  0.39231  0.02019  Biso   1.000  H
  C313     1.0000 0.23744  0.52722  0.01186  Biso   1.000  C
  H463     1.0000 0.31001  0.52201  0.02999  Biso   1.000  H
  H464     1.0000 0.47001  0.68999  0.02201  Biso   1.000  H
  C314     1.0000 0.48814  0.76256  0.02722  Biso   1.000  C
  C315     1.0000 0.51186  0.23744  0.02722  Biso   1.000  C
  H465     1.0000 0.52999  0.31001  0.02201  Biso   1.000  H
  H466     1.0000 0.68999  0.47799  0.02999  Biso   1.000  H
  C316     1.0000 0.76256  0.47278  0.01186  Biso   1.000  C
  C317     1.0000 0.23744  0.47278  0.98814  Biso   1.000  C
  C318     1.0000 0.18797  0.53528  0.04426  Biso   1.000  C
  H467     1.0000 0.23740  0.55270  0.98351  Biso   1.000  H
  C319     1.0000 0.51186  0.76256  0.97278  Biso   1.000  C
  H468     1.0000 0.51649  0.76260  0.05270  Biso   1.000  H
  C320     1.0000 0.45574  0.81203  0.03528  Biso   1.000  C
  H469     1.0000 0.48351  0.23740  0.05270  Biso   1.000  H
  C321     1.0000 0.54426  0.18797  0.03528  Biso   1.000  C
  C322     1.0000 0.48814  0.23744  0.97278  Biso   1.000  C
  C323     1.0000 0.81203  0.46472  0.04426  Biso   1.000  C
  H470     1.0000 0.76260  0.44730  0.98351  Biso   1.000  H
  C324     1.0000 0.76256  0.52722  0.98814  Biso   1.000  C
  N55      1.0000 0.28489  0.46480  0.95687  Biso   1.000  N
  H471     1.0000 0.23740  0.44730  0.01649  Biso   1.000  H
  C325     1.0000 0.18797  0.46472  0.95574  Biso   1.000  C
  H472     1.0000 0.18820  0.51132  0.07339  Biso   1.000  H
  H473     1.0000 0.18781  0.57040  0.05811  Biso   1.000  H
  C326     1.0000 0.13865  0.52672  0.01237  Biso   1.000  C
  N56      1.0000 0.54313  0.71511  0.96480  Biso   1.000  N
  H474     1.0000 0.48351  0.76260  0.94730  Biso   1.000  H
  C327     1.0000 0.54426  0.81203  0.96472  Biso   1.000  C
  H475     1.0000 0.42661  0.81180  0.01132  Biso   1.000  H
  H476     1.0000 0.44189  0.81219  0.07040  Biso   1.000  H
  C328     1.0000 0.48763  0.86135  0.02672  Biso   1.000  C
  H477     1.0000 0.57339  0.18820  0.01132  Biso   1.000  H
  H478     1.0000 0.55811  0.18781  0.07040  Biso   1.000  H
  C329     1.0000 0.51237  0.13865  0.02672  Biso   1.000  C
  N57      1.0000 0.45687  0.28489  0.96480  Biso   1.000  N
  H479     1.0000 0.51649  0.23740  0.94730  Biso   1.000  H
  C330     1.0000 0.45574  0.18797  0.96472  Biso   1.000  C
  H480     1.0000 0.81180  0.48868  0.07339  Biso   1.000  H
  H481     1.0000 0.81219  0.42960  0.05811  Biso   1.000  H
  C331     1.0000 0.86135  0.47328  0.01237  Biso   1.000  C
  H482     1.0000 0.76260  0.55270  0.01649  Biso   1.000  H
  N58      1.0000 0.71511  0.53520  0.95687  Biso   1.000  N
  C332     1.0000 0.81203  0.53528  0.95574  Biso   1.000  C
  C333     1.0000 0.29457  0.41051  0.94680  Biso   1.000  C
  H483     1.0000 0.31001  0.47799  0.97001  Biso   1.000  H
  H484     1.0000 0.18820  0.48868  0.92661  Biso   1.000  H
  H485     1.0000 0.18781  0.42960  0.94189  Biso   1.000  H
  C334     1.0000 0.13865  0.47328  0.98763  Biso   1.000  C
  H486     1.0000 0.10851  0.53022  0.03469  Biso   1.000  H
  H487     1.0000 0.13640  0.55301  0.98542  Biso   1.000  H
  C335     1.0000 0.55320  0.70543  0.91051  Biso   1.000  C
  H488     1.0000 0.52999  0.68999  0.97799  Biso   1.000  H
  H489     1.0000 0.57339  0.81180  0.98868  Biso   1.000  H
  H490     1.0000 0.55811  0.81219  0.92960  Biso   1.000  H
  C336     1.0000 0.51237  0.86135  0.97328  Biso   1.000  C
  H491     1.0000 0.46531  0.89149  0.03022  Biso   1.000  H
  H492     1.0000 0.51458  0.86360  0.05301  Biso   1.000  H
  H493     1.0000 0.53469  0.10851  0.03022  Biso   1.000  H
  H494     1.0000 0.48542  0.13640  0.05301  Biso   1.000  H
  C337     1.0000 0.48763  0.13865  0.97328  Biso   1.000  C
  H495     1.0000 0.47001  0.31001  0.97799  Biso   1.000  H
  C338     1.0000 0.44680  0.29457  0.91051  Biso   1.000  C
  H496     1.0000 0.42661  0.18820  0.98868  Biso   1.000  H
  H497     1.0000 0.44189  0.18781  0.92960  Biso   1.000  H
  H498     1.0000 0.89149  0.46978  0.03469  Biso   1.000  H
  H499     1.0000 0.86360  0.44699  0.98542  Biso   1.000  H
  C339     1.0000 0.86135  0.52672  0.98763  Biso   1.000  C
  H500     1.0000 0.68999  0.52201  0.97001  Biso   1.000  H
  C340     1.0000 0.70543  0.58949  0.94680  Biso   1.000  C
  H501     1.0000 0.81180  0.51132  0.92661  Biso   1.000  H
  H502     1.0000 0.81219  0.57040  0.94189  Biso   1.000  H
  C341     1.0000 0.34342  0.39974  0.91669  Biso   1.000  C
  H503     1.0000 0.26528  0.39639  0.92770  Biso   1.000  H
  H504     1.0000 0.29652  0.39231  0.97981  Biso   1.000  H
  H505     1.0000 0.13640  0.44699  0.01458  Biso   1.000  H
  H506     1.0000 0.10851  0.46978  0.96531  Biso   1.000  H
  C342     1.0000 0.58331  0.65658  0.89974  Biso   1.000  C
  H507     1.0000 0.57230  0.73472  0.89639  Biso   1.000  H
  H508     1.0000 0.52019  0.70348  0.89231  Biso   1.000  H
  H509     1.0000 0.53469  0.89149  0.96978  Biso   1.000  H
  H510     1.0000 0.48542  0.86360  0.94699  Biso   1.000  H
  H511     1.0000 0.46531  0.10851  0.96978  Biso   1.000  H
  H512     1.0000 0.51458  0.13640  0.94699  Biso   1.000  H
  C343     1.0000 0.41669  0.34342  0.89974  Biso   1.000  C
  H513     1.0000 0.42770  0.26528  0.89639  Biso   1.000  H
  H514     1.0000 0.47981  0.29652  0.89231  Biso   1.000  H
  H515     1.0000 0.86360  0.55301  0.01458  Biso   1.000  H
  H516     1.0000 0.89149  0.53022  0.96531  Biso   1.000  H
  C344     1.0000 0.65658  0.60026  0.91669  Biso   1.000  C
  H517     1.0000 0.73472  0.60361  0.92770  Biso   1.000  H
  H518     1.0000 0.70348  0.60769  0.97981  Biso   1.000  H
  C345     1.0000 0.37321  0.35711  0.92906  Biso   1.000  C
  C346     1.0000 0.35711  0.42906  0.87321  Biso   1.000  C
  C347     1.0000 0.62679  0.64289  0.92906  Biso   1.000  C
  C348     1.0000 0.57094  0.62679  0.85711  Biso   1.000  C
  C349     1.0000 0.42906  0.37321  0.85711  Biso   1.000  C
  C350     1.0000 0.64289  0.57094  0.87321  Biso   1.000  C
  H519     1.0000 0.36411  0.33689  0.95769  Biso   1.000  H
  C351     1.0000 0.39974  0.41669  0.84342  Biso   1.000  C
  H520     1.0000 0.33689  0.45769  0.86411  Biso   1.000  H
  H521     1.0000 0.63589  0.66311  0.95769  Biso   1.000  H
  C352     1.0000 0.60026  0.58331  0.84342  Biso   1.000  C
  H522     1.0000 0.54231  0.63589  0.83689  Biso   1.000  H
  H523     1.0000 0.45769  0.36411  0.83689  Biso   1.000  H
  H524     1.0000 0.66311  0.54231  0.86411  Biso   1.000  H
  C353     1.0000 0.41051  0.44680  0.79457  Biso   1.000  C
  C354     1.0000 0.58949  0.55320  0.79457  Biso   1.000  C
  N59      1.0000 0.46480  0.45687  0.78489  Biso   1.000  N
  H525     1.0000 0.39639  0.42770  0.76528  Biso   1.000  H
  H526     1.0000 0.39231  0.47981  0.79652  Biso   1.000  H
  N60      1.0000 0.53520  0.54313  0.78489  Biso   1.000  N
  H527     1.0000 0.60361  0.57230  0.76528  Biso   1.000  H
  H528     1.0000 0.60769  0.52019  0.79652  Biso   1.000  H
  H529     1.0000 0.47799  0.47001  0.81001  Biso   1.000  H
  C355     1.0000 0.47278  0.48814  0.73744  Biso   1.000  C
  C356     1.0000 0.52722  0.51186  0.73744  Biso   1.000  C
  H530     1.0000 0.52201  0.52999  0.81001  Biso   1.000  H
  H531     1.0000 0.44730  0.51649  0.73740  Biso   1.000  H
  C357     1.0000 0.46472  0.45574  0.68797  Biso   1.000  C
  H532     1.0000 0.55270  0.48351  0.73740  Biso   1.000  H
  C358     1.0000 0.53528  0.54426  0.68797  Biso   1.000  C
  H533     1.0000 0.48868  0.42661  0.68820  Biso   1.000  H
  H534     1.0000 0.42960  0.44189  0.68781  Biso   1.000  H
  C359     1.0000 0.47328  0.48763  0.63865  Biso   1.000  C
  C360     1.0000 0.52672  0.51237  0.63865  Biso   1.000  C
  H535     1.0000 0.51132  0.57339  0.68820  Biso   1.000  H
  H536     1.0000 0.57040  0.55811  0.68781  Biso   1.000  H
  H537     1.0000 0.46978  0.46531  0.60851  Biso   1.000  H
  H538     1.0000 0.44699  0.51458  0.63640  Biso   1.000  H
  H539     1.0000 0.53022  0.53469  0.60851  Biso   1.000  H
  H540     1.0000 0.55301  0.48542  0.63640  Biso   1.000  H
  C361     1.0000 0.36135  0.47328  0.51237  Biso   1.000  C
  C362     1.0000 0.31203  0.46472  0.54426  Biso   1.000  C
  C363     1.0000 0.36135  0.52672  0.48763  Biso   1.000  C
  H541     1.0000 0.39149  0.46978  0.53469  Biso   1.000  H
  H542     1.0000 0.36360  0.44699  0.48542  Biso   1.000  H
  C364     1.0000 0.26256  0.47278  0.51186  Biso   1.000  C
  H543     1.0000 0.31180  0.48868  0.57339  Biso   1.000  H
  H544     1.0000 0.31219  0.42960  0.55811  Biso   1.000  H
  C365     1.0000 0.31203  0.53528  0.45574  Biso   1.000  C
  H545     1.0000 0.39149  0.53022  0.46531  Biso   1.000  H
  H546     1.0000 0.36360  0.55301  0.51458  Biso   1.000  H
  C366     1.0000 0.26256  0.52722  0.48814  Biso   1.000  C
  N61      1.0000 0.21511  0.46480  0.54313  Biso   1.000  N
  H547     1.0000 0.26260  0.44730  0.48351  Biso   1.000  H
  H548     1.0000 0.31180  0.51132  0.42661  Biso   1.000  H
  H549     1.0000 0.31219  0.57040  0.44189  Biso   1.000  H
  N62      1.0000 0.21511  0.53520  0.45687  Biso   1.000  N
  H550     1.0000 0.26260  0.55270  0.51649  Biso   1.000  H
  H551     1.0000 0.18999  0.47799  0.52999  Biso   1.000  H
  C367     1.0000 0.20543  0.41051  0.55320  Biso   1.000  C
  H552     1.0000 0.18999  0.52201  0.47001  Biso   1.000  H
  C368     1.0000 0.20543  0.58949  0.44680  Biso   1.000  C
  C369     1.0000 0.15658  0.39974  0.58331  Biso   1.000  C
  H553     1.0000 0.23472  0.39639  0.57230  Biso   1.000  H
  H554     1.0000 0.20348  0.39231  0.52019  Biso   1.000  H
  C370     1.0000 0.15658  0.60026  0.41669  Biso   1.000  C
  H555     1.0000 0.23472  0.60361  0.42770  Biso   1.000  H
  H556     1.0000 0.20348  0.60769  0.47981  Biso   1.000  H
  C371     1.0000 0.14289  0.42906  0.62679  Biso   1.000  C
  C372     1.0000 0.12679  0.35711  0.57094  Biso   1.000  C
  C373     1.0000 0.12679  0.64289  0.42906  Biso   1.000  C
  C374     1.0000 0.14289  0.57094  0.37321  Biso   1.000  C
  C375     1.0000 0.10026  0.41669  0.65658  Biso   1.000  C
  H557     1.0000 0.16311  0.45769  0.63589  Biso   1.000  H
  H558     1.0000 0.13589  0.33689  0.54231  Biso   1.000  H
  C376     1.0000 0.08331  0.34342  0.60026  Biso   1.000  C
  H559     1.0000 0.13589  0.66311  0.45769  Biso   1.000  H
  C377     1.0000 0.08331  0.65658  0.39974  Biso   1.000  C
  C378     1.0000 0.10026  0.58331  0.34342  Biso   1.000  C
  H560     1.0000 0.16311  0.54231  0.36411  Biso   1.000  H
  C379     1.0000 0.07094  0.37321  0.64289  Biso   1.000  C
  C380     1.0000 0.08949  0.44680  0.70543  Biso   1.000  C
  C381     1.0000 0.05320  0.29457  0.58949  Biso   1.000  C
  C382     1.0000 0.05320  0.70543  0.41051  Biso   1.000  C
  C383     1.0000 0.07094  0.62679  0.35711  Biso   1.000  C
  C384     1.0000 0.08949  0.55320  0.29457  Biso   1.000  C
  H561     1.0000 0.04231  0.36411  0.66311  Biso   1.000  H
  N63      1.0000 0.03520  0.45687  0.71511  Biso   1.000  N
  H562     1.0000 0.10361  0.42770  0.73472  Biso   1.000  H
  H563     1.0000 0.10769  0.47981  0.70348  Biso   1.000  H
  N64      1.0000 0.04313  0.28489  0.53520  Biso   1.000  N
  H564     1.0000 0.07230  0.26528  0.60361  Biso   1.000  H
  H565     1.0000 0.02019  0.29652  0.60769  Biso   1.000  H
  N65      1.0000 0.04313  0.71511  0.46480  Biso   1.000  N
  H566     1.0000 0.07230  0.73472  0.39639  Biso   1.000  H
  H567     1.0000 0.02019  0.70348  0.39231  Biso   1.000  H
  H568     1.0000 0.04231  0.63589  0.33689  Biso   1.000  H
  N66      1.0000 0.03520  0.54313  0.28489  Biso   1.000  N
  H569     1.0000 0.10361  0.57230  0.26528  Biso   1.000  H
  H570     1.0000 0.10769  0.52019  0.29652  Biso   1.000  H
  H571     1.0000 0.02201  0.47001  0.68999  Biso   1.000  H
  C385     1.0000 0.02722  0.48814  0.76256  Biso   1.000  C
  H572     1.0000 0.02999  0.31001  0.52201  Biso   1.000  H
  C386     1.0000 0.01186  0.23744  0.52722  Biso   1.000  C
  H573     1.0000 0.02999  0.68999  0.47799  Biso   1.000  H
  C387     1.0000 0.01186  0.76256  0.47278  Biso   1.000  C
  H574     1.0000 0.02201  0.52999  0.31001  Biso   1.000  H
  C388     1.0000 0.02722  0.51186  0.23744  Biso   1.000  C
  H575     1.0000 0.05270  0.51649  0.76260  Biso   1.000  H
  C389     1.0000 0.03528  0.45574  0.81203  Biso   1.000  C
  C390     1.0000 0.97278  0.51186  0.76256  Biso   1.000  C
  C391     1.0000 0.04426  0.18797  0.53528  Biso   1.000  C
  H576     1.0000 0.98351  0.23740  0.55270  Biso   1.000  H
  C392     1.0000 0.98814  0.23744  0.47278  Biso   1.000  C
  C393     1.0000 0.04426  0.81203  0.46472  Biso   1.000  C
  C394     1.0000 0.98814  0.76256  0.52722  Biso   1.000  C
  H577     1.0000 0.98351  0.76260  0.44730  Biso   1.000  H
  H578     1.0000 0.05270  0.48351  0.23740  Biso   1.000  H
  C395     1.0000 0.03528  0.54426  0.18797  Biso   1.000  C
  C396     1.0000 0.97278  0.48814  0.23744  Biso   1.000  C
  H579     1.0000 0.01132  0.42661  0.81180  Biso   1.000  H
  H580     1.0000 0.07040  0.44189  0.81219  Biso   1.000  H
  C397     1.0000 0.02672  0.48763  0.86135  Biso   1.000  C
  N67      1.0000 0.96480  0.54313  0.71511  Biso   1.000  N
  H581     1.0000 0.94730  0.48351  0.76260  Biso   1.000  H
  C398     1.0000 0.96472  0.54426  0.81203  Biso   1.000  C
  H582     1.0000 0.07339  0.18820  0.51132  Biso   1.000  H
  H583     1.0000 0.05811  0.18781  0.57040  Biso   1.000  H
  C399     1.0000 0.01237  0.13865  0.52672  Biso   1.000  C
  H584     1.0000 0.01649  0.23740  0.44730  Biso   1.000  H
  N68      1.0000 0.95687  0.28489  0.46480  Biso   1.000  N
  C400     1.0000 0.95574  0.18797  0.46472  Biso   1.000  C
  H585     1.0000 0.07339  0.81180  0.48868  Biso   1.000  H
  H586     1.0000 0.05811  0.81219  0.42960  Biso   1.000  H
  C401     1.0000 0.01237  0.86135  0.47328  Biso   1.000  C
  H587     1.0000 0.01649  0.76260  0.55270  Biso   1.000  H
  N69      1.0000 0.95687  0.71511  0.53520  Biso   1.000  N
  C402     1.0000 0.95574  0.81203  0.53528  Biso   1.000  C
  H588     1.0000 0.01132  0.57339  0.18820  Biso   1.000  H
  H589     1.0000 0.07040  0.55811  0.18781  Biso   1.000  H
  C403     1.0000 0.02672  0.51237  0.13865  Biso   1.000  C
  N70      1.0000 0.96480  0.45687  0.28489  Biso   1.000  N
  H590     1.0000 0.94730  0.51649  0.23740  Biso   1.000  H
  C404     1.0000 0.96472  0.45574  0.18797  Biso   1.000  C
  H591     1.0000 0.03022  0.46531  0.89149  Biso   1.000  H
  H592     1.0000 0.05301  0.51458  0.86360  Biso   1.000  H
  C405     1.0000 0.97328  0.51237  0.86135  Biso   1.000  C
  H593     1.0000 0.97799  0.52999  0.68999  Biso   1.000  H
  C406     1.0000 0.91051  0.55320  0.70543  Biso   1.000  C
  H594     1.0000 0.98868  0.57339  0.81180  Biso   1.000  H
  H595     1.0000 0.92960  0.55811  0.81219  Biso   1.000  H
  H596     1.0000 0.03469  0.10851  0.53022  Biso   1.000  H
  H597     1.0000 0.98542  0.13640  0.55301  Biso   1.000  H
  C407     1.0000 0.98763  0.13865  0.47328  Biso   1.000  C
  H598     1.0000 0.97001  0.31001  0.47799  Biso   1.000  H
  C408     1.0000 0.94680  0.29457  0.41051  Biso   1.000  C
  H599     1.0000 0.92661  0.18820  0.48868  Biso   1.000  H
  H600     1.0000 0.94189  0.18781  0.42960  Biso   1.000  H
  H601     1.0000 0.03469  0.89149  0.46978  Biso   1.000  H
  C409     1.0000 0.98763  0.86135  0.52672  Biso   1.000  C
  H602     1.0000 0.98542  0.86360  0.44699  Biso   1.000  H
  H603     1.0000 0.97001  0.68999  0.52201  Biso   1.000  H
  C410     1.0000 0.94680  0.70543  0.58949  Biso   1.000  C
  H604     1.0000 0.92661  0.81180  0.51132  Biso   1.000  H
  H605     1.0000 0.94189  0.81219  0.57040  Biso   1.000  H
  H606     1.0000 0.03022  0.53469  0.10851  Biso   1.000  H
  H607     1.0000 0.05301  0.48542  0.13640  Biso   1.000  H
  C411     1.0000 0.97328  0.48763  0.13865  Biso   1.000  C
  H608     1.0000 0.97799  0.47001  0.31001  Biso   1.000  H
  C412     1.0000 0.91051  0.44680  0.29457  Biso   1.000  C
  H609     1.0000 0.98868  0.42661  0.18820  Biso   1.000  H
  H610     1.0000 0.92960  0.44189  0.18781  Biso   1.000  H
  H611     1.0000 0.96978  0.53469  0.89149  Biso   1.000  H
  H612     1.0000 0.94699  0.48542  0.86360  Biso   1.000  H
  C413     1.0000 0.89974  0.58331  0.65658  Biso   1.000  C
  H613     1.0000 0.89639  0.57230  0.73472  Biso   1.000  H
  H614     1.0000 0.89231  0.52019  0.70348  Biso   1.000  H
  H615     1.0000 0.01458  0.13640  0.44699  Biso   1.000  H
  H616     1.0000 0.96531  0.10851  0.46978  Biso   1.000  H
  C414     1.0000 0.91669  0.34342  0.39974  Biso   1.000  C
  H617     1.0000 0.92770  0.26528  0.39639  Biso   1.000  H
  H618     1.0000 0.97981  0.29652  0.39231  Biso   1.000  H
  H619     1.0000 0.01458  0.86360  0.55301  Biso   1.000  H
  H620     1.0000 0.96531  0.89149  0.53022  Biso   1.000  H
  C415     1.0000 0.91669  0.65658  0.60026  Biso   1.000  C
  H621     1.0000 0.92770  0.73472  0.60361  Biso   1.000  H
  H622     1.0000 0.97981  0.70348  0.60769  Biso   1.000  H
  H623     1.0000 0.96978  0.46531  0.10851  Biso   1.000  H
  H624     1.0000 0.94699  0.51458  0.13640  Biso   1.000  H
  C416     1.0000 0.89974  0.41669  0.34342  Biso   1.000  C
  H625     1.0000 0.89639  0.42770  0.26528  Biso   1.000  H
  H626     1.0000 0.89231  0.47981  0.29652  Biso   1.000  H
  C417     1.0000 0.85711  0.57094  0.62679  Biso   1.000  C
  C418     1.0000 0.92906  0.62679  0.64289  Biso   1.000  C
  C419     1.0000 0.92906  0.37321  0.35711  Biso   1.000  C
  C420     1.0000 0.87321  0.35711  0.42906  Biso   1.000  C
  C421     1.0000 0.87321  0.64289  0.57094  Biso   1.000  C
  C422     1.0000 0.85711  0.42906  0.37321  Biso   1.000  C
  H627     1.0000 0.83689  0.54231  0.63589  Biso   1.000  H
  C423     1.0000 0.84342  0.60026  0.58331  Biso   1.000  C
  H628     1.0000 0.95769  0.63589  0.66311  Biso   1.000  H
  H629     1.0000 0.95769  0.36411  0.33689  Biso   1.000  H
  C424     1.0000 0.84342  0.39974  0.41669  Biso   1.000  C
  H630     1.0000 0.86411  0.33689  0.45769  Biso   1.000  H
  H631     1.0000 0.86411  0.66311  0.54231  Biso   1.000  H
  H632     1.0000 0.83689  0.45769  0.36411  Biso   1.000  H
  C425     1.0000 0.79457  0.58949  0.55320  Biso   1.000  C
  C426     1.0000 0.79457  0.41051  0.44680  Biso   1.000  C
  N71      1.0000 0.78489  0.53520  0.54313  Biso   1.000  N
  H633     1.0000 0.76528  0.60361  0.57230  Biso   1.000  H
  H634     1.0000 0.79652  0.60769  0.52019  Biso   1.000  H
  N72      1.0000 0.78489  0.46480  0.45687  Biso   1.000  N
  H635     1.0000 0.76528  0.39639  0.42770  Biso   1.000  H
  H636     1.0000 0.79652  0.39231  0.47981  Biso   1.000  H
  H637     1.0000 0.81001  0.52201  0.52999  Biso   1.000  H
  C427     1.0000 0.73744  0.52722  0.51186  Biso   1.000  C
  H638     1.0000 0.81001  0.47799  0.47001  Biso   1.000  H
  C428     1.0000 0.73744  0.47278  0.48814  Biso   1.000  C
  H639     1.0000 0.73740  0.55270  0.48351  Biso   1.000  H
  C429     1.0000 0.68797  0.53528  0.54426  Biso   1.000  C
  H640     1.0000 0.73740  0.44730  0.51649  Biso   1.000  H
  C430     1.0000 0.68797  0.46472  0.45574  Biso   1.000  C
  H641     1.0000 0.68820  0.51132  0.57339  Biso   1.000  H
  H642     1.0000 0.68781  0.57040  0.55811  Biso   1.000  H
  C431     1.0000 0.63865  0.52672  0.51237  Biso   1.000  C
  H643     1.0000 0.68820  0.48868  0.42661  Biso   1.000  H
  H644     1.0000 0.68781  0.42960  0.44189  Biso   1.000  H
  C432     1.0000 0.63865  0.47328  0.48763  Biso   1.000  C
  H645     1.0000 0.60851  0.53022  0.53469  Biso   1.000  H
  H646     1.0000 0.63640  0.55301  0.48542  Biso   1.000  H
  H647     1.0000 0.60851  0.46978  0.46531  Biso   1.000  H
  H648     1.0000 0.63640  0.44699  0.51458  Biso   1.000  H
  C433     1.0000 0.36135  0.47328  0.51237  Biso   1.000  C
  C434     1.0000 0.31203  0.46472  0.54426  Biso   1.000  C
  C435     1.0000 0.36135  0.52672  0.48763  Biso   1.000  C
  H649     1.0000 0.39149  0.46978  0.53469  Biso   1.000  H
  H650     1.0000 0.36360  0.44699  0.48542  Biso   1.000  H
  C436     1.0000 0.26256  0.47278  0.51186  Biso   1.000  C
  H651     1.0000 0.31180  0.48868  0.57339  Biso   1.000  H
  H652     1.0000 0.31219  0.42960  0.55811  Biso   1.000  H
  C437     1.0000 0.31203  0.53528  0.45574  Biso   1.000  C
  H653     1.0000 0.39149  0.53022  0.46531  Biso   1.000  H
  H654     1.0000 0.36360  0.55301  0.51458  Biso   1.000  H
  C438     1.0000 0.26256  0.52722  0.48814  Biso   1.000  C
  N73      1.0000 0.21511  0.46480  0.54313  Biso   1.000  N
  H655     1.0000 0.26260  0.44730  0.48351  Biso   1.000  H
  H656     1.0000 0.31180  0.51132  0.42661  Biso   1.000  H
  H657     1.0000 0.31219  0.57040  0.44189  Biso   1.000  H
  N74      1.0000 0.21511  0.53520  0.45687  Biso   1.000  N
  H658     1.0000 0.26260  0.55270  0.51649  Biso   1.000  H
  H659     1.0000 0.18999  0.47799  0.52999  Biso   1.000  H
  C439     1.0000 0.20543  0.41051  0.55320  Biso   1.000  C
  H660     1.0000 0.18999  0.52201  0.47001  Biso   1.000  H
  C440     1.0000 0.20543  0.58949  0.44680  Biso   1.000  C
  C441     1.0000 0.15658  0.39974  0.58331  Biso   1.000  C
  H661     1.0000 0.23472  0.39639  0.57230  Biso   1.000  H
  H662     1.0000 0.20348  0.39231  0.52019  Biso   1.000  H
  C442     1.0000 0.15658  0.60026  0.41669  Biso   1.000  C
  H663     1.0000 0.23472  0.60361  0.42770  Biso   1.000  H
  H664     1.0000 0.20348  0.60769  0.47981  Biso   1.000  H
  C443     1.0000 0.14289  0.42906  0.62679  Biso   1.000  C
  C444     1.0000 0.12679  0.35711  0.57094  Biso   1.000  C
  C445     1.0000 0.12679  0.64289  0.42906  Biso   1.000  C
  C446     1.0000 0.14289  0.57094  0.37321  Biso   1.000  C
  C447     1.0000 0.10026  0.41669  0.65658  Biso   1.000  C
  H665     1.0000 0.16311  0.45769  0.63589  Biso   1.000  H
  H666     1.0000 0.13589  0.33689  0.54231  Biso   1.000  H
  C448     1.0000 0.08331  0.34342  0.60026  Biso   1.000  C
  H667     1.0000 0.13589  0.66311  0.45769  Biso   1.000  H
  C449     1.0000 0.08331  0.65658  0.39974  Biso   1.000  C
  C450     1.0000 0.10026  0.58331  0.34342  Biso   1.000  C
  H668     1.0000 0.16311  0.54231  0.36411  Biso   1.000  H
  C451     1.0000 0.07094  0.37321  0.64289  Biso   1.000  C
  C452     1.0000 0.08949  0.44680  0.70543  Biso   1.000  C
  C453     1.0000 0.05320  0.29457  0.58949  Biso   1.000  C
  C454     1.0000 0.05320  0.70543  0.41051  Biso   1.000  C
  C455     1.0000 0.07094  0.62679  0.35711  Biso   1.000  C
  C456     1.0000 0.08949  0.55320  0.29457  Biso   1.000  C
  H669     1.0000 0.04231  0.36411  0.66311  Biso   1.000  H
  N75      1.0000 0.03520  0.45687  0.71511  Biso   1.000  N
  H670     1.0000 0.10361  0.42770  0.73472  Biso   1.000  H
  H671     1.0000 0.10769  0.47981  0.70348  Biso   1.000  H
  N76      1.0000 0.04313  0.28489  0.53520  Biso   1.000  N
  H672     1.0000 0.07230  0.26528  0.60361  Biso   1.000  H
  H673     1.0000 0.02019  0.29652  0.60769  Biso   1.000  H
  N77      1.0000 0.04313  0.71511  0.46480  Biso   1.000  N
  H674     1.0000 0.07230  0.73472  0.39639  Biso   1.000  H
  H675     1.0000 0.02019  0.70348  0.39231  Biso   1.000  H
  H676     1.0000 0.04231  0.63589  0.33689  Biso   1.000  H
  N78      1.0000 0.03520  0.54313  0.28489  Biso   1.000  N
  H677     1.0000 0.10361  0.57230  0.26528  Biso   1.000  H
  H678     1.0000 0.10769  0.52019  0.29652  Biso   1.000  H
  H679     1.0000 0.02201  0.47001  0.68999  Biso   1.000  H
  C457     1.0000 0.02722  0.48814  0.76256  Biso   1.000  C
  H680     1.0000 0.02999  0.31001  0.52201  Biso   1.000  H
  C458     1.0000 0.01186  0.23744  0.52722  Biso   1.000  C
  H681     1.0000 0.02999  0.68999  0.47799  Biso   1.000  H
  C459     1.0000 0.01186  0.76256  0.47278  Biso   1.000  C
  H682     1.0000 0.02201  0.52999  0.31001  Biso   1.000  H
  C460     1.0000 0.02722  0.51186  0.23744  Biso   1.000  C
  H683     1.0000 0.05270  0.51649  0.76260  Biso   1.000  H
  C461     1.0000 0.03528  0.45574  0.81203  Biso   1.000  C
  C462     1.0000 0.97278  0.51186  0.76256  Biso   1.000  C
  C463     1.0000 0.04426  0.18797  0.53528  Biso   1.000  C
  H684     1.0000 0.98351  0.23740  0.55270  Biso   1.000  H
  C464     1.0000 0.98814  0.23744  0.47278  Biso   1.000  C
  C465     1.0000 0.04426  0.81203  0.46472  Biso   1.000  C
  C466     1.0000 0.98814  0.76256  0.52722  Biso   1.000  C
  H685     1.0000 0.98351  0.76260  0.44730  Biso   1.000  H
  H686     1.0000 0.05270  0.48351  0.23740  Biso   1.000  H
  C467     1.0000 0.03528  0.54426  0.18797  Biso   1.000  C
  C468     1.0000 0.97278  0.48814  0.23744  Biso   1.000  C
  H687     1.0000 0.01132  0.42661  0.81180  Biso   1.000  H
  H688     1.0000 0.07040  0.44189  0.81219  Biso   1.000  H
  C469     1.0000 0.02672  0.48763  0.86135  Biso   1.000  C
  N79      1.0000 0.96480  0.54313  0.71511  Biso   1.000  N
  H689     1.0000 0.94730  0.48351  0.76260  Biso   1.000  H
  C470     1.0000 0.96472  0.54426  0.81203  Biso   1.000  C
  H690     1.0000 0.07339  0.18820  0.51132  Biso   1.000  H
  H691     1.0000 0.05811  0.18781  0.57040  Biso   1.000  H
  C471     1.0000 0.01237  0.13865  0.52672  Biso   1.000  C
  H692     1.0000 0.01649  0.23740  0.44730  Biso   1.000  H
  N80      1.0000 0.95687  0.28489  0.46480  Biso   1.000  N
  C472     1.0000 0.95574  0.18797  0.46472  Biso   1.000  C
  H693     1.0000 0.07339  0.81180  0.48868  Biso   1.000  H
  H694     1.0000 0.05811  0.81219  0.42960  Biso   1.000  H
  C473     1.0000 0.01237  0.86135  0.47328  Biso   1.000  C
  H695     1.0000 0.01649  0.76260  0.55270  Biso   1.000  H
  N81      1.0000 0.95687  0.71511  0.53520  Biso   1.000  N
  C474     1.0000 0.95574  0.81203  0.53528  Biso   1.000  C
  H696     1.0000 0.01132  0.57339  0.18820  Biso   1.000  H
  H697     1.0000 0.07040  0.55811  0.18781  Biso   1.000  H
  C475     1.0000 0.02672  0.51237  0.13865  Biso   1.000  C
  N82      1.0000 0.96480  0.45687  0.28489  Biso   1.000  N
  H698     1.0000 0.94730  0.51649  0.23740  Biso   1.000  H
  C476     1.0000 0.96472  0.45574  0.18797  Biso   1.000  C
  H699     1.0000 0.03022  0.46531  0.89149  Biso   1.000  H
  H700     1.0000 0.05301  0.51458  0.86360  Biso   1.000  H
  C477     1.0000 0.97328  0.51237  0.86135  Biso   1.000  C
  H701     1.0000 0.97799  0.52999  0.68999  Biso   1.000  H
  C478     1.0000 0.91051  0.55320  0.70543  Biso   1.000  C
  H702     1.0000 0.98868  0.57339  0.81180  Biso   1.000  H
  H703     1.0000 0.92960  0.55811  0.81219  Biso   1.000  H
  H704     1.0000 0.03469  0.10851  0.53022  Biso   1.000  H
  H705     1.0000 0.98542  0.13640  0.55301  Biso   1.000  H
  C479     1.0000 0.98763  0.13865  0.47328  Biso   1.000  C
  H706     1.0000 0.97001  0.31001  0.47799  Biso   1.000  H
  C480     1.0000 0.94680  0.29457  0.41051  Biso   1.000  C
  H707     1.0000 0.92661  0.18820  0.48868  Biso   1.000  H
  H708     1.0000 0.94189  0.18781  0.42960  Biso   1.000  H
  H709     1.0000 0.03469  0.89149  0.46978  Biso   1.000  H
  C481     1.0000 0.98763  0.86135  0.52672  Biso   1.000  C
  H710     1.0000 0.98542  0.86360  0.44699  Biso   1.000  H
  H711     1.0000 0.97001  0.68999  0.52201  Biso   1.000  H
  C482     1.0000 0.94680  0.70543  0.58949  Biso   1.000  C
  H712     1.0000 0.92661  0.81180  0.51132  Biso   1.000  H
  H713     1.0000 0.94189  0.81219  0.57040  Biso   1.000  H
  H714     1.0000 0.03022  0.53469  0.10851  Biso   1.000  H
  H715     1.0000 0.05301  0.48542  0.13640  Biso   1.000  H
  C483     1.0000 0.97328  0.48763  0.13865  Biso   1.000  C
  H716     1.0000 0.97799  0.47001  0.31001  Biso   1.000  H
  C484     1.0000 0.91051  0.44680  0.29457  Biso   1.000  C
  H717     1.0000 0.98868  0.42661  0.18820  Biso   1.000  H
  H718     1.0000 0.92960  0.44189  0.18781  Biso   1.000  H
  H719     1.0000 0.96978  0.53469  0.89149  Biso   1.000  H
  H720     1.0000 0.94699  0.48542  0.86360  Biso   1.000  H
  C485     1.0000 0.89974  0.58331  0.65658  Biso   1.000  C
  H721     1.0000 0.89639  0.57230  0.73472  Biso   1.000  H
  H722     1.0000 0.89231  0.52019  0.70348  Biso   1.000  H
  H723     1.0000 0.01458  0.13640  0.44699  Biso   1.000  H
  H724     1.0000 0.96531  0.10851  0.46978  Biso   1.000  H
  C486     1.0000 0.91669  0.34342  0.39974  Biso   1.000  C
  H725     1.0000 0.92770  0.26528  0.39639  Biso   1.000  H
  H726     1.0000 0.97981  0.29652  0.39231  Biso   1.000  H
  H727     1.0000 0.01458  0.86360  0.55301  Biso   1.000  H
  H728     1.0000 0.96531  0.89149  0.53022  Biso   1.000  H
  C487     1.0000 0.91669  0.65658  0.60026  Biso   1.000  C
  H729     1.0000 0.92770  0.73472  0.60361  Biso   1.000  H
  H730     1.0000 0.97981  0.70348  0.60769  Biso   1.000  H
  H731     1.0000 0.96978  0.46531  0.10851  Biso   1.000  H
  H732     1.0000 0.94699  0.51458  0.13640  Biso   1.000  H
  C488     1.0000 0.89974  0.41669  0.34342  Biso   1.000  C
  H733     1.0000 0.89639  0.42770  0.26528  Biso   1.000  H
  H734     1.0000 0.89231  0.47981  0.29652  Biso   1.000  H
  C489     1.0000 0.85711  0.57094  0.62679  Biso   1.000  C
  C490     1.0000 0.92906  0.62679  0.64289  Biso   1.000  C
  C491     1.0000 0.92906  0.37321  0.35711  Biso   1.000  C
  C492     1.0000 0.87321  0.35711  0.42906  Biso   1.000  C
  C493     1.0000 0.87321  0.64289  0.57094  Biso   1.000  C
  C494     1.0000 0.85711  0.42906  0.37321  Biso   1.000  C
  H735     1.0000 0.83689  0.54231  0.63589  Biso   1.000  H
  C495     1.0000 0.84342  0.60026  0.58331  Biso   1.000  C
  H736     1.0000 0.95769  0.63589  0.66311  Biso   1.000  H
  H737     1.0000 0.95769  0.36411  0.33689  Biso   1.000  H
  C496     1.0000 0.84342  0.39974  0.41669  Biso   1.000  C
  H738     1.0000 0.86411  0.33689  0.45769  Biso   1.000  H
  H739     1.0000 0.86411  0.66311  0.54231  Biso   1.000  H
  H740     1.0000 0.83689  0.45769  0.36411  Biso   1.000  H
  C497     1.0000 0.79457  0.58949  0.55320  Biso   1.000  C
  C498     1.0000 0.79457  0.41051  0.44680  Biso   1.000  C
  N83      1.0000 0.78489  0.53520  0.54313  Biso   1.000  N
  H741     1.0000 0.76528  0.60361  0.57230  Biso   1.000  H
  H742     1.0000 0.79652  0.60769  0.52019  Biso   1.000  H
  N84      1.0000 0.78489  0.46480  0.45687  Biso   1.000  N
  H743     1.0000 0.76528  0.39639  0.42770  Biso   1.000  H
  H744     1.0000 0.79652  0.39231  0.47981  Biso   1.000  H
  H745     1.0000 0.81001  0.52201  0.52999  Biso   1.000  H
  C499     1.0000 0.73744  0.52722  0.51186  Biso   1.000  C
  H746     1.0000 0.81001  0.47799  0.47001  Biso   1.000  H
  C500     1.0000 0.73744  0.47278  0.48814  Biso   1.000  C
  H747     1.0000 0.73740  0.55270  0.48351  Biso   1.000  H
  C501     1.0000 0.68797  0.53528  0.54426  Biso   1.000  C
  H748     1.0000 0.73740  0.44730  0.51649  Biso   1.000  H
  C502     1.0000 0.68797  0.46472  0.45574  Biso   1.000  C
  H749     1.0000 0.68820  0.51132  0.57339  Biso   1.000  H
  H750     1.0000 0.68781  0.57040  0.55811  Biso   1.000  H
  C503     1.0000 0.63865  0.52672  0.51237  Biso   1.000  C
  H751     1.0000 0.68820  0.48868  0.42661  Biso   1.000  H
  H752     1.0000 0.68781  0.42960  0.44189  Biso   1.000  H
  C504     1.0000 0.63865  0.47328  0.48763  Biso   1.000  C
  H753     1.0000 0.60851  0.53022  0.53469  Biso   1.000  H
  H754     1.0000 0.63640  0.55301  0.48542  Biso   1.000  H
  H755     1.0000 0.60851  0.46978  0.46531  Biso   1.000  H
  H756     1.0000 0.63640  0.44699  0.51458  Biso   1.000  H
  O1       1.0000 0.35781  0.25000  0.25000  Biso   1.000  O
  O2       1.0000 0.32771  0.28940  0.21142  Biso   1.000  O
  O3       1.0000 0.32771  0.21060  0.28858  Biso   1.000  O
  O4       1.0000 0.28858  0.32771  0.21060  Biso   1.000  O
  O5       1.0000 0.28940  0.28858  0.17229  Biso   1.000  O
  O6       1.0000 0.28940  0.21142  0.32771  Biso   1.000  O
  O7       1.0000 0.28858  0.17229  0.28940  Biso   1.000  O
  O8       1.0000 0.25000  0.35781  0.25000  Biso   1.000  O
  O9       1.0000 0.25000  0.25000  0.14219  Biso   1.000  O
  O10      1.0000 0.25000  0.25000  0.35781  Biso   1.000  O
  O11      1.0000 0.25000  0.14219  0.25000  Biso   1.000  O
  O12      1.0000 0.21142  0.32771  0.28940  Biso   1.000  O
  O13      1.0000 0.21060  0.21142  0.17229  Biso   1.000  O
  O14      1.0000 0.21060  0.28858  0.32771  Biso   1.000  O
  O15      1.0000 0.21142  0.17229  0.21060  Biso   1.000  O
  O16      1.0000 0.17229  0.28940  0.28858  Biso   1.000  O
  O17      1.0000 0.17229  0.21060  0.21142  Biso   1.000  O
  O18      1.0000 0.14219  0.25000  0.25000  Biso   1.000  O
  C505     1.0000 0.66051  0.54457  0.30320  Biso   1.000  C
  N85      1.0000 0.71480  0.53489  0.29313  Biso   1.000  N
  C506     1.0000 0.64974  0.59342  0.33331  Biso   1.000  C
  H757     1.0000 0.64639  0.51528  0.32230  Biso   1.000  H
  H758     1.0000 0.64231  0.54652  0.27019  Biso   1.000  H
  C507     1.0000 0.72278  0.48744  0.26186  Biso   1.000  C
  H759     1.0000 0.72799  0.56001  0.27999  Biso   1.000  H
  C508     1.0000 0.67906  0.60711  0.37679  Biso   1.000  C
  C509     1.0000 0.60711  0.62321  0.32094  Biso   1.000  C
  C510     1.0000 0.71472  0.43797  0.29426  Biso   1.000  C
  C511     1.0000 0.77722  0.48744  0.23814  Biso   1.000  C
  H760     1.0000 0.69730  0.48740  0.23351  Biso   1.000  H
  C512     1.0000 0.66669  0.64974  0.40658  Biso   1.000  C
  H761     1.0000 0.70769  0.58689  0.38589  Biso   1.000  H
  H762     1.0000 0.58689  0.61411  0.29231  Biso   1.000  H
  C513     1.0000 0.59342  0.66669  0.35026  Biso   1.000  C
  C514     1.0000 0.72328  0.38865  0.26237  Biso   1.000  C
  H763     1.0000 0.73868  0.43820  0.32339  Biso   1.000  H
  H764     1.0000 0.67960  0.43781  0.30811  Biso   1.000  H
  C515     1.0000 0.78528  0.43797  0.20574  Biso   1.000  C
  N86      1.0000 0.78520  0.53489  0.20687  Biso   1.000  N
  H765     1.0000 0.80270  0.48740  0.26649  Biso   1.000  H
  C516     1.0000 0.62321  0.67906  0.39289  Biso   1.000  C
  C517     1.0000 0.69680  0.66051  0.45543  Biso   1.000  C
  C518     1.0000 0.54457  0.69680  0.33949  Biso   1.000  C
  C519     1.0000 0.77672  0.38865  0.23763  Biso   1.000  C
  H766     1.0000 0.71978  0.35851  0.28469  Biso   1.000  H
  H767     1.0000 0.69699  0.38640  0.23542  Biso   1.000  H
  H768     1.0000 0.76132  0.43820  0.17661  Biso   1.000  H
  H769     1.0000 0.82040  0.43781  0.19189  Biso   1.000  H
  H770     1.0000 0.77201  0.56001  0.22001  Biso   1.000  H
  C520     1.0000 0.83949  0.54457  0.19680  Biso   1.000  C
  H771     1.0000 0.61411  0.70769  0.41311  Biso   1.000  H
  N87      1.0000 0.70687  0.71480  0.46511  Biso   1.000  N
  H772     1.0000 0.67770  0.64639  0.48472  Biso   1.000  H
  H773     1.0000 0.72981  0.64231  0.45348  Biso   1.000  H
  N88      1.0000 0.53489  0.70687  0.28520  Biso   1.000  N
  H774     1.0000 0.51528  0.67770  0.35361  Biso   1.000  H
  H775     1.0000 0.54652  0.72981  0.35769  Biso   1.000  H
  H776     1.0000 0.78022  0.35851  0.21531  Biso   1.000  H
  H777     1.0000 0.80301  0.38640  0.26458  Biso   1.000  H
  C521     1.0000 0.85026  0.59342  0.16669  Biso   1.000  C
  H778     1.0000 0.85361  0.51528  0.17770  Biso   1.000  H
  H779     1.0000 0.85769  0.54652  0.22981  Biso   1.000  H
  H780     1.0000 0.72001  0.72799  0.43999  Biso   1.000  H
  C522     1.0000 0.73814  0.72278  0.51256  Biso   1.000  C
  H781     1.0000 0.56001  0.72001  0.27201  Biso   1.000  H
  C523     1.0000 0.48744  0.73814  0.27722  Biso   1.000  C
  C524     1.0000 0.89289  0.62321  0.17906  Biso   1.000  C
  C525     1.0000 0.82094  0.60711  0.12321  Biso   1.000  C
  C526     1.0000 0.76186  0.77722  0.51256  Biso   1.000  C
  H782     1.0000 0.76649  0.69730  0.51260  Biso   1.000  H
  C527     1.0000 0.70574  0.71472  0.56203  Biso   1.000  C
  H783     1.0000 0.48740  0.76649  0.30270  Biso   1.000  H
  C528     1.0000 0.43797  0.70574  0.28528  Biso   1.000  C
  C529     1.0000 0.48744  0.76186  0.22278  Biso   1.000  C
  H784     1.0000 0.91311  0.61411  0.20769  Biso   1.000  H
  C530     1.0000 0.90658  0.66669  0.14974  Biso   1.000  C
  C531     1.0000 0.83331  0.64974  0.09342  Biso   1.000  C
  H785     1.0000 0.79231  0.58689  0.11411  Biso   1.000  H
  N89      1.0000 0.79313  0.78520  0.46511  Biso   1.000  N
  H786     1.0000 0.73351  0.80270  0.51260  Biso   1.000  H
  C532     1.0000 0.79426  0.78528  0.56203  Biso   1.000  C
  H787     1.0000 0.67661  0.73868  0.56180  Biso   1.000  H
  H788     1.0000 0.69189  0.67960  0.56219  Biso   1.000  H
  C533     1.0000 0.73763  0.72328  0.61135  Biso   1.000  C
  H789     1.0000 0.43820  0.67661  0.26132  Biso   1.000  H
  H790     1.0000 0.43781  0.69189  0.32040  Biso   1.000  H
  C534     1.0000 0.38865  0.73763  0.27672  Biso   1.000  C
  N90      1.0000 0.53489  0.79313  0.21480  Biso   1.000  N
  H791     1.0000 0.48740  0.73351  0.19730  Biso   1.000  H
  C535     1.0000 0.43797  0.79426  0.21472  Biso   1.000  C
  C536     1.0000 0.95543  0.69680  0.16051  Biso   1.000  C
  C537     1.0000 0.87679  0.67906  0.10711  Biso   1.000  C
  C538     1.0000 0.80320  0.66051  0.04457  Biso   1.000  C
  H792     1.0000 0.77999  0.77201  0.43999  Biso   1.000  H
  C539     1.0000 0.80320  0.83949  0.45543  Biso   1.000  C
  H793     1.0000 0.82339  0.76132  0.56180  Biso   1.000  H
  H794     1.0000 0.80811  0.82040  0.56219  Biso   1.000  H
  C540     1.0000 0.76237  0.77672  0.61135  Biso   1.000  C
  H795     1.0000 0.71531  0.71978  0.64149  Biso   1.000  H
  H796     1.0000 0.76458  0.69699  0.61360  Biso   1.000  H
  H797     1.0000 0.35851  0.71531  0.28022  Biso   1.000  H
  H798     1.0000 0.38640  0.76458  0.30301  Biso   1.000  H
  C541     1.0000 0.38865  0.76237  0.22328  Biso   1.000  C
  H799     1.0000 0.56001  0.77999  0.22799  Biso   1.000  H
  C542     1.0000 0.54457  0.80320  0.16051  Biso   1.000  C
  H800     1.0000 0.43820  0.82339  0.23868  Biso   1.000  H
  H801     1.0000 0.43781  0.80811  0.17960  Biso   1.000  H
  N91      1.0000 0.96511  0.70687  0.21480  Biso   1.000  N
  H802     1.0000 0.98472  0.67770  0.14639  Biso   1.000  H
  H803     1.0000 0.95348  0.72981  0.14231  Biso   1.000  H
  H804     1.0000 0.88589  0.70769  0.08689  Biso   1.000  H
  N92      1.0000 0.79313  0.71480  0.03489  Biso   1.000  N
  H805     1.0000 0.82230  0.64639  0.01528  Biso   1.000  H
  H806     1.0000 0.77019  0.64231  0.04652  Biso   1.000  H
  C543     1.0000 0.83331  0.85026  0.40658  Biso   1.000  C
  H807     1.0000 0.82230  0.85361  0.48472  Biso   1.000  H
  H808     1.0000 0.77019  0.85769  0.45348  Biso   1.000  H
  H809     1.0000 0.78469  0.78022  0.64149  Biso   1.000  H
  H810     1.0000 0.73542  0.80301  0.61360  Biso   1.000  H
  H811     1.0000 0.35851  0.78469  0.21978  Biso   1.000  H
  H812     1.0000 0.38640  0.73542  0.19699  Biso   1.000  H
  C544     1.0000 0.59342  0.83331  0.14974  Biso   1.000  C
  H813     1.0000 0.51528  0.82230  0.14639  Biso   1.000  H
  H814     1.0000 0.54652  0.77019  0.14231  Biso   1.000  H
  H815     1.0000 0.93999  0.72001  0.22799  Biso   1.000  H
  C545     1.0000 0.01256  0.73814  0.22278  Biso   1.000  C
  H816     1.0000 0.77999  0.72799  0.06001  Biso   1.000  H
  C546     1.0000 0.76186  0.72278  0.98744  Biso   1.000  C
  C547     1.0000 0.82094  0.89289  0.37679  Biso   1.000  C
  C548     1.0000 0.87679  0.82094  0.39289  Biso   1.000  C
  C549     1.0000 0.62321  0.82094  0.10711  Biso   1.000  C
  C550     1.0000 0.60711  0.87679  0.17906  Biso   1.000  C
  C551     1.0000 0.01256  0.76186  0.27722  Biso   1.000  C
  H817     1.0000 0.01260  0.76649  0.19730  Biso   1.000  H
  C552     1.0000 0.06203  0.70574  0.21472  Biso   1.000  C
  H818     1.0000 0.73351  0.69730  0.98740  Biso   1.000  H
  C553     1.0000 0.79426  0.71472  0.93797  Biso   1.000  C
  C554     1.0000 0.73814  0.77722  0.98744  Biso   1.000  C
  H819     1.0000 0.79231  0.91311  0.38589  Biso   1.000  H
  C555     1.0000 0.85026  0.90658  0.33331  Biso   1.000  C
  C556     1.0000 0.90658  0.83331  0.35026  Biso   1.000  C
  H820     1.0000 0.88589  0.79231  0.41311  Biso   1.000  H
  C557     1.0000 0.66669  0.85026  0.09342  Biso   1.000  C
  H821     1.0000 0.61411  0.79231  0.08689  Biso   1.000  H
  C558     1.0000 0.64974  0.90658  0.16669  Biso   1.000  C
  H822     1.0000 0.58689  0.88589  0.20769  Biso   1.000  H
  N93      1.0000 0.96511  0.79313  0.28520  Biso   1.000  N
  H823     1.0000 0.01260  0.73351  0.30270  Biso   1.000  H
  C559     1.0000 0.06203  0.79426  0.28528  Biso   1.000  C
  H824     1.0000 0.06180  0.67661  0.23868  Biso   1.000  H
  H825     1.0000 0.06219  0.69189  0.17960  Biso   1.000  H
  C560     1.0000 0.11135  0.73763  0.22328  Biso   1.000  C
  H826     1.0000 0.82339  0.73868  0.93820  Biso   1.000  H
  H827     1.0000 0.80811  0.67960  0.93781  Biso   1.000  H
  C561     1.0000 0.76237  0.72328  0.88865  Biso   1.000  C
  N94      1.0000 0.70687  0.78520  0.03489  Biso   1.000  N
  H828     1.0000 0.76649  0.80270  0.98740  Biso   1.000  H
  C562     1.0000 0.70574  0.78528  0.93797  Biso   1.000  C
  C563     1.0000 0.89289  0.87679  0.32094  Biso   1.000  C
  C564     1.0000 0.83949  0.95543  0.30320  Biso   1.000  C
  C565     1.0000 0.95543  0.80320  0.33949  Biso   1.000  C
  C566     1.0000 0.69680  0.83949  0.04457  Biso   1.000  C
  C567     1.0000 0.67906  0.89289  0.12321  Biso   1.000  C
  C568     1.0000 0.66051  0.95543  0.19680  Biso   1.000  C
  H829     1.0000 0.93999  0.77999  0.27201  Biso   1.000  H
  H830     1.0000 0.06180  0.82339  0.26132  Biso   1.000  H
  H831     1.0000 0.06219  0.80811  0.32040  Biso   1.000  H
  C569     1.0000 0.11135  0.76237  0.27672  Biso   1.000  C
  H832     1.0000 0.14149  0.71531  0.21978  Biso   1.000  H
  H833     1.0000 0.11360  0.76458  0.19699  Biso   1.000  H
  H834     1.0000 0.78469  0.71978  0.85851  Biso   1.000  H
  H835     1.0000 0.73542  0.69699  0.88640  Biso   1.000  H
  C570     1.0000 0.73763  0.77672  0.88865  Biso   1.000  C
  H836     1.0000 0.72001  0.77201  0.06001  Biso   1.000  H
  H837     1.0000 0.67661  0.76132  0.93820  Biso   1.000  H
  H838     1.0000 0.69189  0.82040  0.93781  Biso   1.000  H
  H839     1.0000 0.91311  0.88589  0.29231  Biso   1.000  H
  N95      1.0000 0.78520  0.96511  0.29313  Biso   1.000  N
  H840     1.0000 0.85361  0.98472  0.32230  Biso   1.000  H
  H841     1.0000 0.85769  0.95348  0.27019  Biso   1.000  H
  H842     1.0000 0.98472  0.82230  0.35361  Biso   1.000  H
  H843     1.0000 0.95348  0.77019  0.35769  Biso   1.000  H
  H844     1.0000 0.67770  0.85361  0.01528  Biso   1.000  H
  H845     1.0000 0.72981  0.85769  0.04652  Biso   1.000  H
  H846     1.0000 0.70769  0.91311  0.11411  Biso   1.000  H
  N96      1.0000 0.71480  0.96511  0.20687  Biso   1.000  N
  H847     1.0000 0.64639  0.98472  0.17770  Biso   1.000  H
  H848     1.0000 0.64231  0.95348  0.22981  Biso   1.000  H
  H849     1.0000 0.14149  0.78469  0.28022  Biso   1.000  H
  H850     1.0000 0.11360  0.73542  0.30301  Biso   1.000  H
  H851     1.0000 0.71531  0.78022  0.85851  Biso   1.000  H
  H852     1.0000 0.76458  0.80301  0.88640  Biso   1.000  H
  H853     1.0000 0.77201  0.93999  0.27999  Biso   1.000  H
  C571     1.0000 0.77722  0.01256  0.26186  Biso   1.000  C
  H854     1.0000 0.72799  0.93999  0.22001  Biso   1.000  H
  C572     1.0000 0.72278  0.01256  0.23814  Biso   1.000  C
  H855     1.0000 0.80270  0.01260  0.23351  Biso   1.000  H
  C573     1.0000 0.78528  0.06203  0.29426  Biso   1.000  C
  H856     1.0000 0.69730  0.01260  0.26649  Biso   1.000  H
  C574     1.0000 0.71472  0.06203  0.20574  Biso   1.000  C
  H857     1.0000 0.76132  0.06180  0.32339  Biso   1.000  H
  H858     1.0000 0.82040  0.06219  0.30811  Biso   1.000  H
  C575     1.0000 0.77672  0.11135  0.26237  Biso   1.000  C
  H859     1.0000 0.73868  0.06180  0.17661  Biso   1.000  H
  H860     1.0000 0.67960  0.06219  0.19189  Biso   1.000  H
  C576     1.0000 0.72328  0.11135  0.23763  Biso   1.000  C
  H861     1.0000 0.78022  0.14149  0.28469  Biso   1.000  H
  H862     1.0000 0.80301  0.11360  0.23542  Biso   1.000  H
  H863     1.0000 0.71978  0.14149  0.21531  Biso   1.000  H
  H864     1.0000 0.69699  0.11360  0.26458  Biso   1.000  H
  C577     1.0000 0.54457  0.30320  0.66051  Biso   1.000  C
  C578     1.0000 0.59342  0.33331  0.64974  Biso   1.000  C
  N97      1.0000 0.53489  0.29313  0.71480  Biso   1.000  N
  H865     1.0000 0.51528  0.32230  0.64639  Biso   1.000  H
  H866     1.0000 0.54652  0.27019  0.64231  Biso   1.000  H
  C579     1.0000 0.62321  0.32094  0.60711  Biso   1.000  C
  C580     1.0000 0.60711  0.37679  0.67906  Biso   1.000  C
  H867     1.0000 0.56001  0.27999  0.72799  Biso   1.000  H
  C581     1.0000 0.48744  0.26186  0.72278  Biso   1.000  C
  C582     1.0000 0.66669  0.35026  0.59342  Biso   1.000  C
  H868     1.0000 0.61411  0.29231  0.58689  Biso   1.000  H
  C583     1.0000 0.64974  0.40658  0.66669  Biso   1.000  C
  H869     1.0000 0.58689  0.38589  0.70769  Biso   1.000  H
  H870     1.0000 0.48740  0.23351  0.69730  Biso   1.000  H
  C584     1.0000 0.43797  0.29426  0.71472  Biso   1.000  C
  C585     1.0000 0.48744  0.23814  0.77722  Biso   1.000  C
  C586     1.0000 0.69680  0.33949  0.54457  Biso   1.000  C
  C587     1.0000 0.67906  0.39289  0.62321  Biso   1.000  C
  C588     1.0000 0.66051  0.45543  0.69680  Biso   1.000  C
  H871     1.0000 0.43820  0.32339  0.73868  Biso   1.000  H
  H872     1.0000 0.43781  0.30811  0.67960  Biso   1.000  H
  C589     1.0000 0.38865  0.26237  0.72328  Biso   1.000  C
  N98      1.0000 0.53489  0.20687  0.78520  Biso   1.000  N
  H873     1.0000 0.48740  0.26649  0.80270  Biso   1.000  H
  C590     1.0000 0.43797  0.20574  0.78528  Biso   1.000  C
  N99      1.0000 0.70687  0.28520  0.53489  Biso   1.000  N
  H874     1.0000 0.67770  0.35361  0.51528  Biso   1.000  H
  H875     1.0000 0.72981  0.35769  0.54652  Biso   1.000  H
  H876     1.0000 0.70769  0.41311  0.61411  Biso   1.000  H
  N100     1.0000 0.71480  0.46511  0.70687  Biso   1.000  N
  H877     1.0000 0.64639  0.48472  0.67770  Biso   1.000  H
  H878     1.0000 0.64231  0.45348  0.72981  Biso   1.000  H
  H879     1.0000 0.35851  0.28469  0.71978  Biso   1.000  H
  H880     1.0000 0.38640  0.23542  0.69699  Biso   1.000  H
  C591     1.0000 0.38865  0.23763  0.77672  Biso   1.000  C
  H881     1.0000 0.56001  0.22001  0.77201  Biso   1.000  H
  C592     1.0000 0.54457  0.19680  0.83949  Biso   1.000  C
  H882     1.0000 0.43820  0.17661  0.76132  Biso   1.000  H
  H883     1.0000 0.43781  0.19189  0.82040  Biso   1.000  H
  C593     1.0000 0.73814  0.27722  0.48744  Biso   1.000  C
  H884     1.0000 0.72001  0.27201  0.56001  Biso   1.000  H
  H885     1.0000 0.72799  0.43999  0.72001  Biso   1.000  H
  C594     1.0000 0.72278  0.51256  0.73814  Biso   1.000  C
  H886     1.0000 0.35851  0.21531  0.78022  Biso   1.000  H
  H887     1.0000 0.38640  0.26458  0.80301  Biso   1.000  H
  C595     1.0000 0.59342  0.16669  0.85026  Biso   1.000  C
  H888     1.0000 0.51528  0.17770  0.85361  Biso   1.000  H
  H889     1.0000 0.54652  0.22981  0.85769  Biso   1.000  H
  C596     1.0000 0.70574  0.28528  0.43797  Biso   1.000  C
  H890     1.0000 0.76649  0.30270  0.48740  Biso   1.000  H
  C597     1.0000 0.76186  0.22278  0.48744  Biso   1.000  C
  H891     1.0000 0.69730  0.51260  0.76649  Biso   1.000  H
  C598     1.0000 0.71472  0.56203  0.70574  Biso   1.000  C
  C599     1.0000 0.77722  0.51256  0.76186  Biso   1.000  C
  C600     1.0000 0.60711  0.12321  0.82094  Biso   1.000  C
  C601     1.0000 0.62321  0.17906  0.89289  Biso   1.000  C
  H892     1.0000 0.67661  0.26132  0.43820  Biso   1.000  H
  H893     1.0000 0.69189  0.32040  0.43781  Biso   1.000  H
  C602     1.0000 0.73763  0.27672  0.38865  Biso   1.000  C
  N101     1.0000 0.79313  0.21480  0.53489  Biso   1.000  N
  H894     1.0000 0.73351  0.19730  0.48740  Biso   1.000  H
  C603     1.0000 0.79426  0.21472  0.43797  Biso   1.000  C
  H895     1.0000 0.73868  0.56180  0.67661  Biso   1.000  H
  H896     1.0000 0.67960  0.56219  0.69189  Biso   1.000  H
  C604     1.0000 0.72328  0.61135  0.73763  Biso   1.000  C
  N102     1.0000 0.78520  0.46511  0.79313  Biso   1.000  N
  H897     1.0000 0.80270  0.51260  0.73351  Biso   1.000  H
  C605     1.0000 0.78528  0.56203  0.79426  Biso   1.000  C
  C606     1.0000 0.64974  0.09342  0.83331  Biso   1.000  C
  H898     1.0000 0.58689  0.11411  0.79231  Biso   1.000  H
  H899     1.0000 0.61411  0.20769  0.91311  Biso   1.000  H
  C607     1.0000 0.66669  0.14974  0.90658  Biso   1.000  C
  H900     1.0000 0.71531  0.28022  0.35851  Biso   1.000  H
  H901     1.0000 0.76458  0.30301  0.38640  Biso   1.000  H
  C608     1.0000 0.76237  0.22328  0.38865  Biso   1.000  C
  H902     1.0000 0.77999  0.22799  0.56001  Biso   1.000  H
  C609     1.0000 0.80320  0.16051  0.54457  Biso   1.000  C
  H903     1.0000 0.82339  0.23868  0.43820  Biso   1.000  H
  H904     1.0000 0.80811  0.17960  0.43781  Biso   1.000  H
  H905     1.0000 0.71978  0.64149  0.71531  Biso   1.000  H
  H906     1.0000 0.69699  0.61360  0.76458  Biso   1.000  H
  C610     1.0000 0.77672  0.61135  0.76237  Biso   1.000  C
  H907     1.0000 0.77201  0.43999  0.77999  Biso   1.000  H
  C611     1.0000 0.83949  0.45543  0.80320  Biso   1.000  C
  H908     1.0000 0.76132  0.56180  0.82339  Biso   1.000  H
  H909     1.0000 0.82040  0.56219  0.80811  Biso   1.000  H
  C612     1.0000 0.66051  0.04457  0.80320  Biso   1.000  C
  C613     1.0000 0.67906  0.10711  0.87679  Biso   1.000  C
  C614     1.0000 0.69680  0.16051  0.95543  Biso   1.000  C
  H910     1.0000 0.78469  0.21978  0.35851  Biso   1.000  H
  H911     1.0000 0.73542  0.19699  0.38640  Biso   1.000  H
  C615     1.0000 0.83331  0.14974  0.59342  Biso   1.000  C
  H912     1.0000 0.82230  0.14639  0.51528  Biso   1.000  H
  H913     1.0000 0.77019  0.14231  0.54652  Biso   1.000  H
  H914     1.0000 0.78022  0.64149  0.78469  Biso   1.000  H
  H915     1.0000 0.80301  0.61360  0.73542  Biso   1.000  H
  C616     1.0000 0.85026  0.40658  0.83331  Biso   1.000  C
  H916     1.0000 0.85361  0.48472  0.82230  Biso   1.000  H
  H917     1.0000 0.85769  0.45348  0.77019  Biso   1.000  H
  N103     1.0000 0.71480  0.03489  0.79313  Biso   1.000  N
  H918     1.0000 0.64639  0.01528  0.82230  Biso   1.000  H
  H919     1.0000 0.64231  0.04652  0.77019  Biso   1.000  H
  H920     1.0000 0.70769  0.08689  0.88589  Biso   1.000  H
  N104     1.0000 0.70687  0.21480  0.96511  Biso   1.000  N
  H921     1.0000 0.67770  0.14639  0.98472  Biso   1.000  H
  H922     1.0000 0.72981  0.14231  0.95348  Biso   1.000  H
  C617     1.0000 0.87679  0.17906  0.60711  Biso   1.000  C
  C618     1.0000 0.82094  0.10711  0.62321  Biso   1.000  C
  C619     1.0000 0.82094  0.39289  0.87679  Biso   1.000  C
  C620     1.0000 0.89289  0.37679  0.82094  Biso   1.000  C
  C621     1.0000 0.72278  0.98744  0.76186  Biso   1.000  C
  H923     1.0000 0.72799  0.06001  0.77999  Biso   1.000  H
  H924     1.0000 0.72001  0.22799  0.93999  Biso   1.000  H
  C622     1.0000 0.73814  0.22278  0.01256  Biso   1.000  C
  H925     1.0000 0.88589  0.20769  0.58689  Biso   1.000  H
  C623     1.0000 0.90658  0.16669  0.64974  Biso   1.000  C
  H926     1.0000 0.79231  0.08689  0.61411  Biso   1.000  H
  C624     1.0000 0.85026  0.09342  0.66669  Biso   1.000  C
  H927     1.0000 0.79231  0.41311  0.88589  Biso   1.000  H
  C625     1.0000 0.83331  0.35026  0.90658  Biso   1.000  C
  C626     1.0000 0.90658  0.33331  0.85026  Biso   1.000  C
  H928     1.0000 0.91311  0.38589  0.79231  Biso   1.000  H
  C627     1.0000 0.77722  0.98744  0.73814  Biso   1.000  C
  H929     1.0000 0.69730  0.98740  0.73351  Biso   1.000  H
  C628     1.0000 0.71472  0.93797  0.79426  Biso   1.000  C
  C629     1.0000 0.76186  0.27722  0.01256  Biso   1.000  C
  H930     1.0000 0.76649  0.19730  0.01260  Biso   1.000  H
  C630     1.0000 0.70574  0.21472  0.06203  Biso   1.000  C
  C631     1.0000 0.89289  0.12321  0.67906  Biso   1.000  C
  C632     1.0000 0.95543  0.19680  0.66051  Biso   1.000  C
  C633     1.0000 0.83949  0.04457  0.69680  Biso   1.000  C
  C634     1.0000 0.87679  0.32094  0.89289  Biso   1.000  C
  C635     1.0000 0.80320  0.33949  0.95543  Biso   1.000  C
  C636     1.0000 0.95543  0.30320  0.83949  Biso   1.000  C
  N105     1.0000 0.78520  0.03489  0.70687  Biso   1.000  N
  H931     1.0000 0.80270  0.98740  0.76649  Biso   1.000  H
  C637     1.0000 0.78528  0.93797  0.70574  Biso   1.000  C
  H932     1.0000 0.73868  0.93820  0.82339  Biso   1.000  H
  H933     1.0000 0.67960  0.93781  0.80811  Biso   1.000  H
  C638     1.0000 0.72328  0.88865  0.76237  Biso   1.000  C
  N106     1.0000 0.79313  0.28520  0.96511  Biso   1.000  N
  H934     1.0000 0.73351  0.30270  0.01260  Biso   1.000  H
  C639     1.0000 0.79426  0.28528  0.06203  Biso   1.000  C
  H935     1.0000 0.67661  0.23868  0.06180  Biso   1.000  H
  H936     1.0000 0.69189  0.17960  0.06219  Biso   1.000  H
  C640     1.0000 0.73763  0.22328  0.11135  Biso   1.000  C
  H937     1.0000 0.91311  0.11411  0.70769  Biso   1.000  H
  N107     1.0000 0.96511  0.20687  0.71480  Biso   1.000  N
  H938     1.0000 0.98472  0.17770  0.64639  Biso   1.000  H
  H939     1.0000 0.95348  0.22981  0.64231  Biso   1.000  H
  H940     1.0000 0.85361  0.01528  0.67770  Biso   1.000  H
  H941     1.0000 0.85769  0.04652  0.72981  Biso   1.000  H
  H942     1.0000 0.88589  0.29231  0.91311  Biso   1.000  H
  H943     1.0000 0.82230  0.35361  0.98472  Biso   1.000  H
  H944     1.0000 0.77019  0.35769  0.95348  Biso   1.000  H
  N108     1.0000 0.96511  0.29313  0.78520  Biso   1.000  N
  H945     1.0000 0.98472  0.32230  0.85361  Biso   1.000  H
  H946     1.0000 0.95348  0.27019  0.85769  Biso   1.000  H
  H947     1.0000 0.77201  0.06001  0.72001  Biso   1.000  H
  H948     1.0000 0.76132  0.93820  0.67661  Biso   1.000  H
  H949     1.0000 0.82040  0.93781  0.69189  Biso   1.000  H
  C641     1.0000 0.77672  0.88865  0.73763  Biso   1.000  C
  H950     1.0000 0.71978  0.85851  0.78469  Biso   1.000  H
  H951     1.0000 0.69699  0.88640  0.73542  Biso   1.000  H
  H952     1.0000 0.77999  0.27201  0.93999  Biso   1.000  H
  H953     1.0000 0.82339  0.26132  0.06180  Biso   1.000  H
  H954     1.0000 0.80811  0.32040  0.06219  Biso   1.000  H
  C642     1.0000 0.76237  0.27672  0.11135  Biso   1.000  C
  H955     1.0000 0.71531  0.21978  0.14149  Biso   1.000  H
  H956     1.0000 0.76458  0.19699  0.11360  Biso   1.000  H
  H957     1.0000 0.93999  0.22001  0.72799  Biso   1.000  H
  C643     1.0000 0.01256  0.23814  0.72278  Biso   1.000  C
  C644     1.0000 0.01256  0.26186  0.77722  Biso   1.000  C
  H958     1.0000 0.93999  0.27999  0.77201  Biso   1.000  H
  H959     1.0000 0.78022  0.85851  0.71531  Biso   1.000  H
  H960     1.0000 0.80301  0.88640  0.76458  Biso   1.000  H
  H961     1.0000 0.78469  0.28022  0.14149  Biso   1.000  H
  H962     1.0000 0.73542  0.30301  0.11360  Biso   1.000  H
  H963     1.0000 0.01260  0.26649  0.69730  Biso   1.000  H
  C645     1.0000 0.06203  0.20574  0.71472  Biso   1.000  C
  H964     1.0000 0.01260  0.23351  0.80270  Biso   1.000  H
  C646     1.0000 0.06203  0.29426  0.78528  Biso   1.000  C
  H965     1.0000 0.06180  0.17661  0.73868  Biso   1.000  H
  H966     1.0000 0.06219  0.19189  0.67960  Biso   1.000  H
  C647     1.0000 0.11135  0.23763  0.72328  Biso   1.000  C
  C648     1.0000 0.11135  0.26237  0.77672  Biso   1.000  C
  H967     1.0000 0.06180  0.32339  0.76132  Biso   1.000  H
  H968     1.0000 0.06219  0.30811  0.82040  Biso   1.000  H
  H969     1.0000 0.14149  0.21531  0.71978  Biso   1.000  H
  H970     1.0000 0.11360  0.26458  0.69699  Biso   1.000  H
  H971     1.0000 0.14149  0.28469  0.78022  Biso   1.000  H
  H972     1.0000 0.11360  0.23542  0.80301  Biso   1.000  H
  C649     1.0000 0.30320  0.66051  0.54457  Biso   1.000  C
  N109     1.0000 0.29313  0.71480  0.53489  Biso   1.000  N
  C650     1.0000 0.33331  0.64974  0.59342  Biso   1.000  C
  H973     1.0000 0.32230  0.64639  0.51528  Biso   1.000  H
  H974     1.0000 0.27019  0.64231  0.54652  Biso   1.000  H
  C651     1.0000 0.26186  0.72278  0.48744  Biso   1.000  C
  H975     1.0000 0.27999  0.72799  0.56001  Biso   1.000  H
  C652     1.0000 0.32094  0.60711  0.62321  Biso   1.000  C
  C653     1.0000 0.37679  0.67906  0.60711  Biso   1.000  C
  C654     1.0000 0.29426  0.71472  0.43797  Biso   1.000  C
  C655     1.0000 0.23814  0.77722  0.48744  Biso   1.000  C
  H976     1.0000 0.23351  0.69730  0.48740  Biso   1.000  H
  H977     1.0000 0.29231  0.58689  0.61411  Biso   1.000  H
  C656     1.0000 0.35026  0.59342  0.66669  Biso   1.000  C
  H978     1.0000 0.38589  0.70769  0.58689  Biso   1.000  H
  C657     1.0000 0.40658  0.66669  0.64974  Biso   1.000  C
  C658     1.0000 0.26237  0.72328  0.38865  Biso   1.000  C
  H979     1.0000 0.32339  0.73868  0.43820  Biso   1.000  H
  H980     1.0000 0.30811  0.67960  0.43781  Biso   1.000  H
  C659     1.0000 0.20574  0.78528  0.43797  Biso   1.000  C
  N110     1.0000 0.20687  0.78520  0.53489  Biso   1.000  N
  H981     1.0000 0.26649  0.80270  0.48740  Biso   1.000  H
  C660     1.0000 0.33949  0.54457  0.69680  Biso   1.000  C
  C661     1.0000 0.39289  0.62321  0.67906  Biso   1.000  C
  C662     1.0000 0.45543  0.69680  0.66051  Biso   1.000  C
  C663     1.0000 0.23763  0.77672  0.38865  Biso   1.000  C
  H982     1.0000 0.28469  0.71978  0.35851  Biso   1.000  H
  H983     1.0000 0.23542  0.69699  0.38640  Biso   1.000  H
  H984     1.0000 0.17661  0.76132  0.43820  Biso   1.000  H
  H985     1.0000 0.19189  0.82040  0.43781  Biso   1.000  H
  H986     1.0000 0.22001  0.77201  0.56001  Biso   1.000  H
  C664     1.0000 0.19680  0.83949  0.54457  Biso   1.000  C
  N111     1.0000 0.28520  0.53489  0.70687  Biso   1.000  N
  H987     1.0000 0.35361  0.51528  0.67770  Biso   1.000  H
  H988     1.0000 0.35769  0.54652  0.72981  Biso   1.000  H
  H989     1.0000 0.41311  0.61411  0.70769  Biso   1.000  H
  N112     1.0000 0.46511  0.70687  0.71480  Biso   1.000  N
  H990     1.0000 0.48472  0.67770  0.64639  Biso   1.000  H
  H991     1.0000 0.45348  0.72981  0.64231  Biso   1.000  H
  H992     1.0000 0.21531  0.78022  0.35851  Biso   1.000  H
  H993     1.0000 0.26458  0.80301  0.38640  Biso   1.000  H
  C665     1.0000 0.16669  0.85026  0.59342  Biso   1.000  C
  H994     1.0000 0.17770  0.85361  0.51528  Biso   1.000  H
  H995     1.0000 0.22981  0.85769  0.54652  Biso   1.000  H
  H996     1.0000 0.27201  0.56001  0.72001  Biso   1.000  H
  C666     1.0000 0.27722  0.48744  0.73814  Biso   1.000  C
  H997     1.0000 0.43999  0.72001  0.72799  Biso   1.000  H
  C667     1.0000 0.51256  0.73814  0.72278  Biso   1.000  C
  C668     1.0000 0.12321  0.82094  0.60711  Biso   1.000  C
  C669     1.0000 0.17906  0.89289  0.62321  Biso   1.000  C
  C670     1.0000 0.22278  0.48744  0.76186  Biso   1.000  C
  H998     1.0000 0.30270  0.48740  0.76649  Biso   1.000  H
  C671     1.0000 0.28528  0.43797  0.70574  Biso   1.000  C
  C672     1.0000 0.51256  0.76186  0.77722  Biso   1.000  C
  H999     1.0000 0.51260  0.76649  0.69730  Biso   1.000  H
  C673     1.0000 0.56203  0.70574  0.71472  Biso   1.000  C
  C674     1.0000 0.09342  0.83331  0.64974  Biso   1.000  C
  H1000    1.0000 0.11411  0.79231  0.58689  Biso   1.000  H
  H1001    1.0000 0.20769  0.91311  0.61411  Biso   1.000  H
  C675     1.0000 0.14974  0.90658  0.66669  Biso   1.000  C
  N113     1.0000 0.21480  0.53489  0.79313  Biso   1.000  N
  H1002    1.0000 0.19730  0.48740  0.73351  Biso   1.000  H
  C676     1.0000 0.21472  0.43797  0.79426  Biso   1.000  C
  H1003    1.0000 0.26132  0.43820  0.67661  Biso   1.000  H
  H1004    1.0000 0.32040  0.43781  0.69189  Biso   1.000  H
  C677     1.0000 0.27672  0.38865  0.73763  Biso   1.000  C
  N114     1.0000 0.46511  0.79313  0.78520  Biso   1.000  N
  H1005    1.0000 0.51260  0.73351  0.80270  Biso   1.000  H
  C678     1.0000 0.56203  0.79426  0.78528  Biso   1.000  C
  H1006    1.0000 0.56180  0.67661  0.73868  Biso   1.000  H
  H1007    1.0000 0.56219  0.69189  0.67960  Biso   1.000  H
  C679     1.0000 0.61135  0.73763  0.72328  Biso   1.000  C
  C680     1.0000 0.10711  0.87679  0.67906  Biso   1.000  C
  C681     1.0000 0.04457  0.80320  0.66051  Biso   1.000  C
  C682     1.0000 0.16051  0.95543  0.69680  Biso   1.000  C
  H1008    1.0000 0.22799  0.56001  0.77999  Biso   1.000  H
  C683     1.0000 0.16051  0.54457  0.80320  Biso   1.000  C
  H1009    1.0000 0.23868  0.43820  0.82339  Biso   1.000  H
  H1010    1.0000 0.17960  0.43781  0.80811  Biso   1.000  H
  C684     1.0000 0.22328  0.38865  0.76237  Biso   1.000  C
  H1011    1.0000 0.28022  0.35851  0.71531  Biso   1.000  H
  H1012    1.0000 0.30301  0.38640  0.76458  Biso   1.000  H
  H1013    1.0000 0.43999  0.77999  0.77201  Biso   1.000  H
  C685     1.0000 0.45543  0.80320  0.83949  Biso   1.000  C
  H1014    1.0000 0.56180  0.82339  0.76132  Biso   1.000  H
  H1015    1.0000 0.56219  0.80811  0.82040  Biso   1.000  H
  C686     1.0000 0.61135  0.76237  0.77672  Biso   1.000  C
  H1016    1.0000 0.64149  0.71531  0.71978  Biso   1.000  H
  H1017    1.0000 0.61360  0.76458  0.69699  Biso   1.000  H
  H1018    1.0000 0.08689  0.88589  0.70769  Biso   1.000  H
  N115     1.0000 0.03489  0.79313  0.71480  Biso   1.000  N
  H1019    1.0000 0.01528  0.82230  0.64639  Biso   1.000  H
  H1020    1.0000 0.04652  0.77019  0.64231  Biso   1.000  H
  N116     1.0000 0.21480  0.96511  0.70687  Biso   1.000  N
  H1021    1.0000 0.14639  0.98472  0.67770  Biso   1.000  H
  H1022    1.0000 0.14231  0.95348  0.72981  Biso   1.000  H
  C687     1.0000 0.14974  0.59342  0.83331  Biso   1.000  C
  H1023    1.0000 0.14639  0.51528  0.82230  Biso   1.000  H
  H1024    1.0000 0.14231  0.54652  0.77019  Biso   1.000  H
  H1025    1.0000 0.21978  0.35851  0.78469  Biso   1.000  H
  H1026    1.0000 0.19699  0.38640  0.73542  Biso   1.000  H
  C688     1.0000 0.40658  0.83331  0.85026  Biso   1.000  C
  H1027    1.0000 0.48472  0.82230  0.85361  Biso   1.000  H
  H1028    1.0000 0.45348  0.77019  0.85769  Biso   1.000  H
  H1029    1.0000 0.64149  0.78469  0.78022  Biso   1.000  H
  H1030    1.0000 0.61360  0.73542  0.80301  Biso   1.000  H
  H1031    1.0000 0.06001  0.77999  0.72799  Biso   1.000  H
  C689     1.0000 0.98744  0.76186  0.72278  Biso   1.000  C
  H1032    1.0000 0.22799  0.93999  0.72001  Biso   1.000  H
  C690     1.0000 0.22278  0.01256  0.73814  Biso   1.000  C
  C691     1.0000 0.10711  0.62321  0.82094  Biso   1.000  C
  C692     1.0000 0.17906  0.60711  0.87679  Biso   1.000  C
  C693     1.0000 0.37679  0.82094  0.89289  Biso   1.000  C
  C694     1.0000 0.39289  0.87679  0.82094  Biso   1.000  C
  C695     1.0000 0.98744  0.73814  0.77722  Biso   1.000  C
  H1033    1.0000 0.98740  0.73351  0.69730  Biso   1.000  H
  C696     1.0000 0.93797  0.79426  0.71472  Biso   1.000  C
  H1034    1.0000 0.19730  0.01260  0.76649  Biso   1.000  H
  C697     1.0000 0.21472  0.06203  0.70574  Biso   1.000  C
  C698     1.0000 0.27722  0.01256  0.76186  Biso   1.000  C
  C699     1.0000 0.09342  0.66669  0.85026  Biso   1.000  C
  H1035    1.0000 0.08689  0.61411  0.79231  Biso   1.000  H
  H1036    1.0000 0.20769  0.58689  0.88589  Biso   1.000  H
  C700     1.0000 0.16669  0.64974  0.90658  Biso   1.000  C
  H1037    1.0000 0.38589  0.79231  0.91311  Biso   1.000  H
  C701     1.0000 0.33331  0.85026  0.90658  Biso   1.000  C
  C702     1.0000 0.35026  0.90658  0.83331  Biso   1.000  C
  H1038    1.0000 0.41311  0.88589  0.79231  Biso   1.000  H
  N117     1.0000 0.03489  0.70687  0.78520  Biso   1.000  N
  H1039    1.0000 0.98740  0.76649  0.80270  Biso   1.000  H
  C703     1.0000 0.93797  0.70574  0.78528  Biso   1.000  C
  H1040    1.0000 0.93820  0.82339  0.73868  Biso   1.000  H
  H1041    1.0000 0.93781  0.80811  0.67960  Biso   1.000  H
  C704     1.0000 0.88865  0.76237  0.72328  Biso   1.000  C
  H1042    1.0000 0.23868  0.06180  0.67661  Biso   1.000  H
  H1043    1.0000 0.17960  0.06219  0.69189  Biso   1.000  H
  C705     1.0000 0.22328  0.11135  0.73763  Biso   1.000  C
  N118     1.0000 0.28520  0.96511  0.79313  Biso   1.000  N
  H1044    1.0000 0.30270  0.01260  0.73351  Biso   1.000  H
  C706     1.0000 0.28528  0.06203  0.79426  Biso   1.000  C
  C707     1.0000 0.04457  0.69680  0.83949  Biso   1.000  C
  C708     1.0000 0.12321  0.67906  0.89289  Biso   1.000  C
  C709     1.0000 0.19680  0.66051  0.95543  Biso   1.000  C
  C710     1.0000 0.32094  0.89289  0.87679  Biso   1.000  C
  C711     1.0000 0.30320  0.83949  0.95543  Biso   1.000  C
  C712     1.0000 0.33949  0.95543  0.80320  Biso   1.000  C
  H1045    1.0000 0.06001  0.72001  0.77201  Biso   1.000  H
  H1046    1.0000 0.93820  0.67661  0.76132  Biso   1.000  H
  H1047    1.0000 0.93781  0.69189  0.82040  Biso   1.000  H
  C713     1.0000 0.88865  0.73763  0.77672  Biso   1.000  C
  H1048    1.0000 0.85851  0.78469  0.71978  Biso   1.000  H
  H1049    1.0000 0.88640  0.73542  0.69699  Biso   1.000  H
  H1050    1.0000 0.21978  0.14149  0.71531  Biso   1.000  H
  H1051    1.0000 0.19699  0.11360  0.76458  Biso   1.000  H
  C714     1.0000 0.27672  0.11135  0.76237  Biso   1.000  C
  H1052    1.0000 0.27201  0.93999  0.77999  Biso   1.000  H
  H1053    1.0000 0.26132  0.06180  0.82339  Biso   1.000  H
  H1054    1.0000 0.32040  0.06219  0.80811  Biso   1.000  H
  H1055    1.0000 0.01528  0.67770  0.85361  Biso   1.000  H
  H1056    1.0000 0.04652  0.72981  0.85769  Biso   1.000  H
  H1057    1.0000 0.11411  0.70769  0.91311  Biso   1.000  H
  N119     1.0000 0.20687  0.71480  0.96511  Biso   1.000  N
  H1058    1.0000 0.17770  0.64639  0.98472  Biso   1.000  H
  H1059    1.0000 0.22981  0.64231  0.95348  Biso   1.000  H
  H1060    1.0000 0.29231  0.91311  0.88589  Biso   1.000  H
  N120     1.0000 0.29313  0.78520  0.96511  Biso   1.000  N
  H1061    1.0000 0.32230  0.85361  0.98472  Biso   1.000  H
  H1062    1.0000 0.27019  0.85769  0.95348  Biso   1.000  H
  H1063    1.0000 0.35361  0.98472  0.82230  Biso   1.000  H
  H1064    1.0000 0.35769  0.95348  0.77019  Biso   1.000  H
  H1065    1.0000 0.85851  0.71531  0.78022  Biso   1.000  H
  H1066    1.0000 0.88640  0.76458  0.80301  Biso   1.000  H
  H1067    1.0000 0.28022  0.14149  0.78469  Biso   1.000  H
  H1068    1.0000 0.30301  0.11360  0.73542  Biso   1.000  H
  H1069    1.0000 0.22001  0.72799  0.93999  Biso   1.000  H
  C715     1.0000 0.23814  0.72278  0.01256  Biso   1.000  C
  H1070    1.0000 0.27999  0.77201  0.93999  Biso   1.000  H
  C716     1.0000 0.26186  0.77722  0.01256  Biso   1.000  C
  H1071    1.0000 0.26649  0.69730  0.01260  Biso   1.000  H
  C717     1.0000 0.20574  0.71472  0.06203  Biso   1.000  C
  H1072    1.0000 0.23351  0.80270  0.01260  Biso   1.000  H
  C718     1.0000 0.29426  0.78528  0.06203  Biso   1.000  C
  H1073    1.0000 0.17661  0.73868  0.06180  Biso   1.000  H
  H1074    1.0000 0.19189  0.67960  0.06219  Biso   1.000  H
  C719     1.0000 0.23763  0.72328  0.11135  Biso   1.000  C
  H1075    1.0000 0.32339  0.76132  0.06180  Biso   1.000  H
  H1076    1.0000 0.30811  0.82040  0.06219  Biso   1.000  H
  C720     1.0000 0.26237  0.77672  0.11135  Biso   1.000  C
  H1077    1.0000 0.21531  0.71978  0.14149  Biso   1.000  H
  H1078    1.0000 0.26458  0.69699  0.11360  Biso   1.000  H
  H1079    1.0000 0.28469  0.78022  0.14149  Biso   1.000  H
  H1080    1.0000 0.23542  0.80301  0.11360  Biso   1.000  H
  O19      1.0000 0.50000  0.50000  0.10781  Biso   1.000  O
  O20      1.0000 0.46142  0.46060  0.07771  Biso   1.000  O
  O21      1.0000 0.53858  0.53940  0.07771  Biso   1.000  O
  O22      1.0000 0.42229  0.46142  0.03940  Biso   1.000  O
  O23      1.0000 0.46060  0.42229  0.03858  Biso   1.000  O
  O24      1.0000 0.57771  0.53858  0.03940  Biso   1.000  O
  O25      1.0000 0.53940  0.57771  0.03858  Biso   1.000  O
  O26      1.0000 0.39219  0.50000  0.00000  Biso   1.000  O
  O27      1.0000 0.50000  0.39219  0.00000  Biso   1.000  O
  O28      1.0000 0.60781  0.50000  0.00000  Biso   1.000  O
  O29      1.0000 0.50000  0.60781  0.00000  Biso   1.000  O
  O30      1.0000 0.42229  0.53858  0.96060  Biso   1.000  O
  O31      1.0000 0.53940  0.42229  0.96142  Biso   1.000  O
  O32      1.0000 0.57771  0.46142  0.96060  Biso   1.000  O
  O33      1.0000 0.46060  0.57771  0.96142  Biso   1.000  O
  O34      1.0000 0.46142  0.53940  0.92229  Biso   1.000  O
  O35      1.0000 0.53858  0.46060  0.92229  Biso   1.000  O
  O36      1.0000 0.50000  0.50000  0.89219  Biso   1.000  O
  O37      1.0000 0.50000  0.50000  0.10781  Biso   1.000  O
  O38      1.0000 0.46142  0.46060  0.07771  Biso   1.000  O
  O39      1.0000 0.53858  0.53940  0.07771  Biso   1.000  O
  O40      1.0000 0.46060  0.42229  0.03858  Biso   1.000  O
  O41      1.0000 0.42229  0.46142  0.03940  Biso   1.000  O
  O42      1.0000 0.57771  0.53858  0.03940  Biso   1.000  O
  O43      1.0000 0.53940  0.57771  0.03858  Biso   1.000  O
  O44      1.0000 0.50000  0.39219  0.00000  Biso   1.000  O
  O45      1.0000 0.39219  0.50000  0.00000  Biso   1.000  O
  O46      1.0000 0.60781  0.50000  0.00000  Biso   1.000  O
  O47      1.0000 0.50000  0.60781  0.00000  Biso   1.000  O
  O48      1.0000 0.53940  0.42229  0.96142  Biso   1.000  O
  O49      1.0000 0.42229  0.53858  0.96060  Biso   1.000  O
  O50      1.0000 0.57771  0.46142  0.96060  Biso   1.000  O
  O51      1.0000 0.46060  0.57771  0.96142  Biso   1.000  O
  O52      1.0000 0.53858  0.46060  0.92229  Biso   1.000  O
  O53      1.0000 0.46142  0.53940  0.92229  Biso   1.000  O
  O54      1.0000 0.50000  0.50000  0.89219  Biso   1.000  O
  O55      1.0000 0.50000  0.10781  0.50000  Biso   1.000  O
  O56      1.0000 0.46060  0.07771  0.46142  Biso   1.000  O
  O57      1.0000 0.53940  0.07771  0.53858  Biso   1.000  O
  O58      1.0000 0.46142  0.03940  0.42229  Biso   1.000  O
  O59      1.0000 0.42229  0.03858  0.46060  Biso   1.000  O
  O60      1.0000 0.53858  0.03940  0.57771  Biso   1.000  O
  O61      1.0000 0.57771  0.03858  0.53940  Biso   1.000  O
  O62      1.0000 0.50000  0.00000  0.39219  Biso   1.000  O
  O63      1.0000 0.39219  0.00000  0.50000  Biso   1.000  O
  O64      1.0000 0.50000  0.00000  0.60781  Biso   1.000  O
  O65      1.0000 0.60781  0.00000  0.50000  Biso   1.000  O
  O66      1.0000 0.53858  0.96060  0.42229  Biso   1.000  O
  O67      1.0000 0.42229  0.96142  0.53940  Biso   1.000  O
  O68      1.0000 0.46142  0.96060  0.57771  Biso   1.000  O
  O69      1.0000 0.57771  0.96142  0.46060  Biso   1.000  O
  O70      1.0000 0.53940  0.92229  0.46142  Biso   1.000  O
  O71      1.0000 0.46060  0.92229  0.53858  Biso   1.000  O
  O72      1.0000 0.50000  0.89219  0.50000  Biso   1.000  O
  O73      1.0000 0.50000  0.10781  0.50000  Biso   1.000  O
  O74      1.0000 0.46060  0.07771  0.46142  Biso   1.000  O
  O75      1.0000 0.53940  0.07771  0.53858  Biso   1.000  O
  O76      1.0000 0.46142  0.03940  0.42229  Biso   1.000  O
  O77      1.0000 0.42229  0.03858  0.46060  Biso   1.000  O
  O78      1.0000 0.57771  0.03858  0.53940  Biso   1.000  O
  O79      1.0000 0.53858  0.03940  0.57771  Biso   1.000  O
  O80      1.0000 0.50000  0.00000  0.39219  Biso   1.000  O
  O81      1.0000 0.39219  0.00000  0.50000  Biso   1.000  O
  O82      1.0000 0.60781  0.00000  0.50000  Biso   1.000  O
  O83      1.0000 0.50000  0.00000  0.60781  Biso   1.000  O
  O84      1.0000 0.53858  0.96060  0.42229  Biso   1.000  O
  O85      1.0000 0.42229  0.96142  0.53940  Biso   1.000  O
  O86      1.0000 0.57771  0.96142  0.46060  Biso   1.000  O
  O87      1.0000 0.46142  0.96060  0.57771  Biso   1.000  O
  O88      1.0000 0.53940  0.92229  0.46142  Biso   1.000  O
  O89      1.0000 0.46060  0.92229  0.53858  Biso   1.000  O
  O90      1.0000 0.50000  0.89219  0.50000  Biso   1.000  O
  O91      1.0000 0.10781  0.50000  0.50000  Biso   1.000  O
  O92      1.0000 0.07771  0.46142  0.46060  Biso   1.000  O
  O93      1.0000 0.07771  0.53858  0.53940  Biso   1.000  O
  O94      1.0000 0.03858  0.46060  0.42229  Biso   1.000  O
  O95      1.0000 0.03940  0.42229  0.46142  Biso   1.000  O
  O96      1.0000 0.03940  0.57771  0.53858  Biso   1.000  O
  O97      1.0000 0.03858  0.53940  0.57771  Biso   1.000  O
  O98      1.0000 0.00000  0.50000  0.39219  Biso   1.000  O
  O99      1.0000 0.00000  0.39219  0.50000  Biso   1.000  O
  O100     1.0000 0.00000  0.60781  0.50000  Biso   1.000  O
  O101     1.0000 0.00000  0.50000  0.60781  Biso   1.000  O
  O102     1.0000 0.96142  0.53940  0.42229  Biso   1.000  O
  O103     1.0000 0.96060  0.42229  0.53858  Biso   1.000  O
  O104     1.0000 0.96060  0.57771  0.46142  Biso   1.000  O
  O105     1.0000 0.96142  0.46060  0.57771  Biso   1.000  O
  O106     1.0000 0.92229  0.53858  0.46060  Biso   1.000  O
  O107     1.0000 0.92229  0.46142  0.53940  Biso   1.000  O
  O108     1.0000 0.89219  0.50000  0.50000  Biso   1.000  O
  O109     1.0000 0.10781  0.50000  0.50000  Biso   1.000  O
  O110     1.0000 0.07771  0.46142  0.46060  Biso   1.000  O
  O111     1.0000 0.07771  0.53858  0.53940  Biso   1.000  O
  O112     1.0000 0.03858  0.46060  0.42229  Biso   1.000  O
  O113     1.0000 0.03940  0.42229  0.46142  Biso   1.000  O
  O114     1.0000 0.03940  0.57771  0.53858  Biso   1.000  O
  O115     1.0000 0.03858  0.53940  0.57771  Biso   1.000  O
  O116     1.0000 0.00000  0.50000  0.39219  Biso   1.000  O
  O117     1.0000 0.00000  0.39219  0.50000  Biso   1.000  O
  O118     1.0000 0.00000  0.60781  0.50000  Biso   1.000  O
  O119     1.0000 0.00000  0.50000  0.60781  Biso   1.000  O
  O120     1.0000 0.96142  0.53940  0.42229  Biso   1.000  O
  O121     1.0000 0.96060  0.42229  0.53858  Biso   1.000  O
  O122     1.0000 0.96060  0.57771  0.46142  Biso   1.000  O
  O123     1.0000 0.96142  0.46060  0.57771  Biso   1.000  O
  O124     1.0000 0.92229  0.53858  0.46060  Biso   1.000  O
  O125     1.0000 0.92229  0.46142  0.53940  Biso   1.000  O
  O126     1.0000 0.89219  0.50000  0.50000  Biso   1.000  O
  O127     1.0000 0.75000  0.25000  0.64219  Biso   1.000  O
  O128     1.0000 0.71060  0.21142  0.67229  Biso   1.000  O
  O129     1.0000 0.78940  0.28858  0.67229  Biso   1.000  O
  O130     1.0000 0.67229  0.21060  0.71142  Biso   1.000  O
  O131     1.0000 0.71142  0.17229  0.71060  Biso   1.000  O
  O132     1.0000 0.82771  0.28940  0.71142  Biso   1.000  O
  O133     1.0000 0.78858  0.32771  0.71060  Biso   1.000  O
  O134     1.0000 0.64219  0.25000  0.75000  Biso   1.000  O
  O135     1.0000 0.75000  0.14219  0.75000  Biso   1.000  O
  O136     1.0000 0.85781  0.25000  0.75000  Biso   1.000  O
  O137     1.0000 0.75000  0.35781  0.75000  Biso   1.000  O
  O138     1.0000 0.67229  0.28940  0.78858  Biso   1.000  O
  O139     1.0000 0.78858  0.17229  0.78940  Biso   1.000  O
  O140     1.0000 0.82771  0.21060  0.78858  Biso   1.000  O
  O141     1.0000 0.71142  0.32771  0.78940  Biso   1.000  O
  O142     1.0000 0.71060  0.28858  0.82771  Biso   1.000  O
  O143     1.0000 0.78940  0.21142  0.82771  Biso   1.000  O
  O144     1.0000 0.75000  0.25000  0.85781  Biso   1.000  O
  O145     1.0000 0.75000  0.64219  0.25000  Biso   1.000  O
  O146     1.0000 0.71142  0.67229  0.21060  Biso   1.000  O
  O147     1.0000 0.78858  0.67229  0.28940  Biso   1.000  O
  O148     1.0000 0.67229  0.71060  0.21142  Biso   1.000  O
  O149     1.0000 0.71060  0.71142  0.17229  Biso   1.000  O
  O150     1.0000 0.82771  0.71060  0.28858  Biso   1.000  O
  O151     1.0000 0.78940  0.71142  0.32771  Biso   1.000  O
  O152     1.0000 0.64219  0.75000  0.25000  Biso   1.000  O
  O153     1.0000 0.75000  0.75000  0.14219  Biso   1.000  O
  O154     1.0000 0.85781  0.75000  0.25000  Biso   1.000  O
  O155     1.0000 0.75000  0.75000  0.35781  Biso   1.000  O
  O156     1.0000 0.67229  0.78940  0.28858  Biso   1.000  O
  O157     1.0000 0.78940  0.78858  0.17229  Biso   1.000  O
  O158     1.0000 0.82771  0.78940  0.21142  Biso   1.000  O
  O159     1.0000 0.71060  0.78858  0.32771  Biso   1.000  O
  O160     1.0000 0.71142  0.82771  0.28940  Biso   1.000  O
  O161     1.0000 0.78858  0.82771  0.21060  Biso   1.000  O
  O162     1.0000 0.75000  0.85781  0.25000  Biso   1.000  O
  O163     1.0000 0.25000  0.64219  0.75000  Biso   1.000  O
  O164     1.0000 0.21142  0.67229  0.71060  Biso   1.000  O
  O165     1.0000 0.28858  0.67229  0.78940  Biso   1.000  O
  O166     1.0000 0.17229  0.71060  0.71142  Biso   1.000  O
  O167     1.0000 0.21060  0.71142  0.67229  Biso   1.000  O
  O168     1.0000 0.32771  0.71060  0.78858  Biso   1.000  O
  O169     1.0000 0.28940  0.71142  0.82771  Biso   1.000  O
  O170     1.0000 0.14219  0.75000  0.75000  Biso   1.000  O
  O171     1.0000 0.25000  0.75000  0.64219  Biso   1.000  O
  O172     1.0000 0.35781  0.75000  0.75000  Biso   1.000  O
  O173     1.0000 0.25000  0.75000  0.85781  Biso   1.000  O
  O174     1.0000 0.17229  0.78940  0.78858  Biso   1.000  O
  O175     1.0000 0.28940  0.78858  0.67229  Biso   1.000  O
  O176     1.0000 0.32771  0.78940  0.71142  Biso   1.000  O
  O177     1.0000 0.21060  0.78858  0.82771  Biso   1.000  O
  O178     1.0000 0.21142  0.82771  0.78940  Biso   1.000  O
  O179     1.0000 0.28858  0.82771  0.71060  Biso   1.000  O
  O180     1.0000 0.25000  0.85781  0.75000  Biso   1.000  O
  O181     1.0000 0.07771  0.03858  0.03940  Biso   1.000  O
  O182     1.0000 0.03940  0.07771  0.03858  Biso   1.000  O
  O183     1.0000 0.10781  0.00000  0.00000  Biso   1.000  O
  O184     1.0000 0.03858  0.03940  0.07771  Biso   1.000  O
  O185     1.0000 0.00000  0.10781  0.00000  Biso   1.000  O
  O186     1.0000 0.07771  0.96142  0.96060  Biso   1.000  O
  O187     1.0000 0.00000  0.00000  0.10781  Biso   1.000  O
  O188     1.0000 0.96060  0.07771  0.96142  Biso   1.000  O
  O189     1.0000 0.03858  0.96060  0.92229  Biso   1.000  O
  O190     1.0000 0.03940  0.92229  0.96142  Biso   1.000  O
  O191     1.0000 0.96142  0.96060  0.07771  Biso   1.000  O
  O192     1.0000 0.92229  0.03858  0.96060  Biso   1.000  O
  O193     1.0000 0.96142  0.03940  0.92229  Biso   1.000  O
  O194     1.0000 0.00000  0.00000  0.89219  Biso   1.000  O
  O195     1.0000 0.00000  0.89219  0.00000  Biso   1.000  O
  O196     1.0000 0.96060  0.92229  0.03858  Biso   1.000  O
  O197     1.0000 0.92229  0.96142  0.03940  Biso   1.000  O
  O198     1.0000 0.89219  0.00000  0.00000  Biso   1.000  O
  O199     1.0000 0.07771  0.03858  0.03940  Biso   1.000  O
  O200     1.0000 0.10781  0.00000  0.00000  Biso   1.000  O
  O201     1.0000 0.03940  0.07771  0.03858  Biso   1.000  O
  O202     1.0000 0.03858  0.03940  0.07771  Biso   1.000  O
  O203     1.0000 0.07771  0.96142  0.96060  Biso   1.000  O
  O204     1.0000 0.00000  0.10781  0.00000  Biso   1.000  O
  O205     1.0000 0.00000  0.00000  0.10781  Biso   1.000  O
  O206     1.0000 0.03858  0.96060  0.92229  Biso   1.000  O
  O207     1.0000 0.03940  0.92229  0.96142  Biso   1.000  O
  O208     1.0000 0.96060  0.07771  0.96142  Biso   1.000  O
  O209     1.0000 0.96142  0.96060  0.07771  Biso   1.000  O
  O210     1.0000 0.00000  0.00000  0.89219  Biso   1.000  O
  O211     1.0000 0.00000  0.89219  0.00000  Biso   1.000  O
  O212     1.0000 0.96142  0.03940  0.92229  Biso   1.000  O
  O213     1.0000 0.92229  0.03858  0.96060  Biso   1.000  O
  O214     1.0000 0.96060  0.92229  0.03858  Biso   1.000  O
  O215     1.0000 0.92229  0.96142  0.03940  Biso   1.000  O
  O216     1.0000 0.89219  0.00000  0.00000  Biso   1.000  O
