data_image0
_cell_length_a       25.37
_cell_length_b       25.37
_cell_length_c       25.37
_cell_angle_alpha    90
_cell_angle_beta     90
_cell_angle_gamma    90

_symmetry_space_group_name_H-M    "P 1"
_symmetry_int_tables_number       1

loop_
  _symmetry_equiv_pos_as_xyz
  'x, y, z'

loop_
  _atom_site_label
  _atom_site_occupancy
  _atom_site_fract_x
  _atom_site_fract_y
  _atom_site_fract_z
  _atom_site_thermal_displace_type
  _atom_site_B_iso_or_equiv
  _atom_site_type_symbol
  C1       1.0000 0.38719  0.36492  0.31198  Biso   1.000  C
  C2       1.0000 0.39791  0.32341  0.34490  Biso   1.000  C
  C3       1.0000 0.34490  0.39791  0.32341  Biso   1.000  C
  H1       1.0000 0.40840  0.37099  0.28171  Biso   1.000  H
  C4       1.0000 0.44710  0.28829  0.33650  Biso   1.000  C
  C5       1.0000 0.36492  0.31198  0.38719  Biso   1.000  C
  C6       1.0000 0.31198  0.38719  0.36492  Biso   1.000  C
  C7       1.0000 0.33650  0.44710  0.28829  Biso   1.000  C
  N1       1.0000 0.46460  0.28392  0.28199  Biso   1.000  N
  H2       1.0000 0.47639  0.30260  0.35790  Biso   1.000  H
  H3       1.0000 0.43922  0.25250  0.34990  Biso   1.000  H
  H4       1.0000 0.37099  0.28171  0.40840  Biso   1.000  H
  C8       1.0000 0.32341  0.34490  0.39791  Biso   1.000  C
  H5       1.0000 0.28171  0.40840  0.37099  Biso   1.000  H
  N2       1.0000 0.28199  0.46460  0.28392  Biso   1.000  N
  H6       1.0000 0.35790  0.47639  0.30260  Biso   1.000  H
  H7       1.0000 0.34990  0.43922  0.25250  Biso   1.000  H
  C9       1.0000 0.43011  0.25002  0.25002  Biso   1.000  C
  C10      1.0000 0.51671  0.25999  0.27781  Biso   1.000  C
  C11      1.0000 0.28829  0.33650  0.44710  Biso   1.000  C
  C12      1.0000 0.27781  0.51671  0.25999  Biso   1.000  C
  C13      1.0000 0.25002  0.43011  0.25002  Biso   1.000  C
  H8       1.0000 0.40729  0.27182  0.22700  Biso   1.000  H
  N3       1.0000 0.46460  0.21608  0.21801  Biso   1.000  N
  H9       1.0000 0.40729  0.22818  0.27300  Biso   1.000  H
  C14      1.0000 0.51671  0.24001  0.22219  Biso   1.000  C
  C15      1.0000 0.56401  0.29570  0.28719  Biso   1.000  C
  H10      1.0000 0.51880  0.22940  0.30240  Biso   1.000  H
  N4       1.0000 0.28392  0.28199  0.46460  Biso   1.000  N
  H11      1.0000 0.30260  0.35790  0.47639  Biso   1.000  H
  H12      1.0000 0.25250  0.34990  0.43922  Biso   1.000  H
  C16      1.0000 0.28719  0.56401  0.29570  Biso   1.000  C
  H13      1.0000 0.30240  0.51880  0.22940  Biso   1.000  H
  C17      1.0000 0.22219  0.51671  0.24001  Biso   1.000  C
  H14      1.0000 0.22700  0.40729  0.27182  Biso   1.000  H
  N5       1.0000 0.21801  0.46460  0.21608  Biso   1.000  N
  H15      1.0000 0.27300  0.40729  0.22818  Biso   1.000  H
  C18      1.0000 0.44710  0.21171  0.16350  Biso   1.000  C
  C19      1.0000 0.56401  0.20430  0.21281  Biso   1.000  C
  H16      1.0000 0.51880  0.27060  0.19760  Biso   1.000  H
  C20      1.0000 0.61328  0.26188  0.27659  Biso   1.000  C
  H17      1.0000 0.56401  0.30879  0.32389  Biso   1.000  H
  H18      1.0000 0.56299  0.32629  0.26299  Biso   1.000  H
  C21      1.0000 0.25999  0.27781  0.51671  Biso   1.000  C
  C22      1.0000 0.25002  0.25002  0.43011  Biso   1.000  C
  C23      1.0000 0.27659  0.61328  0.26188  Biso   1.000  C
  H19      1.0000 0.32389  0.56401  0.30879  Biso   1.000  H
  H20      1.0000 0.26299  0.56299  0.32629  Biso   1.000  H
  C24      1.0000 0.21281  0.56401  0.20430  Biso   1.000  C
  H21      1.0000 0.19760  0.51880  0.27060  Biso   1.000  H
  C25      1.0000 0.16350  0.44710  0.21171  Biso   1.000  C
  H22      1.0000 0.47639  0.19740  0.14210  Biso   1.000  H
  H23      1.0000 0.43922  0.24750  0.15010  Biso   1.000  H
  C26      1.0000 0.39791  0.17659  0.15510  Biso   1.000  C
  C27      1.0000 0.61328  0.23812  0.22341  Biso   1.000  C
  H24      1.0000 0.56401  0.19121  0.17611  Biso   1.000  H
  H25      1.0000 0.56299  0.17371  0.23701  Biso   1.000  H
  H26      1.0000 0.64509  0.28412  0.28069  Biso   1.000  H
  H27      1.0000 0.61521  0.23339  0.30331  Biso   1.000  H
  C28      1.0000 0.29570  0.28719  0.56401  Biso   1.000  C
  H28      1.0000 0.22940  0.30240  0.51880  Biso   1.000  H
  C29      1.0000 0.24001  0.22219  0.51671  Biso   1.000  C
  H29      1.0000 0.27182  0.22700  0.40729  Biso   1.000  H
  N6       1.0000 0.21608  0.21801  0.46460  Biso   1.000  N
  H30      1.0000 0.22818  0.27300  0.40729  Biso   1.000  H
  H31      1.0000 0.28069  0.64509  0.28412  Biso   1.000  H
  H32      1.0000 0.30331  0.61521  0.23339  Biso   1.000  H
  C30      1.0000 0.22341  0.61328  0.23812  Biso   1.000  C
  H33      1.0000 0.17611  0.56401  0.19121  Biso   1.000  H
  H34      1.0000 0.23701  0.56299  0.17371  Biso   1.000  H
  H35      1.0000 0.14210  0.47639  0.19740  Biso   1.000  H
  H36      1.0000 0.15010  0.43922  0.24750  Biso   1.000  H
  C31      1.0000 0.15510  0.39791  0.17659  Biso   1.000  C
  C32      1.0000 0.36492  0.18802  0.11281  Biso   1.000  C
  C33      1.0000 0.38719  0.13508  0.18802  Biso   1.000  C
  H37      1.0000 0.64509  0.21588  0.21931  Biso   1.000  H
  H38      1.0000 0.61521  0.26661  0.19669  Biso   1.000  H
  C34      1.0000 0.26188  0.27659  0.61328  Biso   1.000  C
  H39      1.0000 0.30879  0.32389  0.56401  Biso   1.000  H
  H40      1.0000 0.32629  0.26299  0.56299  Biso   1.000  H
  C35      1.0000 0.20430  0.21281  0.56401  Biso   1.000  C
  H41      1.0000 0.27060  0.19760  0.51880  Biso   1.000  H
  C36      1.0000 0.21171  0.16350  0.44710  Biso   1.000  C
  H42      1.0000 0.21931  0.64509  0.21588  Biso   1.000  H
  H43      1.0000 0.19669  0.61521  0.26661  Biso   1.000  H
  C37      1.0000 0.11281  0.36492  0.18802  Biso   1.000  C
  C38      1.0000 0.18802  0.38719  0.13508  Biso   1.000  C
  H44      1.0000 0.37099  0.21829  0.09160  Biso   1.000  H
  C39      1.0000 0.32341  0.15510  0.10209  Biso   1.000  C
  C40      1.0000 0.34490  0.10209  0.17659  Biso   1.000  C
  H45      1.0000 0.40840  0.12901  0.21829  Biso   1.000  H
  H46      1.0000 0.28412  0.28069  0.64509  Biso   1.000  H
  H47      1.0000 0.23339  0.30331  0.61521  Biso   1.000  H
  C41      1.0000 0.23812  0.22341  0.61328  Biso   1.000  C
  H48      1.0000 0.19121  0.17611  0.56401  Biso   1.000  H
  H49      1.0000 0.17371  0.23701  0.56299  Biso   1.000  H
  H50      1.0000 0.19740  0.14210  0.47639  Biso   1.000  H
  H51      1.0000 0.24750  0.15010  0.43922  Biso   1.000  H
  C42      1.0000 0.17659  0.15510  0.39791  Biso   1.000  C
  H52      1.0000 0.09160  0.37099  0.21829  Biso   1.000  H
  C43      1.0000 0.10209  0.32341  0.15510  Biso   1.000  C
  C44      1.0000 0.17659  0.34490  0.10209  Biso   1.000  C
  H53      1.0000 0.21829  0.40840  0.12901  Biso   1.000  H
  C45      1.0000 0.28829  0.16350  0.05290  Biso   1.000  C
  C46      1.0000 0.31198  0.11281  0.13508  Biso   1.000  C
  C47      1.0000 0.33650  0.05290  0.21171  Biso   1.000  C
  H54      1.0000 0.21588  0.21931  0.64509  Biso   1.000  H
  H55      1.0000 0.26661  0.19669  0.61521  Biso   1.000  H
  C48      1.0000 0.18802  0.11281  0.36492  Biso   1.000  C
  C49      1.0000 0.13508  0.18802  0.38719  Biso   1.000  C
  C50      1.0000 0.13508  0.31198  0.11281  Biso   1.000  C
  C51      1.0000 0.05290  0.28829  0.16350  Biso   1.000  C
  C52      1.0000 0.21171  0.33650  0.05290  Biso   1.000  C
  N7       1.0000 0.28392  0.21801  0.03540  Biso   1.000  N
  H56      1.0000 0.30260  0.14210  0.02361  Biso   1.000  H
  H57      1.0000 0.25250  0.15010  0.06078  Biso   1.000  H
  H58      1.0000 0.28171  0.09160  0.12901  Biso   1.000  H
  N8       1.0000 0.28199  0.03540  0.21608  Biso   1.000  N
  H59      1.0000 0.35790  0.02361  0.19740  Biso   1.000  H
  H60      1.0000 0.34990  0.06078  0.24750  Biso   1.000  H
  C53      1.0000 0.15510  0.10209  0.32341  Biso   1.000  C
  H61      1.0000 0.21829  0.09160  0.37099  Biso   1.000  H
  C54      1.0000 0.10209  0.17659  0.34490  Biso   1.000  C
  H62      1.0000 0.12901  0.21829  0.40840  Biso   1.000  H
  H63      1.0000 0.12901  0.28171  0.09160  Biso   1.000  H
  N9       1.0000 0.03540  0.28392  0.21801  Biso   1.000  N
  H64      1.0000 0.02361  0.30260  0.14210  Biso   1.000  H
  H65      1.0000 0.06078  0.25250  0.15010  Biso   1.000  H
  N10      1.0000 0.21608  0.28199  0.03540  Biso   1.000  N
  H66      1.0000 0.19740  0.35790  0.02361  Biso   1.000  H
  H67      1.0000 0.24750  0.34990  0.06078  Biso   1.000  H
  C55      1.0000 0.25002  0.25002  0.06989  Biso   1.000  C
  C56      1.0000 0.25999  0.22219  0.98329  Biso   1.000  C
  C57      1.0000 0.25002  0.06989  0.25002  Biso   1.000  C
  C58      1.0000 0.27781  0.98329  0.24001  Biso   1.000  C
  C59      1.0000 0.16350  0.05290  0.28829  Biso   1.000  C
  C60      1.0000 0.11281  0.13508  0.31198  Biso   1.000  C
  C61      1.0000 0.05290  0.21171  0.33650  Biso   1.000  C
  C62      1.0000 0.06989  0.25002  0.25002  Biso   1.000  C
  C63      1.0000 0.98329  0.25999  0.22219  Biso   1.000  C
  C64      1.0000 0.24001  0.27781  0.98329  Biso   1.000  C
  H68      1.0000 0.27182  0.27300  0.09271  Biso   1.000  H
  H69      1.0000 0.22818  0.22700  0.09271  Biso   1.000  H
  C65      1.0000 0.29570  0.21281  0.93599  Biso   1.000  C
  H70      1.0000 0.22940  0.19760  0.98120  Biso   1.000  H
  H71      1.0000 0.22700  0.09271  0.22818  Biso   1.000  H
  N11      1.0000 0.21801  0.03540  0.28392  Biso   1.000  N
  H72      1.0000 0.27300  0.09271  0.27182  Biso   1.000  H
  C66      1.0000 0.28719  0.93599  0.20430  Biso   1.000  C
  H73      1.0000 0.30240  0.98120  0.27060  Biso   1.000  H
  C67      1.0000 0.22219  0.98329  0.25999  Biso   1.000  C
  H74      1.0000 0.14210  0.02361  0.30260  Biso   1.000  H
  H75      1.0000 0.15010  0.06078  0.25250  Biso   1.000  H
  H76      1.0000 0.09160  0.12901  0.28171  Biso   1.000  H
  N12      1.0000 0.03540  0.21608  0.28199  Biso   1.000  N
  H77      1.0000 0.02361  0.19740  0.35790  Biso   1.000  H
  H78      1.0000 0.06078  0.24750  0.34990  Biso   1.000  H
  H79      1.0000 0.09271  0.22818  0.22700  Biso   1.000  H
  H80      1.0000 0.09271  0.27182  0.27300  Biso   1.000  H
  C68      1.0000 0.98329  0.24001  0.27781  Biso   1.000  C
  C69      1.0000 0.93599  0.29570  0.21281  Biso   1.000  C
  H81      1.0000 0.98120  0.22940  0.19760  Biso   1.000  H
  C70      1.0000 0.20430  0.28719  0.93599  Biso   1.000  C
  H82      1.0000 0.27060  0.30240  0.98120  Biso   1.000  H
  C71      1.0000 0.26188  0.22341  0.88672  Biso   1.000  C
  H83      1.0000 0.30879  0.17611  0.93599  Biso   1.000  H
  H84      1.0000 0.32629  0.23701  0.93701  Biso   1.000  H
  C72      1.0000 0.27659  0.88672  0.23812  Biso   1.000  C
  H85      1.0000 0.32389  0.93599  0.19121  Biso   1.000  H
  H86      1.0000 0.26299  0.93701  0.17371  Biso   1.000  H
  C73      1.0000 0.21281  0.93599  0.29570  Biso   1.000  C
  H87      1.0000 0.19760  0.98120  0.22940  Biso   1.000  H
  C74      1.0000 0.93599  0.20430  0.28719  Biso   1.000  C
  H88      1.0000 0.98120  0.27060  0.30240  Biso   1.000  H
  C75      1.0000 0.88672  0.26188  0.22341  Biso   1.000  C
  H89      1.0000 0.93599  0.30879  0.17611  Biso   1.000  H
  H90      1.0000 0.93701  0.32629  0.23701  Biso   1.000  H
  C76      1.0000 0.23812  0.27659  0.88672  Biso   1.000  C
  H91      1.0000 0.19121  0.32389  0.93599  Biso   1.000  H
  H92      1.0000 0.17371  0.26299  0.93701  Biso   1.000  H
  H93      1.0000 0.28412  0.21931  0.85491  Biso   1.000  H
  H94      1.0000 0.23339  0.19669  0.88479  Biso   1.000  H
  H95      1.0000 0.28069  0.85491  0.21588  Biso   1.000  H
  H96      1.0000 0.30331  0.88479  0.26661  Biso   1.000  H
  C77      1.0000 0.22341  0.88672  0.26188  Biso   1.000  C
  H97      1.0000 0.17611  0.93599  0.30879  Biso   1.000  H
  H98      1.0000 0.23701  0.93701  0.32629  Biso   1.000  H
  C78      1.0000 0.88672  0.23812  0.27659  Biso   1.000  C
  H99      1.0000 0.93599  0.19121  0.32389  Biso   1.000  H
  H100     1.0000 0.93701  0.17371  0.26299  Biso   1.000  H
  H101     1.0000 0.85491  0.28412  0.21931  Biso   1.000  H
  H102     1.0000 0.88479  0.23339  0.19669  Biso   1.000  H
  H103     1.0000 0.21588  0.28069  0.85491  Biso   1.000  H
  H104     1.0000 0.26661  0.30331  0.88479  Biso   1.000  H
  H105     1.0000 0.21931  0.85491  0.28412  Biso   1.000  H
  H106     1.0000 0.19669  0.88479  0.23339  Biso   1.000  H
  H107     1.0000 0.85491  0.21588  0.28069  Biso   1.000  H
  H108     1.0000 0.88479  0.26661  0.30331  Biso   1.000  H
  C79      1.0000 0.51001  0.26669  0.47221  Biso   1.000  C
  N13      1.0000 0.53390  0.21462  0.46799  Biso   1.000  N
  C80      1.0000 0.54568  0.31399  0.46279  Biso   1.000  C
  H109     1.0000 0.47939  0.26878  0.44762  Biso   1.000  H
  C81      1.0000 0.48999  0.26669  0.52779  Biso   1.000  C
  C82      1.0000 0.53831  0.19708  0.41348  Biso   1.000  C
  C83      1.0000 0.50000  0.18009  0.50000  Biso   1.000  C
  C84      1.0000 0.51190  0.36330  0.47339  Biso   1.000  C
  H110     1.0000 0.55881  0.31399  0.42609  Biso   1.000  H
  H111     1.0000 0.57631  0.31301  0.48699  Biso   1.000  H
  N14      1.0000 0.46610  0.21462  0.53201  Biso   1.000  N
  C85      1.0000 0.45432  0.31399  0.53721  Biso   1.000  C
  H112     1.0000 0.52061  0.26878  0.55238  Biso   1.000  H
  H113     1.0000 0.55258  0.22641  0.39212  Biso   1.000  H
  H114     1.0000 0.50248  0.18920  0.40012  Biso   1.000  H
  C86      1.0000 0.57339  0.14789  0.40508  Biso   1.000  C
  H115     1.0000 0.52180  0.15731  0.52302  Biso   1.000  H
  H116     1.0000 0.47820  0.15731  0.47698  Biso   1.000  H
  H117     1.0000 0.53410  0.39511  0.46929  Biso   1.000  H
  H118     1.0000 0.48341  0.36520  0.44671  Biso   1.000  H
  C87      1.0000 0.48810  0.36330  0.52661  Biso   1.000  C
  C88      1.0000 0.46169  0.19708  0.58652  Biso   1.000  C
  H119     1.0000 0.44119  0.31399  0.57391  Biso   1.000  H
  H120     1.0000 0.42369  0.31301  0.51301  Biso   1.000  H
  C89      1.0000 0.56200  0.11490  0.36279  Biso   1.000  C
  C90      1.0000 0.61490  0.13721  0.43800  Biso   1.000  C
  H121     1.0000 0.46590  0.39511  0.53071  Biso   1.000  H
  H122     1.0000 0.51659  0.36520  0.55329  Biso   1.000  H
  H123     1.0000 0.44742  0.22641  0.60788  Biso   1.000  H
  H124     1.0000 0.49752  0.18920  0.59988  Biso   1.000  H
  C91      1.0000 0.42661  0.14789  0.59492  Biso   1.000  C
  H125     1.0000 0.53169  0.12101  0.34158  Biso   1.000  H
  C92      1.0000 0.59492  0.07339  0.35211  Biso   1.000  C
  C93      1.0000 0.64789  0.09492  0.42661  Biso   1.000  C
  H126     1.0000 0.62101  0.15842  0.46831  Biso   1.000  H
  C94      1.0000 0.43800  0.11490  0.63721  Biso   1.000  C
  C95      1.0000 0.38510  0.13721  0.56200  Biso   1.000  C
  C96      1.0000 0.58652  0.03831  0.30292  Biso   1.000  C
  C97      1.0000 0.63721  0.06200  0.38510  Biso   1.000  C
  C98      1.0000 0.69708  0.08652  0.46169  Biso   1.000  C
  H127     1.0000 0.46831  0.12101  0.65842  Biso   1.000  H
  C99      1.0000 0.40508  0.07339  0.64789  Biso   1.000  C
  C100     1.0000 0.35211  0.09492  0.57339  Biso   1.000  C
  H128     1.0000 0.37899  0.15842  0.53169  Biso   1.000  H
  N15      1.0000 0.53201  0.03390  0.28538  Biso   1.000  N
  H129     1.0000 0.60788  0.05258  0.27359  Biso   1.000  H
  H130     1.0000 0.59988  0.00248  0.31080  Biso   1.000  H
  H131     1.0000 0.65842  0.03169  0.37899  Biso   1.000  H
  N16      1.0000 0.71462  0.03201  0.46610  Biso   1.000  N
  H132     1.0000 0.72641  0.10788  0.44742  Biso   1.000  H
  H133     1.0000 0.68920  0.09988  0.49752  Biso   1.000  H
  C101     1.0000 0.41348  0.03831  0.69708  Biso   1.000  C
  C102     1.0000 0.36279  0.06200  0.61490  Biso   1.000  C
  C103     1.0000 0.30292  0.08652  0.53831  Biso   1.000  C
  C104     1.0000 0.52779  0.01001  0.23331  Biso   1.000  C
  C105     1.0000 0.50000  0.00000  0.31991  Biso   1.000  C
  C106     1.0000 0.76669  0.02779  0.48999  Biso   1.000  C
  C107     1.0000 0.68009  0.00000  0.50000  Biso   1.000  C
  N17      1.0000 0.46799  0.03390  0.71462  Biso   1.000  N
  H134     1.0000 0.39212  0.05258  0.72641  Biso   1.000  H
  H135     1.0000 0.40012  0.00248  0.68920  Biso   1.000  H
  H136     1.0000 0.34158  0.03169  0.62101  Biso   1.000  H
  N18      1.0000 0.28538  0.03201  0.53390  Biso   1.000  N
  H137     1.0000 0.27359  0.10788  0.55258  Biso   1.000  H
  H138     1.0000 0.31080  0.09988  0.50248  Biso   1.000  H
  C108     1.0000 0.53721  0.04568  0.18601  Biso   1.000  C
  H139     1.0000 0.55238  0.97939  0.23122  Biso   1.000  H
  C109     1.0000 0.47221  0.98999  0.23331  Biso   1.000  C
  H140     1.0000 0.47698  0.02180  0.34269  Biso   1.000  H
  N19      1.0000 0.46799  0.96610  0.28538  Biso   1.000  N
  H141     1.0000 0.52302  0.97820  0.34269  Biso   1.000  H
  C110     1.0000 0.81399  0.03721  0.45432  Biso   1.000  C
  H142     1.0000 0.76878  0.05238  0.52061  Biso   1.000  H
  C111     1.0000 0.76669  0.97221  0.51001  Biso   1.000  C
  H143     1.0000 0.65731  0.02302  0.52180  Biso   1.000  H
  H144     1.0000 0.65731  0.97698  0.47820  Biso   1.000  H
  N20      1.0000 0.71462  0.96799  0.53390  Biso   1.000  N
  C112     1.0000 0.47221  0.01001  0.76669  Biso   1.000  C
  C113     1.0000 0.50000  0.00000  0.68009  Biso   1.000  C
  C114     1.0000 0.23331  0.02779  0.51001  Biso   1.000  C
  C115     1.0000 0.31991  0.00000  0.50000  Biso   1.000  C
  C116     1.0000 0.52661  0.01190  0.13670  Biso   1.000  C
  H145     1.0000 0.57391  0.05881  0.18601  Biso   1.000  H
  H146     1.0000 0.51301  0.07631  0.18699  Biso   1.000  H
  H147     1.0000 0.44762  0.02061  0.23122  Biso   1.000  H
  C117     1.0000 0.46279  0.95432  0.18601  Biso   1.000  C
  C118     1.0000 0.41348  0.96169  0.30292  Biso   1.000  C
  C119     1.0000 0.86330  0.02661  0.48810  Biso   1.000  C
  H148     1.0000 0.81399  0.07391  0.44119  Biso   1.000  H
  H149     1.0000 0.81301  0.01301  0.42369  Biso   1.000  H
  C120     1.0000 0.81399  0.96279  0.54568  Biso   1.000  C
  H150     1.0000 0.76878  0.94762  0.47939  Biso   1.000  H
  C121     1.0000 0.69708  0.91348  0.53831  Biso   1.000  C
  C122     1.0000 0.46279  0.04568  0.81399  Biso   1.000  C
  H151     1.0000 0.44762  0.97939  0.76878  Biso   1.000  H
  C123     1.0000 0.52779  0.98999  0.76669  Biso   1.000  C
  H152     1.0000 0.52302  0.02180  0.65731  Biso   1.000  H
  N21      1.0000 0.53201  0.96610  0.71462  Biso   1.000  N
  H153     1.0000 0.47698  0.97820  0.65731  Biso   1.000  H
  C124     1.0000 0.18601  0.03721  0.54568  Biso   1.000  C
  H154     1.0000 0.23122  0.05238  0.47939  Biso   1.000  H
  C125     1.0000 0.23331  0.97221  0.48999  Biso   1.000  C
  H155     1.0000 0.34269  0.02302  0.47820  Biso   1.000  H
  H156     1.0000 0.34269  0.97698  0.52180  Biso   1.000  H
  N22      1.0000 0.28538  0.96799  0.46610  Biso   1.000  N
  H157     1.0000 0.53071  0.03410  0.10489  Biso   1.000  H
  H158     1.0000 0.55329  0.98341  0.13480  Biso   1.000  H
  C126     1.0000 0.47339  0.98810  0.13670  Biso   1.000  C
  H159     1.0000 0.42609  0.94119  0.18601  Biso   1.000  H
  H160     1.0000 0.48699  0.92369  0.18699  Biso   1.000  H
  H161     1.0000 0.39212  0.94742  0.27359  Biso   1.000  H
  H162     1.0000 0.40012  0.99752  0.31080  Biso   1.000  H
  C127     1.0000 0.40508  0.92661  0.35211  Biso   1.000  C
  H163     1.0000 0.89511  0.03071  0.46590  Biso   1.000  H
  H164     1.0000 0.86520  0.05329  0.51659  Biso   1.000  H
  C128     1.0000 0.86330  0.97339  0.51190  Biso   1.000  C
  H165     1.0000 0.81399  0.92609  0.55881  Biso   1.000  H
  H166     1.0000 0.81301  0.98699  0.57631  Biso   1.000  H
  H167     1.0000 0.72641  0.89212  0.55258  Biso   1.000  H
  H168     1.0000 0.68920  0.90012  0.50248  Biso   1.000  H
  C129     1.0000 0.64789  0.90508  0.57339  Biso   1.000  C
  C130     1.0000 0.47339  0.01190  0.86330  Biso   1.000  C
  H169     1.0000 0.42609  0.05881  0.81399  Biso   1.000  H
  H170     1.0000 0.48699  0.07631  0.81301  Biso   1.000  H
  H171     1.0000 0.55238  0.02061  0.76878  Biso   1.000  H
  C131     1.0000 0.53721  0.95432  0.81399  Biso   1.000  C
  C132     1.0000 0.58652  0.96169  0.69708  Biso   1.000  C
  C133     1.0000 0.13670  0.02661  0.51190  Biso   1.000  C
  H172     1.0000 0.18601  0.07391  0.55881  Biso   1.000  H
  H173     1.0000 0.18699  0.01301  0.57631  Biso   1.000  H
  C134     1.0000 0.18601  0.96279  0.45432  Biso   1.000  C
  H174     1.0000 0.23122  0.94762  0.52061  Biso   1.000  H
  C135     1.0000 0.30292  0.91348  0.46169  Biso   1.000  C
  H175     1.0000 0.44671  0.01659  0.13480  Biso   1.000  H
  H176     1.0000 0.46929  0.96590  0.10489  Biso   1.000  H
  C136     1.0000 0.36279  0.93800  0.38510  Biso   1.000  C
  C137     1.0000 0.43800  0.88510  0.36279  Biso   1.000  C
  H177     1.0000 0.89511  0.96929  0.53410  Biso   1.000  H
  H178     1.0000 0.86520  0.94671  0.48341  Biso   1.000  H
  C138     1.0000 0.61490  0.86279  0.56200  Biso   1.000  C
  C139     1.0000 0.63721  0.93800  0.61490  Biso   1.000  C
  H179     1.0000 0.46929  0.03410  0.89511  Biso   1.000  H
  H180     1.0000 0.44671  0.98341  0.86520  Biso   1.000  H
  C140     1.0000 0.52661  0.98810  0.86330  Biso   1.000  C
  H181     1.0000 0.57391  0.94119  0.81399  Biso   1.000  H
  H182     1.0000 0.51301  0.92369  0.81301  Biso   1.000  H
  C141     1.0000 0.59492  0.92661  0.64789  Biso   1.000  C
  H183     1.0000 0.60788  0.94742  0.72641  Biso   1.000  H
  H184     1.0000 0.59988  0.99752  0.68920  Biso   1.000  H
  H185     1.0000 0.10489  0.03071  0.53410  Biso   1.000  H
  H186     1.0000 0.13480  0.05329  0.48341  Biso   1.000  H
  C142     1.0000 0.13670  0.97339  0.48810  Biso   1.000  C
  H187     1.0000 0.18601  0.92609  0.44119  Biso   1.000  H
  H188     1.0000 0.18699  0.98699  0.42369  Biso   1.000  H
  C143     1.0000 0.35211  0.90508  0.42661  Biso   1.000  C
  H189     1.0000 0.27359  0.89212  0.44742  Biso   1.000  H
  H190     1.0000 0.31080  0.90012  0.49752  Biso   1.000  H
  H191     1.0000 0.34158  0.96831  0.37899  Biso   1.000  H
  C144     1.0000 0.42661  0.85211  0.40508  Biso   1.000  C
  H192     1.0000 0.46831  0.87899  0.34158  Biso   1.000  H
  H193     1.0000 0.62101  0.84158  0.53169  Biso   1.000  H
  C145     1.0000 0.57339  0.85211  0.59492  Biso   1.000  C
  H194     1.0000 0.65842  0.96831  0.62101  Biso   1.000  H
  H195     1.0000 0.55329  0.01659  0.86520  Biso   1.000  H
  H196     1.0000 0.53071  0.96590  0.89511  Biso   1.000  H
  C146     1.0000 0.56200  0.88510  0.63721  Biso   1.000  C
  H197     1.0000 0.10489  0.96929  0.46590  Biso   1.000  H
  H198     1.0000 0.13480  0.94671  0.51659  Biso   1.000  H
  C147     1.0000 0.38510  0.86279  0.43800  Biso   1.000  C
  C148     1.0000 0.46169  0.80292  0.41348  Biso   1.000  C
  C149     1.0000 0.53831  0.80292  0.58652  Biso   1.000  C
  H199     1.0000 0.53169  0.87899  0.65842  Biso   1.000  H
  H200     1.0000 0.37899  0.84158  0.46831  Biso   1.000  H
  N23      1.0000 0.46610  0.78538  0.46799  Biso   1.000  N
  H201     1.0000 0.44742  0.77359  0.39212  Biso   1.000  H
  H202     1.0000 0.49752  0.81080  0.40012  Biso   1.000  H
  N24      1.0000 0.53390  0.78538  0.53201  Biso   1.000  N
  H203     1.0000 0.55258  0.77359  0.60788  Biso   1.000  H
  H204     1.0000 0.50248  0.81080  0.59988  Biso   1.000  H
  C150     1.0000 0.48999  0.73331  0.47221  Biso   1.000  C
  C151     1.0000 0.50000  0.81991  0.50000  Biso   1.000  C
  C152     1.0000 0.51001  0.73331  0.52779  Biso   1.000  C
  C153     1.0000 0.45432  0.68601  0.46279  Biso   1.000  C
  H205     1.0000 0.52061  0.73122  0.44762  Biso   1.000  H
  H206     1.0000 0.47820  0.84269  0.52302  Biso   1.000  H
  H207     1.0000 0.52180  0.84269  0.47698  Biso   1.000  H
  C154     1.0000 0.54568  0.68601  0.53721  Biso   1.000  C
  H208     1.0000 0.47939  0.73122  0.55238  Biso   1.000  H
  C155     1.0000 0.48810  0.63670  0.47339  Biso   1.000  C
  H209     1.0000 0.44119  0.68601  0.42609  Biso   1.000  H
  H210     1.0000 0.42369  0.68699  0.48699  Biso   1.000  H
  C156     1.0000 0.51190  0.63670  0.52661  Biso   1.000  C
  H211     1.0000 0.55881  0.68601  0.57391  Biso   1.000  H
  H212     1.0000 0.57631  0.68699  0.51301  Biso   1.000  H
  H213     1.0000 0.46590  0.60489  0.46929  Biso   1.000  H
  H214     1.0000 0.51659  0.63480  0.44671  Biso   1.000  H
  H215     1.0000 0.53410  0.60489  0.53071  Biso   1.000  H
  H216     1.0000 0.48341  0.63480  0.55329  Biso   1.000  H
  C157     1.0000 0.51001  0.26669  0.47221  Biso   1.000  C
  N25      1.0000 0.53390  0.21462  0.46799  Biso   1.000  N
  C158     1.0000 0.54568  0.31399  0.46279  Biso   1.000  C
  H217     1.0000 0.47939  0.26878  0.44762  Biso   1.000  H
  C159     1.0000 0.48999  0.26669  0.52779  Biso   1.000  C
  C160     1.0000 0.53831  0.19708  0.41348  Biso   1.000  C
  C161     1.0000 0.50000  0.18009  0.50000  Biso   1.000  C
  C162     1.0000 0.51190  0.36330  0.47339  Biso   1.000  C
  H218     1.0000 0.55881  0.31399  0.42609  Biso   1.000  H
  H219     1.0000 0.57631  0.31301  0.48699  Biso   1.000  H
  N26      1.0000 0.46610  0.21462  0.53201  Biso   1.000  N
  C163     1.0000 0.45432  0.31399  0.53721  Biso   1.000  C
  H220     1.0000 0.52061  0.26878  0.55238  Biso   1.000  H
  H221     1.0000 0.55258  0.22641  0.39212  Biso   1.000  H
  H222     1.0000 0.50248  0.18920  0.40012  Biso   1.000  H
  C164     1.0000 0.57339  0.14789  0.40508  Biso   1.000  C
  H223     1.0000 0.52180  0.15731  0.52302  Biso   1.000  H
  H224     1.0000 0.47820  0.15731  0.47698  Biso   1.000  H
  H225     1.0000 0.53410  0.39511  0.46929  Biso   1.000  H
  H226     1.0000 0.48341  0.36520  0.44671  Biso   1.000  H
  C165     1.0000 0.48810  0.36330  0.52661  Biso   1.000  C
  C166     1.0000 0.46169  0.19708  0.58652  Biso   1.000  C
  H227     1.0000 0.44119  0.31399  0.57391  Biso   1.000  H
  H228     1.0000 0.42369  0.31301  0.51301  Biso   1.000  H
  C167     1.0000 0.56200  0.11490  0.36279  Biso   1.000  C
  C168     1.0000 0.61490  0.13721  0.43800  Biso   1.000  C
  H229     1.0000 0.46590  0.39511  0.53071  Biso   1.000  H
  H230     1.0000 0.51659  0.36520  0.55329  Biso   1.000  H
  H231     1.0000 0.44742  0.22641  0.60788  Biso   1.000  H
  H232     1.0000 0.49752  0.18920  0.59988  Biso   1.000  H
  C169     1.0000 0.42661  0.14789  0.59492  Biso   1.000  C
  H233     1.0000 0.53169  0.12101  0.34158  Biso   1.000  H
  C170     1.0000 0.59492  0.07339  0.35211  Biso   1.000  C
  C171     1.0000 0.64789  0.09492  0.42661  Biso   1.000  C
  H234     1.0000 0.62101  0.15842  0.46831  Biso   1.000  H
  C172     1.0000 0.43800  0.11490  0.63721  Biso   1.000  C
  C173     1.0000 0.38510  0.13721  0.56200  Biso   1.000  C
  C174     1.0000 0.58652  0.03831  0.30292  Biso   1.000  C
  C175     1.0000 0.63721  0.06200  0.38510  Biso   1.000  C
  C176     1.0000 0.69708  0.08652  0.46169  Biso   1.000  C
  H235     1.0000 0.46831  0.12101  0.65842  Biso   1.000  H
  C177     1.0000 0.40508  0.07339  0.64789  Biso   1.000  C
  C178     1.0000 0.35211  0.09492  0.57339  Biso   1.000  C
  H236     1.0000 0.37899  0.15842  0.53169  Biso   1.000  H
  N27      1.0000 0.53201  0.03390  0.28538  Biso   1.000  N
  H237     1.0000 0.60788  0.05258  0.27359  Biso   1.000  H
  H238     1.0000 0.59988  0.00248  0.31080  Biso   1.000  H
  H239     1.0000 0.65842  0.03169  0.37899  Biso   1.000  H
  N28      1.0000 0.71462  0.03201  0.46610  Biso   1.000  N
  H240     1.0000 0.72641  0.10788  0.44742  Biso   1.000  H
  H241     1.0000 0.68920  0.09988  0.49752  Biso   1.000  H
  C179     1.0000 0.41348  0.03831  0.69708  Biso   1.000  C
  C180     1.0000 0.36279  0.06200  0.61490  Biso   1.000  C
  C181     1.0000 0.30292  0.08652  0.53831  Biso   1.000  C
  C182     1.0000 0.52779  0.01001  0.23331  Biso   1.000  C
  C183     1.0000 0.50000  0.00000  0.31991  Biso   1.000  C
  C184     1.0000 0.76669  0.02779  0.48999  Biso   1.000  C
  C185     1.0000 0.68009  0.00000  0.50000  Biso   1.000  C
  N29      1.0000 0.46799  0.03390  0.71462  Biso   1.000  N
  H242     1.0000 0.39212  0.05258  0.72641  Biso   1.000  H
  H243     1.0000 0.40012  0.00248  0.68920  Biso   1.000  H
  H244     1.0000 0.34158  0.03169  0.62101  Biso   1.000  H
  N30      1.0000 0.28538  0.03201  0.53390  Biso   1.000  N
  H245     1.0000 0.27359  0.10788  0.55258  Biso   1.000  H
  H246     1.0000 0.31080  0.09988  0.50248  Biso   1.000  H
  C186     1.0000 0.53721  0.04568  0.18601  Biso   1.000  C
  H247     1.0000 0.55238  0.97939  0.23122  Biso   1.000  H
  C187     1.0000 0.47221  0.98999  0.23331  Biso   1.000  C
  H248     1.0000 0.47698  0.02180  0.34269  Biso   1.000  H
  N31      1.0000 0.46799  0.96610  0.28538  Biso   1.000  N
  H249     1.0000 0.52302  0.97820  0.34269  Biso   1.000  H
  C188     1.0000 0.81399  0.03721  0.45432  Biso   1.000  C
  H250     1.0000 0.76878  0.05238  0.52061  Biso   1.000  H
  C189     1.0000 0.76669  0.97221  0.51001  Biso   1.000  C
  H251     1.0000 0.65731  0.02302  0.52180  Biso   1.000  H
  H252     1.0000 0.65731  0.97698  0.47820  Biso   1.000  H
  N32      1.0000 0.71462  0.96799  0.53390  Biso   1.000  N
  C190     1.0000 0.47221  0.01001  0.76669  Biso   1.000  C
  C191     1.0000 0.50000  0.00000  0.68009  Biso   1.000  C
  C192     1.0000 0.23331  0.02779  0.51001  Biso   1.000  C
  C193     1.0000 0.31991  0.00000  0.50000  Biso   1.000  C
  C194     1.0000 0.52661  0.01190  0.13670  Biso   1.000  C
  H253     1.0000 0.57391  0.05881  0.18601  Biso   1.000  H
  H254     1.0000 0.51301  0.07631  0.18699  Biso   1.000  H
  H255     1.0000 0.44762  0.02061  0.23122  Biso   1.000  H
  C195     1.0000 0.46279  0.95432  0.18601  Biso   1.000  C
  C196     1.0000 0.41348  0.96169  0.30292  Biso   1.000  C
  C197     1.0000 0.86330  0.02661  0.48810  Biso   1.000  C
  H256     1.0000 0.81399  0.07391  0.44119  Biso   1.000  H
  H257     1.0000 0.81301  0.01301  0.42369  Biso   1.000  H
  C198     1.0000 0.81399  0.96279  0.54568  Biso   1.000  C
  H258     1.0000 0.76878  0.94762  0.47939  Biso   1.000  H
  C199     1.0000 0.69708  0.91348  0.53831  Biso   1.000  C
  C200     1.0000 0.46279  0.04568  0.81399  Biso   1.000  C
  H259     1.0000 0.44762  0.97939  0.76878  Biso   1.000  H
  C201     1.0000 0.52779  0.98999  0.76669  Biso   1.000  C
  H260     1.0000 0.52302  0.02180  0.65731  Biso   1.000  H
  N33      1.0000 0.53201  0.96610  0.71462  Biso   1.000  N
  H261     1.0000 0.47698  0.97820  0.65731  Biso   1.000  H
  C202     1.0000 0.18601  0.03721  0.54568  Biso   1.000  C
  H262     1.0000 0.23122  0.05238  0.47939  Biso   1.000  H
  C203     1.0000 0.23331  0.97221  0.48999  Biso   1.000  C
  H263     1.0000 0.34269  0.02302  0.47820  Biso   1.000  H
  H264     1.0000 0.34269  0.97698  0.52180  Biso   1.000  H
  N34      1.0000 0.28538  0.96799  0.46610  Biso   1.000  N
  H265     1.0000 0.53071  0.03410  0.10489  Biso   1.000  H
  H266     1.0000 0.55329  0.98341  0.13480  Biso   1.000  H
  C204     1.0000 0.47339  0.98810  0.13670  Biso   1.000  C
  H267     1.0000 0.42609  0.94119  0.18601  Biso   1.000  H
  H268     1.0000 0.48699  0.92369  0.18699  Biso   1.000  H
  H269     1.0000 0.39212  0.94742  0.27359  Biso   1.000  H
  H270     1.0000 0.40012  0.99752  0.31080  Biso   1.000  H
  C205     1.0000 0.40508  0.92661  0.35211  Biso   1.000  C
  H271     1.0000 0.89511  0.03071  0.46590  Biso   1.000  H
  H272     1.0000 0.86520  0.05329  0.51659  Biso   1.000  H
  C206     1.0000 0.86330  0.97339  0.51190  Biso   1.000  C
  H273     1.0000 0.81399  0.92609  0.55881  Biso   1.000  H
  H274     1.0000 0.81301  0.98699  0.57631  Biso   1.000  H
  H275     1.0000 0.72641  0.89212  0.55258  Biso   1.000  H
  H276     1.0000 0.68920  0.90012  0.50248  Biso   1.000  H
  C207     1.0000 0.64789  0.90508  0.57339  Biso   1.000  C
  C208     1.0000 0.47339  0.01190  0.86330  Biso   1.000  C
  H277     1.0000 0.42609  0.05881  0.81399  Biso   1.000  H
  H278     1.0000 0.48699  0.07631  0.81301  Biso   1.000  H
  H279     1.0000 0.55238  0.02061  0.76878  Biso   1.000  H
  C209     1.0000 0.53721  0.95432  0.81399  Biso   1.000  C
  C210     1.0000 0.58652  0.96169  0.69708  Biso   1.000  C
  C211     1.0000 0.13670  0.02661  0.51190  Biso   1.000  C
  H280     1.0000 0.18601  0.07391  0.55881  Biso   1.000  H
  H281     1.0000 0.18699  0.01301  0.57631  Biso   1.000  H
  C212     1.0000 0.18601  0.96279  0.45432  Biso   1.000  C
  H282     1.0000 0.23122  0.94762  0.52061  Biso   1.000  H
  C213     1.0000 0.30292  0.91348  0.46169  Biso   1.000  C
  H283     1.0000 0.44671  0.01659  0.13480  Biso   1.000  H
  H284     1.0000 0.46929  0.96590  0.10489  Biso   1.000  H
  C214     1.0000 0.36279  0.93800  0.38510  Biso   1.000  C
  C215     1.0000 0.43800  0.88510  0.36279  Biso   1.000  C
  H285     1.0000 0.89511  0.96929  0.53410  Biso   1.000  H
  H286     1.0000 0.86520  0.94671  0.48341  Biso   1.000  H
  C216     1.0000 0.61490  0.86279  0.56200  Biso   1.000  C
  C217     1.0000 0.63721  0.93800  0.61490  Biso   1.000  C
  H287     1.0000 0.46929  0.03410  0.89511  Biso   1.000  H
  H288     1.0000 0.44671  0.98341  0.86520  Biso   1.000  H
  C218     1.0000 0.52661  0.98810  0.86330  Biso   1.000  C
  H289     1.0000 0.57391  0.94119  0.81399  Biso   1.000  H
  H290     1.0000 0.51301  0.92369  0.81301  Biso   1.000  H
  C219     1.0000 0.59492  0.92661  0.64789  Biso   1.000  C
  H291     1.0000 0.60788  0.94742  0.72641  Biso   1.000  H
  H292     1.0000 0.59988  0.99752  0.68920  Biso   1.000  H
  H293     1.0000 0.10489  0.03071  0.53410  Biso   1.000  H
  H294     1.0000 0.13480  0.05329  0.48341  Biso   1.000  H
  C220     1.0000 0.13670  0.97339  0.48810  Biso   1.000  C
  H295     1.0000 0.18601  0.92609  0.44119  Biso   1.000  H
  H296     1.0000 0.18699  0.98699  0.42369  Biso   1.000  H
  C221     1.0000 0.35211  0.90508  0.42661  Biso   1.000  C
  H297     1.0000 0.27359  0.89212  0.44742  Biso   1.000  H
  H298     1.0000 0.31080  0.90012  0.49752  Biso   1.000  H
  H299     1.0000 0.34158  0.96831  0.37899  Biso   1.000  H
  C222     1.0000 0.42661  0.85211  0.40508  Biso   1.000  C
  H300     1.0000 0.46831  0.87899  0.34158  Biso   1.000  H
  H301     1.0000 0.62101  0.84158  0.53169  Biso   1.000  H
  C223     1.0000 0.57339  0.85211  0.59492  Biso   1.000  C
  H302     1.0000 0.65842  0.96831  0.62101  Biso   1.000  H
  H303     1.0000 0.55329  0.01659  0.86520  Biso   1.000  H
  H304     1.0000 0.53071  0.96590  0.89511  Biso   1.000  H
  C224     1.0000 0.56200  0.88510  0.63721  Biso   1.000  C
  H305     1.0000 0.10489  0.96929  0.46590  Biso   1.000  H
  H306     1.0000 0.13480  0.94671  0.51659  Biso   1.000  H
  C225     1.0000 0.38510  0.86279  0.43800  Biso   1.000  C
  C226     1.0000 0.46169  0.80292  0.41348  Biso   1.000  C
  C227     1.0000 0.53831  0.80292  0.58652  Biso   1.000  C
  H307     1.0000 0.53169  0.87899  0.65842  Biso   1.000  H
  H308     1.0000 0.37899  0.84158  0.46831  Biso   1.000  H
  N35      1.0000 0.46610  0.78538  0.46799  Biso   1.000  N
  H309     1.0000 0.44742  0.77359  0.39212  Biso   1.000  H
  H310     1.0000 0.49752  0.81080  0.40012  Biso   1.000  H
  N36      1.0000 0.53390  0.78538  0.53201  Biso   1.000  N
  H311     1.0000 0.55258  0.77359  0.60788  Biso   1.000  H
  H312     1.0000 0.50248  0.81080  0.59988  Biso   1.000  H
  C228     1.0000 0.48999  0.73331  0.47221  Biso   1.000  C
  C229     1.0000 0.50000  0.81991  0.50000  Biso   1.000  C
  C230     1.0000 0.51001  0.73331  0.52779  Biso   1.000  C
  C231     1.0000 0.45432  0.68601  0.46279  Biso   1.000  C
  H313     1.0000 0.52061  0.73122  0.44762  Biso   1.000  H
  H314     1.0000 0.47820  0.84269  0.52302  Biso   1.000  H
  H315     1.0000 0.52180  0.84269  0.47698  Biso   1.000  H
  C232     1.0000 0.54568  0.68601  0.53721  Biso   1.000  C
  H316     1.0000 0.47939  0.73122  0.55238  Biso   1.000  H
  C233     1.0000 0.48810  0.63670  0.47339  Biso   1.000  C
  H317     1.0000 0.44119  0.68601  0.42609  Biso   1.000  H
  H318     1.0000 0.42369  0.68699  0.48699  Biso   1.000  H
  C234     1.0000 0.51190  0.63670  0.52661  Biso   1.000  C
  H319     1.0000 0.55881  0.68601  0.57391  Biso   1.000  H
  H320     1.0000 0.57631  0.68699  0.51301  Biso   1.000  H
  H321     1.0000 0.46590  0.60489  0.46929  Biso   1.000  H
  H322     1.0000 0.51659  0.63480  0.44671  Biso   1.000  H
  H323     1.0000 0.53410  0.60489  0.53071  Biso   1.000  H
  H324     1.0000 0.48341  0.63480  0.55329  Biso   1.000  H
  C235     1.0000 0.47221  0.51001  0.26669  Biso   1.000  C
  C236     1.0000 0.52779  0.48999  0.26669  Biso   1.000  C
  N37      1.0000 0.46799  0.53390  0.21462  Biso   1.000  N
  C237     1.0000 0.46279  0.54568  0.31399  Biso   1.000  C
  H325     1.0000 0.44762  0.47939  0.26878  Biso   1.000  H
  N38      1.0000 0.53201  0.46610  0.21462  Biso   1.000  N
  C238     1.0000 0.53721  0.45432  0.31399  Biso   1.000  C
  H326     1.0000 0.55238  0.52061  0.26878  Biso   1.000  H
  C239     1.0000 0.50000  0.50000  0.18009  Biso   1.000  C
  C240     1.0000 0.41348  0.53831  0.19708  Biso   1.000  C
  C241     1.0000 0.47339  0.51190  0.36330  Biso   1.000  C
  H327     1.0000 0.42609  0.55881  0.31399  Biso   1.000  H
  H328     1.0000 0.48699  0.57631  0.31301  Biso   1.000  H
  C242     1.0000 0.58652  0.46169  0.19708  Biso   1.000  C
  C243     1.0000 0.52661  0.48810  0.36330  Biso   1.000  C
  H329     1.0000 0.57391  0.44119  0.31399  Biso   1.000  H
  H330     1.0000 0.51301  0.42369  0.31301  Biso   1.000  H
  H331     1.0000 0.52302  0.52180  0.15731  Biso   1.000  H
  H332     1.0000 0.47698  0.47820  0.15731  Biso   1.000  H
  H333     1.0000 0.39212  0.55258  0.22641  Biso   1.000  H
  H334     1.0000 0.40012  0.50248  0.18920  Biso   1.000  H
  C244     1.0000 0.40508  0.57339  0.14789  Biso   1.000  C
  H335     1.0000 0.46929  0.53410  0.39511  Biso   1.000  H
  H336     1.0000 0.44671  0.48341  0.36520  Biso   1.000  H
  C245     1.0000 0.59492  0.42661  0.14789  Biso   1.000  C
  H337     1.0000 0.60788  0.44742  0.22641  Biso   1.000  H
  H338     1.0000 0.59988  0.49752  0.18920  Biso   1.000  H
  H339     1.0000 0.53071  0.46590  0.39511  Biso   1.000  H
  H340     1.0000 0.55329  0.51659  0.36520  Biso   1.000  H
  C246     1.0000 0.36279  0.56200  0.11490  Biso   1.000  C
  C247     1.0000 0.43800  0.61490  0.13721  Biso   1.000  C
  C248     1.0000 0.56200  0.38510  0.13721  Biso   1.000  C
  C249     1.0000 0.63721  0.43800  0.11490  Biso   1.000  C
  H341     1.0000 0.34158  0.53169  0.12101  Biso   1.000  H
  C250     1.0000 0.35211  0.59492  0.07339  Biso   1.000  C
  C251     1.0000 0.42661  0.64789  0.09492  Biso   1.000  C
  H342     1.0000 0.46831  0.62101  0.15842  Biso   1.000  H
  C252     1.0000 0.57339  0.35211  0.09492  Biso   1.000  C
  H343     1.0000 0.53169  0.37899  0.15842  Biso   1.000  H
  C253     1.0000 0.64789  0.40508  0.07339  Biso   1.000  C
  H344     1.0000 0.65842  0.46831  0.12101  Biso   1.000  H
  C254     1.0000 0.30292  0.58652  0.03831  Biso   1.000  C
  C255     1.0000 0.38510  0.63721  0.06200  Biso   1.000  C
  C256     1.0000 0.46169  0.69708  0.08652  Biso   1.000  C
  C257     1.0000 0.53831  0.30292  0.08652  Biso   1.000  C
  C258     1.0000 0.61490  0.36279  0.06200  Biso   1.000  C
  C259     1.0000 0.69708  0.41348  0.03831  Biso   1.000  C
  N39      1.0000 0.28538  0.53201  0.03390  Biso   1.000  N
  H345     1.0000 0.27359  0.60788  0.05258  Biso   1.000  H
  H346     1.0000 0.31080  0.59988  0.00248  Biso   1.000  H
  H347     1.0000 0.37899  0.65842  0.03169  Biso   1.000  H
  N40      1.0000 0.46610  0.71462  0.03201  Biso   1.000  N
  H348     1.0000 0.44742  0.72641  0.10788  Biso   1.000  H
  H349     1.0000 0.49752  0.68920  0.09988  Biso   1.000  H
  N41      1.0000 0.53390  0.28538  0.03201  Biso   1.000  N
  H350     1.0000 0.55258  0.27359  0.10788  Biso   1.000  H
  H351     1.0000 0.50248  0.31080  0.09988  Biso   1.000  H
  H352     1.0000 0.62101  0.34158  0.03169  Biso   1.000  H
  N42      1.0000 0.71462  0.46799  0.03390  Biso   1.000  N
  H353     1.0000 0.72641  0.39212  0.05258  Biso   1.000  H
  H354     1.0000 0.68920  0.40012  0.00248  Biso   1.000  H
  C260     1.0000 0.31991  0.50000  0.00000  Biso   1.000  C
  C261     1.0000 0.23331  0.52779  0.01001  Biso   1.000  C
  C262     1.0000 0.48999  0.76669  0.02779  Biso   1.000  C
  C263     1.0000 0.50000  0.68009  0.00000  Biso   1.000  C
  C264     1.0000 0.51001  0.23331  0.02779  Biso   1.000  C
  C265     1.0000 0.50000  0.31991  0.00000  Biso   1.000  C
  C266     1.0000 0.76669  0.47221  0.01001  Biso   1.000  C
  C267     1.0000 0.68009  0.50000  0.00000  Biso   1.000  C
  N43      1.0000 0.28538  0.46799  0.96610  Biso   1.000  N
  H355     1.0000 0.34269  0.47698  0.02180  Biso   1.000  H
  H356     1.0000 0.34269  0.52302  0.97820  Biso   1.000  H
  C268     1.0000 0.23331  0.47221  0.98999  Biso   1.000  C
  C269     1.0000 0.18601  0.53721  0.04568  Biso   1.000  C
  H357     1.0000 0.23122  0.55238  0.97939  Biso   1.000  H
  C270     1.0000 0.51001  0.76669  0.97221  Biso   1.000  C
  C271     1.0000 0.45432  0.81399  0.03721  Biso   1.000  C
  H358     1.0000 0.52061  0.76878  0.05238  Biso   1.000  H
  N44      1.0000 0.53390  0.71462  0.96799  Biso   1.000  N
  H359     1.0000 0.52180  0.65731  0.02302  Biso   1.000  H
  H360     1.0000 0.47820  0.65731  0.97698  Biso   1.000  H
  C272     1.0000 0.54568  0.18601  0.03721  Biso   1.000  C
  H361     1.0000 0.47939  0.23122  0.05238  Biso   1.000  H
  C273     1.0000 0.48999  0.23331  0.97221  Biso   1.000  C
  H362     1.0000 0.47820  0.34269  0.02302  Biso   1.000  H
  H363     1.0000 0.52180  0.34269  0.97698  Biso   1.000  H
  N45      1.0000 0.46610  0.28538  0.96799  Biso   1.000  N
  C274     1.0000 0.81399  0.46279  0.04568  Biso   1.000  C
  H364     1.0000 0.76878  0.44762  0.97939  Biso   1.000  H
  C275     1.0000 0.76669  0.52779  0.98999  Biso   1.000  C
  H365     1.0000 0.65731  0.52302  0.02180  Biso   1.000  H
  N46      1.0000 0.71462  0.53201  0.96610  Biso   1.000  N
  H366     1.0000 0.65731  0.47698  0.97820  Biso   1.000  H
  C276     1.0000 0.30292  0.41348  0.96169  Biso   1.000  C
  H367     1.0000 0.23122  0.44762  0.02061  Biso   1.000  H
  C277     1.0000 0.18601  0.46279  0.95432  Biso   1.000  C
  C278     1.0000 0.13670  0.52661  0.01190  Biso   1.000  C
  H368     1.0000 0.18601  0.57391  0.05881  Biso   1.000  H
  H369     1.0000 0.18699  0.51301  0.07631  Biso   1.000  H
  C279     1.0000 0.54568  0.81399  0.96279  Biso   1.000  C
  H370     1.0000 0.47939  0.76878  0.94762  Biso   1.000  H
  C280     1.0000 0.48810  0.86330  0.02661  Biso   1.000  C
  H371     1.0000 0.44119  0.81399  0.07391  Biso   1.000  H
  H372     1.0000 0.42369  0.81301  0.01301  Biso   1.000  H
  C281     1.0000 0.53831  0.69708  0.91348  Biso   1.000  C
  C282     1.0000 0.51190  0.13670  0.02661  Biso   1.000  C
  H373     1.0000 0.55881  0.18601  0.07391  Biso   1.000  H
  H374     1.0000 0.57631  0.18699  0.01301  Biso   1.000  H
  C283     1.0000 0.45432  0.18601  0.96279  Biso   1.000  C
  H375     1.0000 0.52061  0.23122  0.94762  Biso   1.000  H
  C284     1.0000 0.46169  0.30292  0.91348  Biso   1.000  C
  C285     1.0000 0.86330  0.47339  0.01190  Biso   1.000  C
  H376     1.0000 0.81399  0.42609  0.05881  Biso   1.000  H
  H377     1.0000 0.81301  0.48699  0.07631  Biso   1.000  H
  H378     1.0000 0.76878  0.55238  0.02061  Biso   1.000  H
  C286     1.0000 0.81399  0.53721  0.95432  Biso   1.000  C
  C287     1.0000 0.69708  0.58652  0.96169  Biso   1.000  C
  C288     1.0000 0.35211  0.40508  0.92661  Biso   1.000  C
  H379     1.0000 0.27359  0.39212  0.94742  Biso   1.000  H
  H380     1.0000 0.31080  0.40012  0.99752  Biso   1.000  H
  C289     1.0000 0.13670  0.47339  0.98810  Biso   1.000  C
  H381     1.0000 0.18601  0.42609  0.94119  Biso   1.000  H
  H382     1.0000 0.18699  0.48699  0.92369  Biso   1.000  H
  H383     1.0000 0.10489  0.53071  0.03410  Biso   1.000  H
  H384     1.0000 0.13480  0.55329  0.98341  Biso   1.000  H
  C290     1.0000 0.51190  0.86330  0.97339  Biso   1.000  C
  H385     1.0000 0.55881  0.81399  0.92609  Biso   1.000  H
  H386     1.0000 0.57631  0.81301  0.98699  Biso   1.000  H
  H387     1.0000 0.46590  0.89511  0.03071  Biso   1.000  H
  H388     1.0000 0.51659  0.86520  0.05329  Biso   1.000  H
  C291     1.0000 0.57339  0.64789  0.90508  Biso   1.000  C
  H389     1.0000 0.55258  0.72641  0.89212  Biso   1.000  H
  H390     1.0000 0.50248  0.68920  0.90012  Biso   1.000  H
  H391     1.0000 0.53410  0.10489  0.03071  Biso   1.000  H
  H392     1.0000 0.48341  0.13480  0.05329  Biso   1.000  H
  C292     1.0000 0.48810  0.13670  0.97339  Biso   1.000  C
  H393     1.0000 0.44119  0.18601  0.92609  Biso   1.000  H
  H394     1.0000 0.42369  0.18699  0.98699  Biso   1.000  H
  H395     1.0000 0.44742  0.27359  0.89212  Biso   1.000  H
  H396     1.0000 0.49752  0.31080  0.90012  Biso   1.000  H
  C293     1.0000 0.42661  0.35211  0.90508  Biso   1.000  C
  H397     1.0000 0.89511  0.46929  0.03410  Biso   1.000  H
  H398     1.0000 0.86520  0.44671  0.98341  Biso   1.000  H
  C294     1.0000 0.86330  0.52661  0.98810  Biso   1.000  C
  H399     1.0000 0.81399  0.57391  0.94119  Biso   1.000  H
  H400     1.0000 0.81301  0.51301  0.92369  Biso   1.000  H
  H401     1.0000 0.72641  0.60788  0.94742  Biso   1.000  H
  H402     1.0000 0.68920  0.59988  0.99752  Biso   1.000  H
  C295     1.0000 0.64789  0.59492  0.92661  Biso   1.000  C
  C296     1.0000 0.38510  0.36279  0.93800  Biso   1.000  C
  C297     1.0000 0.36279  0.43800  0.88510  Biso   1.000  C
  H403     1.0000 0.13480  0.44671  0.01659  Biso   1.000  H
  H404     1.0000 0.10489  0.46929  0.96590  Biso   1.000  H
  H405     1.0000 0.53410  0.89511  0.96929  Biso   1.000  H
  H406     1.0000 0.48341  0.86520  0.94671  Biso   1.000  H
  C298     1.0000 0.61490  0.63721  0.93800  Biso   1.000  C
  C299     1.0000 0.56200  0.61490  0.86279  Biso   1.000  C
  H407     1.0000 0.46590  0.10489  0.96929  Biso   1.000  H
  H408     1.0000 0.51659  0.13480  0.94671  Biso   1.000  H
  C300     1.0000 0.43800  0.38510  0.86279  Biso   1.000  C
  H409     1.0000 0.86520  0.55329  0.01659  Biso   1.000  H
  H410     1.0000 0.89511  0.53071  0.96590  Biso   1.000  H
  C301     1.0000 0.63721  0.56200  0.88510  Biso   1.000  C
  H411     1.0000 0.37899  0.34158  0.96831  Biso   1.000  H
  C302     1.0000 0.40508  0.42661  0.85211  Biso   1.000  C
  H412     1.0000 0.34158  0.46831  0.87899  Biso   1.000  H
  H413     1.0000 0.62101  0.65842  0.96831  Biso   1.000  H
  C303     1.0000 0.59492  0.57339  0.85211  Biso   1.000  C
  H414     1.0000 0.53169  0.62101  0.84158  Biso   1.000  H
  H415     1.0000 0.46831  0.37899  0.84158  Biso   1.000  H
  H416     1.0000 0.65842  0.53169  0.87899  Biso   1.000  H
  C304     1.0000 0.41348  0.46169  0.80292  Biso   1.000  C
  C305     1.0000 0.58652  0.53831  0.80292  Biso   1.000  C
  N47      1.0000 0.46799  0.46610  0.78538  Biso   1.000  N
  H417     1.0000 0.39212  0.44742  0.77359  Biso   1.000  H
  H418     1.0000 0.40012  0.49752  0.81080  Biso   1.000  H
  N48      1.0000 0.53201  0.53390  0.78538  Biso   1.000  N
  H419     1.0000 0.60788  0.55258  0.77359  Biso   1.000  H
  H420     1.0000 0.59988  0.50248  0.81080  Biso   1.000  H
  C306     1.0000 0.47221  0.48999  0.73331  Biso   1.000  C
  C307     1.0000 0.50000  0.50000  0.81991  Biso   1.000  C
  C308     1.0000 0.52779  0.51001  0.73331  Biso   1.000  C
  C309     1.0000 0.46279  0.45432  0.68601  Biso   1.000  C
  H421     1.0000 0.44762  0.52061  0.73122  Biso   1.000  H
  H422     1.0000 0.52302  0.47820  0.84269  Biso   1.000  H
  H423     1.0000 0.47698  0.52180  0.84269  Biso   1.000  H
  C310     1.0000 0.53721  0.54568  0.68601  Biso   1.000  C
  H424     1.0000 0.55238  0.47939  0.73122  Biso   1.000  H
  C311     1.0000 0.47339  0.48810  0.63670  Biso   1.000  C
  H425     1.0000 0.42609  0.44119  0.68601  Biso   1.000  H
  H426     1.0000 0.48699  0.42369  0.68699  Biso   1.000  H
  C312     1.0000 0.52661  0.51190  0.63670  Biso   1.000  C
  H427     1.0000 0.57391  0.55881  0.68601  Biso   1.000  H
  H428     1.0000 0.51301  0.57631  0.68699  Biso   1.000  H
  H429     1.0000 0.46929  0.46590  0.60489  Biso   1.000  H
  H430     1.0000 0.44671  0.51659  0.63480  Biso   1.000  H
  H431     1.0000 0.53071  0.53410  0.60489  Biso   1.000  H
  H432     1.0000 0.55329  0.48341  0.63480  Biso   1.000  H
  C313     1.0000 0.47221  0.51001  0.26669  Biso   1.000  C
  C314     1.0000 0.52779  0.48999  0.26669  Biso   1.000  C
  N49      1.0000 0.46799  0.53390  0.21462  Biso   1.000  N
  C315     1.0000 0.46279  0.54568  0.31399  Biso   1.000  C
  H433     1.0000 0.44762  0.47939  0.26878  Biso   1.000  H
  N50      1.0000 0.53201  0.46610  0.21462  Biso   1.000  N
  C316     1.0000 0.53721  0.45432  0.31399  Biso   1.000  C
  H434     1.0000 0.55238  0.52061  0.26878  Biso   1.000  H
  C317     1.0000 0.50000  0.50000  0.18009  Biso   1.000  C
  C318     1.0000 0.41348  0.53831  0.19708  Biso   1.000  C
  C319     1.0000 0.47339  0.51190  0.36330  Biso   1.000  C
  H435     1.0000 0.42609  0.55881  0.31399  Biso   1.000  H
  H436     1.0000 0.48699  0.57631  0.31301  Biso   1.000  H
  C320     1.0000 0.58652  0.46169  0.19708  Biso   1.000  C
  C321     1.0000 0.52661  0.48810  0.36330  Biso   1.000  C
  H437     1.0000 0.57391  0.44119  0.31399  Biso   1.000  H
  H438     1.0000 0.51301  0.42369  0.31301  Biso   1.000  H
  H439     1.0000 0.52302  0.52180  0.15731  Biso   1.000  H
  H440     1.0000 0.47698  0.47820  0.15731  Biso   1.000  H
  H441     1.0000 0.39212  0.55258  0.22641  Biso   1.000  H
  H442     1.0000 0.40012  0.50248  0.18920  Biso   1.000  H
  C322     1.0000 0.40508  0.57339  0.14789  Biso   1.000  C
  H443     1.0000 0.46929  0.53410  0.39511  Biso   1.000  H
  H444     1.0000 0.44671  0.48341  0.36520  Biso   1.000  H
  C323     1.0000 0.59492  0.42661  0.14789  Biso   1.000  C
  H445     1.0000 0.60788  0.44742  0.22641  Biso   1.000  H
  H446     1.0000 0.59988  0.49752  0.18920  Biso   1.000  H
  H447     1.0000 0.53071  0.46590  0.39511  Biso   1.000  H
  H448     1.0000 0.55329  0.51659  0.36520  Biso   1.000  H
  C324     1.0000 0.36279  0.56200  0.11490  Biso   1.000  C
  C325     1.0000 0.43800  0.61490  0.13721  Biso   1.000  C
  C326     1.0000 0.56200  0.38510  0.13721  Biso   1.000  C
  C327     1.0000 0.63721  0.43800  0.11490  Biso   1.000  C
  H449     1.0000 0.34158  0.53169  0.12101  Biso   1.000  H
  C328     1.0000 0.35211  0.59492  0.07339  Biso   1.000  C
  C329     1.0000 0.42661  0.64789  0.09492  Biso   1.000  C
  H450     1.0000 0.46831  0.62101  0.15842  Biso   1.000  H
  C330     1.0000 0.57339  0.35211  0.09492  Biso   1.000  C
  H451     1.0000 0.53169  0.37899  0.15842  Biso   1.000  H
  C331     1.0000 0.64789  0.40508  0.07339  Biso   1.000  C
  H452     1.0000 0.65842  0.46831  0.12101  Biso   1.000  H
  C332     1.0000 0.30292  0.58652  0.03831  Biso   1.000  C
  C333     1.0000 0.38510  0.63721  0.06200  Biso   1.000  C
  C334     1.0000 0.46169  0.69708  0.08652  Biso   1.000  C
  C335     1.0000 0.53831  0.30292  0.08652  Biso   1.000  C
  C336     1.0000 0.61490  0.36279  0.06200  Biso   1.000  C
  C337     1.0000 0.69708  0.41348  0.03831  Biso   1.000  C
  N51      1.0000 0.28538  0.53201  0.03390  Biso   1.000  N
  H453     1.0000 0.27359  0.60788  0.05258  Biso   1.000  H
  H454     1.0000 0.31080  0.59988  0.00248  Biso   1.000  H
  H455     1.0000 0.37899  0.65842  0.03169  Biso   1.000  H
  N52      1.0000 0.46610  0.71462  0.03201  Biso   1.000  N
  H456     1.0000 0.44742  0.72641  0.10788  Biso   1.000  H
  H457     1.0000 0.49752  0.68920  0.09988  Biso   1.000  H
  N53      1.0000 0.53390  0.28538  0.03201  Biso   1.000  N
  H458     1.0000 0.55258  0.27359  0.10788  Biso   1.000  H
  H459     1.0000 0.50248  0.31080  0.09988  Biso   1.000  H
  H460     1.0000 0.62101  0.34158  0.03169  Biso   1.000  H
  N54      1.0000 0.71462  0.46799  0.03390  Biso   1.000  N
  H461     1.0000 0.72641  0.39212  0.05258  Biso   1.000  H
  H462     1.0000 0.68920  0.40012  0.00248  Biso   1.000  H
  C338     1.0000 0.31991  0.50000  0.00000  Biso   1.000  C
  C339     1.0000 0.23331  0.52779  0.01001  Biso   1.000  C
  C340     1.0000 0.48999  0.76669  0.02779  Biso   1.000  C
  C341     1.0000 0.50000  0.68009  0.00000  Biso   1.000  C
  C342     1.0000 0.51001  0.23331  0.02779  Biso   1.000  C
  C343     1.0000 0.50000  0.31991  0.00000  Biso   1.000  C
  C344     1.0000 0.76669  0.47221  0.01001  Biso   1.000  C
  C345     1.0000 0.68009  0.50000  0.00000  Biso   1.000  C
  N55      1.0000 0.28538  0.46799  0.96610  Biso   1.000  N
  H463     1.0000 0.34269  0.47698  0.02180  Biso   1.000  H
  H464     1.0000 0.34269  0.52302  0.97820  Biso   1.000  H
  C346     1.0000 0.23331  0.47221  0.98999  Biso   1.000  C
  C347     1.0000 0.18601  0.53721  0.04568  Biso   1.000  C
  H465     1.0000 0.23122  0.55238  0.97939  Biso   1.000  H
  C348     1.0000 0.51001  0.76669  0.97221  Biso   1.000  C
  C349     1.0000 0.45432  0.81399  0.03721  Biso   1.000  C
  H466     1.0000 0.52061  0.76878  0.05238  Biso   1.000  H
  N56      1.0000 0.53390  0.71462  0.96799  Biso   1.000  N
  H467     1.0000 0.52180  0.65731  0.02302  Biso   1.000  H
  H468     1.0000 0.47820  0.65731  0.97698  Biso   1.000  H
  C350     1.0000 0.54568  0.18601  0.03721  Biso   1.000  C
  H469     1.0000 0.47939  0.23122  0.05238  Biso   1.000  H
  C351     1.0000 0.48999  0.23331  0.97221  Biso   1.000  C
  H470     1.0000 0.47820  0.34269  0.02302  Biso   1.000  H
  H471     1.0000 0.52180  0.34269  0.97698  Biso   1.000  H
  N57      1.0000 0.46610  0.28538  0.96799  Biso   1.000  N
  C352     1.0000 0.81399  0.46279  0.04568  Biso   1.000  C
  H472     1.0000 0.76878  0.44762  0.97939  Biso   1.000  H
  C353     1.0000 0.76669  0.52779  0.98999  Biso   1.000  C
  H473     1.0000 0.65731  0.52302  0.02180  Biso   1.000  H
  N58      1.0000 0.71462  0.53201  0.96610  Biso   1.000  N
  H474     1.0000 0.65731  0.47698  0.97820  Biso   1.000  H
  C354     1.0000 0.30292  0.41348  0.96169  Biso   1.000  C
  H475     1.0000 0.23122  0.44762  0.02061  Biso   1.000  H
  C355     1.0000 0.18601  0.46279  0.95432  Biso   1.000  C
  C356     1.0000 0.13670  0.52661  0.01190  Biso   1.000  C
  H476     1.0000 0.18601  0.57391  0.05881  Biso   1.000  H
  H477     1.0000 0.18699  0.51301  0.07631  Biso   1.000  H
  C357     1.0000 0.54568  0.81399  0.96279  Biso   1.000  C
  H478     1.0000 0.47939  0.76878  0.94762  Biso   1.000  H
  C358     1.0000 0.48810  0.86330  0.02661  Biso   1.000  C
  H479     1.0000 0.44119  0.81399  0.07391  Biso   1.000  H
  H480     1.0000 0.42369  0.81301  0.01301  Biso   1.000  H
  C359     1.0000 0.53831  0.69708  0.91348  Biso   1.000  C
  C360     1.0000 0.51190  0.13670  0.02661  Biso   1.000  C
  H481     1.0000 0.55881  0.18601  0.07391  Biso   1.000  H
  H482     1.0000 0.57631  0.18699  0.01301  Biso   1.000  H
  C361     1.0000 0.45432  0.18601  0.96279  Biso   1.000  C
  H483     1.0000 0.52061  0.23122  0.94762  Biso   1.000  H
  C362     1.0000 0.46169  0.30292  0.91348  Biso   1.000  C
  C363     1.0000 0.86330  0.47339  0.01190  Biso   1.000  C
  H484     1.0000 0.81399  0.42609  0.05881  Biso   1.000  H
  H485     1.0000 0.81301  0.48699  0.07631  Biso   1.000  H
  H486     1.0000 0.76878  0.55238  0.02061  Biso   1.000  H
  C364     1.0000 0.81399  0.53721  0.95432  Biso   1.000  C
  C365     1.0000 0.69708  0.58652  0.96169  Biso   1.000  C
  C366     1.0000 0.35211  0.40508  0.92661  Biso   1.000  C
  H487     1.0000 0.27359  0.39212  0.94742  Biso   1.000  H
  H488     1.0000 0.31080  0.40012  0.99752  Biso   1.000  H
  C367     1.0000 0.13670  0.47339  0.98810  Biso   1.000  C
  H489     1.0000 0.18601  0.42609  0.94119  Biso   1.000  H
  H490     1.0000 0.18699  0.48699  0.92369  Biso   1.000  H
  H491     1.0000 0.10489  0.53071  0.03410  Biso   1.000  H
  H492     1.0000 0.13480  0.55329  0.98341  Biso   1.000  H
  C368     1.0000 0.51190  0.86330  0.97339  Biso   1.000  C
  H493     1.0000 0.55881  0.81399  0.92609  Biso   1.000  H
  H494     1.0000 0.57631  0.81301  0.98699  Biso   1.000  H
  H495     1.0000 0.46590  0.89511  0.03071  Biso   1.000  H
  H496     1.0000 0.51659  0.86520  0.05329  Biso   1.000  H
  C369     1.0000 0.57339  0.64789  0.90508  Biso   1.000  C
  H497     1.0000 0.55258  0.72641  0.89212  Biso   1.000  H
  H498     1.0000 0.50248  0.68920  0.90012  Biso   1.000  H
  H499     1.0000 0.53410  0.10489  0.03071  Biso   1.000  H
  H500     1.0000 0.48341  0.13480  0.05329  Biso   1.000  H
  C370     1.0000 0.48810  0.13670  0.97339  Biso   1.000  C
  H501     1.0000 0.44119  0.18601  0.92609  Biso   1.000  H
  H502     1.0000 0.42369  0.18699  0.98699  Biso   1.000  H
  H503     1.0000 0.44742  0.27359  0.89212  Biso   1.000  H
  H504     1.0000 0.49752  0.31080  0.90012  Biso   1.000  H
  C371     1.0000 0.42661  0.35211  0.90508  Biso   1.000  C
  H505     1.0000 0.89511  0.46929  0.03410  Biso   1.000  H
  H506     1.0000 0.86520  0.44671  0.98341  Biso   1.000  H
  C372     1.0000 0.86330  0.52661  0.98810  Biso   1.000  C
  H507     1.0000 0.81399  0.57391  0.94119  Biso   1.000  H
  H508     1.0000 0.81301  0.51301  0.92369  Biso   1.000  H
  H509     1.0000 0.72641  0.60788  0.94742  Biso   1.000  H
  H510     1.0000 0.68920  0.59988  0.99752  Biso   1.000  H
  C373     1.0000 0.64789  0.59492  0.92661  Biso   1.000  C
  C374     1.0000 0.38510  0.36279  0.93800  Biso   1.000  C
  C375     1.0000 0.36279  0.43800  0.88510  Biso   1.000  C
  H511     1.0000 0.13480  0.44671  0.01659  Biso   1.000  H
  H512     1.0000 0.10489  0.46929  0.96590  Biso   1.000  H
  H513     1.0000 0.53410  0.89511  0.96929  Biso   1.000  H
  H514     1.0000 0.48341  0.86520  0.94671  Biso   1.000  H
  C376     1.0000 0.61490  0.63721  0.93800  Biso   1.000  C
  C377     1.0000 0.56200  0.61490  0.86279  Biso   1.000  C
  H515     1.0000 0.46590  0.10489  0.96929  Biso   1.000  H
  H516     1.0000 0.51659  0.13480  0.94671  Biso   1.000  H
  C378     1.0000 0.43800  0.38510  0.86279  Biso   1.000  C
  H517     1.0000 0.86520  0.55329  0.01659  Biso   1.000  H
  H518     1.0000 0.89511  0.53071  0.96590  Biso   1.000  H
  C379     1.0000 0.63721  0.56200  0.88510  Biso   1.000  C
  H519     1.0000 0.37899  0.34158  0.96831  Biso   1.000  H
  C380     1.0000 0.40508  0.42661  0.85211  Biso   1.000  C
  H520     1.0000 0.34158  0.46831  0.87899  Biso   1.000  H
  H521     1.0000 0.62101  0.65842  0.96831  Biso   1.000  H
  C381     1.0000 0.59492  0.57339  0.85211  Biso   1.000  C
  H522     1.0000 0.53169  0.62101  0.84158  Biso   1.000  H
  H523     1.0000 0.46831  0.37899  0.84158  Biso   1.000  H
  H524     1.0000 0.65842  0.53169  0.87899  Biso   1.000  H
  C382     1.0000 0.41348  0.46169  0.80292  Biso   1.000  C
  C383     1.0000 0.58652  0.53831  0.80292  Biso   1.000  C
  N59      1.0000 0.46799  0.46610  0.78538  Biso   1.000  N
  H525     1.0000 0.39212  0.44742  0.77359  Biso   1.000  H
  H526     1.0000 0.40012  0.49752  0.81080  Biso   1.000  H
  N60      1.0000 0.53201  0.53390  0.78538  Biso   1.000  N
  H527     1.0000 0.60788  0.55258  0.77359  Biso   1.000  H
  H528     1.0000 0.59988  0.50248  0.81080  Biso   1.000  H
  C384     1.0000 0.47221  0.48999  0.73331  Biso   1.000  C
  C385     1.0000 0.50000  0.50000  0.81991  Biso   1.000  C
  C386     1.0000 0.52779  0.51001  0.73331  Biso   1.000  C
  C387     1.0000 0.46279  0.45432  0.68601  Biso   1.000  C
  H529     1.0000 0.44762  0.52061  0.73122  Biso   1.000  H
  H530     1.0000 0.52302  0.47820  0.84269  Biso   1.000  H
  H531     1.0000 0.47698  0.52180  0.84269  Biso   1.000  H
  C388     1.0000 0.53721  0.54568  0.68601  Biso   1.000  C
  H532     1.0000 0.55238  0.47939  0.73122  Biso   1.000  H
  C389     1.0000 0.47339  0.48810  0.63670  Biso   1.000  C
  H533     1.0000 0.42609  0.44119  0.68601  Biso   1.000  H
  H534     1.0000 0.48699  0.42369  0.68699  Biso   1.000  H
  C390     1.0000 0.52661  0.51190  0.63670  Biso   1.000  C
  H535     1.0000 0.57391  0.55881  0.68601  Biso   1.000  H
  H536     1.0000 0.51301  0.57631  0.68699  Biso   1.000  H
  H537     1.0000 0.46929  0.46590  0.60489  Biso   1.000  H
  H538     1.0000 0.44671  0.51659  0.63480  Biso   1.000  H
  H539     1.0000 0.53071  0.53410  0.60489  Biso   1.000  H
  H540     1.0000 0.55329  0.48341  0.63480  Biso   1.000  H
  C391     1.0000 0.26669  0.47221  0.51001  Biso   1.000  C
  N61      1.0000 0.21462  0.46799  0.53390  Biso   1.000  N
  C392     1.0000 0.31399  0.46279  0.54568  Biso   1.000  C
  H541     1.0000 0.26878  0.44762  0.47939  Biso   1.000  H
  C393     1.0000 0.26669  0.52779  0.48999  Biso   1.000  C
  C394     1.0000 0.19708  0.41348  0.53831  Biso   1.000  C
  C395     1.0000 0.18009  0.50000  0.50000  Biso   1.000  C
  C396     1.0000 0.36330  0.47339  0.51190  Biso   1.000  C
  H542     1.0000 0.31399  0.42609  0.55881  Biso   1.000  H
  H543     1.0000 0.31301  0.48699  0.57631  Biso   1.000  H
  N62      1.0000 0.21462  0.53201  0.46610  Biso   1.000  N
  C397     1.0000 0.31399  0.53721  0.45432  Biso   1.000  C
  H544     1.0000 0.26878  0.55238  0.52061  Biso   1.000  H
  H545     1.0000 0.22641  0.39212  0.55258  Biso   1.000  H
  H546     1.0000 0.18920  0.40012  0.50248  Biso   1.000  H
  C398     1.0000 0.14789  0.40508  0.57339  Biso   1.000  C
  H547     1.0000 0.15731  0.52302  0.52180  Biso   1.000  H
  H548     1.0000 0.15731  0.47698  0.47820  Biso   1.000  H
  H549     1.0000 0.39511  0.46929  0.53410  Biso   1.000  H
  H550     1.0000 0.36520  0.44671  0.48341  Biso   1.000  H
  C399     1.0000 0.36330  0.52661  0.48810  Biso   1.000  C
  C400     1.0000 0.19708  0.58652  0.46169  Biso   1.000  C
  H551     1.0000 0.31399  0.57391  0.44119  Biso   1.000  H
  H552     1.0000 0.31301  0.51301  0.42369  Biso   1.000  H
  C401     1.0000 0.11490  0.36279  0.56200  Biso   1.000  C
  C402     1.0000 0.13721  0.43800  0.61490  Biso   1.000  C
  H553     1.0000 0.39511  0.53071  0.46590  Biso   1.000  H
  H554     1.0000 0.36520  0.55329  0.51659  Biso   1.000  H
  H555     1.0000 0.22641  0.60788  0.44742  Biso   1.000  H
  H556     1.0000 0.18920  0.59988  0.49752  Biso   1.000  H
  C403     1.0000 0.14789  0.59492  0.42661  Biso   1.000  C
  H557     1.0000 0.12101  0.34158  0.53169  Biso   1.000  H
  C404     1.0000 0.07339  0.35211  0.59492  Biso   1.000  C
  C405     1.0000 0.09492  0.42661  0.64789  Biso   1.000  C
  H558     1.0000 0.15842  0.46831  0.62101  Biso   1.000  H
  C406     1.0000 0.11490  0.63721  0.43800  Biso   1.000  C
  C407     1.0000 0.13721  0.56200  0.38510  Biso   1.000  C
  C408     1.0000 0.03831  0.30292  0.58652  Biso   1.000  C
  C409     1.0000 0.06200  0.38510  0.63721  Biso   1.000  C
  C410     1.0000 0.08652  0.46169  0.69708  Biso   1.000  C
  H559     1.0000 0.12101  0.65842  0.46831  Biso   1.000  H
  C411     1.0000 0.07339  0.64789  0.40508  Biso   1.000  C
  C412     1.0000 0.09492  0.57339  0.35211  Biso   1.000  C
  H560     1.0000 0.15842  0.53169  0.37899  Biso   1.000  H
  N63      1.0000 0.03390  0.28538  0.53201  Biso   1.000  N
  H561     1.0000 0.05258  0.27359  0.60788  Biso   1.000  H
  H562     1.0000 0.00248  0.31080  0.59988  Biso   1.000  H
  H563     1.0000 0.03169  0.37899  0.65842  Biso   1.000  H
  N64      1.0000 0.03201  0.46610  0.71462  Biso   1.000  N
  H564     1.0000 0.10788  0.44742  0.72641  Biso   1.000  H
  H565     1.0000 0.09988  0.49752  0.68920  Biso   1.000  H
  C413     1.0000 0.03831  0.69708  0.41348  Biso   1.000  C
  C414     1.0000 0.06200  0.61490  0.36279  Biso   1.000  C
  C415     1.0000 0.08652  0.53831  0.30292  Biso   1.000  C
  C416     1.0000 0.01001  0.23331  0.52779  Biso   1.000  C
  C417     1.0000 0.00000  0.31991  0.50000  Biso   1.000  C
  C418     1.0000 0.02779  0.48999  0.76669  Biso   1.000  C
  C419     1.0000 0.00000  0.50000  0.68009  Biso   1.000  C
  N65      1.0000 0.03390  0.71462  0.46799  Biso   1.000  N
  H566     1.0000 0.05258  0.72641  0.39212  Biso   1.000  H
  H567     1.0000 0.00248  0.68920  0.40012  Biso   1.000  H
  H568     1.0000 0.03169  0.62101  0.34158  Biso   1.000  H
  N66      1.0000 0.03201  0.53390  0.28538  Biso   1.000  N
  H569     1.0000 0.10788  0.55258  0.27359  Biso   1.000  H
  H570     1.0000 0.09988  0.50248  0.31080  Biso   1.000  H
  C420     1.0000 0.04568  0.18601  0.53721  Biso   1.000  C
  H571     1.0000 0.97939  0.23122  0.55238  Biso   1.000  H
  C421     1.0000 0.98999  0.23331  0.47221  Biso   1.000  C
  H572     1.0000 0.02180  0.34269  0.47698  Biso   1.000  H
  N67      1.0000 0.96610  0.28538  0.46799  Biso   1.000  N
  H573     1.0000 0.97820  0.34269  0.52302  Biso   1.000  H
  C422     1.0000 0.03721  0.45432  0.81399  Biso   1.000  C
  H574     1.0000 0.05238  0.52061  0.76878  Biso   1.000  H
  C423     1.0000 0.97221  0.51001  0.76669  Biso   1.000  C
  H575     1.0000 0.02302  0.52180  0.65731  Biso   1.000  H
  H576     1.0000 0.97698  0.47820  0.65731  Biso   1.000  H
  N68      1.0000 0.96799  0.53390  0.71462  Biso   1.000  N
  C424     1.0000 0.01001  0.76669  0.47221  Biso   1.000  C
  C425     1.0000 0.00000  0.68009  0.50000  Biso   1.000  C
  C426     1.0000 0.02779  0.51001  0.23331  Biso   1.000  C
  C427     1.0000 0.00000  0.50000  0.31991  Biso   1.000  C
  C428     1.0000 0.01190  0.13670  0.52661  Biso   1.000  C
  H577     1.0000 0.05881  0.18601  0.57391  Biso   1.000  H
  H578     1.0000 0.07631  0.18699  0.51301  Biso   1.000  H
  H579     1.0000 0.02061  0.23122  0.44762  Biso   1.000  H
  C429     1.0000 0.95432  0.18601  0.46279  Biso   1.000  C
  C430     1.0000 0.96169  0.30292  0.41348  Biso   1.000  C
  C431     1.0000 0.02661  0.48810  0.86330  Biso   1.000  C
  H580     1.0000 0.07391  0.44119  0.81399  Biso   1.000  H
  H581     1.0000 0.01301  0.42369  0.81301  Biso   1.000  H
  C432     1.0000 0.96279  0.54568  0.81399  Biso   1.000  C
  H582     1.0000 0.94762  0.47939  0.76878  Biso   1.000  H
  C433     1.0000 0.91348  0.53831  0.69708  Biso   1.000  C
  C434     1.0000 0.04568  0.81399  0.46279  Biso   1.000  C
  H583     1.0000 0.97939  0.76878  0.44762  Biso   1.000  H
  C435     1.0000 0.98999  0.76669  0.52779  Biso   1.000  C
  H584     1.0000 0.02180  0.65731  0.52302  Biso   1.000  H
  N69      1.0000 0.96610  0.71462  0.53201  Biso   1.000  N
  H585     1.0000 0.97820  0.65731  0.47698  Biso   1.000  H
  C436     1.0000 0.03721  0.54568  0.18601  Biso   1.000  C
  H586     1.0000 0.05238  0.47939  0.23122  Biso   1.000  H
  C437     1.0000 0.97221  0.48999  0.23331  Biso   1.000  C
  H587     1.0000 0.02302  0.47820  0.34269  Biso   1.000  H
  H588     1.0000 0.97698  0.52180  0.34269  Biso   1.000  H
  N70      1.0000 0.96799  0.46610  0.28538  Biso   1.000  N
  H589     1.0000 0.03410  0.10489  0.53071  Biso   1.000  H
  H590     1.0000 0.98341  0.13480  0.55329  Biso   1.000  H
  C438     1.0000 0.98810  0.13670  0.47339  Biso   1.000  C
  H591     1.0000 0.94119  0.18601  0.42609  Biso   1.000  H
  H592     1.0000 0.92369  0.18699  0.48699  Biso   1.000  H
  H593     1.0000 0.94742  0.27359  0.39212  Biso   1.000  H
  H594     1.0000 0.99752  0.31080  0.40012  Biso   1.000  H
  C439     1.0000 0.92661  0.35211  0.40508  Biso   1.000  C
  H595     1.0000 0.03071  0.46590  0.89511  Biso   1.000  H
  H596     1.0000 0.05329  0.51659  0.86520  Biso   1.000  H
  C440     1.0000 0.97339  0.51190  0.86330  Biso   1.000  C
  H597     1.0000 0.92609  0.55881  0.81399  Biso   1.000  H
  H598     1.0000 0.98699  0.57631  0.81301  Biso   1.000  H
  H599     1.0000 0.89212  0.55258  0.72641  Biso   1.000  H
  H600     1.0000 0.90012  0.50248  0.68920  Biso   1.000  H
  C441     1.0000 0.90508  0.57339  0.64789  Biso   1.000  C
  C442     1.0000 0.01190  0.86330  0.47339  Biso   1.000  C
  H601     1.0000 0.05881  0.81399  0.42609  Biso   1.000  H
  H602     1.0000 0.07631  0.81301  0.48699  Biso   1.000  H
  H603     1.0000 0.02061  0.76878  0.55238  Biso   1.000  H
  C443     1.0000 0.95432  0.81399  0.53721  Biso   1.000  C
  C444     1.0000 0.96169  0.69708  0.58652  Biso   1.000  C
  C445     1.0000 0.02661  0.51190  0.13670  Biso   1.000  C
  H604     1.0000 0.07391  0.55881  0.18601  Biso   1.000  H
  H605     1.0000 0.01301  0.57631  0.18699  Biso   1.000  H
  C446     1.0000 0.96279  0.45432  0.18601  Biso   1.000  C
  H606     1.0000 0.94762  0.52061  0.23122  Biso   1.000  H
  C447     1.0000 0.91348  0.46169  0.30292  Biso   1.000  C
  H607     1.0000 0.01659  0.13480  0.44671  Biso   1.000  H
  H608     1.0000 0.96590  0.10489  0.46929  Biso   1.000  H
  C448     1.0000 0.93800  0.38510  0.36279  Biso   1.000  C
  C449     1.0000 0.88510  0.36279  0.43800  Biso   1.000  C
  H609     1.0000 0.96929  0.53410  0.89511  Biso   1.000  H
  H610     1.0000 0.94671  0.48341  0.86520  Biso   1.000  H
  C450     1.0000 0.86279  0.56200  0.61490  Biso   1.000  C
  C451     1.0000 0.93800  0.61490  0.63721  Biso   1.000  C
  H611     1.0000 0.03410  0.89511  0.46929  Biso   1.000  H
  H612     1.0000 0.98341  0.86520  0.44671  Biso   1.000  H
  C452     1.0000 0.98810  0.86330  0.52661  Biso   1.000  C
  H613     1.0000 0.94119  0.81399  0.57391  Biso   1.000  H
  H614     1.0000 0.92369  0.81301  0.51301  Biso   1.000  H
  C453     1.0000 0.92661  0.64789  0.59492  Biso   1.000  C
  H615     1.0000 0.94742  0.72641  0.60788  Biso   1.000  H
  H616     1.0000 0.99752  0.68920  0.59988  Biso   1.000  H
  H617     1.0000 0.03071  0.53410  0.10489  Biso   1.000  H
  H618     1.0000 0.05329  0.48341  0.13480  Biso   1.000  H
  C454     1.0000 0.97339  0.48810  0.13670  Biso   1.000  C
  H619     1.0000 0.92609  0.44119  0.18601  Biso   1.000  H
  H620     1.0000 0.98699  0.42369  0.18699  Biso   1.000  H
  C455     1.0000 0.90508  0.42661  0.35211  Biso   1.000  C
  H621     1.0000 0.89212  0.44742  0.27359  Biso   1.000  H
  H622     1.0000 0.90012  0.49752  0.31080  Biso   1.000  H
  H623     1.0000 0.96831  0.37899  0.34158  Biso   1.000  H
  C456     1.0000 0.85211  0.40508  0.42661  Biso   1.000  C
  H624     1.0000 0.87899  0.34158  0.46831  Biso   1.000  H
  H625     1.0000 0.84158  0.53169  0.62101  Biso   1.000  H
  C457     1.0000 0.85211  0.59492  0.57339  Biso   1.000  C
  H626     1.0000 0.96831  0.62101  0.65842  Biso   1.000  H
  H627     1.0000 0.01659  0.86520  0.55329  Biso   1.000  H
  H628     1.0000 0.96590  0.89511  0.53071  Biso   1.000  H
  C458     1.0000 0.88510  0.63721  0.56200  Biso   1.000  C
  H629     1.0000 0.96929  0.46590  0.10489  Biso   1.000  H
  H630     1.0000 0.94671  0.51659  0.13480  Biso   1.000  H
  C459     1.0000 0.86279  0.43800  0.38510  Biso   1.000  C
  C460     1.0000 0.80292  0.41348  0.46169  Biso   1.000  C
  C461     1.0000 0.80292  0.58652  0.53831  Biso   1.000  C
  H631     1.0000 0.87899  0.65842  0.53169  Biso   1.000  H
  H632     1.0000 0.84158  0.46831  0.37899  Biso   1.000  H
  N71      1.0000 0.78538  0.46799  0.46610  Biso   1.000  N
  H633     1.0000 0.77359  0.39212  0.44742  Biso   1.000  H
  H634     1.0000 0.81080  0.40012  0.49752  Biso   1.000  H
  N72      1.0000 0.78538  0.53201  0.53390  Biso   1.000  N
  H635     1.0000 0.77359  0.60788  0.55258  Biso   1.000  H
  H636     1.0000 0.81080  0.59988  0.50248  Biso   1.000  H
  C462     1.0000 0.73331  0.47221  0.48999  Biso   1.000  C
  C463     1.0000 0.81991  0.50000  0.50000  Biso   1.000  C
  C464     1.0000 0.73331  0.52779  0.51001  Biso   1.000  C
  C465     1.0000 0.68601  0.46279  0.45432  Biso   1.000  C
  H637     1.0000 0.73122  0.44762  0.52061  Biso   1.000  H
  H638     1.0000 0.84269  0.52302  0.47820  Biso   1.000  H
  H639     1.0000 0.84269  0.47698  0.52180  Biso   1.000  H
  C466     1.0000 0.68601  0.53721  0.54568  Biso   1.000  C
  H640     1.0000 0.73122  0.55238  0.47939  Biso   1.000  H
  C467     1.0000 0.63670  0.47339  0.48810  Biso   1.000  C
  H641     1.0000 0.68601  0.42609  0.44119  Biso   1.000  H
  H642     1.0000 0.68699  0.48699  0.42369  Biso   1.000  H
  C468     1.0000 0.63670  0.52661  0.51190  Biso   1.000  C
  H643     1.0000 0.68601  0.57391  0.55881  Biso   1.000  H
  H644     1.0000 0.68699  0.51301  0.57631  Biso   1.000  H
  H645     1.0000 0.60489  0.46929  0.46590  Biso   1.000  H
  H646     1.0000 0.63480  0.44671  0.51659  Biso   1.000  H
  H647     1.0000 0.60489  0.53071  0.53410  Biso   1.000  H
  H648     1.0000 0.63480  0.55329  0.48341  Biso   1.000  H
  C469     1.0000 0.26669  0.47221  0.51001  Biso   1.000  C
  N73      1.0000 0.21462  0.46799  0.53390  Biso   1.000  N
  C470     1.0000 0.31399  0.46279  0.54568  Biso   1.000  C
  H649     1.0000 0.26878  0.44762  0.47939  Biso   1.000  H
  C471     1.0000 0.26669  0.52779  0.48999  Biso   1.000  C
  C472     1.0000 0.19708  0.41348  0.53831  Biso   1.000  C
  C473     1.0000 0.18009  0.50000  0.50000  Biso   1.000  C
  C474     1.0000 0.36330  0.47339  0.51190  Biso   1.000  C
  H650     1.0000 0.31399  0.42609  0.55881  Biso   1.000  H
  H651     1.0000 0.31301  0.48699  0.57631  Biso   1.000  H
  N74      1.0000 0.21462  0.53201  0.46610  Biso   1.000  N
  C475     1.0000 0.31399  0.53721  0.45432  Biso   1.000  C
  H652     1.0000 0.26878  0.55238  0.52061  Biso   1.000  H
  H653     1.0000 0.22641  0.39212  0.55258  Biso   1.000  H
  H654     1.0000 0.18920  0.40012  0.50248  Biso   1.000  H
  C476     1.0000 0.14789  0.40508  0.57339  Biso   1.000  C
  H655     1.0000 0.15731  0.52302  0.52180  Biso   1.000  H
  H656     1.0000 0.15731  0.47698  0.47820  Biso   1.000  H
  H657     1.0000 0.39511  0.46929  0.53410  Biso   1.000  H
  H658     1.0000 0.36520  0.44671  0.48341  Biso   1.000  H
  C477     1.0000 0.36330  0.52661  0.48810  Biso   1.000  C
  C478     1.0000 0.19708  0.58652  0.46169  Biso   1.000  C
  H659     1.0000 0.31399  0.57391  0.44119  Biso   1.000  H
  H660     1.0000 0.31301  0.51301  0.42369  Biso   1.000  H
  C479     1.0000 0.11490  0.36279  0.56200  Biso   1.000  C
  C480     1.0000 0.13721  0.43800  0.61490  Biso   1.000  C
  H661     1.0000 0.39511  0.53071  0.46590  Biso   1.000  H
  H662     1.0000 0.36520  0.55329  0.51659  Biso   1.000  H
  H663     1.0000 0.22641  0.60788  0.44742  Biso   1.000  H
  H664     1.0000 0.18920  0.59988  0.49752  Biso   1.000  H
  C481     1.0000 0.14789  0.59492  0.42661  Biso   1.000  C
  H665     1.0000 0.12101  0.34158  0.53169  Biso   1.000  H
  C482     1.0000 0.07339  0.35211  0.59492  Biso   1.000  C
  C483     1.0000 0.09492  0.42661  0.64789  Biso   1.000  C
  H666     1.0000 0.15842  0.46831  0.62101  Biso   1.000  H
  C484     1.0000 0.11490  0.63721  0.43800  Biso   1.000  C
  C485     1.0000 0.13721  0.56200  0.38510  Biso   1.000  C
  C486     1.0000 0.03831  0.30292  0.58652  Biso   1.000  C
  C487     1.0000 0.06200  0.38510  0.63721  Biso   1.000  C
  C488     1.0000 0.08652  0.46169  0.69708  Biso   1.000  C
  H667     1.0000 0.12101  0.65842  0.46831  Biso   1.000  H
  C489     1.0000 0.07339  0.64789  0.40508  Biso   1.000  C
  C490     1.0000 0.09492  0.57339  0.35211  Biso   1.000  C
  H668     1.0000 0.15842  0.53169  0.37899  Biso   1.000  H
  N75      1.0000 0.03390  0.28538  0.53201  Biso   1.000  N
  H669     1.0000 0.05258  0.27359  0.60788  Biso   1.000  H
  H670     1.0000 0.00248  0.31080  0.59988  Biso   1.000  H
  H671     1.0000 0.03169  0.37899  0.65842  Biso   1.000  H
  N76      1.0000 0.03201  0.46610  0.71462  Biso   1.000  N
  H672     1.0000 0.10788  0.44742  0.72641  Biso   1.000  H
  H673     1.0000 0.09988  0.49752  0.68920  Biso   1.000  H
  C491     1.0000 0.03831  0.69708  0.41348  Biso   1.000  C
  C492     1.0000 0.06200  0.61490  0.36279  Biso   1.000  C
  C493     1.0000 0.08652  0.53831  0.30292  Biso   1.000  C
  C494     1.0000 0.01001  0.23331  0.52779  Biso   1.000  C
  C495     1.0000 0.00000  0.31991  0.50000  Biso   1.000  C
  C496     1.0000 0.02779  0.48999  0.76669  Biso   1.000  C
  C497     1.0000 0.00000  0.50000  0.68009  Biso   1.000  C
  N77      1.0000 0.03390  0.71462  0.46799  Biso   1.000  N
  H674     1.0000 0.05258  0.72641  0.39212  Biso   1.000  H
  H675     1.0000 0.00248  0.68920  0.40012  Biso   1.000  H
  H676     1.0000 0.03169  0.62101  0.34158  Biso   1.000  H
  N78      1.0000 0.03201  0.53390  0.28538  Biso   1.000  N
  H677     1.0000 0.10788  0.55258  0.27359  Biso   1.000  H
  H678     1.0000 0.09988  0.50248  0.31080  Biso   1.000  H
  C498     1.0000 0.04568  0.18601  0.53721  Biso   1.000  C
  H679     1.0000 0.97939  0.23122  0.55238  Biso   1.000  H
  C499     1.0000 0.98999  0.23331  0.47221  Biso   1.000  C
  H680     1.0000 0.02180  0.34269  0.47698  Biso   1.000  H
  N79      1.0000 0.96610  0.28538  0.46799  Biso   1.000  N
  H681     1.0000 0.97820  0.34269  0.52302  Biso   1.000  H
  C500     1.0000 0.03721  0.45432  0.81399  Biso   1.000  C
  H682     1.0000 0.05238  0.52061  0.76878  Biso   1.000  H
  C501     1.0000 0.97221  0.51001  0.76669  Biso   1.000  C
  H683     1.0000 0.02302  0.52180  0.65731  Biso   1.000  H
  H684     1.0000 0.97698  0.47820  0.65731  Biso   1.000  H
  N80      1.0000 0.96799  0.53390  0.71462  Biso   1.000  N
  C502     1.0000 0.01001  0.76669  0.47221  Biso   1.000  C
  C503     1.0000 0.00000  0.68009  0.50000  Biso   1.000  C
  C504     1.0000 0.02779  0.51001  0.23331  Biso   1.000  C
  C505     1.0000 0.00000  0.50000  0.31991  Biso   1.000  C
  C506     1.0000 0.01190  0.13670  0.52661  Biso   1.000  C
  H685     1.0000 0.05881  0.18601  0.57391  Biso   1.000  H
  H686     1.0000 0.07631  0.18699  0.51301  Biso   1.000  H
  H687     1.0000 0.02061  0.23122  0.44762  Biso   1.000  H
  C507     1.0000 0.95432  0.18601  0.46279  Biso   1.000  C
  C508     1.0000 0.96169  0.30292  0.41348  Biso   1.000  C
  C509     1.0000 0.02661  0.48810  0.86330  Biso   1.000  C
  H688     1.0000 0.07391  0.44119  0.81399  Biso   1.000  H
  H689     1.0000 0.01301  0.42369  0.81301  Biso   1.000  H
  C510     1.0000 0.96279  0.54568  0.81399  Biso   1.000  C
  H690     1.0000 0.94762  0.47939  0.76878  Biso   1.000  H
  C511     1.0000 0.91348  0.53831  0.69708  Biso   1.000  C
  C512     1.0000 0.04568  0.81399  0.46279  Biso   1.000  C
  H691     1.0000 0.97939  0.76878  0.44762  Biso   1.000  H
  C513     1.0000 0.98999  0.76669  0.52779  Biso   1.000  C
  H692     1.0000 0.02180  0.65731  0.52302  Biso   1.000  H
  N81      1.0000 0.96610  0.71462  0.53201  Biso   1.000  N
  H693     1.0000 0.97820  0.65731  0.47698  Biso   1.000  H
  C514     1.0000 0.03721  0.54568  0.18601  Biso   1.000  C
  H694     1.0000 0.05238  0.47939  0.23122  Biso   1.000  H
  C515     1.0000 0.97221  0.48999  0.23331  Biso   1.000  C
  H695     1.0000 0.02302  0.47820  0.34269  Biso   1.000  H
  H696     1.0000 0.97698  0.52180  0.34269  Biso   1.000  H
  N82      1.0000 0.96799  0.46610  0.28538  Biso   1.000  N
  H697     1.0000 0.03410  0.10489  0.53071  Biso   1.000  H
  H698     1.0000 0.98341  0.13480  0.55329  Biso   1.000  H
  C516     1.0000 0.98810  0.13670  0.47339  Biso   1.000  C
  H699     1.0000 0.94119  0.18601  0.42609  Biso   1.000  H
  H700     1.0000 0.92369  0.18699  0.48699  Biso   1.000  H
  H701     1.0000 0.94742  0.27359  0.39212  Biso   1.000  H
  H702     1.0000 0.99752  0.31080  0.40012  Biso   1.000  H
  C517     1.0000 0.92661  0.35211  0.40508  Biso   1.000  C
  H703     1.0000 0.03071  0.46590  0.89511  Biso   1.000  H
  H704     1.0000 0.05329  0.51659  0.86520  Biso   1.000  H
  C518     1.0000 0.97339  0.51190  0.86330  Biso   1.000  C
  H705     1.0000 0.92609  0.55881  0.81399  Biso   1.000  H
  H706     1.0000 0.98699  0.57631  0.81301  Biso   1.000  H
  H707     1.0000 0.89212  0.55258  0.72641  Biso   1.000  H
  H708     1.0000 0.90012  0.50248  0.68920  Biso   1.000  H
  C519     1.0000 0.90508  0.57339  0.64789  Biso   1.000  C
  C520     1.0000 0.01190  0.86330  0.47339  Biso   1.000  C
  H709     1.0000 0.05881  0.81399  0.42609  Biso   1.000  H
  H710     1.0000 0.07631  0.81301  0.48699  Biso   1.000  H
  H711     1.0000 0.02061  0.76878  0.55238  Biso   1.000  H
  C521     1.0000 0.95432  0.81399  0.53721  Biso   1.000  C
  C522     1.0000 0.96169  0.69708  0.58652  Biso   1.000  C
  C523     1.0000 0.02661  0.51190  0.13670  Biso   1.000  C
  H712     1.0000 0.07391  0.55881  0.18601  Biso   1.000  H
  H713     1.0000 0.01301  0.57631  0.18699  Biso   1.000  H
  C524     1.0000 0.96279  0.45432  0.18601  Biso   1.000  C
  H714     1.0000 0.94762  0.52061  0.23122  Biso   1.000  H
  C525     1.0000 0.91348  0.46169  0.30292  Biso   1.000  C
  H715     1.0000 0.01659  0.13480  0.44671  Biso   1.000  H
  H716     1.0000 0.96590  0.10489  0.46929  Biso   1.000  H
  C526     1.0000 0.93800  0.38510  0.36279  Biso   1.000  C
  C527     1.0000 0.88510  0.36279  0.43800  Biso   1.000  C
  H717     1.0000 0.96929  0.53410  0.89511  Biso   1.000  H
  H718     1.0000 0.94671  0.48341  0.86520  Biso   1.000  H
  C528     1.0000 0.86279  0.56200  0.61490  Biso   1.000  C
  C529     1.0000 0.93800  0.61490  0.63721  Biso   1.000  C
  H719     1.0000 0.03410  0.89511  0.46929  Biso   1.000  H
  H720     1.0000 0.98341  0.86520  0.44671  Biso   1.000  H
  C530     1.0000 0.98810  0.86330  0.52661  Biso   1.000  C
  H721     1.0000 0.94119  0.81399  0.57391  Biso   1.000  H
  H722     1.0000 0.92369  0.81301  0.51301  Biso   1.000  H
  C531     1.0000 0.92661  0.64789  0.59492  Biso   1.000  C
  H723     1.0000 0.94742  0.72641  0.60788  Biso   1.000  H
  H724     1.0000 0.99752  0.68920  0.59988  Biso   1.000  H
  H725     1.0000 0.03071  0.53410  0.10489  Biso   1.000  H
  H726     1.0000 0.05329  0.48341  0.13480  Biso   1.000  H
  C532     1.0000 0.97339  0.48810  0.13670  Biso   1.000  C
  H727     1.0000 0.92609  0.44119  0.18601  Biso   1.000  H
  H728     1.0000 0.98699  0.42369  0.18699  Biso   1.000  H
  C533     1.0000 0.90508  0.42661  0.35211  Biso   1.000  C
  H729     1.0000 0.89212  0.44742  0.27359  Biso   1.000  H
  H730     1.0000 0.90012  0.49752  0.31080  Biso   1.000  H
  H731     1.0000 0.96831  0.37899  0.34158  Biso   1.000  H
  C534     1.0000 0.85211  0.40508  0.42661  Biso   1.000  C
  H732     1.0000 0.87899  0.34158  0.46831  Biso   1.000  H
  H733     1.0000 0.84158  0.53169  0.62101  Biso   1.000  H
  C535     1.0000 0.85211  0.59492  0.57339  Biso   1.000  C
  H734     1.0000 0.96831  0.62101  0.65842  Biso   1.000  H
  H735     1.0000 0.01659  0.86520  0.55329  Biso   1.000  H
  H736     1.0000 0.96590  0.89511  0.53071  Biso   1.000  H
  C536     1.0000 0.88510  0.63721  0.56200  Biso   1.000  C
  H737     1.0000 0.96929  0.46590  0.10489  Biso   1.000  H
  H738     1.0000 0.94671  0.51659  0.13480  Biso   1.000  H
  C537     1.0000 0.86279  0.43800  0.38510  Biso   1.000  C
  C538     1.0000 0.80292  0.41348  0.46169  Biso   1.000  C
  C539     1.0000 0.80292  0.58652  0.53831  Biso   1.000  C
  H739     1.0000 0.87899  0.65842  0.53169  Biso   1.000  H
  H740     1.0000 0.84158  0.46831  0.37899  Biso   1.000  H
  N83      1.0000 0.78538  0.46799  0.46610  Biso   1.000  N
  H741     1.0000 0.77359  0.39212  0.44742  Biso   1.000  H
  H742     1.0000 0.81080  0.40012  0.49752  Biso   1.000  H
  N84      1.0000 0.78538  0.53201  0.53390  Biso   1.000  N
  H743     1.0000 0.77359  0.60788  0.55258  Biso   1.000  H
  H744     1.0000 0.81080  0.59988  0.50248  Biso   1.000  H
  C540     1.0000 0.73331  0.47221  0.48999  Biso   1.000  C
  C541     1.0000 0.81991  0.50000  0.50000  Biso   1.000  C
  C542     1.0000 0.73331  0.52779  0.51001  Biso   1.000  C
  C543     1.0000 0.68601  0.46279  0.45432  Biso   1.000  C
  H745     1.0000 0.73122  0.44762  0.52061  Biso   1.000  H
  H746     1.0000 0.84269  0.52302  0.47820  Biso   1.000  H
  H747     1.0000 0.84269  0.47698  0.52180  Biso   1.000  H
  C544     1.0000 0.68601  0.53721  0.54568  Biso   1.000  C
  H748     1.0000 0.73122  0.55238  0.47939  Biso   1.000  H
  C545     1.0000 0.63670  0.47339  0.48810  Biso   1.000  C
  H749     1.0000 0.68601  0.42609  0.44119  Biso   1.000  H
  H750     1.0000 0.68699  0.48699  0.42369  Biso   1.000  H
  C546     1.0000 0.63670  0.52661  0.51190  Biso   1.000  C
  H751     1.0000 0.68601  0.57391  0.55881  Biso   1.000  H
  H752     1.0000 0.68699  0.51301  0.57631  Biso   1.000  H
  H753     1.0000 0.60489  0.46929  0.46590  Biso   1.000  H
  H754     1.0000 0.63480  0.44671  0.51659  Biso   1.000  H
  H755     1.0000 0.60489  0.53071  0.53410  Biso   1.000  H
  H756     1.0000 0.63480  0.55329  0.48341  Biso   1.000  H
  C547     1.0000 0.19708  0.08652  0.96169  Biso   1.000  C
  N85      1.0000 0.21462  0.03201  0.96610  Biso   1.000  N
  H757     1.0000 0.22641  0.10788  0.94742  Biso   1.000  H
  H758     1.0000 0.18920  0.09988  0.99752  Biso   1.000  H
  C548     1.0000 0.14789  0.09492  0.92661  Biso   1.000  C
  C549     1.0000 0.18009  0.00000  0.00000  Biso   1.000  C
  C550     1.0000 0.26669  0.02779  0.98999  Biso   1.000  C
  C551     1.0000 0.11490  0.13721  0.93800  Biso   1.000  C
  C552     1.0000 0.13721  0.06200  0.88510  Biso   1.000  C
  H759     1.0000 0.15731  0.02302  0.02180  Biso   1.000  H
  H760     1.0000 0.15731  0.97698  0.97820  Biso   1.000  H
  N86      1.0000 0.21462  0.96799  0.03390  Biso   1.000  N
  C553     1.0000 0.26669  0.97221  0.01001  Biso   1.000  C
  H761     1.0000 0.26878  0.05238  0.02061  Biso   1.000  H
  C554     1.0000 0.31399  0.03721  0.95432  Biso   1.000  C
  H762     1.0000 0.12101  0.15842  0.96831  Biso   1.000  H
  C555     1.0000 0.07339  0.14789  0.90508  Biso   1.000  C
  C556     1.0000 0.09492  0.07339  0.85211  Biso   1.000  C
  H763     1.0000 0.15842  0.03169  0.87899  Biso   1.000  H
  C557     1.0000 0.19708  0.91348  0.03831  Biso   1.000  C
  H764     1.0000 0.26878  0.94762  0.97939  Biso   1.000  H
  C558     1.0000 0.31399  0.96279  0.04568  Biso   1.000  C
  C559     1.0000 0.36330  0.02661  0.98810  Biso   1.000  C
  H765     1.0000 0.31399  0.07391  0.94119  Biso   1.000  H
  H766     1.0000 0.31301  0.01301  0.92369  Biso   1.000  H
  C560     1.0000 0.03831  0.19708  0.91348  Biso   1.000  C
  C561     1.0000 0.06200  0.11490  0.86279  Biso   1.000  C
  C562     1.0000 0.08652  0.03831  0.80292  Biso   1.000  C
  H767     1.0000 0.22641  0.89212  0.05258  Biso   1.000  H
  H768     1.0000 0.18920  0.90012  0.00248  Biso   1.000  H
  C563     1.0000 0.14789  0.90508  0.07339  Biso   1.000  C
  C564     1.0000 0.36330  0.97339  0.01190  Biso   1.000  C
  H769     1.0000 0.31399  0.92609  0.05881  Biso   1.000  H
  H770     1.0000 0.31301  0.98699  0.07631  Biso   1.000  H
  H771     1.0000 0.36520  0.05329  0.01659  Biso   1.000  H
  H772     1.0000 0.39511  0.03071  0.96590  Biso   1.000  H
  N87      1.0000 0.03390  0.21462  0.96799  Biso   1.000  N
  H773     1.0000 0.05258  0.22641  0.89212  Biso   1.000  H
  H774     1.0000 0.00248  0.18920  0.90012  Biso   1.000  H
  H775     1.0000 0.03169  0.12101  0.84158  Biso   1.000  H
  N88      1.0000 0.03201  0.03390  0.78538  Biso   1.000  N
  H776     1.0000 0.10788  0.05258  0.77359  Biso   1.000  H
  H777     1.0000 0.09988  0.00248  0.81080  Biso   1.000  H
  C565     1.0000 0.11490  0.86279  0.06200  Biso   1.000  C
  C566     1.0000 0.13721  0.93800  0.11490  Biso   1.000  C
  H778     1.0000 0.36520  0.94671  0.98341  Biso   1.000  H
  H779     1.0000 0.39511  0.96929  0.03410  Biso   1.000  H
  C567     1.0000 0.00000  0.18009  0.00000  Biso   1.000  C
  C568     1.0000 0.01001  0.26669  0.97221  Biso   1.000  C
  C569     1.0000 0.02779  0.01001  0.73331  Biso   1.000  C
  C570     1.0000 0.00000  0.00000  0.81991  Biso   1.000  C
  H780     1.0000 0.12101  0.84158  0.03169  Biso   1.000  H
  C571     1.0000 0.07339  0.85211  0.09492  Biso   1.000  C
  C572     1.0000 0.09492  0.92661  0.14789  Biso   1.000  C
  H781     1.0000 0.15842  0.96831  0.12101  Biso   1.000  H
  H782     1.0000 0.02180  0.15731  0.02302  Biso   1.000  H
  H783     1.0000 0.97820  0.15731  0.97698  Biso   1.000  H
  N89      1.0000 0.96610  0.21462  0.03201  Biso   1.000  N
  H784     1.0000 0.97939  0.26878  0.94762  Biso   1.000  H
  C573     1.0000 0.98999  0.26669  0.02779  Biso   1.000  C
  C574     1.0000 0.04568  0.31399  0.96279  Biso   1.000  C
  C575     1.0000 0.97221  0.98999  0.73331  Biso   1.000  C
  H785     1.0000 0.05238  0.97939  0.73122  Biso   1.000  H
  C576     1.0000 0.03721  0.04568  0.68601  Biso   1.000  C
  N90      1.0000 0.96799  0.96610  0.78538  Biso   1.000  N
  H786     1.0000 0.97698  0.02180  0.84269  Biso   1.000  H
  H787     1.0000 0.02302  0.97820  0.84269  Biso   1.000  H
  C577     1.0000 0.03831  0.80292  0.08652  Biso   1.000  C
  C578     1.0000 0.06200  0.88510  0.13721  Biso   1.000  C
  C579     1.0000 0.08652  0.96169  0.19708  Biso   1.000  C
  C580     1.0000 0.96169  0.19708  0.08652  Biso   1.000  C
  H788     1.0000 0.02061  0.26878  0.05238  Biso   1.000  H
  C581     1.0000 0.95432  0.31399  0.03721  Biso   1.000  C
  C582     1.0000 0.01190  0.36330  0.97339  Biso   1.000  C
  H789     1.0000 0.05881  0.31399  0.92609  Biso   1.000  H
  H790     1.0000 0.07631  0.31301  0.98699  Biso   1.000  H
  C583     1.0000 0.96279  0.95432  0.68601  Biso   1.000  C
  H791     1.0000 0.94762  0.02061  0.73122  Biso   1.000  H
  C584     1.0000 0.02661  0.01190  0.63670  Biso   1.000  C
  H792     1.0000 0.07391  0.05881  0.68601  Biso   1.000  H
  H793     1.0000 0.01301  0.07631  0.68699  Biso   1.000  H
  C585     1.0000 0.91348  0.96169  0.80292  Biso   1.000  C
  N91      1.0000 0.03390  0.78538  0.03201  Biso   1.000  N
  H794     1.0000 0.05258  0.77359  0.10788  Biso   1.000  H
  H795     1.0000 0.00248  0.81080  0.09988  Biso   1.000  H
  H796     1.0000 0.03169  0.87899  0.15842  Biso   1.000  H
  N92      1.0000 0.03201  0.96610  0.21462  Biso   1.000  N
  H797     1.0000 0.10788  0.94742  0.22641  Biso   1.000  H
  H798     1.0000 0.09988  0.99752  0.18920  Biso   1.000  H
  H799     1.0000 0.94742  0.22641  0.10788  Biso   1.000  H
  H800     1.0000 0.99752  0.18920  0.09988  Biso   1.000  H
  C586     1.0000 0.92661  0.14789  0.09492  Biso   1.000  C
  C587     1.0000 0.98810  0.36330  0.02661  Biso   1.000  C
  H801     1.0000 0.94119  0.31399  0.07391  Biso   1.000  H
  H802     1.0000 0.92369  0.31301  0.01301  Biso   1.000  H
  H803     1.0000 0.98341  0.36520  0.94671  Biso   1.000  H
  H804     1.0000 0.03410  0.39511  0.96929  Biso   1.000  H
  C588     1.0000 0.97339  0.98810  0.63670  Biso   1.000  C
  H805     1.0000 0.92609  0.94119  0.68601  Biso   1.000  H
  H806     1.0000 0.98699  0.92369  0.68699  Biso   1.000  H
  H807     1.0000 0.05329  0.98341  0.63480  Biso   1.000  H
  H808     1.0000 0.03071  0.03410  0.60489  Biso   1.000  H
  H809     1.0000 0.89212  0.94742  0.77359  Biso   1.000  H
  H810     1.0000 0.90012  0.99752  0.81080  Biso   1.000  H
  C589     1.0000 0.90508  0.92661  0.85211  Biso   1.000  C
  C590     1.0000 0.01001  0.73331  0.02779  Biso   1.000  C
  C591     1.0000 0.00000  0.81991  0.00000  Biso   1.000  C
  C592     1.0000 0.00000  0.00000  0.18009  Biso   1.000  C
  C593     1.0000 0.02779  0.98999  0.26669  Biso   1.000  C
  C594     1.0000 0.93800  0.11490  0.13721  Biso   1.000  C
  C595     1.0000 0.88510  0.13721  0.06200  Biso   1.000  C
  H811     1.0000 0.01659  0.36520  0.05329  Biso   1.000  H
  H812     1.0000 0.96590  0.39511  0.03071  Biso   1.000  H
  H813     1.0000 0.96929  0.96590  0.60489  Biso   1.000  H
  H814     1.0000 0.94671  0.01659  0.63480  Biso   1.000  H
  C596     1.0000 0.93800  0.88510  0.86279  Biso   1.000  C
  C597     1.0000 0.86279  0.93800  0.88510  Biso   1.000  C
  C598     1.0000 0.98999  0.73331  0.97221  Biso   1.000  C
  H815     1.0000 0.97939  0.73122  0.05238  Biso   1.000  H
  C599     1.0000 0.04568  0.68601  0.03721  Biso   1.000  C
  N93      1.0000 0.96610  0.78538  0.96799  Biso   1.000  N
  H816     1.0000 0.97820  0.84269  0.02302  Biso   1.000  H
  H817     1.0000 0.02180  0.84269  0.97698  Biso   1.000  H
  H818     1.0000 0.02302  0.02180  0.15731  Biso   1.000  H
  H819     1.0000 0.97698  0.97820  0.15731  Biso   1.000  H
  N94      1.0000 0.96799  0.03390  0.21462  Biso   1.000  N
  H820     1.0000 0.05238  0.02061  0.26878  Biso   1.000  H
  C600     1.0000 0.97221  0.01001  0.26669  Biso   1.000  C
  C601     1.0000 0.03721  0.95432  0.31399  Biso   1.000  C
  C602     1.0000 0.90508  0.07339  0.14789  Biso   1.000  C
  H821     1.0000 0.96831  0.12101  0.15842  Biso   1.000  H
  C603     1.0000 0.85211  0.09492  0.07339  Biso   1.000  C
  H822     1.0000 0.87899  0.15842  0.03169  Biso   1.000  H
  C604     1.0000 0.92661  0.85211  0.90508  Biso   1.000  C
  H823     1.0000 0.96831  0.87899  0.84158  Biso   1.000  H
  C605     1.0000 0.85211  0.90508  0.92661  Biso   1.000  C
  H824     1.0000 0.84158  0.96831  0.87899  Biso   1.000  H
  C606     1.0000 0.95432  0.68601  0.96279  Biso   1.000  C
  H825     1.0000 0.02061  0.73122  0.94762  Biso   1.000  H
  C607     1.0000 0.01190  0.63670  0.02661  Biso   1.000  C
  H826     1.0000 0.05881  0.68601  0.07391  Biso   1.000  H
  H827     1.0000 0.07631  0.68699  0.01301  Biso   1.000  H
  C608     1.0000 0.96169  0.80292  0.91348  Biso   1.000  C
  C609     1.0000 0.91348  0.03831  0.19708  Biso   1.000  C
  H828     1.0000 0.94762  0.97939  0.26878  Biso   1.000  H
  C610     1.0000 0.96279  0.04568  0.31399  Biso   1.000  C
  C611     1.0000 0.02661  0.98810  0.36330  Biso   1.000  C
  H829     1.0000 0.07391  0.94119  0.31399  Biso   1.000  H
  H830     1.0000 0.01301  0.92369  0.31301  Biso   1.000  H
  C612     1.0000 0.86279  0.06200  0.11490  Biso   1.000  C
  C613     1.0000 0.80292  0.08652  0.03831  Biso   1.000  C
  C614     1.0000 0.88510  0.86279  0.93800  Biso   1.000  C
  C615     1.0000 0.80292  0.91348  0.96169  Biso   1.000  C
  C616     1.0000 0.98810  0.63670  0.97339  Biso   1.000  C
  H831     1.0000 0.94119  0.68601  0.92609  Biso   1.000  H
  H832     1.0000 0.92369  0.68699  0.98699  Biso   1.000  H
  H833     1.0000 0.98341  0.63480  0.05329  Biso   1.000  H
  H834     1.0000 0.03410  0.60489  0.03071  Biso   1.000  H
  H835     1.0000 0.94742  0.77359  0.89212  Biso   1.000  H
  H836     1.0000 0.99752  0.81080  0.90012  Biso   1.000  H
  H837     1.0000 0.89212  0.05258  0.22641  Biso   1.000  H
  H838     1.0000 0.90012  0.00248  0.18920  Biso   1.000  H
  C617     1.0000 0.97339  0.01190  0.36330  Biso   1.000  C
  H839     1.0000 0.92609  0.05881  0.31399  Biso   1.000  H
  H840     1.0000 0.98699  0.07631  0.31301  Biso   1.000  H
  H841     1.0000 0.05329  0.01659  0.36520  Biso   1.000  H
  H842     1.0000 0.03071  0.96590  0.39511  Biso   1.000  H
  H843     1.0000 0.84158  0.03169  0.12101  Biso   1.000  H
  N95      1.0000 0.78538  0.03201  0.03390  Biso   1.000  N
  H844     1.0000 0.77359  0.10788  0.05258  Biso   1.000  H
  H845     1.0000 0.81080  0.09988  0.00248  Biso   1.000  H
  H846     1.0000 0.87899  0.84158  0.96831  Biso   1.000  H
  N96      1.0000 0.78538  0.96799  0.96610  Biso   1.000  N
  H847     1.0000 0.77359  0.89212  0.94742  Biso   1.000  H
  H848     1.0000 0.81080  0.90012  0.99752  Biso   1.000  H
  H849     1.0000 0.96590  0.60489  0.96929  Biso   1.000  H
  H850     1.0000 0.01659  0.63480  0.94671  Biso   1.000  H
  H851     1.0000 0.94671  0.98341  0.36520  Biso   1.000  H
  H852     1.0000 0.96929  0.03410  0.39511  Biso   1.000  H
  C618     1.0000 0.81991  0.00000  0.00000  Biso   1.000  C
  C619     1.0000 0.73331  0.02779  0.01001  Biso   1.000  C
  C620     1.0000 0.73331  0.97221  0.98999  Biso   1.000  C
  H853     1.0000 0.84269  0.97698  0.02180  Biso   1.000  H
  H854     1.0000 0.84269  0.02302  0.97820  Biso   1.000  H
  H855     1.0000 0.73122  0.05238  0.97939  Biso   1.000  H
  C621     1.0000 0.68601  0.03721  0.04568  Biso   1.000  C
  C622     1.0000 0.68601  0.96279  0.95432  Biso   1.000  C
  H856     1.0000 0.73122  0.94762  0.02061  Biso   1.000  H
  C623     1.0000 0.63670  0.02661  0.01190  Biso   1.000  C
  H857     1.0000 0.68601  0.07391  0.05881  Biso   1.000  H
  H858     1.0000 0.68699  0.01301  0.07631  Biso   1.000  H
  C624     1.0000 0.63670  0.97339  0.98810  Biso   1.000  C
  H859     1.0000 0.68601  0.92609  0.94119  Biso   1.000  H
  H860     1.0000 0.68699  0.98699  0.92369  Biso   1.000  H
  H861     1.0000 0.63480  0.05329  0.98341  Biso   1.000  H
  H862     1.0000 0.60489  0.03071  0.03410  Biso   1.000  H
  H863     1.0000 0.60489  0.96929  0.96590  Biso   1.000  H
  H864     1.0000 0.63480  0.94671  0.01659  Biso   1.000  H
  C625     1.0000 0.19708  0.08652  0.96169  Biso   1.000  C
  N97      1.0000 0.21462  0.03201  0.96610  Biso   1.000  N
  H865     1.0000 0.22641  0.10788  0.94742  Biso   1.000  H
  H866     1.0000 0.18920  0.09988  0.99752  Biso   1.000  H
  C626     1.0000 0.14789  0.09492  0.92661  Biso   1.000  C
  C627     1.0000 0.18009  0.00000  0.00000  Biso   1.000  C
  C628     1.0000 0.26669  0.02779  0.98999  Biso   1.000  C
  C629     1.0000 0.11490  0.13721  0.93800  Biso   1.000  C
  C630     1.0000 0.13721  0.06200  0.88510  Biso   1.000  C
  H867     1.0000 0.15731  0.02302  0.02180  Biso   1.000  H
  H868     1.0000 0.15731  0.97698  0.97820  Biso   1.000  H
  N98      1.0000 0.21462  0.96799  0.03390  Biso   1.000  N
  C631     1.0000 0.26669  0.97221  0.01001  Biso   1.000  C
  H869     1.0000 0.26878  0.05238  0.02061  Biso   1.000  H
  C632     1.0000 0.31399  0.03721  0.95432  Biso   1.000  C
  H870     1.0000 0.12101  0.15842  0.96831  Biso   1.000  H
  C633     1.0000 0.07339  0.14789  0.90508  Biso   1.000  C
  C634     1.0000 0.09492  0.07339  0.85211  Biso   1.000  C
  H871     1.0000 0.15842  0.03169  0.87899  Biso   1.000  H
  C635     1.0000 0.19708  0.91348  0.03831  Biso   1.000  C
  H872     1.0000 0.26878  0.94762  0.97939  Biso   1.000  H
  C636     1.0000 0.31399  0.96279  0.04568  Biso   1.000  C
  C637     1.0000 0.36330  0.02661  0.98810  Biso   1.000  C
  H873     1.0000 0.31399  0.07391  0.94119  Biso   1.000  H
  H874     1.0000 0.31301  0.01301  0.92369  Biso   1.000  H
  C638     1.0000 0.03831  0.19708  0.91348  Biso   1.000  C
  C639     1.0000 0.06200  0.11490  0.86279  Biso   1.000  C
  C640     1.0000 0.08652  0.03831  0.80292  Biso   1.000  C
  H875     1.0000 0.22641  0.89212  0.05258  Biso   1.000  H
  H876     1.0000 0.18920  0.90012  0.00248  Biso   1.000  H
  C641     1.0000 0.14789  0.90508  0.07339  Biso   1.000  C
  C642     1.0000 0.36330  0.97339  0.01190  Biso   1.000  C
  H877     1.0000 0.31399  0.92609  0.05881  Biso   1.000  H
  H878     1.0000 0.31301  0.98699  0.07631  Biso   1.000  H
  H879     1.0000 0.36520  0.05329  0.01659  Biso   1.000  H
  H880     1.0000 0.39511  0.03071  0.96590  Biso   1.000  H
  N99      1.0000 0.03390  0.21462  0.96799  Biso   1.000  N
  H881     1.0000 0.05258  0.22641  0.89212  Biso   1.000  H
  H882     1.0000 0.00248  0.18920  0.90012  Biso   1.000  H
  H883     1.0000 0.03169  0.12101  0.84158  Biso   1.000  H
  N100     1.0000 0.03201  0.03390  0.78538  Biso   1.000  N
  H884     1.0000 0.10788  0.05258  0.77359  Biso   1.000  H
  H885     1.0000 0.09988  0.00248  0.81080  Biso   1.000  H
  C643     1.0000 0.11490  0.86279  0.06200  Biso   1.000  C
  C644     1.0000 0.13721  0.93800  0.11490  Biso   1.000  C
  H886     1.0000 0.36520  0.94671  0.98341  Biso   1.000  H
  H887     1.0000 0.39511  0.96929  0.03410  Biso   1.000  H
  C645     1.0000 0.00000  0.18009  0.00000  Biso   1.000  C
  C646     1.0000 0.01001  0.26669  0.97221  Biso   1.000  C
  C647     1.0000 0.02779  0.01001  0.73331  Biso   1.000  C
  C648     1.0000 0.00000  0.00000  0.81991  Biso   1.000  C
  H888     1.0000 0.12101  0.84158  0.03169  Biso   1.000  H
  C649     1.0000 0.07339  0.85211  0.09492  Biso   1.000  C
  C650     1.0000 0.09492  0.92661  0.14789  Biso   1.000  C
  H889     1.0000 0.15842  0.96831  0.12101  Biso   1.000  H
  H890     1.0000 0.02180  0.15731  0.02302  Biso   1.000  H
  H891     1.0000 0.97820  0.15731  0.97698  Biso   1.000  H
  N101     1.0000 0.96610  0.21462  0.03201  Biso   1.000  N
  H892     1.0000 0.97939  0.26878  0.94762  Biso   1.000  H
  C651     1.0000 0.98999  0.26669  0.02779  Biso   1.000  C
  C652     1.0000 0.04568  0.31399  0.96279  Biso   1.000  C
  C653     1.0000 0.97221  0.98999  0.73331  Biso   1.000  C
  H893     1.0000 0.05238  0.97939  0.73122  Biso   1.000  H
  C654     1.0000 0.03721  0.04568  0.68601  Biso   1.000  C
  N102     1.0000 0.96799  0.96610  0.78538  Biso   1.000  N
  H894     1.0000 0.97698  0.02180  0.84269  Biso   1.000  H
  H895     1.0000 0.02302  0.97820  0.84269  Biso   1.000  H
  C655     1.0000 0.03831  0.80292  0.08652  Biso   1.000  C
  C656     1.0000 0.06200  0.88510  0.13721  Biso   1.000  C
  C657     1.0000 0.08652  0.96169  0.19708  Biso   1.000  C
  C658     1.0000 0.96169  0.19708  0.08652  Biso   1.000  C
  H896     1.0000 0.02061  0.26878  0.05238  Biso   1.000  H
  C659     1.0000 0.95432  0.31399  0.03721  Biso   1.000  C
  C660     1.0000 0.01190  0.36330  0.97339  Biso   1.000  C
  H897     1.0000 0.05881  0.31399  0.92609  Biso   1.000  H
  H898     1.0000 0.07631  0.31301  0.98699  Biso   1.000  H
  C661     1.0000 0.96279  0.95432  0.68601  Biso   1.000  C
  H899     1.0000 0.94762  0.02061  0.73122  Biso   1.000  H
  C662     1.0000 0.02661  0.01190  0.63670  Biso   1.000  C
  H900     1.0000 0.07391  0.05881  0.68601  Biso   1.000  H
  H901     1.0000 0.01301  0.07631  0.68699  Biso   1.000  H
  C663     1.0000 0.91348  0.96169  0.80292  Biso   1.000  C
  N103     1.0000 0.03390  0.78538  0.03201  Biso   1.000  N
  H902     1.0000 0.05258  0.77359  0.10788  Biso   1.000  H
  H903     1.0000 0.00248  0.81080  0.09988  Biso   1.000  H
  H904     1.0000 0.03169  0.87899  0.15842  Biso   1.000  H
  N104     1.0000 0.03201  0.96610  0.21462  Biso   1.000  N
  H905     1.0000 0.10788  0.94742  0.22641  Biso   1.000  H
  H906     1.0000 0.09988  0.99752  0.18920  Biso   1.000  H
  H907     1.0000 0.94742  0.22641  0.10788  Biso   1.000  H
  H908     1.0000 0.99752  0.18920  0.09988  Biso   1.000  H
  C664     1.0000 0.92661  0.14789  0.09492  Biso   1.000  C
  C665     1.0000 0.98810  0.36330  0.02661  Biso   1.000  C
  H909     1.0000 0.94119  0.31399  0.07391  Biso   1.000  H
  H910     1.0000 0.92369  0.31301  0.01301  Biso   1.000  H
  H911     1.0000 0.98341  0.36520  0.94671  Biso   1.000  H
  H912     1.0000 0.03410  0.39511  0.96929  Biso   1.000  H
  C666     1.0000 0.97339  0.98810  0.63670  Biso   1.000  C
  H913     1.0000 0.92609  0.94119  0.68601  Biso   1.000  H
  H914     1.0000 0.98699  0.92369  0.68699  Biso   1.000  H
  H915     1.0000 0.05329  0.98341  0.63480  Biso   1.000  H
  H916     1.0000 0.03071  0.03410  0.60489  Biso   1.000  H
  H917     1.0000 0.89212  0.94742  0.77359  Biso   1.000  H
  H918     1.0000 0.90012  0.99752  0.81080  Biso   1.000  H
  C667     1.0000 0.90508  0.92661  0.85211  Biso   1.000  C
  C668     1.0000 0.01001  0.73331  0.02779  Biso   1.000  C
  C669     1.0000 0.00000  0.81991  0.00000  Biso   1.000  C
  C670     1.0000 0.00000  0.00000  0.18009  Biso   1.000  C
  C671     1.0000 0.02779  0.98999  0.26669  Biso   1.000  C
  C672     1.0000 0.93800  0.11490  0.13721  Biso   1.000  C
  C673     1.0000 0.88510  0.13721  0.06200  Biso   1.000  C
  H919     1.0000 0.01659  0.36520  0.05329  Biso   1.000  H
  H920     1.0000 0.96590  0.39511  0.03071  Biso   1.000  H
  H921     1.0000 0.96929  0.96590  0.60489  Biso   1.000  H
  H922     1.0000 0.94671  0.01659  0.63480  Biso   1.000  H
  C674     1.0000 0.93800  0.88510  0.86279  Biso   1.000  C
  C675     1.0000 0.86279  0.93800  0.88510  Biso   1.000  C
  C676     1.0000 0.98999  0.73331  0.97221  Biso   1.000  C
  H923     1.0000 0.97939  0.73122  0.05238  Biso   1.000  H
  C677     1.0000 0.04568  0.68601  0.03721  Biso   1.000  C
  N105     1.0000 0.96610  0.78538  0.96799  Biso   1.000  N
  H924     1.0000 0.97820  0.84269  0.02302  Biso   1.000  H
  H925     1.0000 0.02180  0.84269  0.97698  Biso   1.000  H
  H926     1.0000 0.02302  0.02180  0.15731  Biso   1.000  H
  H927     1.0000 0.97698  0.97820  0.15731  Biso   1.000  H
  N106     1.0000 0.96799  0.03390  0.21462  Biso   1.000  N
  H928     1.0000 0.05238  0.02061  0.26878  Biso   1.000  H
  C678     1.0000 0.97221  0.01001  0.26669  Biso   1.000  C
  C679     1.0000 0.03721  0.95432  0.31399  Biso   1.000  C
  C680     1.0000 0.90508  0.07339  0.14789  Biso   1.000  C
  H929     1.0000 0.96831  0.12101  0.15842  Biso   1.000  H
  C681     1.0000 0.85211  0.09492  0.07339  Biso   1.000  C
  H930     1.0000 0.87899  0.15842  0.03169  Biso   1.000  H
  C682     1.0000 0.92661  0.85211  0.90508  Biso   1.000  C
  H931     1.0000 0.96831  0.87899  0.84158  Biso   1.000  H
  C683     1.0000 0.85211  0.90508  0.92661  Biso   1.000  C
  H932     1.0000 0.84158  0.96831  0.87899  Biso   1.000  H
  C684     1.0000 0.95432  0.68601  0.96279  Biso   1.000  C
  H933     1.0000 0.02061  0.73122  0.94762  Biso   1.000  H
  C685     1.0000 0.01190  0.63670  0.02661  Biso   1.000  C
  H934     1.0000 0.05881  0.68601  0.07391  Biso   1.000  H
  H935     1.0000 0.07631  0.68699  0.01301  Biso   1.000  H
  C686     1.0000 0.96169  0.80292  0.91348  Biso   1.000  C
  C687     1.0000 0.91348  0.03831  0.19708  Biso   1.000  C
  H936     1.0000 0.94762  0.97939  0.26878  Biso   1.000  H
  C688     1.0000 0.96279  0.04568  0.31399  Biso   1.000  C
  C689     1.0000 0.02661  0.98810  0.36330  Biso   1.000  C
  H937     1.0000 0.07391  0.94119  0.31399  Biso   1.000  H
  H938     1.0000 0.01301  0.92369  0.31301  Biso   1.000  H
  C690     1.0000 0.86279  0.06200  0.11490  Biso   1.000  C
  C691     1.0000 0.80292  0.08652  0.03831  Biso   1.000  C
  C692     1.0000 0.88510  0.86279  0.93800  Biso   1.000  C
  C693     1.0000 0.80292  0.91348  0.96169  Biso   1.000  C
  C694     1.0000 0.98810  0.63670  0.97339  Biso   1.000  C
  H939     1.0000 0.94119  0.68601  0.92609  Biso   1.000  H
  H940     1.0000 0.92369  0.68699  0.98699  Biso   1.000  H
  H941     1.0000 0.98341  0.63480  0.05329  Biso   1.000  H
  H942     1.0000 0.03410  0.60489  0.03071  Biso   1.000  H
  H943     1.0000 0.94742  0.77359  0.89212  Biso   1.000  H
  H944     1.0000 0.99752  0.81080  0.90012  Biso   1.000  H
  H945     1.0000 0.89212  0.05258  0.22641  Biso   1.000  H
  H946     1.0000 0.90012  0.00248  0.18920  Biso   1.000  H
  C695     1.0000 0.97339  0.01190  0.36330  Biso   1.000  C
  H947     1.0000 0.92609  0.05881  0.31399  Biso   1.000  H
  H948     1.0000 0.98699  0.07631  0.31301  Biso   1.000  H
  H949     1.0000 0.05329  0.01659  0.36520  Biso   1.000  H
  H950     1.0000 0.03071  0.96590  0.39511  Biso   1.000  H
  H951     1.0000 0.84158  0.03169  0.12101  Biso   1.000  H
  N107     1.0000 0.78538  0.03201  0.03390  Biso   1.000  N
  H952     1.0000 0.77359  0.10788  0.05258  Biso   1.000  H
  H953     1.0000 0.81080  0.09988  0.00248  Biso   1.000  H
  H954     1.0000 0.87899  0.84158  0.96831  Biso   1.000  H
  N108     1.0000 0.78538  0.96799  0.96610  Biso   1.000  N
  H955     1.0000 0.77359  0.89212  0.94742  Biso   1.000  H
  H956     1.0000 0.81080  0.90012  0.99752  Biso   1.000  H
  H957     1.0000 0.96590  0.60489  0.96929  Biso   1.000  H
  H958     1.0000 0.01659  0.63480  0.94671  Biso   1.000  H
  H959     1.0000 0.94671  0.98341  0.36520  Biso   1.000  H
  H960     1.0000 0.96929  0.03410  0.39511  Biso   1.000  H
  C696     1.0000 0.81991  0.00000  0.00000  Biso   1.000  C
  C697     1.0000 0.73331  0.02779  0.01001  Biso   1.000  C
  C698     1.0000 0.73331  0.97221  0.98999  Biso   1.000  C
  H961     1.0000 0.84269  0.97698  0.02180  Biso   1.000  H
  H962     1.0000 0.84269  0.02302  0.97820  Biso   1.000  H
  H963     1.0000 0.73122  0.05238  0.97939  Biso   1.000  H
  C699     1.0000 0.68601  0.03721  0.04568  Biso   1.000  C
  C700     1.0000 0.68601  0.96279  0.95432  Biso   1.000  C
  H964     1.0000 0.73122  0.94762  0.02061  Biso   1.000  H
  C701     1.0000 0.63670  0.02661  0.01190  Biso   1.000  C
  H965     1.0000 0.68601  0.07391  0.05881  Biso   1.000  H
  H966     1.0000 0.68699  0.01301  0.07631  Biso   1.000  H
  C702     1.0000 0.63670  0.97339  0.98810  Biso   1.000  C
  H967     1.0000 0.68601  0.92609  0.94119  Biso   1.000  H
  H968     1.0000 0.68699  0.98699  0.92369  Biso   1.000  H
  H969     1.0000 0.63480  0.05329  0.98341  Biso   1.000  H
  H970     1.0000 0.60489  0.03071  0.03410  Biso   1.000  H
  H971     1.0000 0.60489  0.96929  0.96590  Biso   1.000  H
  H972     1.0000 0.63480  0.94671  0.01659  Biso   1.000  H
  C703     1.0000 0.19708  0.08652  0.96169  Biso   1.000  C
  N109     1.0000 0.21462  0.03201  0.96610  Biso   1.000  N
  H973     1.0000 0.22641  0.10788  0.94742  Biso   1.000  H
  H974     1.0000 0.18920  0.09988  0.99752  Biso   1.000  H
  C704     1.0000 0.14789  0.09492  0.92661  Biso   1.000  C
  C705     1.0000 0.18009  0.00000  0.00000  Biso   1.000  C
  C706     1.0000 0.26669  0.02779  0.98999  Biso   1.000  C
  C707     1.0000 0.11490  0.13721  0.93800  Biso   1.000  C
  C708     1.0000 0.13721  0.06200  0.88510  Biso   1.000  C
  H975     1.0000 0.15731  0.02302  0.02180  Biso   1.000  H
  H976     1.0000 0.15731  0.97698  0.97820  Biso   1.000  H
  N110     1.0000 0.21462  0.96799  0.03390  Biso   1.000  N
  C709     1.0000 0.26669  0.97221  0.01001  Biso   1.000  C
  H977     1.0000 0.26878  0.05238  0.02061  Biso   1.000  H
  C710     1.0000 0.31399  0.03721  0.95432  Biso   1.000  C
  H978     1.0000 0.12101  0.15842  0.96831  Biso   1.000  H
  C711     1.0000 0.07339  0.14789  0.90508  Biso   1.000  C
  C712     1.0000 0.09492  0.07339  0.85211  Biso   1.000  C
  H979     1.0000 0.15842  0.03169  0.87899  Biso   1.000  H
  C713     1.0000 0.19708  0.91348  0.03831  Biso   1.000  C
  H980     1.0000 0.26878  0.94762  0.97939  Biso   1.000  H
  C714     1.0000 0.31399  0.96279  0.04568  Biso   1.000  C
  C715     1.0000 0.36330  0.02661  0.98810  Biso   1.000  C
  H981     1.0000 0.31399  0.07391  0.94119  Biso   1.000  H
  H982     1.0000 0.31301  0.01301  0.92369  Biso   1.000  H
  C716     1.0000 0.03831  0.19708  0.91348  Biso   1.000  C
  C717     1.0000 0.06200  0.11490  0.86279  Biso   1.000  C
  C718     1.0000 0.08652  0.03831  0.80292  Biso   1.000  C
  H983     1.0000 0.22641  0.89212  0.05258  Biso   1.000  H
  H984     1.0000 0.18920  0.90012  0.00248  Biso   1.000  H
  C719     1.0000 0.14789  0.90508  0.07339  Biso   1.000  C
  C720     1.0000 0.36330  0.97339  0.01190  Biso   1.000  C
  H985     1.0000 0.31399  0.92609  0.05881  Biso   1.000  H
  H986     1.0000 0.31301  0.98699  0.07631  Biso   1.000  H
  H987     1.0000 0.36520  0.05329  0.01659  Biso   1.000  H
  H988     1.0000 0.39511  0.03071  0.96590  Biso   1.000  H
  N111     1.0000 0.03390  0.21462  0.96799  Biso   1.000  N
  H989     1.0000 0.05258  0.22641  0.89212  Biso   1.000  H
  H990     1.0000 0.00248  0.18920  0.90012  Biso   1.000  H
  H991     1.0000 0.03169  0.12101  0.84158  Biso   1.000  H
  N112     1.0000 0.03201  0.03390  0.78538  Biso   1.000  N
  H992     1.0000 0.10788  0.05258  0.77359  Biso   1.000  H
  H993     1.0000 0.09988  0.00248  0.81080  Biso   1.000  H
  C721     1.0000 0.11490  0.86279  0.06200  Biso   1.000  C
  C722     1.0000 0.13721  0.93800  0.11490  Biso   1.000  C
  H994     1.0000 0.36520  0.94671  0.98341  Biso   1.000  H
  H995     1.0000 0.39511  0.96929  0.03410  Biso   1.000  H
  C723     1.0000 0.00000  0.18009  0.00000  Biso   1.000  C
  C724     1.0000 0.01001  0.26669  0.97221  Biso   1.000  C
  C725     1.0000 0.02779  0.01001  0.73331  Biso   1.000  C
  C726     1.0000 0.00000  0.00000  0.81991  Biso   1.000  C
  H996     1.0000 0.12101  0.84158  0.03169  Biso   1.000  H
  C727     1.0000 0.07339  0.85211  0.09492  Biso   1.000  C
  C728     1.0000 0.09492  0.92661  0.14789  Biso   1.000  C
  H997     1.0000 0.15842  0.96831  0.12101  Biso   1.000  H
  H998     1.0000 0.02180  0.15731  0.02302  Biso   1.000  H
  H999     1.0000 0.97820  0.15731  0.97698  Biso   1.000  H
  N113     1.0000 0.96610  0.21462  0.03201  Biso   1.000  N
  H1000    1.0000 0.97939  0.26878  0.94762  Biso   1.000  H
  C729     1.0000 0.98999  0.26669  0.02779  Biso   1.000  C
  C730     1.0000 0.04568  0.31399  0.96279  Biso   1.000  C
  C731     1.0000 0.97221  0.98999  0.73331  Biso   1.000  C
  H1001    1.0000 0.05238  0.97939  0.73122  Biso   1.000  H
  C732     1.0000 0.03721  0.04568  0.68601  Biso   1.000  C
  N114     1.0000 0.96799  0.96610  0.78538  Biso   1.000  N
  H1002    1.0000 0.97698  0.02180  0.84269  Biso   1.000  H
  H1003    1.0000 0.02302  0.97820  0.84269  Biso   1.000  H
  C733     1.0000 0.03831  0.80292  0.08652  Biso   1.000  C
  C734     1.0000 0.06200  0.88510  0.13721  Biso   1.000  C
  C735     1.0000 0.08652  0.96169  0.19708  Biso   1.000  C
  C736     1.0000 0.96169  0.19708  0.08652  Biso   1.000  C
  H1004    1.0000 0.02061  0.26878  0.05238  Biso   1.000  H
  C737     1.0000 0.95432  0.31399  0.03721  Biso   1.000  C
  C738     1.0000 0.01190  0.36330  0.97339  Biso   1.000  C
  H1005    1.0000 0.05881  0.31399  0.92609  Biso   1.000  H
  H1006    1.0000 0.07631  0.31301  0.98699  Biso   1.000  H
  C739     1.0000 0.96279  0.95432  0.68601  Biso   1.000  C
  H1007    1.0000 0.94762  0.02061  0.73122  Biso   1.000  H
  C740     1.0000 0.02661  0.01190  0.63670  Biso   1.000  C
  H1008    1.0000 0.07391  0.05881  0.68601  Biso   1.000  H
  H1009    1.0000 0.01301  0.07631  0.68699  Biso   1.000  H
  C741     1.0000 0.91348  0.96169  0.80292  Biso   1.000  C
  N115     1.0000 0.03390  0.78538  0.03201  Biso   1.000  N
  H1010    1.0000 0.05258  0.77359  0.10788  Biso   1.000  H
  H1011    1.0000 0.00248  0.81080  0.09988  Biso   1.000  H
  H1012    1.0000 0.03169  0.87899  0.15842  Biso   1.000  H
  N116     1.0000 0.03201  0.96610  0.21462  Biso   1.000  N
  H1013    1.0000 0.10788  0.94742  0.22641  Biso   1.000  H
  H1014    1.0000 0.09988  0.99752  0.18920  Biso   1.000  H
  H1015    1.0000 0.94742  0.22641  0.10788  Biso   1.000  H
  H1016    1.0000 0.99752  0.18920  0.09988  Biso   1.000  H
  C742     1.0000 0.92661  0.14789  0.09492  Biso   1.000  C
  C743     1.0000 0.98810  0.36330  0.02661  Biso   1.000  C
  H1017    1.0000 0.94119  0.31399  0.07391  Biso   1.000  H
  H1018    1.0000 0.92369  0.31301  0.01301  Biso   1.000  H
  H1019    1.0000 0.98341  0.36520  0.94671  Biso   1.000  H
  H1020    1.0000 0.03410  0.39511  0.96929  Biso   1.000  H
  C744     1.0000 0.97339  0.98810  0.63670  Biso   1.000  C
  H1021    1.0000 0.92609  0.94119  0.68601  Biso   1.000  H
  H1022    1.0000 0.98699  0.92369  0.68699  Biso   1.000  H
  H1023    1.0000 0.05329  0.98341  0.63480  Biso   1.000  H
  H1024    1.0000 0.03071  0.03410  0.60489  Biso   1.000  H
  H1025    1.0000 0.89212  0.94742  0.77359  Biso   1.000  H
  H1026    1.0000 0.90012  0.99752  0.81080  Biso   1.000  H
  C745     1.0000 0.90508  0.92661  0.85211  Biso   1.000  C
  C746     1.0000 0.01001  0.73331  0.02779  Biso   1.000  C
  C747     1.0000 0.00000  0.81991  0.00000  Biso   1.000  C
  C748     1.0000 0.00000  0.00000  0.18009  Biso   1.000  C
  C749     1.0000 0.02779  0.98999  0.26669  Biso   1.000  C
  C750     1.0000 0.93800  0.11490  0.13721  Biso   1.000  C
  C751     1.0000 0.88510  0.13721  0.06200  Biso   1.000  C
  H1027    1.0000 0.01659  0.36520  0.05329  Biso   1.000  H
  H1028    1.0000 0.96590  0.39511  0.03071  Biso   1.000  H
  H1029    1.0000 0.96929  0.96590  0.60489  Biso   1.000  H
  H1030    1.0000 0.94671  0.01659  0.63480  Biso   1.000  H
  C752     1.0000 0.93800  0.88510  0.86279  Biso   1.000  C
  C753     1.0000 0.86279  0.93800  0.88510  Biso   1.000  C
  C754     1.0000 0.98999  0.73331  0.97221  Biso   1.000  C
  H1031    1.0000 0.97939  0.73122  0.05238  Biso   1.000  H
  C755     1.0000 0.04568  0.68601  0.03721  Biso   1.000  C
  N117     1.0000 0.96610  0.78538  0.96799  Biso   1.000  N
  H1032    1.0000 0.97820  0.84269  0.02302  Biso   1.000  H
  H1033    1.0000 0.02180  0.84269  0.97698  Biso   1.000  H
  H1034    1.0000 0.02302  0.02180  0.15731  Biso   1.000  H
  H1035    1.0000 0.97698  0.97820  0.15731  Biso   1.000  H
  N118     1.0000 0.96799  0.03390  0.21462  Biso   1.000  N
  H1036    1.0000 0.05238  0.02061  0.26878  Biso   1.000  H
  C756     1.0000 0.97221  0.01001  0.26669  Biso   1.000  C
  C757     1.0000 0.03721  0.95432  0.31399  Biso   1.000  C
  C758     1.0000 0.90508  0.07339  0.14789  Biso   1.000  C
  H1037    1.0000 0.96831  0.12101  0.15842  Biso   1.000  H
  C759     1.0000 0.85211  0.09492  0.07339  Biso   1.000  C
  H1038    1.0000 0.87899  0.15842  0.03169  Biso   1.000  H
  C760     1.0000 0.92661  0.85211  0.90508  Biso   1.000  C
  H1039    1.0000 0.96831  0.87899  0.84158  Biso   1.000  H
  C761     1.0000 0.85211  0.90508  0.92661  Biso   1.000  C
  H1040    1.0000 0.84158  0.96831  0.87899  Biso   1.000  H
  C762     1.0000 0.95432  0.68601  0.96279  Biso   1.000  C
  H1041    1.0000 0.02061  0.73122  0.94762  Biso   1.000  H
  C763     1.0000 0.01190  0.63670  0.02661  Biso   1.000  C
  H1042    1.0000 0.05881  0.68601  0.07391  Biso   1.000  H
  H1043    1.0000 0.07631  0.68699  0.01301  Biso   1.000  H
  C764     1.0000 0.96169  0.80292  0.91348  Biso   1.000  C
  C765     1.0000 0.91348  0.03831  0.19708  Biso   1.000  C
  H1044    1.0000 0.94762  0.97939  0.26878  Biso   1.000  H
  C766     1.0000 0.96279  0.04568  0.31399  Biso   1.000  C
  C767     1.0000 0.02661  0.98810  0.36330  Biso   1.000  C
  H1045    1.0000 0.07391  0.94119  0.31399  Biso   1.000  H
  H1046    1.0000 0.01301  0.92369  0.31301  Biso   1.000  H
  C768     1.0000 0.86279  0.06200  0.11490  Biso   1.000  C
  C769     1.0000 0.80292  0.08652  0.03831  Biso   1.000  C
  C770     1.0000 0.88510  0.86279  0.93800  Biso   1.000  C
  C771     1.0000 0.80292  0.91348  0.96169  Biso   1.000  C
  C772     1.0000 0.98810  0.63670  0.97339  Biso   1.000  C
  H1047    1.0000 0.94119  0.68601  0.92609  Biso   1.000  H
  H1048    1.0000 0.92369  0.68699  0.98699  Biso   1.000  H
  H1049    1.0000 0.98341  0.63480  0.05329  Biso   1.000  H
  H1050    1.0000 0.03410  0.60489  0.03071  Biso   1.000  H
  H1051    1.0000 0.94742  0.77359  0.89212  Biso   1.000  H
  H1052    1.0000 0.99752  0.81080  0.90012  Biso   1.000  H
  H1053    1.0000 0.89212  0.05258  0.22641  Biso   1.000  H
  H1054    1.0000 0.90012  0.00248  0.18920  Biso   1.000  H
  C773     1.0000 0.97339  0.01190  0.36330  Biso   1.000  C
  H1055    1.0000 0.92609  0.05881  0.31399  Biso   1.000  H
  H1056    1.0000 0.98699  0.07631  0.31301  Biso   1.000  H
  H1057    1.0000 0.05329  0.01659  0.36520  Biso   1.000  H
  H1058    1.0000 0.03071  0.96590  0.39511  Biso   1.000  H
  H1059    1.0000 0.84158  0.03169  0.12101  Biso   1.000  H
  N119     1.0000 0.78538  0.03201  0.03390  Biso   1.000  N
  H1060    1.0000 0.77359  0.10788  0.05258  Biso   1.000  H
  H1061    1.0000 0.81080  0.09988  0.00248  Biso   1.000  H
  H1062    1.0000 0.87899  0.84158  0.96831  Biso   1.000  H
  N120     1.0000 0.78538  0.96799  0.96610  Biso   1.000  N
  H1063    1.0000 0.77359  0.89212  0.94742  Biso   1.000  H
  H1064    1.0000 0.81080  0.90012  0.99752  Biso   1.000  H
  H1065    1.0000 0.96590  0.60489  0.96929  Biso   1.000  H
  H1066    1.0000 0.01659  0.63480  0.94671  Biso   1.000  H
  H1067    1.0000 0.94671  0.98341  0.36520  Biso   1.000  H
  H1068    1.0000 0.96929  0.03410  0.39511  Biso   1.000  H
  C774     1.0000 0.81991  0.00000  0.00000  Biso   1.000  C
  C775     1.0000 0.73331  0.02779  0.01001  Biso   1.000  C
  C776     1.0000 0.73331  0.97221  0.98999  Biso   1.000  C
  H1069    1.0000 0.84269  0.97698  0.02180  Biso   1.000  H
  H1070    1.0000 0.84269  0.02302  0.97820  Biso   1.000  H
  H1071    1.0000 0.73122  0.05238  0.97939  Biso   1.000  H
  C777     1.0000 0.68601  0.03721  0.04568  Biso   1.000  C
  C778     1.0000 0.68601  0.96279  0.95432  Biso   1.000  C
  H1072    1.0000 0.73122  0.94762  0.02061  Biso   1.000  H
  C779     1.0000 0.63670  0.02661  0.01190  Biso   1.000  C
  H1073    1.0000 0.68601  0.07391  0.05881  Biso   1.000  H
  H1074    1.0000 0.68699  0.01301  0.07631  Biso   1.000  H
  C780     1.0000 0.63670  0.97339  0.98810  Biso   1.000  C
  H1075    1.0000 0.68601  0.92609  0.94119  Biso   1.000  H
  H1076    1.0000 0.68699  0.98699  0.92369  Biso   1.000  H
  H1077    1.0000 0.63480  0.05329  0.98341  Biso   1.000  H
  H1078    1.0000 0.60489  0.03071  0.03410  Biso   1.000  H
  H1079    1.0000 0.60489  0.96929  0.96590  Biso   1.000  H
  H1080    1.0000 0.63480  0.94671  0.01659  Biso   1.000  H
  C781     1.0000 0.19708  0.08652  0.96169  Biso   1.000  C
  N121     1.0000 0.21462  0.03201  0.96610  Biso   1.000  N
  H1081    1.0000 0.22641  0.10788  0.94742  Biso   1.000  H
  H1082    1.0000 0.18920  0.09988  0.99752  Biso   1.000  H
  C782     1.0000 0.14789  0.09492  0.92661  Biso   1.000  C
  C783     1.0000 0.18009  0.00000  0.00000  Biso   1.000  C
  C784     1.0000 0.26669  0.02779  0.98999  Biso   1.000  C
  C785     1.0000 0.11490  0.13721  0.93800  Biso   1.000  C
  C786     1.0000 0.13721  0.06200  0.88510  Biso   1.000  C
  H1083    1.0000 0.15731  0.02302  0.02180  Biso   1.000  H
  H1084    1.0000 0.15731  0.97698  0.97820  Biso   1.000  H
  N122     1.0000 0.21462  0.96799  0.03390  Biso   1.000  N
  C787     1.0000 0.26669  0.97221  0.01001  Biso   1.000  C
  H1085    1.0000 0.26878  0.05238  0.02061  Biso   1.000  H
  C788     1.0000 0.31399  0.03721  0.95432  Biso   1.000  C
  H1086    1.0000 0.12101  0.15842  0.96831  Biso   1.000  H
  C789     1.0000 0.07339  0.14789  0.90508  Biso   1.000  C
  C790     1.0000 0.09492  0.07339  0.85211  Biso   1.000  C
  H1087    1.0000 0.15842  0.03169  0.87899  Biso   1.000  H
  C791     1.0000 0.19708  0.91348  0.03831  Biso   1.000  C
  H1088    1.0000 0.26878  0.94762  0.97939  Biso   1.000  H
  C792     1.0000 0.31399  0.96279  0.04568  Biso   1.000  C
  C793     1.0000 0.36330  0.02661  0.98810  Biso   1.000  C
  H1089    1.0000 0.31399  0.07391  0.94119  Biso   1.000  H
  H1090    1.0000 0.31301  0.01301  0.92369  Biso   1.000  H
  C794     1.0000 0.03831  0.19708  0.91348  Biso   1.000  C
  C795     1.0000 0.06200  0.11490  0.86279  Biso   1.000  C
  C796     1.0000 0.08652  0.03831  0.80292  Biso   1.000  C
  H1091    1.0000 0.22641  0.89212  0.05258  Biso   1.000  H
  H1092    1.0000 0.18920  0.90012  0.00248  Biso   1.000  H
  C797     1.0000 0.14789  0.90508  0.07339  Biso   1.000  C
  C798     1.0000 0.36330  0.97339  0.01190  Biso   1.000  C
  H1093    1.0000 0.31399  0.92609  0.05881  Biso   1.000  H
  H1094    1.0000 0.31301  0.98699  0.07631  Biso   1.000  H
  H1095    1.0000 0.36520  0.05329  0.01659  Biso   1.000  H
  H1096    1.0000 0.39511  0.03071  0.96590  Biso   1.000  H
  N123     1.0000 0.03390  0.21462  0.96799  Biso   1.000  N
  H1097    1.0000 0.05258  0.22641  0.89212  Biso   1.000  H
  H1098    1.0000 0.00248  0.18920  0.90012  Biso   1.000  H
  H1099    1.0000 0.03169  0.12101  0.84158  Biso   1.000  H
  N124     1.0000 0.03201  0.03390  0.78538  Biso   1.000  N
  H1100    1.0000 0.10788  0.05258  0.77359  Biso   1.000  H
  H1101    1.0000 0.09988  0.00248  0.81080  Biso   1.000  H
  C799     1.0000 0.11490  0.86279  0.06200  Biso   1.000  C
  C800     1.0000 0.13721  0.93800  0.11490  Biso   1.000  C
  H1102    1.0000 0.36520  0.94671  0.98341  Biso   1.000  H
  H1103    1.0000 0.39511  0.96929  0.03410  Biso   1.000  H
  C801     1.0000 0.00000  0.18009  0.00000  Biso   1.000  C
  C802     1.0000 0.01001  0.26669  0.97221  Biso   1.000  C
  C803     1.0000 0.02779  0.01001  0.73331  Biso   1.000  C
  C804     1.0000 0.00000  0.00000  0.81991  Biso   1.000  C
  H1104    1.0000 0.12101  0.84158  0.03169  Biso   1.000  H
  C805     1.0000 0.07339  0.85211  0.09492  Biso   1.000  C
  C806     1.0000 0.09492  0.92661  0.14789  Biso   1.000  C
  H1105    1.0000 0.15842  0.96831  0.12101  Biso   1.000  H
  H1106    1.0000 0.02180  0.15731  0.02302  Biso   1.000  H
  H1107    1.0000 0.97820  0.15731  0.97698  Biso   1.000  H
  N125     1.0000 0.96610  0.21462  0.03201  Biso   1.000  N
  H1108    1.0000 0.97939  0.26878  0.94762  Biso   1.000  H
  C807     1.0000 0.98999  0.26669  0.02779  Biso   1.000  C
  C808     1.0000 0.04568  0.31399  0.96279  Biso   1.000  C
  C809     1.0000 0.97221  0.98999  0.73331  Biso   1.000  C
  H1109    1.0000 0.05238  0.97939  0.73122  Biso   1.000  H
  C810     1.0000 0.03721  0.04568  0.68601  Biso   1.000  C
  N126     1.0000 0.96799  0.96610  0.78538  Biso   1.000  N
  H1110    1.0000 0.97698  0.02180  0.84269  Biso   1.000  H
  H1111    1.0000 0.02302  0.97820  0.84269  Biso   1.000  H
  C811     1.0000 0.03831  0.80292  0.08652  Biso   1.000  C
  C812     1.0000 0.06200  0.88510  0.13721  Biso   1.000  C
  C813     1.0000 0.08652  0.96169  0.19708  Biso   1.000  C
  C814     1.0000 0.96169  0.19708  0.08652  Biso   1.000  C
  H1112    1.0000 0.02061  0.26878  0.05238  Biso   1.000  H
  C815     1.0000 0.95432  0.31399  0.03721  Biso   1.000  C
  C816     1.0000 0.01190  0.36330  0.97339  Biso   1.000  C
  H1113    1.0000 0.05881  0.31399  0.92609  Biso   1.000  H
  H1114    1.0000 0.07631  0.31301  0.98699  Biso   1.000  H
  C817     1.0000 0.96279  0.95432  0.68601  Biso   1.000  C
  H1115    1.0000 0.94762  0.02061  0.73122  Biso   1.000  H
  C818     1.0000 0.02661  0.01190  0.63670  Biso   1.000  C
  H1116    1.0000 0.07391  0.05881  0.68601  Biso   1.000  H
  H1117    1.0000 0.01301  0.07631  0.68699  Biso   1.000  H
  C819     1.0000 0.91348  0.96169  0.80292  Biso   1.000  C
  N127     1.0000 0.03390  0.78538  0.03201  Biso   1.000  N
  H1118    1.0000 0.05258  0.77359  0.10788  Biso   1.000  H
  H1119    1.0000 0.00248  0.81080  0.09988  Biso   1.000  H
  H1120    1.0000 0.03169  0.87899  0.15842  Biso   1.000  H
  N128     1.0000 0.03201  0.96610  0.21462  Biso   1.000  N
  H1121    1.0000 0.10788  0.94742  0.22641  Biso   1.000  H
  H1122    1.0000 0.09988  0.99752  0.18920  Biso   1.000  H
  H1123    1.0000 0.94742  0.22641  0.10788  Biso   1.000  H
  H1124    1.0000 0.99752  0.18920  0.09988  Biso   1.000  H
  C820     1.0000 0.92661  0.14789  0.09492  Biso   1.000  C
  C821     1.0000 0.98810  0.36330  0.02661  Biso   1.000  C
  H1125    1.0000 0.94119  0.31399  0.07391  Biso   1.000  H
  H1126    1.0000 0.92369  0.31301  0.01301  Biso   1.000  H
  H1127    1.0000 0.98341  0.36520  0.94671  Biso   1.000  H
  H1128    1.0000 0.03410  0.39511  0.96929  Biso   1.000  H
  C822     1.0000 0.97339  0.98810  0.63670  Biso   1.000  C
  H1129    1.0000 0.92609  0.94119  0.68601  Biso   1.000  H
  H1130    1.0000 0.98699  0.92369  0.68699  Biso   1.000  H
  H1131    1.0000 0.05329  0.98341  0.63480  Biso   1.000  H
  H1132    1.0000 0.03071  0.03410  0.60489  Biso   1.000  H
  H1133    1.0000 0.89212  0.94742  0.77359  Biso   1.000  H
  H1134    1.0000 0.90012  0.99752  0.81080  Biso   1.000  H
  C823     1.0000 0.90508  0.92661  0.85211  Biso   1.000  C
  C824     1.0000 0.01001  0.73331  0.02779  Biso   1.000  C
  C825     1.0000 0.00000  0.81991  0.00000  Biso   1.000  C
  C826     1.0000 0.00000  0.00000  0.18009  Biso   1.000  C
  C827     1.0000 0.02779  0.98999  0.26669  Biso   1.000  C
  C828     1.0000 0.93800  0.11490  0.13721  Biso   1.000  C
  C829     1.0000 0.88510  0.13721  0.06200  Biso   1.000  C
  H1135    1.0000 0.01659  0.36520  0.05329  Biso   1.000  H
  H1136    1.0000 0.96590  0.39511  0.03071  Biso   1.000  H
  H1137    1.0000 0.96929  0.96590  0.60489  Biso   1.000  H
  H1138    1.0000 0.94671  0.01659  0.63480  Biso   1.000  H
  C830     1.0000 0.93800  0.88510  0.86279  Biso   1.000  C
  C831     1.0000 0.86279  0.93800  0.88510  Biso   1.000  C
  C832     1.0000 0.98999  0.73331  0.97221  Biso   1.000  C
  H1139    1.0000 0.97939  0.73122  0.05238  Biso   1.000  H
  C833     1.0000 0.04568  0.68601  0.03721  Biso   1.000  C
  N129     1.0000 0.96610  0.78538  0.96799  Biso   1.000  N
  H1140    1.0000 0.97820  0.84269  0.02302  Biso   1.000  H
  H1141    1.0000 0.02180  0.84269  0.97698  Biso   1.000  H
  H1142    1.0000 0.02302  0.02180  0.15731  Biso   1.000  H
  H1143    1.0000 0.97698  0.97820  0.15731  Biso   1.000  H
  N130     1.0000 0.96799  0.03390  0.21462  Biso   1.000  N
  H1144    1.0000 0.05238  0.02061  0.26878  Biso   1.000  H
  C834     1.0000 0.97221  0.01001  0.26669  Biso   1.000  C
  C835     1.0000 0.03721  0.95432  0.31399  Biso   1.000  C
  C836     1.0000 0.90508  0.07339  0.14789  Biso   1.000  C
  H1145    1.0000 0.96831  0.12101  0.15842  Biso   1.000  H
  C837     1.0000 0.85211  0.09492  0.07339  Biso   1.000  C
  H1146    1.0000 0.87899  0.15842  0.03169  Biso   1.000  H
  C838     1.0000 0.92661  0.85211  0.90508  Biso   1.000  C
  H1147    1.0000 0.96831  0.87899  0.84158  Biso   1.000  H
  C839     1.0000 0.85211  0.90508  0.92661  Biso   1.000  C
  H1148    1.0000 0.84158  0.96831  0.87899  Biso   1.000  H
  C840     1.0000 0.95432  0.68601  0.96279  Biso   1.000  C
  H1149    1.0000 0.02061  0.73122  0.94762  Biso   1.000  H
  C841     1.0000 0.01190  0.63670  0.02661  Biso   1.000  C
  H1150    1.0000 0.05881  0.68601  0.07391  Biso   1.000  H
  H1151    1.0000 0.07631  0.68699  0.01301  Biso   1.000  H
  C842     1.0000 0.96169  0.80292  0.91348  Biso   1.000  C
  C843     1.0000 0.91348  0.03831  0.19708  Biso   1.000  C
  H1152    1.0000 0.94762  0.97939  0.26878  Biso   1.000  H
  C844     1.0000 0.96279  0.04568  0.31399  Biso   1.000  C
  C845     1.0000 0.02661  0.98810  0.36330  Biso   1.000  C
  H1153    1.0000 0.07391  0.94119  0.31399  Biso   1.000  H
  H1154    1.0000 0.01301  0.92369  0.31301  Biso   1.000  H
  C846     1.0000 0.86279  0.06200  0.11490  Biso   1.000  C
  C847     1.0000 0.80292  0.08652  0.03831  Biso   1.000  C
  C848     1.0000 0.88510  0.86279  0.93800  Biso   1.000  C
  C849     1.0000 0.80292  0.91348  0.96169  Biso   1.000  C
  C850     1.0000 0.98810  0.63670  0.97339  Biso   1.000  C
  H1155    1.0000 0.94119  0.68601  0.92609  Biso   1.000  H
  H1156    1.0000 0.92369  0.68699  0.98699  Biso   1.000  H
  H1157    1.0000 0.98341  0.63480  0.05329  Biso   1.000  H
  H1158    1.0000 0.03410  0.60489  0.03071  Biso   1.000  H
  H1159    1.0000 0.94742  0.77359  0.89212  Biso   1.000  H
  H1160    1.0000 0.99752  0.81080  0.90012  Biso   1.000  H
  H1161    1.0000 0.89212  0.05258  0.22641  Biso   1.000  H
  H1162    1.0000 0.90012  0.00248  0.18920  Biso   1.000  H
  C851     1.0000 0.97339  0.01190  0.36330  Biso   1.000  C
  H1163    1.0000 0.92609  0.05881  0.31399  Biso   1.000  H
  H1164    1.0000 0.98699  0.07631  0.31301  Biso   1.000  H
  H1165    1.0000 0.05329  0.01659  0.36520  Biso   1.000  H
  H1166    1.0000 0.03071  0.96590  0.39511  Biso   1.000  H
  H1167    1.0000 0.84158  0.03169  0.12101  Biso   1.000  H
  N131     1.0000 0.78538  0.03201  0.03390  Biso   1.000  N
  H1168    1.0000 0.77359  0.10788  0.05258  Biso   1.000  H
  H1169    1.0000 0.81080  0.09988  0.00248  Biso   1.000  H
  H1170    1.0000 0.87899  0.84158  0.96831  Biso   1.000  H
  N132     1.0000 0.78538  0.96799  0.96610  Biso   1.000  N
  H1171    1.0000 0.77359  0.89212  0.94742  Biso   1.000  H
  H1172    1.0000 0.81080  0.90012  0.99752  Biso   1.000  H
  H1173    1.0000 0.96590  0.60489  0.96929  Biso   1.000  H
  H1174    1.0000 0.01659  0.63480  0.94671  Biso   1.000  H
  H1175    1.0000 0.94671  0.98341  0.36520  Biso   1.000  H
  H1176    1.0000 0.96929  0.03410  0.39511  Biso   1.000  H
  C852     1.0000 0.81991  0.00000  0.00000  Biso   1.000  C
  C853     1.0000 0.73331  0.02779  0.01001  Biso   1.000  C
  C854     1.0000 0.73331  0.97221  0.98999  Biso   1.000  C
  H1177    1.0000 0.84269  0.97698  0.02180  Biso   1.000  H
  H1178    1.0000 0.84269  0.02302  0.97820  Biso   1.000  H
  H1179    1.0000 0.73122  0.05238  0.97939  Biso   1.000  H
  C855     1.0000 0.68601  0.03721  0.04568  Biso   1.000  C
  C856     1.0000 0.68601  0.96279  0.95432  Biso   1.000  C
  H1180    1.0000 0.73122  0.94762  0.02061  Biso   1.000  H
  C857     1.0000 0.63670  0.02661  0.01190  Biso   1.000  C
  H1181    1.0000 0.68601  0.07391  0.05881  Biso   1.000  H
  H1182    1.0000 0.68699  0.01301  0.07631  Biso   1.000  H
  C858     1.0000 0.63670  0.97339  0.98810  Biso   1.000  C
  H1183    1.0000 0.68601  0.92609  0.94119  Biso   1.000  H
  H1184    1.0000 0.68699  0.98699  0.92369  Biso   1.000  H
  H1185    1.0000 0.63480  0.05329  0.98341  Biso   1.000  H
  H1186    1.0000 0.60489  0.03071  0.03410  Biso   1.000  H
  H1187    1.0000 0.60489  0.96929  0.96590  Biso   1.000  H
  H1188    1.0000 0.63480  0.94671  0.01659  Biso   1.000  H
  C859     1.0000 0.19708  0.08652  0.96169  Biso   1.000  C
  N133     1.0000 0.21462  0.03201  0.96610  Biso   1.000  N
  H1189    1.0000 0.22641  0.10788  0.94742  Biso   1.000  H
  H1190    1.0000 0.18920  0.09988  0.99752  Biso   1.000  H
  C860     1.0000 0.14789  0.09492  0.92661  Biso   1.000  C
  C861     1.0000 0.18009  0.00000  0.00000  Biso   1.000  C
  C862     1.0000 0.26669  0.02779  0.98999  Biso   1.000  C
  C863     1.0000 0.11490  0.13721  0.93800  Biso   1.000  C
  C864     1.0000 0.13721  0.06200  0.88510  Biso   1.000  C
  H1191    1.0000 0.15731  0.02302  0.02180  Biso   1.000  H
  H1192    1.0000 0.15731  0.97698  0.97820  Biso   1.000  H
  N134     1.0000 0.21462  0.96799  0.03390  Biso   1.000  N
  C865     1.0000 0.26669  0.97221  0.01001  Biso   1.000  C
  H1193    1.0000 0.26878  0.05238  0.02061  Biso   1.000  H
  C866     1.0000 0.31399  0.03721  0.95432  Biso   1.000  C
  H1194    1.0000 0.12101  0.15842  0.96831  Biso   1.000  H
  C867     1.0000 0.07339  0.14789  0.90508  Biso   1.000  C
  C868     1.0000 0.09492  0.07339  0.85211  Biso   1.000  C
  H1195    1.0000 0.15842  0.03169  0.87899  Biso   1.000  H
  C869     1.0000 0.19708  0.91348  0.03831  Biso   1.000  C
  H1196    1.0000 0.26878  0.94762  0.97939  Biso   1.000  H
  C870     1.0000 0.31399  0.96279  0.04568  Biso   1.000  C
  C871     1.0000 0.36330  0.02661  0.98810  Biso   1.000  C
  H1197    1.0000 0.31399  0.07391  0.94119  Biso   1.000  H
  H1198    1.0000 0.31301  0.01301  0.92369  Biso   1.000  H
  C872     1.0000 0.03831  0.19708  0.91348  Biso   1.000  C
  C873     1.0000 0.06200  0.11490  0.86279  Biso   1.000  C
  C874     1.0000 0.08652  0.03831  0.80292  Biso   1.000  C
  H1199    1.0000 0.22641  0.89212  0.05258  Biso   1.000  H
  H1200    1.0000 0.18920  0.90012  0.00248  Biso   1.000  H
  C875     1.0000 0.14789  0.90508  0.07339  Biso   1.000  C
  C876     1.0000 0.36330  0.97339  0.01190  Biso   1.000  C
  H1201    1.0000 0.31399  0.92609  0.05881  Biso   1.000  H
  H1202    1.0000 0.31301  0.98699  0.07631  Biso   1.000  H
  H1203    1.0000 0.36520  0.05329  0.01659  Biso   1.000  H
  H1204    1.0000 0.39511  0.03071  0.96590  Biso   1.000  H
  N135     1.0000 0.03390  0.21462  0.96799  Biso   1.000  N
  H1205    1.0000 0.05258  0.22641  0.89212  Biso   1.000  H
  H1206    1.0000 0.00248  0.18920  0.90012  Biso   1.000  H
  H1207    1.0000 0.03169  0.12101  0.84158  Biso   1.000  H
  N136     1.0000 0.03201  0.03390  0.78538  Biso   1.000  N
  H1208    1.0000 0.10788  0.05258  0.77359  Biso   1.000  H
  H1209    1.0000 0.09988  0.00248  0.81080  Biso   1.000  H
  C877     1.0000 0.11490  0.86279  0.06200  Biso   1.000  C
  C878     1.0000 0.13721  0.93800  0.11490  Biso   1.000  C
  H1210    1.0000 0.36520  0.94671  0.98341  Biso   1.000  H
  H1211    1.0000 0.39511  0.96929  0.03410  Biso   1.000  H
  C879     1.0000 0.00000  0.18009  0.00000  Biso   1.000  C
  C880     1.0000 0.01001  0.26669  0.97221  Biso   1.000  C
  C881     1.0000 0.02779  0.01001  0.73331  Biso   1.000  C
  C882     1.0000 0.00000  0.00000  0.81991  Biso   1.000  C
  H1212    1.0000 0.12101  0.84158  0.03169  Biso   1.000  H
  C883     1.0000 0.07339  0.85211  0.09492  Biso   1.000  C
  C884     1.0000 0.09492  0.92661  0.14789  Biso   1.000  C
  H1213    1.0000 0.15842  0.96831  0.12101  Biso   1.000  H
  H1214    1.0000 0.02180  0.15731  0.02302  Biso   1.000  H
  H1215    1.0000 0.97820  0.15731  0.97698  Biso   1.000  H
  N137     1.0000 0.96610  0.21462  0.03201  Biso   1.000  N
  H1216    1.0000 0.97939  0.26878  0.94762  Biso   1.000  H
  C885     1.0000 0.98999  0.26669  0.02779  Biso   1.000  C
  C886     1.0000 0.04568  0.31399  0.96279  Biso   1.000  C
  C887     1.0000 0.97221  0.98999  0.73331  Biso   1.000  C
  H1217    1.0000 0.05238  0.97939  0.73122  Biso   1.000  H
  C888     1.0000 0.03721  0.04568  0.68601  Biso   1.000  C
  N138     1.0000 0.96799  0.96610  0.78538  Biso   1.000  N
  H1218    1.0000 0.97698  0.02180  0.84269  Biso   1.000  H
  H1219    1.0000 0.02302  0.97820  0.84269  Biso   1.000  H
  C889     1.0000 0.03831  0.80292  0.08652  Biso   1.000  C
  C890     1.0000 0.06200  0.88510  0.13721  Biso   1.000  C
  C891     1.0000 0.08652  0.96169  0.19708  Biso   1.000  C
  C892     1.0000 0.96169  0.19708  0.08652  Biso   1.000  C
  H1220    1.0000 0.02061  0.26878  0.05238  Biso   1.000  H
  C893     1.0000 0.95432  0.31399  0.03721  Biso   1.000  C
  C894     1.0000 0.01190  0.36330  0.97339  Biso   1.000  C
  H1221    1.0000 0.05881  0.31399  0.92609  Biso   1.000  H
  H1222    1.0000 0.07631  0.31301  0.98699  Biso   1.000  H
  C895     1.0000 0.96279  0.95432  0.68601  Biso   1.000  C
  H1223    1.0000 0.94762  0.02061  0.73122  Biso   1.000  H
  C896     1.0000 0.02661  0.01190  0.63670  Biso   1.000  C
  H1224    1.0000 0.07391  0.05881  0.68601  Biso   1.000  H
  H1225    1.0000 0.01301  0.07631  0.68699  Biso   1.000  H
  C897     1.0000 0.91348  0.96169  0.80292  Biso   1.000  C
  N139     1.0000 0.03390  0.78538  0.03201  Biso   1.000  N
  H1226    1.0000 0.05258  0.77359  0.10788  Biso   1.000  H
  H1227    1.0000 0.00248  0.81080  0.09988  Biso   1.000  H
  H1228    1.0000 0.03169  0.87899  0.15842  Biso   1.000  H
  N140     1.0000 0.03201  0.96610  0.21462  Biso   1.000  N
  H1229    1.0000 0.10788  0.94742  0.22641  Biso   1.000  H
  H1230    1.0000 0.09988  0.99752  0.18920  Biso   1.000  H
  H1231    1.0000 0.94742  0.22641  0.10788  Biso   1.000  H
  H1232    1.0000 0.99752  0.18920  0.09988  Biso   1.000  H
  C898     1.0000 0.92661  0.14789  0.09492  Biso   1.000  C
  C899     1.0000 0.98810  0.36330  0.02661  Biso   1.000  C
  H1233    1.0000 0.94119  0.31399  0.07391  Biso   1.000  H
  H1234    1.0000 0.92369  0.31301  0.01301  Biso   1.000  H
  H1235    1.0000 0.98341  0.36520  0.94671  Biso   1.000  H
  H1236    1.0000 0.03410  0.39511  0.96929  Biso   1.000  H
  C900     1.0000 0.97339  0.98810  0.63670  Biso   1.000  C
  H1237    1.0000 0.92609  0.94119  0.68601  Biso   1.000  H
  H1238    1.0000 0.98699  0.92369  0.68699  Biso   1.000  H
  H1239    1.0000 0.05329  0.98341  0.63480  Biso   1.000  H
  H1240    1.0000 0.03071  0.03410  0.60489  Biso   1.000  H
  H1241    1.0000 0.89212  0.94742  0.77359  Biso   1.000  H
  H1242    1.0000 0.90012  0.99752  0.81080  Biso   1.000  H
  C901     1.0000 0.90508  0.92661  0.85211  Biso   1.000  C
  C902     1.0000 0.01001  0.73331  0.02779  Biso   1.000  C
  C903     1.0000 0.00000  0.81991  0.00000  Biso   1.000  C
  C904     1.0000 0.00000  0.00000  0.18009  Biso   1.000  C
  C905     1.0000 0.02779  0.98999  0.26669  Biso   1.000  C
  C906     1.0000 0.93800  0.11490  0.13721  Biso   1.000  C
  C907     1.0000 0.88510  0.13721  0.06200  Biso   1.000  C
  H1243    1.0000 0.01659  0.36520  0.05329  Biso   1.000  H
  H1244    1.0000 0.96590  0.39511  0.03071  Biso   1.000  H
  H1245    1.0000 0.96929  0.96590  0.60489  Biso   1.000  H
  H1246    1.0000 0.94671  0.01659  0.63480  Biso   1.000  H
  C908     1.0000 0.93800  0.88510  0.86279  Biso   1.000  C
  C909     1.0000 0.86279  0.93800  0.88510  Biso   1.000  C
  C910     1.0000 0.98999  0.73331  0.97221  Biso   1.000  C
  H1247    1.0000 0.97939  0.73122  0.05238  Biso   1.000  H
  C911     1.0000 0.04568  0.68601  0.03721  Biso   1.000  C
  N141     1.0000 0.96610  0.78538  0.96799  Biso   1.000  N
  H1248    1.0000 0.97820  0.84269  0.02302  Biso   1.000  H
  H1249    1.0000 0.02180  0.84269  0.97698  Biso   1.000  H
  H1250    1.0000 0.02302  0.02180  0.15731  Biso   1.000  H
  H1251    1.0000 0.97698  0.97820  0.15731  Biso   1.000  H
  N142     1.0000 0.96799  0.03390  0.21462  Biso   1.000  N
  H1252    1.0000 0.05238  0.02061  0.26878  Biso   1.000  H
  C912     1.0000 0.97221  0.01001  0.26669  Biso   1.000  C
  C913     1.0000 0.03721  0.95432  0.31399  Biso   1.000  C
  C914     1.0000 0.90508  0.07339  0.14789  Biso   1.000  C
  H1253    1.0000 0.96831  0.12101  0.15842  Biso   1.000  H
  C915     1.0000 0.85211  0.09492  0.07339  Biso   1.000  C
  H1254    1.0000 0.87899  0.15842  0.03169  Biso   1.000  H
  C916     1.0000 0.92661  0.85211  0.90508  Biso   1.000  C
  H1255    1.0000 0.96831  0.87899  0.84158  Biso   1.000  H
  C917     1.0000 0.85211  0.90508  0.92661  Biso   1.000  C
  H1256    1.0000 0.84158  0.96831  0.87899  Biso   1.000  H
  C918     1.0000 0.95432  0.68601  0.96279  Biso   1.000  C
  H1257    1.0000 0.02061  0.73122  0.94762  Biso   1.000  H
  C919     1.0000 0.01190  0.63670  0.02661  Biso   1.000  C
  H1258    1.0000 0.05881  0.68601  0.07391  Biso   1.000  H
  H1259    1.0000 0.07631  0.68699  0.01301  Biso   1.000  H
  C920     1.0000 0.96169  0.80292  0.91348  Biso   1.000  C
  C921     1.0000 0.91348  0.03831  0.19708  Biso   1.000  C
  H1260    1.0000 0.94762  0.97939  0.26878  Biso   1.000  H
  C922     1.0000 0.96279  0.04568  0.31399  Biso   1.000  C
  C923     1.0000 0.02661  0.98810  0.36330  Biso   1.000  C
  H1261    1.0000 0.07391  0.94119  0.31399  Biso   1.000  H
  H1262    1.0000 0.01301  0.92369  0.31301  Biso   1.000  H
  C924     1.0000 0.86279  0.06200  0.11490  Biso   1.000  C
  C925     1.0000 0.80292  0.08652  0.03831  Biso   1.000  C
  C926     1.0000 0.88510  0.86279  0.93800  Biso   1.000  C
  C927     1.0000 0.80292  0.91348  0.96169  Biso   1.000  C
  C928     1.0000 0.98810  0.63670  0.97339  Biso   1.000  C
  H1263    1.0000 0.94119  0.68601  0.92609  Biso   1.000  H
  H1264    1.0000 0.92369  0.68699  0.98699  Biso   1.000  H
  H1265    1.0000 0.98341  0.63480  0.05329  Biso   1.000  H
  H1266    1.0000 0.03410  0.60489  0.03071  Biso   1.000  H
  H1267    1.0000 0.94742  0.77359  0.89212  Biso   1.000  H
  H1268    1.0000 0.99752  0.81080  0.90012  Biso   1.000  H
  H1269    1.0000 0.89212  0.05258  0.22641  Biso   1.000  H
  H1270    1.0000 0.90012  0.00248  0.18920  Biso   1.000  H
  C929     1.0000 0.97339  0.01190  0.36330  Biso   1.000  C
  H1271    1.0000 0.92609  0.05881  0.31399  Biso   1.000  H
  H1272    1.0000 0.98699  0.07631  0.31301  Biso   1.000  H
  H1273    1.0000 0.05329  0.01659  0.36520  Biso   1.000  H
  H1274    1.0000 0.03071  0.96590  0.39511  Biso   1.000  H
  H1275    1.0000 0.84158  0.03169  0.12101  Biso   1.000  H
  N143     1.0000 0.78538  0.03201  0.03390  Biso   1.000  N
  H1276    1.0000 0.77359  0.10788  0.05258  Biso   1.000  H
  H1277    1.0000 0.81080  0.09988  0.00248  Biso   1.000  H
  H1278    1.0000 0.87899  0.84158  0.96831  Biso   1.000  H
  N144     1.0000 0.78538  0.96799  0.96610  Biso   1.000  N
  H1279    1.0000 0.77359  0.89212  0.94742  Biso   1.000  H
  H1280    1.0000 0.81080  0.90012  0.99752  Biso   1.000  H
  H1281    1.0000 0.96590  0.60489  0.96929  Biso   1.000  H
  H1282    1.0000 0.01659  0.63480  0.94671  Biso   1.000  H
  H1283    1.0000 0.94671  0.98341  0.36520  Biso   1.000  H
  H1284    1.0000 0.96929  0.03410  0.39511  Biso   1.000  H
  C930     1.0000 0.81991  0.00000  0.00000  Biso   1.000  C
  C931     1.0000 0.73331  0.02779  0.01001  Biso   1.000  C
  C932     1.0000 0.73331  0.97221  0.98999  Biso   1.000  C
  H1285    1.0000 0.84269  0.97698  0.02180  Biso   1.000  H
  H1286    1.0000 0.84269  0.02302  0.97820  Biso   1.000  H
  H1287    1.0000 0.73122  0.05238  0.97939  Biso   1.000  H
  C933     1.0000 0.68601  0.03721  0.04568  Biso   1.000  C
  C934     1.0000 0.68601  0.96279  0.95432  Biso   1.000  C
  H1288    1.0000 0.73122  0.94762  0.02061  Biso   1.000  H
  C935     1.0000 0.63670  0.02661  0.01190  Biso   1.000  C
  H1289    1.0000 0.68601  0.07391  0.05881  Biso   1.000  H
  H1290    1.0000 0.68699  0.01301  0.07631  Biso   1.000  H
  C936     1.0000 0.63670  0.97339  0.98810  Biso   1.000  C
  H1291    1.0000 0.68601  0.92609  0.94119  Biso   1.000  H
  H1292    1.0000 0.68699  0.98699  0.92369  Biso   1.000  H
  H1293    1.0000 0.63480  0.05329  0.98341  Biso   1.000  H
  H1294    1.0000 0.60489  0.03071  0.03410  Biso   1.000  H
  H1295    1.0000 0.60489  0.96929  0.96590  Biso   1.000  H
  H1296    1.0000 0.63480  0.94671  0.01659  Biso   1.000  H
  C937     1.0000 0.19708  0.08652  0.96169  Biso   1.000  C
  N145     1.0000 0.21462  0.03201  0.96610  Biso   1.000  N
  H1297    1.0000 0.22641  0.10788  0.94742  Biso   1.000  H
  H1298    1.0000 0.18920  0.09988  0.99752  Biso   1.000  H
  C938     1.0000 0.14789  0.09492  0.92661  Biso   1.000  C
  C939     1.0000 0.18009  0.00000  0.00000  Biso   1.000  C
  C940     1.0000 0.26669  0.02779  0.98999  Biso   1.000  C
  C941     1.0000 0.11490  0.13721  0.93800  Biso   1.000  C
  C942     1.0000 0.13721  0.06200  0.88510  Biso   1.000  C
  H1299    1.0000 0.15731  0.02302  0.02180  Biso   1.000  H
  H1300    1.0000 0.15731  0.97698  0.97820  Biso   1.000  H
  N146     1.0000 0.21462  0.96799  0.03390  Biso   1.000  N
  C943     1.0000 0.26669  0.97221  0.01001  Biso   1.000  C
  H1301    1.0000 0.26878  0.05238  0.02061  Biso   1.000  H
  C944     1.0000 0.31399  0.03721  0.95432  Biso   1.000  C
  H1302    1.0000 0.12101  0.15842  0.96831  Biso   1.000  H
  C945     1.0000 0.07339  0.14789  0.90508  Biso   1.000  C
  C946     1.0000 0.09492  0.07339  0.85211  Biso   1.000  C
  H1303    1.0000 0.15842  0.03169  0.87899  Biso   1.000  H
  C947     1.0000 0.19708  0.91348  0.03831  Biso   1.000  C
  H1304    1.0000 0.26878  0.94762  0.97939  Biso   1.000  H
  C948     1.0000 0.31399  0.96279  0.04568  Biso   1.000  C
  C949     1.0000 0.36330  0.02661  0.98810  Biso   1.000  C
  H1305    1.0000 0.31399  0.07391  0.94119  Biso   1.000  H
  H1306    1.0000 0.31301  0.01301  0.92369  Biso   1.000  H
  C950     1.0000 0.03831  0.19708  0.91348  Biso   1.000  C
  C951     1.0000 0.06200  0.11490  0.86279  Biso   1.000  C
  C952     1.0000 0.08652  0.03831  0.80292  Biso   1.000  C
  H1307    1.0000 0.22641  0.89212  0.05258  Biso   1.000  H
  H1308    1.0000 0.18920  0.90012  0.00248  Biso   1.000  H
  C953     1.0000 0.14789  0.90508  0.07339  Biso   1.000  C
  C954     1.0000 0.36330  0.97339  0.01190  Biso   1.000  C
  H1309    1.0000 0.31399  0.92609  0.05881  Biso   1.000  H
  H1310    1.0000 0.31301  0.98699  0.07631  Biso   1.000  H
  H1311    1.0000 0.36520  0.05329  0.01659  Biso   1.000  H
  H1312    1.0000 0.39511  0.03071  0.96590  Biso   1.000  H
  N147     1.0000 0.03390  0.21462  0.96799  Biso   1.000  N
  H1313    1.0000 0.05258  0.22641  0.89212  Biso   1.000  H
  H1314    1.0000 0.00248  0.18920  0.90012  Biso   1.000  H
  H1315    1.0000 0.03169  0.12101  0.84158  Biso   1.000  H
  N148     1.0000 0.03201  0.03390  0.78538  Biso   1.000  N
  H1316    1.0000 0.10788  0.05258  0.77359  Biso   1.000  H
  H1317    1.0000 0.09988  0.00248  0.81080  Biso   1.000  H
  C955     1.0000 0.11490  0.86279  0.06200  Biso   1.000  C
  C956     1.0000 0.13721  0.93800  0.11490  Biso   1.000  C
  H1318    1.0000 0.36520  0.94671  0.98341  Biso   1.000  H
  H1319    1.0000 0.39511  0.96929  0.03410  Biso   1.000  H
  C957     1.0000 0.00000  0.18009  0.00000  Biso   1.000  C
  C958     1.0000 0.01001  0.26669  0.97221  Biso   1.000  C
  C959     1.0000 0.02779  0.01001  0.73331  Biso   1.000  C
  C960     1.0000 0.00000  0.00000  0.81991  Biso   1.000  C
  H1320    1.0000 0.12101  0.84158  0.03169  Biso   1.000  H
  C961     1.0000 0.07339  0.85211  0.09492  Biso   1.000  C
  C962     1.0000 0.09492  0.92661  0.14789  Biso   1.000  C
  H1321    1.0000 0.15842  0.96831  0.12101  Biso   1.000  H
  H1322    1.0000 0.02180  0.15731  0.02302  Biso   1.000  H
  H1323    1.0000 0.97820  0.15731  0.97698  Biso   1.000  H
  N149     1.0000 0.96610  0.21462  0.03201  Biso   1.000  N
  H1324    1.0000 0.97939  0.26878  0.94762  Biso   1.000  H
  C963     1.0000 0.98999  0.26669  0.02779  Biso   1.000  C
  C964     1.0000 0.04568  0.31399  0.96279  Biso   1.000  C
  C965     1.0000 0.97221  0.98999  0.73331  Biso   1.000  C
  H1325    1.0000 0.05238  0.97939  0.73122  Biso   1.000  H
  C966     1.0000 0.03721  0.04568  0.68601  Biso   1.000  C
  N150     1.0000 0.96799  0.96610  0.78538  Biso   1.000  N
  H1326    1.0000 0.97698  0.02180  0.84269  Biso   1.000  H
  H1327    1.0000 0.02302  0.97820  0.84269  Biso   1.000  H
  C967     1.0000 0.03831  0.80292  0.08652  Biso   1.000  C
  C968     1.0000 0.06200  0.88510  0.13721  Biso   1.000  C
  C969     1.0000 0.08652  0.96169  0.19708  Biso   1.000  C
  C970     1.0000 0.96169  0.19708  0.08652  Biso   1.000  C
  H1328    1.0000 0.02061  0.26878  0.05238  Biso   1.000  H
  C971     1.0000 0.95432  0.31399  0.03721  Biso   1.000  C
  C972     1.0000 0.01190  0.36330  0.97339  Biso   1.000  C
  H1329    1.0000 0.05881  0.31399  0.92609  Biso   1.000  H
  H1330    1.0000 0.07631  0.31301  0.98699  Biso   1.000  H
  C973     1.0000 0.96279  0.95432  0.68601  Biso   1.000  C
  H1331    1.0000 0.94762  0.02061  0.73122  Biso   1.000  H
  C974     1.0000 0.02661  0.01190  0.63670  Biso   1.000  C
  H1332    1.0000 0.07391  0.05881  0.68601  Biso   1.000  H
  H1333    1.0000 0.01301  0.07631  0.68699  Biso   1.000  H
  C975     1.0000 0.91348  0.96169  0.80292  Biso   1.000  C
  N151     1.0000 0.03390  0.78538  0.03201  Biso   1.000  N
  H1334    1.0000 0.05258  0.77359  0.10788  Biso   1.000  H
  H1335    1.0000 0.00248  0.81080  0.09988  Biso   1.000  H
  H1336    1.0000 0.03169  0.87899  0.15842  Biso   1.000  H
  N152     1.0000 0.03201  0.96610  0.21462  Biso   1.000  N
  H1337    1.0000 0.10788  0.94742  0.22641  Biso   1.000  H
  H1338    1.0000 0.09988  0.99752  0.18920  Biso   1.000  H
  H1339    1.0000 0.94742  0.22641  0.10788  Biso   1.000  H
  H1340    1.0000 0.99752  0.18920  0.09988  Biso   1.000  H
  C976     1.0000 0.92661  0.14789  0.09492  Biso   1.000  C
  C977     1.0000 0.98810  0.36330  0.02661  Biso   1.000  C
  H1341    1.0000 0.94119  0.31399  0.07391  Biso   1.000  H
  H1342    1.0000 0.92369  0.31301  0.01301  Biso   1.000  H
  H1343    1.0000 0.98341  0.36520  0.94671  Biso   1.000  H
  H1344    1.0000 0.03410  0.39511  0.96929  Biso   1.000  H
  C978     1.0000 0.97339  0.98810  0.63670  Biso   1.000  C
  H1345    1.0000 0.92609  0.94119  0.68601  Biso   1.000  H
  H1346    1.0000 0.98699  0.92369  0.68699  Biso   1.000  H
  H1347    1.0000 0.05329  0.98341  0.63480  Biso   1.000  H
  H1348    1.0000 0.03071  0.03410  0.60489  Biso   1.000  H
  H1349    1.0000 0.89212  0.94742  0.77359  Biso   1.000  H
  H1350    1.0000 0.90012  0.99752  0.81080  Biso   1.000  H
  C979     1.0000 0.90508  0.92661  0.85211  Biso   1.000  C
  C980     1.0000 0.01001  0.73331  0.02779  Biso   1.000  C
  C981     1.0000 0.00000  0.81991  0.00000  Biso   1.000  C
  C982     1.0000 0.00000  0.00000  0.18009  Biso   1.000  C
  C983     1.0000 0.02779  0.98999  0.26669  Biso   1.000  C
  C984     1.0000 0.93800  0.11490  0.13721  Biso   1.000  C
  C985     1.0000 0.88510  0.13721  0.06200  Biso   1.000  C
  H1351    1.0000 0.01659  0.36520  0.05329  Biso   1.000  H
  H1352    1.0000 0.96590  0.39511  0.03071  Biso   1.000  H
  H1353    1.0000 0.96929  0.96590  0.60489  Biso   1.000  H
  H1354    1.0000 0.94671  0.01659  0.63480  Biso   1.000  H
  C986     1.0000 0.93800  0.88510  0.86279  Biso   1.000  C
  C987     1.0000 0.86279  0.93800  0.88510  Biso   1.000  C
  C988     1.0000 0.98999  0.73331  0.97221  Biso   1.000  C
  H1355    1.0000 0.97939  0.73122  0.05238  Biso   1.000  H
  C989     1.0000 0.04568  0.68601  0.03721  Biso   1.000  C
  N153     1.0000 0.96610  0.78538  0.96799  Biso   1.000  N
  H1356    1.0000 0.97820  0.84269  0.02302  Biso   1.000  H
  H1357    1.0000 0.02180  0.84269  0.97698  Biso   1.000  H
  H1358    1.0000 0.02302  0.02180  0.15731  Biso   1.000  H
  H1359    1.0000 0.97698  0.97820  0.15731  Biso   1.000  H
  N154     1.0000 0.96799  0.03390  0.21462  Biso   1.000  N
  H1360    1.0000 0.05238  0.02061  0.26878  Biso   1.000  H
  C990     1.0000 0.97221  0.01001  0.26669  Biso   1.000  C
  C991     1.0000 0.03721  0.95432  0.31399  Biso   1.000  C
  C992     1.0000 0.90508  0.07339  0.14789  Biso   1.000  C
  H1361    1.0000 0.96831  0.12101  0.15842  Biso   1.000  H
  C993     1.0000 0.85211  0.09492  0.07339  Biso   1.000  C
  H1362    1.0000 0.87899  0.15842  0.03169  Biso   1.000  H
  C994     1.0000 0.92661  0.85211  0.90508  Biso   1.000  C
  H1363    1.0000 0.96831  0.87899  0.84158  Biso   1.000  H
  C995     1.0000 0.85211  0.90508  0.92661  Biso   1.000  C
  H1364    1.0000 0.84158  0.96831  0.87899  Biso   1.000  H
  C996     1.0000 0.95432  0.68601  0.96279  Biso   1.000  C
  H1365    1.0000 0.02061  0.73122  0.94762  Biso   1.000  H
  C997     1.0000 0.01190  0.63670  0.02661  Biso   1.000  C
  H1366    1.0000 0.05881  0.68601  0.07391  Biso   1.000  H
  H1367    1.0000 0.07631  0.68699  0.01301  Biso   1.000  H
  C998     1.0000 0.96169  0.80292  0.91348  Biso   1.000  C
  C999     1.0000 0.91348  0.03831  0.19708  Biso   1.000  C
  H1368    1.0000 0.94762  0.97939  0.26878  Biso   1.000  H
  C1000    1.0000 0.96279  0.04568  0.31399  Biso   1.000  C
  C1001    1.0000 0.02661  0.98810  0.36330  Biso   1.000  C
  H1369    1.0000 0.07391  0.94119  0.31399  Biso   1.000  H
  H1370    1.0000 0.01301  0.92369  0.31301  Biso   1.000  H
  C1002    1.0000 0.86279  0.06200  0.11490  Biso   1.000  C
  C1003    1.0000 0.80292  0.08652  0.03831  Biso   1.000  C
  C1004    1.0000 0.88510  0.86279  0.93800  Biso   1.000  C
  C1005    1.0000 0.80292  0.91348  0.96169  Biso   1.000  C
  C1006    1.0000 0.98810  0.63670  0.97339  Biso   1.000  C
  H1371    1.0000 0.94119  0.68601  0.92609  Biso   1.000  H
  H1372    1.0000 0.92369  0.68699  0.98699  Biso   1.000  H
  H1373    1.0000 0.98341  0.63480  0.05329  Biso   1.000  H
  H1374    1.0000 0.03410  0.60489  0.03071  Biso   1.000  H
  H1375    1.0000 0.94742  0.77359  0.89212  Biso   1.000  H
  H1376    1.0000 0.99752  0.81080  0.90012  Biso   1.000  H
  H1377    1.0000 0.89212  0.05258  0.22641  Biso   1.000  H
  H1378    1.0000 0.90012  0.00248  0.18920  Biso   1.000  H
  C1007    1.0000 0.97339  0.01190  0.36330  Biso   1.000  C
  H1379    1.0000 0.92609  0.05881  0.31399  Biso   1.000  H
  H1380    1.0000 0.98699  0.07631  0.31301  Biso   1.000  H
  H1381    1.0000 0.05329  0.01659  0.36520  Biso   1.000  H
  H1382    1.0000 0.03071  0.96590  0.39511  Biso   1.000  H
  H1383    1.0000 0.84158  0.03169  0.12101  Biso   1.000  H
  N155     1.0000 0.78538  0.03201  0.03390  Biso   1.000  N
  H1384    1.0000 0.77359  0.10788  0.05258  Biso   1.000  H
  H1385    1.0000 0.81080  0.09988  0.00248  Biso   1.000  H
  H1386    1.0000 0.87899  0.84158  0.96831  Biso   1.000  H
  N156     1.0000 0.78538  0.96799  0.96610  Biso   1.000  N
  H1387    1.0000 0.77359  0.89212  0.94742  Biso   1.000  H
  H1388    1.0000 0.81080  0.90012  0.99752  Biso   1.000  H
  H1389    1.0000 0.96590  0.60489  0.96929  Biso   1.000  H
  H1390    1.0000 0.01659  0.63480  0.94671  Biso   1.000  H
  H1391    1.0000 0.94671  0.98341  0.36520  Biso   1.000  H
  H1392    1.0000 0.96929  0.03410  0.39511  Biso   1.000  H
  C1008    1.0000 0.81991  0.00000  0.00000  Biso   1.000  C
  C1009    1.0000 0.73331  0.02779  0.01001  Biso   1.000  C
  C1010    1.0000 0.73331  0.97221  0.98999  Biso   1.000  C
  H1393    1.0000 0.84269  0.97698  0.02180  Biso   1.000  H
  H1394    1.0000 0.84269  0.02302  0.97820  Biso   1.000  H
  H1395    1.0000 0.73122  0.05238  0.97939  Biso   1.000  H
  C1011    1.0000 0.68601  0.03721  0.04568  Biso   1.000  C
  C1012    1.0000 0.68601  0.96279  0.95432  Biso   1.000  C
  H1396    1.0000 0.73122  0.94762  0.02061  Biso   1.000  H
  C1013    1.0000 0.63670  0.02661  0.01190  Biso   1.000  C
  H1397    1.0000 0.68601  0.07391  0.05881  Biso   1.000  H
  H1398    1.0000 0.68699  0.01301  0.07631  Biso   1.000  H
  C1014    1.0000 0.63670  0.97339  0.98810  Biso   1.000  C
  H1399    1.0000 0.68601  0.92609  0.94119  Biso   1.000  H
  H1400    1.0000 0.68699  0.98699  0.92369  Biso   1.000  H
  H1401    1.0000 0.63480  0.05329  0.98341  Biso   1.000  H
  H1402    1.0000 0.60489  0.03071  0.03410  Biso   1.000  H
  H1403    1.0000 0.60489  0.96929  0.96590  Biso   1.000  H
  H1404    1.0000 0.63480  0.94671  0.01659  Biso   1.000  H
  C1015    1.0000 0.19708  0.08652  0.96169  Biso   1.000  C
  N157     1.0000 0.21462  0.03201  0.96610  Biso   1.000  N
  H1405    1.0000 0.22641  0.10788  0.94742  Biso   1.000  H
  H1406    1.0000 0.18920  0.09988  0.99752  Biso   1.000  H
  C1016    1.0000 0.14789  0.09492  0.92661  Biso   1.000  C
  C1017    1.0000 0.18009  0.00000  0.00000  Biso   1.000  C
  C1018    1.0000 0.26669  0.02779  0.98999  Biso   1.000  C
  C1019    1.0000 0.11490  0.13721  0.93800  Biso   1.000  C
  C1020    1.0000 0.13721  0.06200  0.88510  Biso   1.000  C
  H1407    1.0000 0.15731  0.02302  0.02180  Biso   1.000  H
  H1408    1.0000 0.15731  0.97698  0.97820  Biso   1.000  H
  N158     1.0000 0.21462  0.96799  0.03390  Biso   1.000  N
  C1021    1.0000 0.26669  0.97221  0.01001  Biso   1.000  C
  H1409    1.0000 0.26878  0.05238  0.02061  Biso   1.000  H
  C1022    1.0000 0.31399  0.03721  0.95432  Biso   1.000  C
  H1410    1.0000 0.12101  0.15842  0.96831  Biso   1.000  H
  C1023    1.0000 0.07339  0.14789  0.90508  Biso   1.000  C
  C1024    1.0000 0.09492  0.07339  0.85211  Biso   1.000  C
  H1411    1.0000 0.15842  0.03169  0.87899  Biso   1.000  H
  C1025    1.0000 0.19708  0.91348  0.03831  Biso   1.000  C
  H1412    1.0000 0.26878  0.94762  0.97939  Biso   1.000  H
  C1026    1.0000 0.31399  0.96279  0.04568  Biso   1.000  C
  C1027    1.0000 0.36330  0.02661  0.98810  Biso   1.000  C
  H1413    1.0000 0.31399  0.07391  0.94119  Biso   1.000  H
  H1414    1.0000 0.31301  0.01301  0.92369  Biso   1.000  H
  C1028    1.0000 0.03831  0.19708  0.91348  Biso   1.000  C
  C1029    1.0000 0.06200  0.11490  0.86279  Biso   1.000  C
  C1030    1.0000 0.08652  0.03831  0.80292  Biso   1.000  C
  H1415    1.0000 0.22641  0.89212  0.05258  Biso   1.000  H
  H1416    1.0000 0.18920  0.90012  0.00248  Biso   1.000  H
  C1031    1.0000 0.14789  0.90508  0.07339  Biso   1.000  C
  C1032    1.0000 0.36330  0.97339  0.01190  Biso   1.000  C
  H1417    1.0000 0.31399  0.92609  0.05881  Biso   1.000  H
  H1418    1.0000 0.31301  0.98699  0.07631  Biso   1.000  H
  H1419    1.0000 0.36520  0.05329  0.01659  Biso   1.000  H
  H1420    1.0000 0.39511  0.03071  0.96590  Biso   1.000  H
  N159     1.0000 0.03390  0.21462  0.96799  Biso   1.000  N
  H1421    1.0000 0.05258  0.22641  0.89212  Biso   1.000  H
  H1422    1.0000 0.00248  0.18920  0.90012  Biso   1.000  H
  H1423    1.0000 0.03169  0.12101  0.84158  Biso   1.000  H
  N160     1.0000 0.03201  0.03390  0.78538  Biso   1.000  N
  H1424    1.0000 0.10788  0.05258  0.77359  Biso   1.000  H
  H1425    1.0000 0.09988  0.00248  0.81080  Biso   1.000  H
  C1033    1.0000 0.11490  0.86279  0.06200  Biso   1.000  C
  C1034    1.0000 0.13721  0.93800  0.11490  Biso   1.000  C
  H1426    1.0000 0.36520  0.94671  0.98341  Biso   1.000  H
  H1427    1.0000 0.39511  0.96929  0.03410  Biso   1.000  H
  C1035    1.0000 0.00000  0.18009  0.00000  Biso   1.000  C
  C1036    1.0000 0.01001  0.26669  0.97221  Biso   1.000  C
  C1037    1.0000 0.02779  0.01001  0.73331  Biso   1.000  C
  C1038    1.0000 0.00000  0.00000  0.81991  Biso   1.000  C
  H1428    1.0000 0.12101  0.84158  0.03169  Biso   1.000  H
  C1039    1.0000 0.07339  0.85211  0.09492  Biso   1.000  C
  C1040    1.0000 0.09492  0.92661  0.14789  Biso   1.000  C
  H1429    1.0000 0.15842  0.96831  0.12101  Biso   1.000  H
  H1430    1.0000 0.02180  0.15731  0.02302  Biso   1.000  H
  H1431    1.0000 0.97820  0.15731  0.97698  Biso   1.000  H
  N161     1.0000 0.96610  0.21462  0.03201  Biso   1.000  N
  H1432    1.0000 0.97939  0.26878  0.94762  Biso   1.000  H
  C1041    1.0000 0.98999  0.26669  0.02779  Biso   1.000  C
  C1042    1.0000 0.04568  0.31399  0.96279  Biso   1.000  C
  C1043    1.0000 0.97221  0.98999  0.73331  Biso   1.000  C
  H1433    1.0000 0.05238  0.97939  0.73122  Biso   1.000  H
  C1044    1.0000 0.03721  0.04568  0.68601  Biso   1.000  C
  N162     1.0000 0.96799  0.96610  0.78538  Biso   1.000  N
  H1434    1.0000 0.97698  0.02180  0.84269  Biso   1.000  H
  H1435    1.0000 0.02302  0.97820  0.84269  Biso   1.000  H
  C1045    1.0000 0.03831  0.80292  0.08652  Biso   1.000  C
  C1046    1.0000 0.06200  0.88510  0.13721  Biso   1.000  C
  C1047    1.0000 0.08652  0.96169  0.19708  Biso   1.000  C
  C1048    1.0000 0.96169  0.19708  0.08652  Biso   1.000  C
  H1436    1.0000 0.02061  0.26878  0.05238  Biso   1.000  H
  C1049    1.0000 0.95432  0.31399  0.03721  Biso   1.000  C
  C1050    1.0000 0.01190  0.36330  0.97339  Biso   1.000  C
  H1437    1.0000 0.05881  0.31399  0.92609  Biso   1.000  H
  H1438    1.0000 0.07631  0.31301  0.98699  Biso   1.000  H
  C1051    1.0000 0.96279  0.95432  0.68601  Biso   1.000  C
  H1439    1.0000 0.94762  0.02061  0.73122  Biso   1.000  H
  C1052    1.0000 0.02661  0.01190  0.63670  Biso   1.000  C
  H1440    1.0000 0.07391  0.05881  0.68601  Biso   1.000  H
  H1441    1.0000 0.01301  0.07631  0.68699  Biso   1.000  H
  C1053    1.0000 0.91348  0.96169  0.80292  Biso   1.000  C
  N163     1.0000 0.03390  0.78538  0.03201  Biso   1.000  N
  H1442    1.0000 0.05258  0.77359  0.10788  Biso   1.000  H
  H1443    1.0000 0.00248  0.81080  0.09988  Biso   1.000  H
  H1444    1.0000 0.03169  0.87899  0.15842  Biso   1.000  H
  N164     1.0000 0.03201  0.96610  0.21462  Biso   1.000  N
  H1445    1.0000 0.10788  0.94742  0.22641  Biso   1.000  H
  H1446    1.0000 0.09988  0.99752  0.18920  Biso   1.000  H
  H1447    1.0000 0.94742  0.22641  0.10788  Biso   1.000  H
  H1448    1.0000 0.99752  0.18920  0.09988  Biso   1.000  H
  C1054    1.0000 0.92661  0.14789  0.09492  Biso   1.000  C
  C1055    1.0000 0.98810  0.36330  0.02661  Biso   1.000  C
  H1449    1.0000 0.94119  0.31399  0.07391  Biso   1.000  H
  H1450    1.0000 0.92369  0.31301  0.01301  Biso   1.000  H
  H1451    1.0000 0.98341  0.36520  0.94671  Biso   1.000  H
  H1452    1.0000 0.03410  0.39511  0.96929  Biso   1.000  H
  C1056    1.0000 0.97339  0.98810  0.63670  Biso   1.000  C
  H1453    1.0000 0.92609  0.94119  0.68601  Biso   1.000  H
  H1454    1.0000 0.98699  0.92369  0.68699  Biso   1.000  H
  H1455    1.0000 0.05329  0.98341  0.63480  Biso   1.000  H
  H1456    1.0000 0.03071  0.03410  0.60489  Biso   1.000  H
  H1457    1.0000 0.89212  0.94742  0.77359  Biso   1.000  H
  H1458    1.0000 0.90012  0.99752  0.81080  Biso   1.000  H
  C1057    1.0000 0.90508  0.92661  0.85211  Biso   1.000  C
  C1058    1.0000 0.01001  0.73331  0.02779  Biso   1.000  C
  C1059    1.0000 0.00000  0.81991  0.00000  Biso   1.000  C
  C1060    1.0000 0.00000  0.00000  0.18009  Biso   1.000  C
  C1061    1.0000 0.02779  0.98999  0.26669  Biso   1.000  C
  C1062    1.0000 0.93800  0.11490  0.13721  Biso   1.000  C
  C1063    1.0000 0.88510  0.13721  0.06200  Biso   1.000  C
  H1459    1.0000 0.01659  0.36520  0.05329  Biso   1.000  H
  H1460    1.0000 0.96590  0.39511  0.03071  Biso   1.000  H
  H1461    1.0000 0.96929  0.96590  0.60489  Biso   1.000  H
  H1462    1.0000 0.94671  0.01659  0.63480  Biso   1.000  H
  C1064    1.0000 0.93800  0.88510  0.86279  Biso   1.000  C
  C1065    1.0000 0.86279  0.93800  0.88510  Biso   1.000  C
  C1066    1.0000 0.98999  0.73331  0.97221  Biso   1.000  C
  H1463    1.0000 0.97939  0.73122  0.05238  Biso   1.000  H
  C1067    1.0000 0.04568  0.68601  0.03721  Biso   1.000  C
  N165     1.0000 0.96610  0.78538  0.96799  Biso   1.000  N
  H1464    1.0000 0.97820  0.84269  0.02302  Biso   1.000  H
  H1465    1.0000 0.02180  0.84269  0.97698  Biso   1.000  H
  H1466    1.0000 0.02302  0.02180  0.15731  Biso   1.000  H
  H1467    1.0000 0.97698  0.97820  0.15731  Biso   1.000  H
  N166     1.0000 0.96799  0.03390  0.21462  Biso   1.000  N
  H1468    1.0000 0.05238  0.02061  0.26878  Biso   1.000  H
  C1068    1.0000 0.97221  0.01001  0.26669  Biso   1.000  C
  C1069    1.0000 0.03721  0.95432  0.31399  Biso   1.000  C
  C1070    1.0000 0.90508  0.07339  0.14789  Biso   1.000  C
  H1469    1.0000 0.96831  0.12101  0.15842  Biso   1.000  H
  C1071    1.0000 0.85211  0.09492  0.07339  Biso   1.000  C
  H1470    1.0000 0.87899  0.15842  0.03169  Biso   1.000  H
  C1072    1.0000 0.92661  0.85211  0.90508  Biso   1.000  C
  H1471    1.0000 0.96831  0.87899  0.84158  Biso   1.000  H
  C1073    1.0000 0.85211  0.90508  0.92661  Biso   1.000  C
  H1472    1.0000 0.84158  0.96831  0.87899  Biso   1.000  H
  C1074    1.0000 0.95432  0.68601  0.96279  Biso   1.000  C
  H1473    1.0000 0.02061  0.73122  0.94762  Biso   1.000  H
  C1075    1.0000 0.01190  0.63670  0.02661  Biso   1.000  C
  H1474    1.0000 0.05881  0.68601  0.07391  Biso   1.000  H
  H1475    1.0000 0.07631  0.68699  0.01301  Biso   1.000  H
  C1076    1.0000 0.96169  0.80292  0.91348  Biso   1.000  C
  C1077    1.0000 0.91348  0.03831  0.19708  Biso   1.000  C
  H1476    1.0000 0.94762  0.97939  0.26878  Biso   1.000  H
  C1078    1.0000 0.96279  0.04568  0.31399  Biso   1.000  C
  C1079    1.0000 0.02661  0.98810  0.36330  Biso   1.000  C
  H1477    1.0000 0.07391  0.94119  0.31399  Biso   1.000  H
  H1478    1.0000 0.01301  0.92369  0.31301  Biso   1.000  H
  C1080    1.0000 0.86279  0.06200  0.11490  Biso   1.000  C
  C1081    1.0000 0.80292  0.08652  0.03831  Biso   1.000  C
  C1082    1.0000 0.88510  0.86279  0.93800  Biso   1.000  C
  C1083    1.0000 0.80292  0.91348  0.96169  Biso   1.000  C
  C1084    1.0000 0.98810  0.63670  0.97339  Biso   1.000  C
  H1479    1.0000 0.94119  0.68601  0.92609  Biso   1.000  H
  H1480    1.0000 0.92369  0.68699  0.98699  Biso   1.000  H
  H1481    1.0000 0.98341  0.63480  0.05329  Biso   1.000  H
  H1482    1.0000 0.03410  0.60489  0.03071  Biso   1.000  H
  H1483    1.0000 0.94742  0.77359  0.89212  Biso   1.000  H
  H1484    1.0000 0.99752  0.81080  0.90012  Biso   1.000  H
  H1485    1.0000 0.89212  0.05258  0.22641  Biso   1.000  H
  H1486    1.0000 0.90012  0.00248  0.18920  Biso   1.000  H
  C1085    1.0000 0.97339  0.01190  0.36330  Biso   1.000  C
  H1487    1.0000 0.92609  0.05881  0.31399  Biso   1.000  H
  H1488    1.0000 0.98699  0.07631  0.31301  Biso   1.000  H
  H1489    1.0000 0.05329  0.01659  0.36520  Biso   1.000  H
  H1490    1.0000 0.03071  0.96590  0.39511  Biso   1.000  H
  H1491    1.0000 0.84158  0.03169  0.12101  Biso   1.000  H
  N167     1.0000 0.78538  0.03201  0.03390  Biso   1.000  N
  H1492    1.0000 0.77359  0.10788  0.05258  Biso   1.000  H
  H1493    1.0000 0.81080  0.09988  0.00248  Biso   1.000  H
  H1494    1.0000 0.87899  0.84158  0.96831  Biso   1.000  H
  N168     1.0000 0.78538  0.96799  0.96610  Biso   1.000  N
  H1495    1.0000 0.77359  0.89212  0.94742  Biso   1.000  H
  H1496    1.0000 0.81080  0.90012  0.99752  Biso   1.000  H
  H1497    1.0000 0.96590  0.60489  0.96929  Biso   1.000  H
  H1498    1.0000 0.01659  0.63480  0.94671  Biso   1.000  H
  H1499    1.0000 0.94671  0.98341  0.36520  Biso   1.000  H
  H1500    1.0000 0.96929  0.03410  0.39511  Biso   1.000  H
  C1086    1.0000 0.81991  0.00000  0.00000  Biso   1.000  C
  C1087    1.0000 0.73331  0.02779  0.01001  Biso   1.000  C
  C1088    1.0000 0.73331  0.97221  0.98999  Biso   1.000  C
  H1501    1.0000 0.84269  0.97698  0.02180  Biso   1.000  H
  H1502    1.0000 0.84269  0.02302  0.97820  Biso   1.000  H
  H1503    1.0000 0.73122  0.05238  0.97939  Biso   1.000  H
  C1089    1.0000 0.68601  0.03721  0.04568  Biso   1.000  C
  C1090    1.0000 0.68601  0.96279  0.95432  Biso   1.000  C
  H1504    1.0000 0.73122  0.94762  0.02061  Biso   1.000  H
  C1091    1.0000 0.63670  0.02661  0.01190  Biso   1.000  C
  H1505    1.0000 0.68601  0.07391  0.05881  Biso   1.000  H
  H1506    1.0000 0.68699  0.01301  0.07631  Biso   1.000  H
  C1092    1.0000 0.63670  0.97339  0.98810  Biso   1.000  C
  H1507    1.0000 0.68601  0.92609  0.94119  Biso   1.000  H
  H1508    1.0000 0.68699  0.98699  0.92369  Biso   1.000  H
  H1509    1.0000 0.63480  0.05329  0.98341  Biso   1.000  H
  H1510    1.0000 0.60489  0.03071  0.03410  Biso   1.000  H
  H1511    1.0000 0.60489  0.96929  0.96590  Biso   1.000  H
  H1512    1.0000 0.63480  0.94671  0.01659  Biso   1.000  H
  C1093    1.0000 0.19708  0.08652  0.96169  Biso   1.000  C
  N169     1.0000 0.21462  0.03201  0.96610  Biso   1.000  N
  H1513    1.0000 0.22641  0.10788  0.94742  Biso   1.000  H
  H1514    1.0000 0.18920  0.09988  0.99752  Biso   1.000  H
  C1094    1.0000 0.14789  0.09492  0.92661  Biso   1.000  C
  C1095    1.0000 0.18009  0.00000  0.00000  Biso   1.000  C
  C1096    1.0000 0.26669  0.02779  0.98999  Biso   1.000  C
  C1097    1.0000 0.11490  0.13721  0.93800  Biso   1.000  C
  C1098    1.0000 0.13721  0.06200  0.88510  Biso   1.000  C
  H1515    1.0000 0.15731  0.02302  0.02180  Biso   1.000  H
  H1516    1.0000 0.15731  0.97698  0.97820  Biso   1.000  H
  N170     1.0000 0.21462  0.96799  0.03390  Biso   1.000  N
  C1099    1.0000 0.26669  0.97221  0.01001  Biso   1.000  C
  H1517    1.0000 0.26878  0.05238  0.02061  Biso   1.000  H
  C1100    1.0000 0.31399  0.03721  0.95432  Biso   1.000  C
  H1518    1.0000 0.12101  0.15842  0.96831  Biso   1.000  H
  C1101    1.0000 0.07339  0.14789  0.90508  Biso   1.000  C
  C1102    1.0000 0.09492  0.07339  0.85211  Biso   1.000  C
  H1519    1.0000 0.15842  0.03169  0.87899  Biso   1.000  H
  C1103    1.0000 0.19708  0.91348  0.03831  Biso   1.000  C
  H1520    1.0000 0.26878  0.94762  0.97939  Biso   1.000  H
  C1104    1.0000 0.31399  0.96279  0.04568  Biso   1.000  C
  C1105    1.0000 0.36330  0.02661  0.98810  Biso   1.000  C
  H1521    1.0000 0.31399  0.07391  0.94119  Biso   1.000  H
  H1522    1.0000 0.31301  0.01301  0.92369  Biso   1.000  H
  C1106    1.0000 0.03831  0.19708  0.91348  Biso   1.000  C
  C1107    1.0000 0.06200  0.11490  0.86279  Biso   1.000  C
  C1108    1.0000 0.08652  0.03831  0.80292  Biso   1.000  C
  H1523    1.0000 0.22641  0.89212  0.05258  Biso   1.000  H
  H1524    1.0000 0.18920  0.90012  0.00248  Biso   1.000  H
  C1109    1.0000 0.14789  0.90508  0.07339  Biso   1.000  C
  C1110    1.0000 0.36330  0.97339  0.01190  Biso   1.000  C
  H1525    1.0000 0.31399  0.92609  0.05881  Biso   1.000  H
  H1526    1.0000 0.31301  0.98699  0.07631  Biso   1.000  H
  H1527    1.0000 0.36520  0.05329  0.01659  Biso   1.000  H
  H1528    1.0000 0.39511  0.03071  0.96590  Biso   1.000  H
  N171     1.0000 0.03390  0.21462  0.96799  Biso   1.000  N
  H1529    1.0000 0.05258  0.22641  0.89212  Biso   1.000  H
  H1530    1.0000 0.00248  0.18920  0.90012  Biso   1.000  H
  H1531    1.0000 0.03169  0.12101  0.84158  Biso   1.000  H
  N172     1.0000 0.03201  0.03390  0.78538  Biso   1.000  N
  H1532    1.0000 0.10788  0.05258  0.77359  Biso   1.000  H
  H1533    1.0000 0.09988  0.00248  0.81080  Biso   1.000  H
  C1111    1.0000 0.11490  0.86279  0.06200  Biso   1.000  C
  C1112    1.0000 0.13721  0.93800  0.11490  Biso   1.000  C
  H1534    1.0000 0.36520  0.94671  0.98341  Biso   1.000  H
  H1535    1.0000 0.39511  0.96929  0.03410  Biso   1.000  H
  C1113    1.0000 0.00000  0.18009  0.00000  Biso   1.000  C
  C1114    1.0000 0.01001  0.26669  0.97221  Biso   1.000  C
  C1115    1.0000 0.02779  0.01001  0.73331  Biso   1.000  C
  C1116    1.0000 0.00000  0.00000  0.81991  Biso   1.000  C
  H1536    1.0000 0.12101  0.84158  0.03169  Biso   1.000  H
  C1117    1.0000 0.07339  0.85211  0.09492  Biso   1.000  C
  C1118    1.0000 0.09492  0.92661  0.14789  Biso   1.000  C
  H1537    1.0000 0.15842  0.96831  0.12101  Biso   1.000  H
  H1538    1.0000 0.02180  0.15731  0.02302  Biso   1.000  H
  H1539    1.0000 0.97820  0.15731  0.97698  Biso   1.000  H
  N173     1.0000 0.96610  0.21462  0.03201  Biso   1.000  N
  H1540    1.0000 0.97939  0.26878  0.94762  Biso   1.000  H
  C1119    1.0000 0.98999  0.26669  0.02779  Biso   1.000  C
  C1120    1.0000 0.04568  0.31399  0.96279  Biso   1.000  C
  C1121    1.0000 0.97221  0.98999  0.73331  Biso   1.000  C
  H1541    1.0000 0.05238  0.97939  0.73122  Biso   1.000  H
  C1122    1.0000 0.03721  0.04568  0.68601  Biso   1.000  C
  N174     1.0000 0.96799  0.96610  0.78538  Biso   1.000  N
  H1542    1.0000 0.97698  0.02180  0.84269  Biso   1.000  H
  H1543    1.0000 0.02302  0.97820  0.84269  Biso   1.000  H
  C1123    1.0000 0.03831  0.80292  0.08652  Biso   1.000  C
  C1124    1.0000 0.06200  0.88510  0.13721  Biso   1.000  C
  C1125    1.0000 0.08652  0.96169  0.19708  Biso   1.000  C
  C1126    1.0000 0.96169  0.19708  0.08652  Biso   1.000  C
  H1544    1.0000 0.02061  0.26878  0.05238  Biso   1.000  H
  C1127    1.0000 0.95432  0.31399  0.03721  Biso   1.000  C
  C1128    1.0000 0.01190  0.36330  0.97339  Biso   1.000  C
  H1545    1.0000 0.05881  0.31399  0.92609  Biso   1.000  H
  H1546    1.0000 0.07631  0.31301  0.98699  Biso   1.000  H
  C1129    1.0000 0.96279  0.95432  0.68601  Biso   1.000  C
  H1547    1.0000 0.94762  0.02061  0.73122  Biso   1.000  H
  C1130    1.0000 0.02661  0.01190  0.63670  Biso   1.000  C
  H1548    1.0000 0.07391  0.05881  0.68601  Biso   1.000  H
  H1549    1.0000 0.01301  0.07631  0.68699  Biso   1.000  H
  C1131    1.0000 0.91348  0.96169  0.80292  Biso   1.000  C
  N175     1.0000 0.03390  0.78538  0.03201  Biso   1.000  N
  H1550    1.0000 0.05258  0.77359  0.10788  Biso   1.000  H
  H1551    1.0000 0.00248  0.81080  0.09988  Biso   1.000  H
  H1552    1.0000 0.03169  0.87899  0.15842  Biso   1.000  H
  N176     1.0000 0.03201  0.96610  0.21462  Biso   1.000  N
  H1553    1.0000 0.10788  0.94742  0.22641  Biso   1.000  H
  H1554    1.0000 0.09988  0.99752  0.18920  Biso   1.000  H
  H1555    1.0000 0.94742  0.22641  0.10788  Biso   1.000  H
  H1556    1.0000 0.99752  0.18920  0.09988  Biso   1.000  H
  C1132    1.0000 0.92661  0.14789  0.09492  Biso   1.000  C
  C1133    1.0000 0.98810  0.36330  0.02661  Biso   1.000  C
  H1557    1.0000 0.94119  0.31399  0.07391  Biso   1.000  H
  H1558    1.0000 0.92369  0.31301  0.01301  Biso   1.000  H
  H1559    1.0000 0.98341  0.36520  0.94671  Biso   1.000  H
  H1560    1.0000 0.03410  0.39511  0.96929  Biso   1.000  H
  C1134    1.0000 0.97339  0.98810  0.63670  Biso   1.000  C
  H1561    1.0000 0.92609  0.94119  0.68601  Biso   1.000  H
  H1562    1.0000 0.98699  0.92369  0.68699  Biso   1.000  H
  H1563    1.0000 0.05329  0.98341  0.63480  Biso   1.000  H
  H1564    1.0000 0.03071  0.03410  0.60489  Biso   1.000  H
  H1565    1.0000 0.89212  0.94742  0.77359  Biso   1.000  H
  H1566    1.0000 0.90012  0.99752  0.81080  Biso   1.000  H
  C1135    1.0000 0.90508  0.92661  0.85211  Biso   1.000  C
  C1136    1.0000 0.01001  0.73331  0.02779  Biso   1.000  C
  C1137    1.0000 0.00000  0.81991  0.00000  Biso   1.000  C
  C1138    1.0000 0.00000  0.00000  0.18009  Biso   1.000  C
  C1139    1.0000 0.02779  0.98999  0.26669  Biso   1.000  C
  C1140    1.0000 0.93800  0.11490  0.13721  Biso   1.000  C
  C1141    1.0000 0.88510  0.13721  0.06200  Biso   1.000  C
  H1567    1.0000 0.01659  0.36520  0.05329  Biso   1.000  H
  H1568    1.0000 0.96590  0.39511  0.03071  Biso   1.000  H
  H1569    1.0000 0.96929  0.96590  0.60489  Biso   1.000  H
  H1570    1.0000 0.94671  0.01659  0.63480  Biso   1.000  H
  C1142    1.0000 0.93800  0.88510  0.86279  Biso   1.000  C
  C1143    1.0000 0.86279  0.93800  0.88510  Biso   1.000  C
  C1144    1.0000 0.98999  0.73331  0.97221  Biso   1.000  C
  H1571    1.0000 0.97939  0.73122  0.05238  Biso   1.000  H
  C1145    1.0000 0.04568  0.68601  0.03721  Biso   1.000  C
  N177     1.0000 0.96610  0.78538  0.96799  Biso   1.000  N
  H1572    1.0000 0.97820  0.84269  0.02302  Biso   1.000  H
  H1573    1.0000 0.02180  0.84269  0.97698  Biso   1.000  H
  H1574    1.0000 0.02302  0.02180  0.15731  Biso   1.000  H
  H1575    1.0000 0.97698  0.97820  0.15731  Biso   1.000  H
  N178     1.0000 0.96799  0.03390  0.21462  Biso   1.000  N
  H1576    1.0000 0.05238  0.02061  0.26878  Biso   1.000  H
  C1146    1.0000 0.97221  0.01001  0.26669  Biso   1.000  C
  C1147    1.0000 0.03721  0.95432  0.31399  Biso   1.000  C
  C1148    1.0000 0.90508  0.07339  0.14789  Biso   1.000  C
  H1577    1.0000 0.96831  0.12101  0.15842  Biso   1.000  H
  C1149    1.0000 0.85211  0.09492  0.07339  Biso   1.000  C
  H1578    1.0000 0.87899  0.15842  0.03169  Biso   1.000  H
  C1150    1.0000 0.92661  0.85211  0.90508  Biso   1.000  C
  H1579    1.0000 0.96831  0.87899  0.84158  Biso   1.000  H
  C1151    1.0000 0.85211  0.90508  0.92661  Biso   1.000  C
  H1580    1.0000 0.84158  0.96831  0.87899  Biso   1.000  H
  C1152    1.0000 0.95432  0.68601  0.96279  Biso   1.000  C
  H1581    1.0000 0.02061  0.73122  0.94762  Biso   1.000  H
  C1153    1.0000 0.01190  0.63670  0.02661  Biso   1.000  C
  H1582    1.0000 0.05881  0.68601  0.07391  Biso   1.000  H
  H1583    1.0000 0.07631  0.68699  0.01301  Biso   1.000  H
  C1154    1.0000 0.96169  0.80292  0.91348  Biso   1.000  C
  C1155    1.0000 0.91348  0.03831  0.19708  Biso   1.000  C
  H1584    1.0000 0.94762  0.97939  0.26878  Biso   1.000  H
  C1156    1.0000 0.96279  0.04568  0.31399  Biso   1.000  C
  C1157    1.0000 0.02661  0.98810  0.36330  Biso   1.000  C
  H1585    1.0000 0.07391  0.94119  0.31399  Biso   1.000  H
  H1586    1.0000 0.01301  0.92369  0.31301  Biso   1.000  H
  C1158    1.0000 0.86279  0.06200  0.11490  Biso   1.000  C
  C1159    1.0000 0.80292  0.08652  0.03831  Biso   1.000  C
  C1160    1.0000 0.88510  0.86279  0.93800  Biso   1.000  C
  C1161    1.0000 0.80292  0.91348  0.96169  Biso   1.000  C
  C1162    1.0000 0.98810  0.63670  0.97339  Biso   1.000  C
  H1587    1.0000 0.94119  0.68601  0.92609  Biso   1.000  H
  H1588    1.0000 0.92369  0.68699  0.98699  Biso   1.000  H
  H1589    1.0000 0.98341  0.63480  0.05329  Biso   1.000  H
  H1590    1.0000 0.03410  0.60489  0.03071  Biso   1.000  H
  H1591    1.0000 0.94742  0.77359  0.89212  Biso   1.000  H
  H1592    1.0000 0.99752  0.81080  0.90012  Biso   1.000  H
  H1593    1.0000 0.89212  0.05258  0.22641  Biso   1.000  H
  H1594    1.0000 0.90012  0.00248  0.18920  Biso   1.000  H
  C1163    1.0000 0.97339  0.01190  0.36330  Biso   1.000  C
  H1595    1.0000 0.92609  0.05881  0.31399  Biso   1.000  H
  H1596    1.0000 0.98699  0.07631  0.31301  Biso   1.000  H
  H1597    1.0000 0.05329  0.01659  0.36520  Biso   1.000  H
  H1598    1.0000 0.03071  0.96590  0.39511  Biso   1.000  H
  H1599    1.0000 0.84158  0.03169  0.12101  Biso   1.000  H
  N179     1.0000 0.78538  0.03201  0.03390  Biso   1.000  N
  H1600    1.0000 0.77359  0.10788  0.05258  Biso   1.000  H
  H1601    1.0000 0.81080  0.09988  0.00248  Biso   1.000  H
  H1602    1.0000 0.87899  0.84158  0.96831  Biso   1.000  H
  N180     1.0000 0.78538  0.96799  0.96610  Biso   1.000  N
  H1603    1.0000 0.77359  0.89212  0.94742  Biso   1.000  H
  H1604    1.0000 0.81080  0.90012  0.99752  Biso   1.000  H
  H1605    1.0000 0.96590  0.60489  0.96929  Biso   1.000  H
  H1606    1.0000 0.01659  0.63480  0.94671  Biso   1.000  H
  H1607    1.0000 0.94671  0.98341  0.36520  Biso   1.000  H
  H1608    1.0000 0.96929  0.03410  0.39511  Biso   1.000  H
  C1164    1.0000 0.81991  0.00000  0.00000  Biso   1.000  C
  C1165    1.0000 0.73331  0.02779  0.01001  Biso   1.000  C
  C1166    1.0000 0.73331  0.97221  0.98999  Biso   1.000  C
  H1609    1.0000 0.84269  0.97698  0.02180  Biso   1.000  H
  H1610    1.0000 0.84269  0.02302  0.97820  Biso   1.000  H
  H1611    1.0000 0.73122  0.05238  0.97939  Biso   1.000  H
  C1167    1.0000 0.68601  0.03721  0.04568  Biso   1.000  C
  C1168    1.0000 0.68601  0.96279  0.95432  Biso   1.000  C
  H1612    1.0000 0.73122  0.94762  0.02061  Biso   1.000  H
  C1169    1.0000 0.63670  0.02661  0.01190  Biso   1.000  C
  H1613    1.0000 0.68601  0.07391  0.05881  Biso   1.000  H
  H1614    1.0000 0.68699  0.01301  0.07631  Biso   1.000  H
  C1170    1.0000 0.63670  0.97339  0.98810  Biso   1.000  C
  H1615    1.0000 0.68601  0.92609  0.94119  Biso   1.000  H
  H1616    1.0000 0.68699  0.98699  0.92369  Biso   1.000  H
  H1617    1.0000 0.63480  0.05329  0.98341  Biso   1.000  H
  H1618    1.0000 0.60489  0.03071  0.03410  Biso   1.000  H
  H1619    1.0000 0.60489  0.96929  0.96590  Biso   1.000  H
  H1620    1.0000 0.63480  0.94671  0.01659  Biso   1.000  H
  C1171    1.0000 0.70430  0.28719  0.43599  Biso   1.000  C
  C1172    1.0000 0.73812  0.27659  0.38672  Biso   1.000  C
  H1621    1.0000 0.69121  0.32389  0.43599  Biso   1.000  H
  H1622    1.0000 0.67371  0.26299  0.43701  Biso   1.000  H
  C1173    1.0000 0.74001  0.27781  0.48329  Biso   1.000  C
  C1174    1.0000 0.76188  0.22341  0.38672  Biso   1.000  C
  H1623    1.0000 0.71588  0.28069  0.35491  Biso   1.000  H
  H1624    1.0000 0.76661  0.30331  0.38479  Biso   1.000  H
  C1175    1.0000 0.75999  0.22219  0.48329  Biso   1.000  C
  H1625    1.0000 0.77060  0.30240  0.48120  Biso   1.000  H
  N181     1.0000 0.71608  0.28199  0.53540  Biso   1.000  N
  H1626    1.0000 0.78412  0.21931  0.35491  Biso   1.000  H
  H1627    1.0000 0.73339  0.19669  0.38479  Biso   1.000  H
  C1176    1.0000 0.79570  0.21281  0.43599  Biso   1.000  C
  H1628    1.0000 0.72940  0.19760  0.48120  Biso   1.000  H
  N182     1.0000 0.78392  0.21801  0.53540  Biso   1.000  N
  C1177    1.0000 0.74998  0.25002  0.56989  Biso   1.000  C
  C1178    1.0000 0.71171  0.33650  0.55290  Biso   1.000  C
  H1629    1.0000 0.80879  0.17611  0.43599  Biso   1.000  H
  H1630    1.0000 0.82629  0.23701  0.43701  Biso   1.000  H
  C1179    1.0000 0.78829  0.16350  0.55290  Biso   1.000  C
  H1631    1.0000 0.77182  0.27300  0.59271  Biso   1.000  H
  H1632    1.0000 0.72818  0.22700  0.59271  Biso   1.000  H
  H1633    1.0000 0.69740  0.35790  0.52361  Biso   1.000  H
  H1634    1.0000 0.74750  0.34990  0.56078  Biso   1.000  H
  C1180    1.0000 0.67659  0.34490  0.60209  Biso   1.000  C
  H1635    1.0000 0.80260  0.14210  0.52361  Biso   1.000  H
  H1636    1.0000 0.75250  0.15010  0.56078  Biso   1.000  H
  C1181    1.0000 0.82341  0.15510  0.60209  Biso   1.000  C
  C1182    1.0000 0.63508  0.31198  0.61281  Biso   1.000  C
  C1183    1.0000 0.68802  0.38719  0.63508  Biso   1.000  C
  C1184    1.0000 0.81198  0.11281  0.63508  Biso   1.000  C
  C1185    1.0000 0.86492  0.18802  0.61281  Biso   1.000  C
  C1186    1.0000 0.60209  0.32341  0.65510  Biso   1.000  C
  H1637    1.0000 0.62901  0.28171  0.59160  Biso   1.000  H
  C1187    1.0000 0.65510  0.39791  0.67659  Biso   1.000  C
  H1638    1.0000 0.71829  0.40840  0.62901  Biso   1.000  H
  C1188    1.0000 0.84490  0.10209  0.67659  Biso   1.000  C
  H1639    1.0000 0.78171  0.09160  0.62901  Biso   1.000  H
  C1189    1.0000 0.89791  0.17659  0.65510  Biso   1.000  C
  H1640    1.0000 0.87099  0.21829  0.59160  Biso   1.000  H
  C1190    1.0000 0.55290  0.28829  0.66350  Biso   1.000  C
  C1191    1.0000 0.61281  0.36492  0.68802  Biso   1.000  C
  C1192    1.0000 0.66350  0.44710  0.71171  Biso   1.000  C
  C1193    1.0000 0.83650  0.05290  0.71171  Biso   1.000  C
  C1194    1.0000 0.88719  0.13508  0.68802  Biso   1.000  C
  C1195    1.0000 0.94710  0.21171  0.66350  Biso   1.000  C
  N183     1.0000 0.53540  0.28392  0.71801  Biso   1.000  N
  H1641    1.0000 0.52361  0.30260  0.64210  Biso   1.000  H
  H1642    1.0000 0.56078  0.25250  0.65010  Biso   1.000  H
  H1643    1.0000 0.59160  0.37099  0.71829  Biso   1.000  H
  N184     1.0000 0.71801  0.46460  0.71608  Biso   1.000  N
  H1644    1.0000 0.64210  0.47639  0.69740  Biso   1.000  H
  H1645    1.0000 0.65010  0.43922  0.74750  Biso   1.000  H
  N185     1.0000 0.78199  0.03540  0.71608  Biso   1.000  N
  H1646    1.0000 0.85790  0.02361  0.69740  Biso   1.000  H
  H1647    1.0000 0.84990  0.06078  0.74750  Biso   1.000  H
  H1648    1.0000 0.90840  0.12901  0.71829  Biso   1.000  H
  N186     1.0000 0.96460  0.21608  0.71801  Biso   1.000  N
  H1649    1.0000 0.97639  0.19740  0.64210  Biso   1.000  H
  H1650    1.0000 0.93922  0.24750  0.65010  Biso   1.000  H
  C1196    1.0000 0.56989  0.25002  0.74998  Biso   1.000  C
  C1197    1.0000 0.48329  0.25999  0.72219  Biso   1.000  C
  C1198    1.0000 0.72219  0.51671  0.74001  Biso   1.000  C
  C1199    1.0000 0.74998  0.43011  0.74998  Biso   1.000  C
  C1200    1.0000 0.74998  0.06989  0.74998  Biso   1.000  C
  C1201    1.0000 0.77781  0.98329  0.74001  Biso   1.000  C
  C1202    1.0000 0.93011  0.25002  0.74998  Biso   1.000  C
  C1203    1.0000 0.01671  0.24001  0.72219  Biso   1.000  C
  N187     1.0000 0.53540  0.21608  0.78199  Biso   1.000  N
  H1651    1.0000 0.59271  0.22818  0.72700  Biso   1.000  H
  H1652    1.0000 0.59271  0.27182  0.77300  Biso   1.000  H
  C1204    1.0000 0.48329  0.24001  0.77781  Biso   1.000  C
  C1205    1.0000 0.43599  0.29570  0.71281  Biso   1.000  C
  H1653    1.0000 0.48120  0.22940  0.69760  Biso   1.000  H
  C1206    1.0000 0.71281  0.56401  0.70430  Biso   1.000  C
  H1654    1.0000 0.69760  0.51880  0.77060  Biso   1.000  H
  C1207    1.0000 0.77781  0.51671  0.75999  Biso   1.000  C
  H1655    1.0000 0.77300  0.40729  0.72818  Biso   1.000  H
  N188     1.0000 0.78199  0.46460  0.78392  Biso   1.000  N
  H1656    1.0000 0.72700  0.40729  0.77182  Biso   1.000  H
  N189     1.0000 0.71801  0.03540  0.78392  Biso   1.000  N
  H1657    1.0000 0.77300  0.09271  0.77182  Biso   1.000  H
  H1658    1.0000 0.72700  0.09271  0.72818  Biso   1.000  H
  C1208    1.0000 0.72219  0.98329  0.75999  Biso   1.000  C
  C1209    1.0000 0.78719  0.93599  0.70430  Biso   1.000  C
  H1659    1.0000 0.80240  0.98120  0.77060  Biso   1.000  H
  H1660    1.0000 0.90729  0.22818  0.77300  Biso   1.000  H
  N190     1.0000 0.96460  0.28392  0.78199  Biso   1.000  N
  H1661    1.0000 0.90729  0.27182  0.72700  Biso   1.000  H
  C1210    1.0000 0.06401  0.20430  0.71281  Biso   1.000  C
  H1662    1.0000 0.01880  0.27060  0.69760  Biso   1.000  H
  C1211    1.0000 0.01671  0.25999  0.77781  Biso   1.000  C
  C1212    1.0000 0.55290  0.21171  0.83650  Biso   1.000  C
  C1213    1.0000 0.43599  0.20430  0.78719  Biso   1.000  C
  H1663    1.0000 0.48120  0.27060  0.80240  Biso   1.000  H
  C1214    1.0000 0.38672  0.26188  0.72341  Biso   1.000  C
  H1664    1.0000 0.43599  0.30879  0.67611  Biso   1.000  H
  H1665    1.0000 0.43701  0.32629  0.73701  Biso   1.000  H
  C1215    1.0000 0.72341  0.61328  0.73812  Biso   1.000  C
  H1666    1.0000 0.67611  0.56401  0.69121  Biso   1.000  H
  H1667    1.0000 0.73701  0.56299  0.67371  Biso   1.000  H
  C1216    1.0000 0.78719  0.56401  0.79570  Biso   1.000  C
  H1668    1.0000 0.80240  0.51880  0.72940  Biso   1.000  H
  C1217    1.0000 0.83650  0.44710  0.78829  Biso   1.000  C
  C1218    1.0000 0.66350  0.05290  0.78829  Biso   1.000  C
  C1219    1.0000 0.71281  0.93599  0.79570  Biso   1.000  C
  H1669    1.0000 0.69760  0.98120  0.72940  Biso   1.000  H
  C1220    1.0000 0.77659  0.88672  0.73812  Biso   1.000  C
  H1670    1.0000 0.82389  0.93599  0.69121  Biso   1.000  H
  H1671    1.0000 0.76299  0.93701  0.67371  Biso   1.000  H
  C1221    1.0000 0.94710  0.28829  0.83650  Biso   1.000  C
  C1222    1.0000 0.11328  0.23812  0.72341  Biso   1.000  C
  H1672    1.0000 0.06401  0.19121  0.67611  Biso   1.000  H
  H1673    1.0000 0.06299  0.17371  0.73701  Biso   1.000  H
  C1223    1.0000 0.06401  0.29570  0.78719  Biso   1.000  C
  H1674    1.0000 0.01880  0.22940  0.80240  Biso   1.000  H
  H1675    1.0000 0.52361  0.19740  0.85790  Biso   1.000  H
  H1676    1.0000 0.56078  0.24750  0.84990  Biso   1.000  H
  C1224    1.0000 0.60209  0.17659  0.84490  Biso   1.000  C
  C1225    1.0000 0.38672  0.23812  0.77659  Biso   1.000  C
  H1677    1.0000 0.43599  0.19121  0.82389  Biso   1.000  H
  H1678    1.0000 0.43701  0.17371  0.76299  Biso   1.000  H
  H1679    1.0000 0.35491  0.28412  0.71931  Biso   1.000  H
  H1680    1.0000 0.38479  0.23339  0.69669  Biso   1.000  H
  H1681    1.0000 0.71931  0.64509  0.71588  Biso   1.000  H
  H1682    1.0000 0.69669  0.61521  0.76661  Biso   1.000  H
  C1226    1.0000 0.77659  0.61328  0.76188  Biso   1.000  C
  H1683    1.0000 0.82389  0.56401  0.80879  Biso   1.000  H
  H1684    1.0000 0.76299  0.56299  0.82629  Biso   1.000  H
  H1685    1.0000 0.85790  0.47639  0.80260  Biso   1.000  H
  H1686    1.0000 0.84990  0.43922  0.75250  Biso   1.000  H
  C1227    1.0000 0.84490  0.39791  0.82341  Biso   1.000  C
  H1687    1.0000 0.64210  0.02361  0.80260  Biso   1.000  H
  H1688    1.0000 0.65010  0.06078  0.75250  Biso   1.000  H
  C1228    1.0000 0.65510  0.10209  0.82341  Biso   1.000  C
  C1229    1.0000 0.72341  0.88672  0.76188  Biso   1.000  C
  H1689    1.0000 0.67611  0.93599  0.80879  Biso   1.000  H
  H1690    1.0000 0.73701  0.93701  0.82629  Biso   1.000  H
  H1691    1.0000 0.78069  0.85491  0.71588  Biso   1.000  H
  H1692    1.0000 0.80331  0.88479  0.76661  Biso   1.000  H
  H1693    1.0000 0.97639  0.30260  0.85790  Biso   1.000  H
  H1694    1.0000 0.93922  0.25250  0.84990  Biso   1.000  H
  C1230    1.0000 0.89791  0.32341  0.84490  Biso   1.000  C
  H1695    1.0000 0.14509  0.21588  0.71931  Biso   1.000  H
  H1696    1.0000 0.11521  0.26661  0.69669  Biso   1.000  H
  C1231    1.0000 0.11328  0.26188  0.77659  Biso   1.000  C
  H1697    1.0000 0.06401  0.30879  0.82389  Biso   1.000  H
  H1698    1.0000 0.06299  0.32629  0.76299  Biso   1.000  H
  C1232    1.0000 0.61281  0.13508  0.81198  Biso   1.000  C
  C1233    1.0000 0.63508  0.18802  0.88719  Biso   1.000  C
  H1699    1.0000 0.35491  0.21588  0.78069  Biso   1.000  H
  H1700    1.0000 0.38479  0.26661  0.80331  Biso   1.000  H
  H1701    1.0000 0.78069  0.64509  0.78412  Biso   1.000  H
  H1702    1.0000 0.80331  0.61521  0.73339  Biso   1.000  H
  C1234    1.0000 0.81198  0.38719  0.86492  Biso   1.000  C
  C1235    1.0000 0.88719  0.36492  0.81198  Biso   1.000  C
  C1236    1.0000 0.68802  0.11281  0.86492  Biso   1.000  C
  H1703    1.0000 0.71931  0.85491  0.78412  Biso   1.000  H
  H1704    1.0000 0.69669  0.88479  0.73339  Biso   1.000  H
  C1237    1.0000 0.86492  0.31198  0.88719  Biso   1.000  C
  H1705    1.0000 0.14509  0.28412  0.78069  Biso   1.000  H
  H1706    1.0000 0.11521  0.23339  0.80331  Biso   1.000  H
  H1707    1.0000 0.59160  0.12901  0.78171  Biso   1.000  H
  C1238    1.0000 0.67659  0.15510  0.89791  Biso   1.000  C
  H1708    1.0000 0.62901  0.21829  0.90840  Biso   1.000  H
  C1239    1.0000 0.82341  0.34490  0.89791  Biso   1.000  C
  H1709    1.0000 0.78171  0.40840  0.87099  Biso   1.000  H
  H1710    1.0000 0.90840  0.37099  0.78171  Biso   1.000  H
  H1711    1.0000 0.71829  0.09160  0.87099  Biso   1.000  H
  H1712    1.0000 0.87099  0.28171  0.90840  Biso   1.000  H
  C1240    1.0000 0.71171  0.16350  0.94710  Biso   1.000  C
  C1241    1.0000 0.78829  0.33650  0.94710  Biso   1.000  C
  N191     1.0000 0.71608  0.21801  0.96460  Biso   1.000  N
  H1713    1.0000 0.69740  0.14210  0.97639  Biso   1.000  H
  H1714    1.0000 0.74750  0.15010  0.93922  Biso   1.000  H
  N192     1.0000 0.78392  0.28199  0.96460  Biso   1.000  N
  H1715    1.0000 0.80260  0.35790  0.97639  Biso   1.000  H
  H1716    1.0000 0.75250  0.34990  0.93922  Biso   1.000  H
  C1242    1.0000 0.74998  0.25002  0.93011  Biso   1.000  C
  C1243    1.0000 0.74001  0.22219  0.01671  Biso   1.000  C
  C1244    1.0000 0.75999  0.27781  0.01671  Biso   1.000  C
  H1717    1.0000 0.72818  0.27300  0.90729  Biso   1.000  H
  H1718    1.0000 0.77182  0.22700  0.90729  Biso   1.000  H
  C1245    1.0000 0.70430  0.21281  0.06401  Biso   1.000  C
  H1719    1.0000 0.77060  0.19760  0.01880  Biso   1.000  H
  C1246    1.0000 0.79570  0.28719  0.06401  Biso   1.000  C
  H1720    1.0000 0.72940  0.30240  0.01880  Biso   1.000  H
  C1247    1.0000 0.73812  0.22341  0.11328  Biso   1.000  C
  H1721    1.0000 0.69121  0.17611  0.06401  Biso   1.000  H
  H1722    1.0000 0.67371  0.23701  0.06299  Biso   1.000  H
  C1248    1.0000 0.76188  0.27659  0.11328  Biso   1.000  C
  H1723    1.0000 0.80879  0.32389  0.06401  Biso   1.000  H
  H1724    1.0000 0.82629  0.26299  0.06299  Biso   1.000  H
  H1725    1.0000 0.71588  0.21931  0.14509  Biso   1.000  H
  H1726    1.0000 0.76661  0.19669  0.11521  Biso   1.000  H
  H1727    1.0000 0.78412  0.28069  0.14509  Biso   1.000  H
  H1728    1.0000 0.73339  0.30331  0.11521  Biso   1.000  H
  C1249    1.0000 0.43599  0.70430  0.28719  Biso   1.000  C
  C1250    1.0000 0.48329  0.74001  0.27781  Biso   1.000  C
  C1251    1.0000 0.38672  0.73812  0.27659  Biso   1.000  C
  H1729    1.0000 0.43599  0.69121  0.32389  Biso   1.000  H
  H1730    1.0000 0.43701  0.67371  0.26299  Biso   1.000  H
  N193     1.0000 0.53540  0.71608  0.28199  Biso   1.000  N
  H1731    1.0000 0.48120  0.77060  0.30240  Biso   1.000  H
  C1252    1.0000 0.48329  0.75999  0.22219  Biso   1.000  C
  H1732    1.0000 0.35491  0.71588  0.28069  Biso   1.000  H
  H1733    1.0000 0.38479  0.76661  0.30331  Biso   1.000  H
  C1253    1.0000 0.38672  0.76188  0.22341  Biso   1.000  C
  C1254    1.0000 0.55290  0.71171  0.33650  Biso   1.000  C
  C1255    1.0000 0.56989  0.74998  0.25002  Biso   1.000  C
  N194     1.0000 0.53540  0.78392  0.21801  Biso   1.000  N
  C1256    1.0000 0.43599  0.79570  0.21281  Biso   1.000  C
  H1734    1.0000 0.48120  0.72940  0.19760  Biso   1.000  H
  H1735    1.0000 0.35491  0.78412  0.21931  Biso   1.000  H
  H1736    1.0000 0.38479  0.73339  0.19669  Biso   1.000  H
  C1257    1.0000 0.60209  0.67659  0.34490  Biso   1.000  C
  H1737    1.0000 0.52361  0.69740  0.35790  Biso   1.000  H
  H1738    1.0000 0.56078  0.74750  0.34990  Biso   1.000  H
  H1739    1.0000 0.59271  0.72818  0.22700  Biso   1.000  H
  H1740    1.0000 0.59271  0.77182  0.27300  Biso   1.000  H
  C1258    1.0000 0.55290  0.78829  0.16350  Biso   1.000  C
  H1741    1.0000 0.43599  0.80879  0.17611  Biso   1.000  H
  H1742    1.0000 0.43701  0.82629  0.23701  Biso   1.000  H
  C1259    1.0000 0.61281  0.63508  0.31198  Biso   1.000  C
  C1260    1.0000 0.63508  0.68802  0.38719  Biso   1.000  C
  H1743    1.0000 0.52361  0.80260  0.14210  Biso   1.000  H
  H1744    1.0000 0.56078  0.75250  0.15010  Biso   1.000  H
  C1261    1.0000 0.60209  0.82341  0.15510  Biso   1.000  C
  C1262    1.0000 0.65510  0.60209  0.32341  Biso   1.000  C
  H1745    1.0000 0.59160  0.62901  0.28171  Biso   1.000  H
  C1263    1.0000 0.67659  0.65510  0.39791  Biso   1.000  C
  H1746    1.0000 0.62901  0.71829  0.40840  Biso   1.000  H
  C1264    1.0000 0.63508  0.81198  0.11281  Biso   1.000  C
  C1265    1.0000 0.61281  0.86492  0.18802  Biso   1.000  C
  C1266    1.0000 0.66350  0.55290  0.28829  Biso   1.000  C
  C1267    1.0000 0.68802  0.61281  0.36492  Biso   1.000  C
  C1268    1.0000 0.71171  0.66350  0.44710  Biso   1.000  C
  C1269    1.0000 0.67659  0.84490  0.10209  Biso   1.000  C
  H1747    1.0000 0.62901  0.78171  0.09160  Biso   1.000  H
  C1270    1.0000 0.65510  0.89791  0.17659  Biso   1.000  C
  H1748    1.0000 0.59160  0.87099  0.21829  Biso   1.000  H
  N195     1.0000 0.71801  0.53540  0.28392  Biso   1.000  N
  H1749    1.0000 0.64210  0.52361  0.30260  Biso   1.000  H
  H1750    1.0000 0.65010  0.56078  0.25250  Biso   1.000  H
  H1751    1.0000 0.71829  0.59160  0.37099  Biso   1.000  H
  N196     1.0000 0.71608  0.71801  0.46460  Biso   1.000  N
  H1752    1.0000 0.69740  0.64210  0.47639  Biso   1.000  H
  H1753    1.0000 0.74750  0.65010  0.43922  Biso   1.000  H
  C1271    1.0000 0.71171  0.83650  0.05290  Biso   1.000  C
  C1272    1.0000 0.68802  0.88719  0.13508  Biso   1.000  C
  C1273    1.0000 0.66350  0.94710  0.21171  Biso   1.000  C
  C1274    1.0000 0.72219  0.48329  0.25999  Biso   1.000  C
  C1275    1.0000 0.74998  0.56989  0.25002  Biso   1.000  C
  C1276    1.0000 0.74001  0.72219  0.51671  Biso   1.000  C
  C1277    1.0000 0.74998  0.74998  0.43011  Biso   1.000  C
  N197     1.0000 0.71608  0.78199  0.03540  Biso   1.000  N
  H1754    1.0000 0.69740  0.85790  0.02361  Biso   1.000  H
  H1755    1.0000 0.74750  0.84990  0.06078  Biso   1.000  H
  H1756    1.0000 0.71829  0.90840  0.12901  Biso   1.000  H
  N198     1.0000 0.71801  0.96460  0.21608  Biso   1.000  N
  H1757    1.0000 0.64210  0.97639  0.19740  Biso   1.000  H
  H1758    1.0000 0.65010  0.93922  0.24750  Biso   1.000  H
  C1278    1.0000 0.71281  0.43599  0.29570  Biso   1.000  C
  H1759    1.0000 0.69760  0.48120  0.22940  Biso   1.000  H
  C1279    1.0000 0.77781  0.48329  0.24001  Biso   1.000  C
  N199     1.0000 0.78199  0.53540  0.21608  Biso   1.000  N
  H1760    1.0000 0.77300  0.59271  0.27182  Biso   1.000  H
  H1761    1.0000 0.72700  0.59271  0.22818  Biso   1.000  H
  C1280    1.0000 0.70430  0.71281  0.56401  Biso   1.000  C
  H1762    1.0000 0.77060  0.69760  0.51880  Biso   1.000  H
  C1281    1.0000 0.75999  0.77781  0.51671  Biso   1.000  C
  H1763    1.0000 0.72818  0.77300  0.40729  Biso   1.000  H
  N200     1.0000 0.78392  0.78199  0.46460  Biso   1.000  N
  H1764    1.0000 0.77182  0.72700  0.40729  Biso   1.000  H
  C1282    1.0000 0.74998  0.74998  0.06989  Biso   1.000  C
  C1283    1.0000 0.74001  0.77781  0.98329  Biso   1.000  C
  C1284    1.0000 0.74998  0.93011  0.25002  Biso   1.000  C
  C1285    1.0000 0.72219  0.01671  0.24001  Biso   1.000  C
  C1286    1.0000 0.72341  0.38672  0.26188  Biso   1.000  C
  H1765    1.0000 0.67611  0.43599  0.30879  Biso   1.000  H
  H1766    1.0000 0.73701  0.43701  0.32629  Biso   1.000  H
  C1287    1.0000 0.78719  0.43599  0.20430  Biso   1.000  C
  H1767    1.0000 0.80240  0.48120  0.27060  Biso   1.000  H
  C1288    1.0000 0.83650  0.55290  0.21171  Biso   1.000  C
  C1289    1.0000 0.73812  0.72341  0.61328  Biso   1.000  C
  H1768    1.0000 0.69121  0.67611  0.56401  Biso   1.000  H
  H1769    1.0000 0.67371  0.73701  0.56299  Biso   1.000  H
  C1290    1.0000 0.79570  0.78719  0.56401  Biso   1.000  C
  H1770    1.0000 0.72940  0.80240  0.51880  Biso   1.000  H
  C1291    1.0000 0.78829  0.83650  0.44710  Biso   1.000  C
  N201     1.0000 0.78392  0.71801  0.03540  Biso   1.000  N
  H1771    1.0000 0.77182  0.77300  0.09271  Biso   1.000  H
  H1772    1.0000 0.72818  0.72700  0.09271  Biso   1.000  H
  C1292    1.0000 0.75999  0.72219  0.98329  Biso   1.000  C
  C1293    1.0000 0.70430  0.78719  0.93599  Biso   1.000  C
  H1773    1.0000 0.77060  0.80240  0.98120  Biso   1.000  H
  N202     1.0000 0.78199  0.96460  0.28392  Biso   1.000  N
  H1774    1.0000 0.72700  0.90729  0.27182  Biso   1.000  H
  H1775    1.0000 0.77300  0.90729  0.22818  Biso   1.000  H
  C1294    1.0000 0.77781  0.01671  0.25999  Biso   1.000  C
  C1295    1.0000 0.71281  0.06401  0.20430  Biso   1.000  C
  H1776    1.0000 0.69760  0.01880  0.27060  Biso   1.000  H
  H1777    1.0000 0.71931  0.35491  0.28412  Biso   1.000  H
  H1778    1.0000 0.69669  0.38479  0.23339  Biso   1.000  H
  C1296    1.0000 0.77659  0.38672  0.23812  Biso   1.000  C
  H1779    1.0000 0.82389  0.43599  0.19121  Biso   1.000  H
  H1780    1.0000 0.76299  0.43701  0.17371  Biso   1.000  H
  H1781    1.0000 0.85790  0.52361  0.19740  Biso   1.000  H
  H1782    1.0000 0.84990  0.56078  0.24750  Biso   1.000  H
  C1297    1.0000 0.84490  0.60209  0.17659  Biso   1.000  C
  H1783    1.0000 0.71588  0.71931  0.64509  Biso   1.000  H
  H1784    1.0000 0.76661  0.69669  0.61521  Biso   1.000  H
  C1298    1.0000 0.76188  0.77659  0.61328  Biso   1.000  C
  H1785    1.0000 0.80879  0.82389  0.56401  Biso   1.000  H
  H1786    1.0000 0.82629  0.76299  0.56299  Biso   1.000  H
  H1787    1.0000 0.80260  0.85790  0.47639  Biso   1.000  H
  H1788    1.0000 0.75250  0.84990  0.43922  Biso   1.000  H
  C1299    1.0000 0.82341  0.84490  0.39791  Biso   1.000  C
  C1300    1.0000 0.78829  0.66350  0.05290  Biso   1.000  C
  C1301    1.0000 0.79570  0.71281  0.93599  Biso   1.000  C
  H1789    1.0000 0.72940  0.69760  0.98120  Biso   1.000  H
  C1302    1.0000 0.73812  0.77659  0.88672  Biso   1.000  C
  H1790    1.0000 0.69121  0.82389  0.93599  Biso   1.000  H
  H1791    1.0000 0.67371  0.76299  0.93701  Biso   1.000  H
  C1303    1.0000 0.83650  0.94710  0.28829  Biso   1.000  C
  C1304    1.0000 0.78719  0.06401  0.29570  Biso   1.000  C
  H1792    1.0000 0.80240  0.01880  0.22940  Biso   1.000  H
  C1305    1.0000 0.72341  0.11328  0.23812  Biso   1.000  C
  H1793    1.0000 0.67611  0.06401  0.19121  Biso   1.000  H
  H1794    1.0000 0.73701  0.06299  0.17371  Biso   1.000  H
  H1795    1.0000 0.78069  0.35491  0.21588  Biso   1.000  H
  H1796    1.0000 0.80331  0.38479  0.26661  Biso   1.000  H
  C1306    1.0000 0.88719  0.63508  0.18802  Biso   1.000  C
  C1307    1.0000 0.81198  0.61281  0.13508  Biso   1.000  C
  H1797    1.0000 0.78412  0.78069  0.64509  Biso   1.000  H
  H1798    1.0000 0.73339  0.80331  0.61521  Biso   1.000  H
  C1308    1.0000 0.81198  0.88719  0.36492  Biso   1.000  C
  C1309    1.0000 0.86492  0.81198  0.38719  Biso   1.000  C
  C1310    1.0000 0.82341  0.65510  0.10209  Biso   1.000  C
  H1799    1.0000 0.80260  0.64210  0.02361  Biso   1.000  H
  H1800    1.0000 0.75250  0.65010  0.06078  Biso   1.000  H
  C1311    1.0000 0.76188  0.72341  0.88672  Biso   1.000  C
  H1801    1.0000 0.80879  0.67611  0.93599  Biso   1.000  H
  H1802    1.0000 0.82629  0.73701  0.93701  Biso   1.000  H
  H1803    1.0000 0.71588  0.78069  0.85491  Biso   1.000  H
  H1804    1.0000 0.76661  0.80331  0.88479  Biso   1.000  H
  C1312    1.0000 0.84490  0.89791  0.32341  Biso   1.000  C
  H1805    1.0000 0.85790  0.97639  0.30260  Biso   1.000  H
  H1806    1.0000 0.84990  0.93922  0.25250  Biso   1.000  H
  C1313    1.0000 0.77659  0.11328  0.26188  Biso   1.000  C
  H1807    1.0000 0.82389  0.06401  0.30879  Biso   1.000  H
  H1808    1.0000 0.76299  0.06299  0.32629  Biso   1.000  H
  H1809    1.0000 0.71931  0.14509  0.21588  Biso   1.000  H
  H1810    1.0000 0.69669  0.11521  0.26661  Biso   1.000  H
  H1811    1.0000 0.90840  0.62901  0.21829  Biso   1.000  H
  C1314    1.0000 0.89791  0.67659  0.15510  Biso   1.000  C
  H1812    1.0000 0.78171  0.59160  0.12901  Biso   1.000  H
  H1813    1.0000 0.78171  0.90840  0.37099  Biso   1.000  H
  C1315    1.0000 0.89791  0.82341  0.34490  Biso   1.000  C
  H1814    1.0000 0.87099  0.78171  0.40840  Biso   1.000  H
  C1316    1.0000 0.86492  0.68802  0.11281  Biso   1.000  C
  H1815    1.0000 0.78412  0.71931  0.85491  Biso   1.000  H
  H1816    1.0000 0.73339  0.69669  0.88479  Biso   1.000  H
  C1317    1.0000 0.88719  0.86492  0.31198  Biso   1.000  C
  H1817    1.0000 0.78069  0.14509  0.28412  Biso   1.000  H
  H1818    1.0000 0.80331  0.11521  0.23339  Biso   1.000  H
  C1318    1.0000 0.94710  0.71171  0.16350  Biso   1.000  C
  C1319    1.0000 0.94710  0.78829  0.33650  Biso   1.000  C
  H1819    1.0000 0.87099  0.71829  0.09160  Biso   1.000  H
  H1820    1.0000 0.90840  0.87099  0.28171  Biso   1.000  H
  N203     1.0000 0.96460  0.71608  0.21801  Biso   1.000  N
  H1821    1.0000 0.97639  0.69740  0.14210  Biso   1.000  H
  H1822    1.0000 0.93922  0.74750  0.15010  Biso   1.000  H
  N204     1.0000 0.96460  0.78392  0.28199  Biso   1.000  N
  H1823    1.0000 0.97639  0.80260  0.35790  Biso   1.000  H
  H1824    1.0000 0.93922  0.75250  0.34990  Biso   1.000  H
  C1320    1.0000 0.93011  0.74998  0.25002  Biso   1.000  C
  C1321    1.0000 0.01671  0.74001  0.22219  Biso   1.000  C
  C1322    1.0000 0.01671  0.75999  0.27781  Biso   1.000  C
  H1825    1.0000 0.90729  0.77182  0.22700  Biso   1.000  H
  H1826    1.0000 0.90729  0.72818  0.27300  Biso   1.000  H
  C1323    1.0000 0.06401  0.70430  0.21281  Biso   1.000  C
  H1827    1.0000 0.01880  0.77060  0.19760  Biso   1.000  H
  C1324    1.0000 0.06401  0.79570  0.28719  Biso   1.000  C
  H1828    1.0000 0.01880  0.72940  0.30240  Biso   1.000  H
  C1325    1.0000 0.11328  0.73812  0.22341  Biso   1.000  C
  H1829    1.0000 0.06401  0.69121  0.17611  Biso   1.000  H
  H1830    1.0000 0.06299  0.67371  0.23701  Biso   1.000  H
  C1326    1.0000 0.11328  0.76188  0.27659  Biso   1.000  C
  H1831    1.0000 0.06401  0.80879  0.32389  Biso   1.000  H
  H1832    1.0000 0.06299  0.82629  0.26299  Biso   1.000  H
  H1833    1.0000 0.14509  0.71588  0.21931  Biso   1.000  H
  H1834    1.0000 0.11521  0.76661  0.19669  Biso   1.000  H
  H1835    1.0000 0.14509  0.78412  0.28069  Biso   1.000  H
  H1836    1.0000 0.11521  0.73339  0.30331  Biso   1.000  H
  C1327    1.0000 0.28719  0.43599  0.70430  Biso   1.000  C
  C1328    1.0000 0.27659  0.38672  0.73812  Biso   1.000  C
  H1837    1.0000 0.32389  0.43599  0.69121  Biso   1.000  H
  H1838    1.0000 0.26299  0.43701  0.67371  Biso   1.000  H
  C1329    1.0000 0.27781  0.48329  0.74001  Biso   1.000  C
  H1839    1.0000 0.28069  0.35491  0.71588  Biso   1.000  H
  H1840    1.0000 0.30331  0.38479  0.76661  Biso   1.000  H
  C1330    1.0000 0.22341  0.38672  0.76188  Biso   1.000  C
  H1841    1.0000 0.30240  0.48120  0.77060  Biso   1.000  H
  N205     1.0000 0.28199  0.53540  0.71608  Biso   1.000  N
  C1331    1.0000 0.22219  0.48329  0.75999  Biso   1.000  C
  H1842    1.0000 0.21931  0.35491  0.78412  Biso   1.000  H
  H1843    1.0000 0.19669  0.38479  0.73339  Biso   1.000  H
  C1332    1.0000 0.21281  0.43599  0.79570  Biso   1.000  C
  C1333    1.0000 0.33650  0.55290  0.71171  Biso   1.000  C
  C1334    1.0000 0.25002  0.56989  0.74998  Biso   1.000  C
  H1844    1.0000 0.19760  0.48120  0.72940  Biso   1.000  H
  N206     1.0000 0.21801  0.53540  0.78392  Biso   1.000  N
  H1845    1.0000 0.17611  0.43599  0.80879  Biso   1.000  H
  H1846    1.0000 0.23701  0.43701  0.82629  Biso   1.000  H
  H1847    1.0000 0.35790  0.52361  0.69740  Biso   1.000  H
  H1848    1.0000 0.34990  0.56078  0.74750  Biso   1.000  H
  C1335    1.0000 0.34490  0.60209  0.67659  Biso   1.000  C
  H1849    1.0000 0.22700  0.59271  0.72818  Biso   1.000  H
  H1850    1.0000 0.27300  0.59271  0.77182  Biso   1.000  H
  C1336    1.0000 0.16350  0.55290  0.78829  Biso   1.000  C
  C1337    1.0000 0.38719  0.63508  0.68802  Biso   1.000  C
  C1338    1.0000 0.31198  0.61281  0.63508  Biso   1.000  C
  H1851    1.0000 0.14210  0.52361  0.80260  Biso   1.000  H
  H1852    1.0000 0.15010  0.56078  0.75250  Biso   1.000  H
  C1339    1.0000 0.15510  0.60209  0.82341  Biso   1.000  C
  C1340    1.0000 0.39791  0.67659  0.65510  Biso   1.000  C
  H1853    1.0000 0.40840  0.62901  0.71829  Biso   1.000  H
  C1341    1.0000 0.32341  0.65510  0.60209  Biso   1.000  C
  H1854    1.0000 0.28171  0.59160  0.62901  Biso   1.000  H
  C1342    1.0000 0.18802  0.61281  0.86492  Biso   1.000  C
  C1343    1.0000 0.11281  0.63508  0.81198  Biso   1.000  C
  C1344    1.0000 0.44710  0.71171  0.66350  Biso   1.000  C
  C1345    1.0000 0.36492  0.68802  0.61281  Biso   1.000  C
  C1346    1.0000 0.28829  0.66350  0.55290  Biso   1.000  C
  C1347    1.0000 0.17659  0.65510  0.89791  Biso   1.000  C
  H1855    1.0000 0.21829  0.59160  0.87099  Biso   1.000  H
  C1348    1.0000 0.10209  0.67659  0.84490  Biso   1.000  C
  H1856    1.0000 0.09160  0.62901  0.78171  Biso   1.000  H
  N207     1.0000 0.46460  0.71608  0.71801  Biso   1.000  N
  H1857    1.0000 0.47639  0.69740  0.64210  Biso   1.000  H
  H1858    1.0000 0.43922  0.74750  0.65010  Biso   1.000  H
  H1859    1.0000 0.37099  0.71829  0.59160  Biso   1.000  H
  N208     1.0000 0.28392  0.71801  0.53540  Biso   1.000  N
  H1860    1.0000 0.30260  0.64210  0.52361  Biso   1.000  H
  H1861    1.0000 0.25250  0.65010  0.56078  Biso   1.000  H
  C1349    1.0000 0.21171  0.66350  0.94710  Biso   1.000  C
  C1350    1.0000 0.13508  0.68802  0.88719  Biso   1.000  C
  C1351    1.0000 0.05290  0.71171  0.83650  Biso   1.000  C
  C1352    1.0000 0.43011  0.74998  0.74998  Biso   1.000  C
  C1353    1.0000 0.51671  0.74001  0.72219  Biso   1.000  C
  C1354    1.0000 0.25999  0.72219  0.48329  Biso   1.000  C
  C1355    1.0000 0.25002  0.74998  0.56989  Biso   1.000  C
  N209     1.0000 0.21608  0.71801  0.96460  Biso   1.000  N
  H1862    1.0000 0.19740  0.64210  0.97639  Biso   1.000  H
  H1863    1.0000 0.24750  0.65010  0.93922  Biso   1.000  H
  H1864    1.0000 0.12901  0.71829  0.90840  Biso   1.000  H
  N210     1.0000 0.03540  0.71608  0.78199  Biso   1.000  N
  H1865    1.0000 0.02361  0.69740  0.85790  Biso   1.000  H
  H1866    1.0000 0.06078  0.74750  0.84990  Biso   1.000  H
  N211     1.0000 0.46460  0.78392  0.78199  Biso   1.000  N
  H1867    1.0000 0.40729  0.77182  0.72700  Biso   1.000  H
  H1868    1.0000 0.40729  0.72818  0.77300  Biso   1.000  H
  C1356    1.0000 0.51671  0.75999  0.77781  Biso   1.000  C
  C1357    1.0000 0.56401  0.70430  0.71281  Biso   1.000  C
  H1869    1.0000 0.51880  0.77060  0.69760  Biso   1.000  H
  C1358    1.0000 0.29570  0.71281  0.43599  Biso   1.000  C
  H1870    1.0000 0.22940  0.69760  0.48120  Biso   1.000  H
  C1359    1.0000 0.24001  0.77781  0.48329  Biso   1.000  C
  H1871    1.0000 0.27182  0.77300  0.59271  Biso   1.000  H
  N212     1.0000 0.21608  0.78199  0.53540  Biso   1.000  N
  H1872    1.0000 0.22818  0.72700  0.59271  Biso   1.000  H
  C1360    1.0000 0.25002  0.74998  0.93011  Biso   1.000  C
  C1361    1.0000 0.24001  0.72219  0.01671  Biso   1.000  C
  C1362    1.0000 0.06989  0.74998  0.74998  Biso   1.000  C
  C1363    1.0000 0.98329  0.74001  0.77781  Biso   1.000  C
  C1364    1.0000 0.44710  0.78829  0.83650  Biso   1.000  C
  C1365    1.0000 0.56401  0.79570  0.78719  Biso   1.000  C
  H1873    1.0000 0.51880  0.72940  0.80240  Biso   1.000  H
  C1366    1.0000 0.61328  0.73812  0.72341  Biso   1.000  C
  H1874    1.0000 0.56401  0.69121  0.67611  Biso   1.000  H
  H1875    1.0000 0.56299  0.67371  0.73701  Biso   1.000  H
  C1367    1.0000 0.26188  0.72341  0.38672  Biso   1.000  C
  H1876    1.0000 0.30879  0.67611  0.43599  Biso   1.000  H
  H1877    1.0000 0.32629  0.73701  0.43701  Biso   1.000  H
  C1368    1.0000 0.20430  0.78719  0.43599  Biso   1.000  C
  H1878    1.0000 0.27060  0.80240  0.48120  Biso   1.000  H
  C1369    1.0000 0.21171  0.83650  0.55290  Biso   1.000  C
  N213     1.0000 0.28392  0.78199  0.96460  Biso   1.000  N
  H1879    1.0000 0.27182  0.72700  0.90729  Biso   1.000  H
  H1880    1.0000 0.22818  0.77300  0.90729  Biso   1.000  H
  C1370    1.0000 0.25999  0.77781  0.01671  Biso   1.000  C
  C1371    1.0000 0.20430  0.71281  0.06401  Biso   1.000  C
  H1881    1.0000 0.27060  0.69760  0.01880  Biso   1.000  H
  H1882    1.0000 0.09271  0.72818  0.72700  Biso   1.000  H
  N214     1.0000 0.03540  0.78392  0.71801  Biso   1.000  N
  H1883    1.0000 0.09271  0.77182  0.77300  Biso   1.000  H
  C1372    1.0000 0.93599  0.70430  0.78719  Biso   1.000  C
  H1884    1.0000 0.98120  0.77060  0.80240  Biso   1.000  H
  C1373    1.0000 0.98329  0.75999  0.72219  Biso   1.000  C
  H1885    1.0000 0.47639  0.80260  0.85790  Biso   1.000  H
  H1886    1.0000 0.43922  0.75250  0.84990  Biso   1.000  H
  C1374    1.0000 0.39791  0.82341  0.84490  Biso   1.000  C
  C1375    1.0000 0.61328  0.76188  0.77659  Biso   1.000  C
  H1887    1.0000 0.56401  0.80879  0.82389  Biso   1.000  H
  H1888    1.0000 0.56299  0.82629  0.76299  Biso   1.000  H
  H1889    1.0000 0.64509  0.71588  0.71931  Biso   1.000  H
  H1890    1.0000 0.61521  0.76661  0.69669  Biso   1.000  H
  H1891    1.0000 0.28412  0.71931  0.35491  Biso   1.000  H
  H1892    1.0000 0.23339  0.69669  0.38479  Biso   1.000  H
  C1376    1.0000 0.23812  0.77659  0.38672  Biso   1.000  C
  H1893    1.0000 0.19121  0.82389  0.43599  Biso   1.000  H
  H1894    1.0000 0.17371  0.76299  0.43701  Biso   1.000  H
  H1895    1.0000 0.19740  0.85790  0.52361  Biso   1.000  H
  H1896    1.0000 0.24750  0.84990  0.56078  Biso   1.000  H
  C1377    1.0000 0.17659  0.84490  0.60209  Biso   1.000  C
  C1378    1.0000 0.28829  0.83650  0.94710  Biso   1.000  C
  C1379    1.0000 0.29570  0.78719  0.06401  Biso   1.000  C
  H1897    1.0000 0.22940  0.80240  0.01880  Biso   1.000  H
  C1380    1.0000 0.23812  0.72341  0.11328  Biso   1.000  C
  H1898    1.0000 0.19121  0.67611  0.06401  Biso   1.000  H
  H1899    1.0000 0.17371  0.73701  0.06299  Biso   1.000  H
  C1381    1.0000 0.05290  0.78829  0.66350  Biso   1.000  C
  C1382    1.0000 0.88672  0.73812  0.77659  Biso   1.000  C
  H1900    1.0000 0.93599  0.69121  0.82389  Biso   1.000  H
  H1901    1.0000 0.93701  0.67371  0.76299  Biso   1.000  H
  C1383    1.0000 0.93599  0.79570  0.71281  Biso   1.000  C
  H1902    1.0000 0.98120  0.72940  0.69760  Biso   1.000  H
  C1384    1.0000 0.36492  0.81198  0.88719  Biso   1.000  C
  C1385    1.0000 0.38719  0.86492  0.81198  Biso   1.000  C
  H1903    1.0000 0.64509  0.78412  0.78069  Biso   1.000  H
  H1904    1.0000 0.61521  0.73339  0.80331  Biso   1.000  H
  H1905    1.0000 0.21588  0.78069  0.35491  Biso   1.000  H
  H1906    1.0000 0.26661  0.80331  0.38479  Biso   1.000  H
  C1386    1.0000 0.18802  0.88719  0.63508  Biso   1.000  C
  C1387    1.0000 0.13508  0.81198  0.61281  Biso   1.000  C
  H1907    1.0000 0.30260  0.85790  0.97639  Biso   1.000  H
  H1908    1.0000 0.25250  0.84990  0.93922  Biso   1.000  H
  C1388    1.0000 0.32341  0.84490  0.89791  Biso   1.000  C
  C1389    1.0000 0.26188  0.77659  0.11328  Biso   1.000  C
  H1909    1.0000 0.30879  0.82389  0.06401  Biso   1.000  H
  H1910    1.0000 0.32629  0.76299  0.06299  Biso   1.000  H
  H1911    1.0000 0.21588  0.71931  0.14509  Biso   1.000  H
  H1912    1.0000 0.26661  0.69669  0.11521  Biso   1.000  H
  H1913    1.0000 0.02361  0.80260  0.64210  Biso   1.000  H
  H1914    1.0000 0.06078  0.75250  0.65010  Biso   1.000  H
  C1390    1.0000 0.10209  0.82341  0.65510  Biso   1.000  C
  H1915    1.0000 0.85491  0.71588  0.78069  Biso   1.000  H
  H1916    1.0000 0.88479  0.76661  0.80331  Biso   1.000  H
  C1391    1.0000 0.88672  0.76188  0.72341  Biso   1.000  C
  H1917    1.0000 0.93599  0.80879  0.67611  Biso   1.000  H
  H1918    1.0000 0.93701  0.82629  0.73701  Biso   1.000  H
  H1919    1.0000 0.37099  0.78171  0.90840  Biso   1.000  H
  C1392    1.0000 0.34490  0.89791  0.82341  Biso   1.000  C
  H1920    1.0000 0.40840  0.87099  0.78171  Biso   1.000  H
  C1393    1.0000 0.15510  0.89791  0.67659  Biso   1.000  C
  H1921    1.0000 0.21829  0.90840  0.62901  Biso   1.000  H
  H1922    1.0000 0.12901  0.78171  0.59160  Biso   1.000  H
  C1394    1.0000 0.31198  0.88719  0.86492  Biso   1.000  C
  H1923    1.0000 0.28412  0.78069  0.14509  Biso   1.000  H
  H1924    1.0000 0.23339  0.80331  0.11521  Biso   1.000  H
  C1395    1.0000 0.11281  0.86492  0.68802  Biso   1.000  C
  H1925    1.0000 0.85491  0.78412  0.71931  Biso   1.000  H
  H1926    1.0000 0.88479  0.73339  0.69669  Biso   1.000  H
  C1396    1.0000 0.33650  0.94710  0.78829  Biso   1.000  C
  C1397    1.0000 0.16350  0.94710  0.71171  Biso   1.000  C
  H1927    1.0000 0.28171  0.90840  0.87099  Biso   1.000  H
  H1928    1.0000 0.09160  0.87099  0.71829  Biso   1.000  H
  N215     1.0000 0.28199  0.96460  0.78392  Biso   1.000  N
  H1929    1.0000 0.35790  0.97639  0.80260  Biso   1.000  H
  H1930    1.0000 0.34990  0.93922  0.75250  Biso   1.000  H
  N216     1.0000 0.21801  0.96460  0.71608  Biso   1.000  N
  H1931    1.0000 0.14210  0.97639  0.69740  Biso   1.000  H
  H1932    1.0000 0.15010  0.93922  0.74750  Biso   1.000  H
  C1398    1.0000 0.25002  0.93011  0.74998  Biso   1.000  C
  C1399    1.0000 0.27781  0.01671  0.75999  Biso   1.000  C
  C1400    1.0000 0.22219  0.01671  0.74001  Biso   1.000  C
  H1933    1.0000 0.22700  0.90729  0.77182  Biso   1.000  H
  H1934    1.0000 0.27300  0.90729  0.72818  Biso   1.000  H
  C1401    1.0000 0.28719  0.06401  0.79570  Biso   1.000  C
  H1935    1.0000 0.30240  0.01880  0.72940  Biso   1.000  H
  C1402    1.0000 0.21281  0.06401  0.70430  Biso   1.000  C
  H1936    1.0000 0.19760  0.01880  0.77060  Biso   1.000  H
  C1403    1.0000 0.27659  0.11328  0.76188  Biso   1.000  C
  H1937    1.0000 0.32389  0.06401  0.80879  Biso   1.000  H
  H1938    1.0000 0.26299  0.06299  0.82629  Biso   1.000  H
  C1404    1.0000 0.22341  0.11328  0.73812  Biso   1.000  C
  H1939    1.0000 0.17611  0.06401  0.69121  Biso   1.000  H
  H1940    1.0000 0.23701  0.06299  0.67371  Biso   1.000  H
  H1941    1.0000 0.28069  0.14509  0.78412  Biso   1.000  H
  H1942    1.0000 0.30331  0.11521  0.73339  Biso   1.000  H
  H1943    1.0000 0.21931  0.14509  0.71588  Biso   1.000  H
  H1944    1.0000 0.19669  0.11521  0.76661  Biso   1.000  H
