data_image0
_cell_length_a       10.866
_cell_length_b       10.866
_cell_length_c       43.37
_cell_angle_alpha    90
_cell_angle_beta     90
_cell_angle_gamma    120

_symmetry_space_group_name_H-M    "P 1"
_symmetry_int_tables_number       1

loop_
  _symmetry_equiv_pos_as_xyz
  'x, y, z'

loop_
  _atom_site_label
  _atom_site_occupancy
  _atom_site_fract_x
  _atom_site_fract_y
  _atom_site_fract_z
  _atom_site_thermal_displace_type
  _atom_site_B_iso_or_equiv
  _atom_site_type_symbol
  C1       1.0000 0.48470  0.77246  0.46396  Biso   1.000  C
  C2       1.0000 0.43721  0.62262  0.46415  Biso   1.000  C
  O1       1.0000 0.61511  0.86321  0.46362  Biso   1.000  O
  C3       1.0000 0.37741  0.81465  0.46415  Biso   1.000  C
  C4       1.0000 0.53467  0.57533  0.46385  Biso   1.000  C
  C5       1.0000 0.28783  0.51529  0.46396  Biso   1.000  C
  C6       1.0000 0.42466  0.95938  0.46385  Biso   1.000  C
  C7       1.0000 0.22754  0.71220  0.46396  Biso   1.000  C
  N1       1.0000 0.67320  0.65524  0.46387  Biso   1.000  N
  H1       1.0000 0.49789  0.47746  0.46359  Biso   1.000  H
  C8       1.0000 0.18541  0.56279  0.46415  Biso   1.000  C
  O2       1.0000 0.24813  0.38490  0.46362  Biso   1.000  O
  N2       1.0000 0.34484  0.01804  0.46387  Biso   1.000  N
  H2       1.0000 0.52252  0.02038  0.46359  Biso   1.000  H
  O3       1.0000 0.13679  0.75195  0.46362  Biso   1.000  O
  C9       1.0000 0.77091  0.60200  0.45921  Biso   1.000  C
  H3       1.0000 0.70970  0.74483  0.46719  Biso   1.000  H
  C10      1.0000 0.04061  0.46534  0.46385  Biso   1.000  C
  C11      1.0000 0.39802  0.16894  0.45921  Biso   1.000  C
  H4       1.0000 0.25523  0.96491  0.46719  Biso   1.000  H
  C12      1.0000 0.79471  0.59329  0.42458  Biso   1.000  C
  H5       1.0000 0.73197  0.50849  0.46841  Biso   1.000  H
  H6       1.0000 0.86093  0.66481  0.46920  Biso   1.000  H
  N3       1.0000 0.98199  0.32677  0.46387  Biso   1.000  N
  H7       1.0000 0.97957  0.50211  0.46359  Biso   1.000  H
  C13      1.0000 0.40668  0.20135  0.42458  Biso   1.000  C
  H8       1.0000 0.49144  0.22346  0.46841  Biso   1.000  H
  H9       1.0000 0.33523  0.19614  0.46920  Biso   1.000  H
  C14      1.0000 0.86809  0.74005  0.40876  Biso   1.000  C
  H10      1.0000 0.70386  0.53325  0.41471  Biso   1.000  H
  H11      1.0000 0.85260  0.54930  0.42170  Biso   1.000  H
  C15      1.0000 0.83110  0.22911  0.45921  Biso   1.000  C
  H12      1.0000 0.03509  0.29032  0.46719  Biso   1.000  H
  C16      1.0000 0.25995  0.12803  0.40876  Biso   1.000  C
  H13      1.0000 0.46679  0.17064  0.41471  Biso   1.000  H
  H14      1.0000 0.45064  0.30326  0.42170  Biso   1.000  H
  C17      1.0000 0.83557  0.73133  0.37413  Biso   1.000  C
  H15      1.0000 0.83728  0.80009  0.41863  Biso   1.000  H
  H16      1.0000 0.96997  0.78404  0.41164  Biso   1.000  H
  C18      1.0000 0.79859  0.20531  0.42458  Biso   1.000  C
  H17      1.0000 0.77647  0.26801  0.46841  Biso   1.000  H
  H18      1.0000 0.80386  0.13910  0.46920  Biso   1.000  H
  C19      1.0000 0.26866  0.10422  0.37413  Biso   1.000  C
  H19      1.0000 0.19988  0.03717  0.41863  Biso   1.000  H
  H20      1.0000 0.21602  0.18594  0.41164  Biso   1.000  H
  N4       1.0000 0.68462  0.67809  0.36945  Biso   1.000  N
  H21      1.0000 0.89015  0.82485  0.36493  Biso   1.000  H
  H22      1.0000 0.86279  0.66853  0.36412  Biso   1.000  H
  C20      1.0000 0.87199  0.13198  0.40876  Biso   1.000  C
  H23      1.0000 0.82938  0.29617  0.41471  Biso   1.000  H
  H24      1.0000 0.69674  0.14739  0.42170  Biso   1.000  H
  N5       1.0000 0.32189  0.00656  0.36945  Biso   1.000  N
  H25      1.0000 0.17513  0.06533  0.36493  Biso   1.000  H
  H26      1.0000 0.33142  0.19423  0.36412  Biso   1.000  H
  C21      1.0000 0.62601  0.75800  0.36950  Biso   1.000  C
  H27      1.0000 0.63154  0.58851  0.36613  Biso   1.000  H
  C22      1.0000 0.89574  0.16440  0.37413  Biso   1.000  C
  H28      1.0000 0.96281  0.16270  0.41863  Biso   1.000  H
  H29      1.0000 0.81404  0.03007  0.41164  Biso   1.000  H
  C23      1.0000 0.24193  0.86799  0.36950  Biso   1.000  C
  H30      1.0000 0.41144  0.04301  0.36613  Biso   1.000  H
  C24      1.0000 0.48126  0.71072  0.36920  Biso   1.000  C
  H31      1.0000 0.68710  0.85588  0.36973  Biso   1.000  H
  N6       1.0000 0.99347  0.31530  0.36945  Biso   1.000  N
  H32      1.0000 0.93466  0.10988  0.36493  Biso   1.000  H
  H33      1.0000 0.80576  0.13719  0.36412  Biso   1.000  H
  C25      1.0000 0.28928  0.77054  0.36920  Biso   1.000  C
  H34      1.0000 0.14412  0.83122  0.36973  Biso   1.000  H
  C26      1.0000 0.37891  0.56088  0.36938  Biso   1.000  C
  C27      1.0000 0.43921  0.81805  0.36938  Biso   1.000  C
  C28      1.0000 0.13194  0.37395  0.36950  Biso   1.000  C
  H35      1.0000 0.95699  0.36843  0.36613  Biso   1.000  H
  C29      1.0000 0.18200  0.62113  0.36938  Biso   1.000  C
  O4       1.0000 0.41857  0.47013  0.36973  Biso   1.000  O
  C30      1.0000 0.22944  0.51869  0.36920  Biso   1.000  C
  O5       1.0000 0.52990  0.94844  0.36973  Biso   1.000  O
  H36      1.0000 0.16881  0.31296  0.36973  Biso   1.000  H
  O6       1.0000 0.05151  0.58139  0.36973  Biso   1.000  O
  C31      1.0000 0.46537  0.42475  0.53615  Biso   1.000  C
  N7       1.0000 0.32685  0.34484  0.53613  Biso   1.000  N
  C32      1.0000 0.56278  0.37736  0.53585  Biso   1.000  C
  H37      1.0000 0.50210  0.52252  0.53641  Biso   1.000  H
  H38      1.0000 0.29028  0.25515  0.53281  Biso   1.000  H
  C33      1.0000 0.22908  0.39797  0.54079  Biso   1.000  C
  C34      1.0000 0.51529  0.22752  0.53604  Biso   1.000  C
  C35      1.0000 0.71216  0.48469  0.53604  Biso   1.000  C
  H39      1.0000 0.26801  0.49149  0.53159  Biso   1.000  H
  H40      1.0000 0.13905  0.33517  0.53080  Biso   1.000  H
  C36      1.0000 0.20528  0.40668  0.57542  Biso   1.000  C
  O7       1.0000 0.38487  0.13677  0.53638  Biso   1.000  O
  C37      1.0000 0.62263  0.18544  0.53585  Biso   1.000  C
  O8       1.0000 0.75186  0.61508  0.53638  Biso   1.000  O
  C38      1.0000 0.81458  0.43718  0.53585  Biso   1.000  C
  H41      1.0000 0.29618  0.46683  0.58529  Biso   1.000  H
  H42      1.0000 0.14739  0.45068  0.57830  Biso   1.000  H
  C39      1.0000 0.13190  0.25993  0.59124  Biso   1.000  C
  C40      1.0000 0.77245  0.28777  0.53604  Biso   1.000  C
  C41      1.0000 0.57533  0.04059  0.53615  Biso   1.000  C
  C42      1.0000 0.95944  0.53474  0.53615  Biso   1.000  C
  C43      1.0000 0.16442  0.26864  0.62587  Biso   1.000  C
  H43      1.0000 0.16271  0.19989  0.58137  Biso   1.000  H
  H44      1.0000 0.03002  0.21594  0.58836  Biso   1.000  H
  O9       1.0000 0.86325  0.24813  0.53638  Biso   1.000  O
  N8       1.0000 0.65520  0.98204  0.53613  Biso   1.000  N
  H45      1.0000 0.47747  0.97960  0.53641  Biso   1.000  H
  N9       1.0000 0.01799  0.67320  0.53613  Biso   1.000  N
  H46      1.0000 0.02042  0.49786  0.53641  Biso   1.000  H
  N10      1.0000 0.31537  0.32188  0.63055  Biso   1.000  N
  H47      1.0000 0.10984  0.17513  0.63507  Biso   1.000  H
  H48      1.0000 0.13719  0.33145  0.63588  Biso   1.000  H
  H49      1.0000 0.74476  0.03507  0.53281  Biso   1.000  H
  C44      1.0000 0.60202  0.83114  0.54079  Biso   1.000  C
  H50      1.0000 0.96489  0.70965  0.53281  Biso   1.000  H
  C45      1.0000 0.16888  0.77086  0.54079  Biso   1.000  C
  H51      1.0000 0.36844  0.41147  0.63387  Biso   1.000  H
  C46      1.0000 0.37398  0.24197  0.63050  Biso   1.000  C
  H52      1.0000 0.50854  0.77652  0.53159  Biso   1.000  H
  H53      1.0000 0.66481  0.80394  0.53080  Biso   1.000  H
  C47      1.0000 0.59331  0.79862  0.57542  Biso   1.000  C
  H54      1.0000 0.22352  0.73197  0.53159  Biso   1.000  H
  H55      1.0000 0.19613  0.86087  0.53080  Biso   1.000  H
  C48      1.0000 0.20140  0.79467  0.57542  Biso   1.000  C
  C49      1.0000 0.51873  0.28926  0.63080  Biso   1.000  C
  H56      1.0000 0.31295  0.14420  0.63027  Biso   1.000  H
  H57      1.0000 0.53326  0.82944  0.58529  Biso   1.000  H
  H58      1.0000 0.54935  0.69671  0.57830  Biso   1.000  H
  C50      1.0000 0.74004  0.87195  0.59124  Biso   1.000  C
  H59      1.0000 0.17060  0.70381  0.58529  Biso   1.000  H
  H60      1.0000 0.30325  0.85258  0.57830  Biso   1.000  H
  C51      1.0000 0.12805  0.86810  0.59124  Biso   1.000  C
  C52      1.0000 0.62113  0.43920  0.63062  Biso   1.000  C
  C53      1.0000 0.56078  0.18193  0.63062  Biso   1.000  C
  C54      1.0000 0.73133  0.89575  0.62587  Biso   1.000  C
  H61      1.0000 0.80016  0.96291  0.58137  Biso   1.000  H
  H62      1.0000 0.78397  0.81403  0.58836  Biso   1.000  H
  C55      1.0000 0.10424  0.83558  0.62587  Biso   1.000  C
  H63      1.0000 0.03717  0.83728  0.58137  Biso   1.000  H
  H64      1.0000 0.18600  0.97001  0.58836  Biso   1.000  H
  O10      1.0000 0.58142  0.52985  0.63027  Biso   1.000  O
  C56      1.0000 0.77055  0.48128  0.63080  Biso   1.000  C
  O11      1.0000 0.47009  0.05154  0.63027  Biso   1.000  O
  C57      1.0000 0.71070  0.22943  0.63080  Biso   1.000  C
  N11      1.0000 0.67815  0.99352  0.63055  Biso   1.000  N
  H65      1.0000 0.82486  0.93465  0.63507  Biso   1.000  H
  H66      1.0000 0.66856  0.80574  0.63588  Biso   1.000  H
  N12      1.0000 0.00652  0.68468  0.63055  Biso   1.000  N
  H67      1.0000 0.06538  0.89020  0.63507  Biso   1.000  H
  H68      1.0000 0.19423  0.86278  0.63588  Biso   1.000  H
  C58      1.0000 0.81799  0.37884  0.63062  Biso   1.000  C
  C59      1.0000 0.86804  0.62602  0.63050  Biso   1.000  C
  C60      1.0000 0.75806  0.13198  0.63050  Biso   1.000  C
  H69      1.0000 0.58855  0.95696  0.63387  Biso   1.000  H
  H70      1.0000 0.04300  0.63155  0.63387  Biso   1.000  H
  O12      1.0000 0.94848  0.41859  0.63027  Biso   1.000  O
  H71      1.0000 0.83118  0.68702  0.63027  Biso   1.000  H
  H72      1.0000 0.85587  0.16875  0.63027  Biso   1.000  H
  N13      1.0000 0.64868  0.98850  0.29721  Biso   1.000  N
  C61      1.0000 0.70728  0.90859  0.29716  Biso   1.000  C
  C62      1.0000 0.49772  0.93526  0.29255  Biso   1.000  C
  C63      1.0000 0.49778  0.93536  0.29255  Biso   1.000  C
  H73      1.0000 0.70175  0.07808  0.30053  Biso   1.000  H
  C64      1.0000 0.85204  0.95587  0.29746  Biso   1.000  C
  C65      1.0000 0.85209  0.95598  0.29746  Biso   1.000  C
  H74      1.0000 0.64625  0.81082  0.29693  Biso   1.000  H
  H75      1.0000 0.44320  0.84185  0.30173  Biso   1.000  H
  H76      1.0000 0.47050  0.99806  0.30254  Biso   1.000  H
  C66      1.0000 0.46526  0.92665  0.25790  Biso   1.000  C
  H77      1.0000 0.47056  0.99817  0.30254  Biso   1.000  H
  C67      1.0000 0.89414  0.84865  0.29728  Biso   1.000  C
  C68      1.0000 0.95444  0.10582  0.29728  Biso   1.000  C
  H78      1.0000 0.49602  0.86650  0.24803  Biso   1.000  H
  H79      1.0000 0.36338  0.88266  0.25504  Biso   1.000  H
  C69      1.0000 0.53858  0.07330  0.24210  Biso   1.000  C
  C70      1.0000 0.53864  0.07341  0.24210  Biso   1.000  C
  O13      1.0000 0.80345  0.71826  0.29693  Biso   1.000  O
  C71      1.0000 0.04406  0.89615  0.29746  Biso   1.000  C
  O14      1.0000 0.91472  0.19646  0.29693  Biso   1.000  O
  O15      1.0000 0.91478  0.19657  0.29693  Biso   1.000  O
  C72      1.0000 0.10386  0.14790  0.29746  Biso   1.000  C
  C73      1.0000 0.56244  0.06469  0.20745  Biso   1.000  C
  H80      1.0000 0.62949  0.13345  0.25197  Biso   1.000  H
  H81      1.0000 0.48070  0.11729  0.24496  Biso   1.000  H
  H82      1.0000 0.48075  0.11740  0.24496  Biso   1.000  H
  C74      1.0000 0.09137  0.79860  0.29716  Biso   1.000  C
  C75      1.0000 0.15130  0.04546  0.29728  Biso   1.000  C
  C76      1.0000 0.15135  0.04556  0.29728  Biso   1.000  C
  C77      1.0000 0.20140  0.29274  0.29716  Biso   1.000  C
  N14      1.0000 0.66015  0.01145  0.20279  Biso   1.000  N
  H83      1.0000 0.60132  0.15810  0.19827  Biso   1.000  H
  H84      1.0000 0.47241  0.00189  0.19746  Biso   1.000  H
  H85      1.0000 0.60137  0.15821  0.19827  Biso   1.000  H
  N15      1.0000 0.01146  0.66013  0.29721  Biso   1.000  N
  H86      1.0000 0.18917  0.83537  0.29693  Biso   1.000  H
  H87      1.0000 0.18923  0.83547  0.29693  Biso   1.000  H
  O16      1.0000 0.28179  0.08520  0.29693  Biso   1.000  O
  N16      1.0000 0.33983  0.35130  0.29721  Biso   1.000  N
  H88      1.0000 0.16454  0.35374  0.29693  Biso   1.000  H
  H89      1.0000 0.62364  0.92187  0.19947  Biso   1.000  H
  C78      1.0000 0.79867  0.09137  0.20284  Biso   1.000  C
  H90      1.0000 0.92186  0.62358  0.30053  Biso   1.000  H
  H91      1.0000 0.92191  0.62368  0.30053  Biso   1.000  H
  C79      1.0000 0.06464  0.56237  0.29255  Biso   1.000  C
  C80      1.0000 0.06469  0.56247  0.29255  Biso   1.000  C
  H92      1.0000 0.37630  0.29816  0.30053  Biso   1.000  H
  C81      1.0000 0.43755  0.50219  0.29255  Biso   1.000  C
  H93      1.0000 0.37636  0.29827  0.30053  Biso   1.000  H
  C82      1.0000 0.89614  0.04408  0.20254  Biso   1.000  C
  H94      1.0000 0.83541  0.18913  0.20307  Biso   1.000  H
  H95      1.0000 0.15817  0.60126  0.30173  Biso   1.000  H
  H96      1.0000 0.00187  0.47236  0.30254  Biso   1.000  H
  C83      1.0000 0.07335  0.53856  0.25790  Biso   1.000  C
  H97      1.0000 0.15822  0.60137  0.30173  Biso   1.000  H
  H98      1.0000 0.00192  0.47246  0.30254  Biso   1.000  H
  C84      1.0000 0.07340  0.53867  0.25790  Biso   1.000  C
  H99      1.0000 0.39869  0.55682  0.30173  Biso   1.000  H
  H100     1.0000 0.52754  0.52940  0.30254  Biso   1.000  H
  C85      1.0000 0.46136  0.53471  0.25790  Biso   1.000  C
  C86      1.0000 0.84859  0.89413  0.20272  Biso   1.000  C
  C87      1.0000 0.04546  0.15130  0.20272  Biso   1.000  C
  C88      1.0000 0.04552  0.15141  0.20272  Biso   1.000  C
  C89      1.0000 0.92662  0.46524  0.24210  Biso   1.000  C
  H101     1.0000 0.13346  0.62953  0.24803  Biso   1.000  H
  H102     1.0000 0.11733  0.48075  0.25504  Biso   1.000  H
  C90      1.0000 0.53476  0.46139  0.24210  Biso   1.000  C
  H103     1.0000 0.37048  0.50389  0.24803  Biso   1.000  H
  H104     1.0000 0.51931  0.63662  0.25504  Biso   1.000  H
  C91      1.0000 0.95594  0.85205  0.20254  Biso   1.000  C
  O17      1.0000 0.71824  0.80349  0.20307  Biso   1.000  O
  O18      1.0000 0.08517  0.28169  0.20307  Biso   1.000  O
  C92      1.0000 0.14789  0.10380  0.20254  Biso   1.000  C
  O19      1.0000 0.08522  0.28180  0.20307  Biso   1.000  O
  C93      1.0000 0.14794  0.10390  0.20254  Biso   1.000  C
  C94      1.0000 0.93533  0.49776  0.20745  Biso   1.000  C
  H105     1.0000 0.86656  0.49606  0.25197  Biso   1.000  H
  H106     1.0000 0.88266  0.36333  0.24496  Biso   1.000  H
  C95      1.0000 0.50225  0.43758  0.20745  Biso   1.000  C
  H107     1.0000 0.50391  0.37042  0.25197  Biso   1.000  H
  H108     1.0000 0.63655  0.51920  0.24496  Biso   1.000  H
  H109     1.0000 0.63661  0.51930  0.24496  Biso   1.000  H
  C96      1.0000 0.90864  0.70721  0.20284  Biso   1.000  C
  C97      1.0000 0.90869  0.70732  0.20284  Biso   1.000  C
  C98      1.0000 0.10581  0.95449  0.20272  Biso   1.000  C
  C99      1.0000 0.29274  0.20135  0.20284  Biso   1.000  C
  N17      1.0000 0.98851  0.64866  0.20279  Biso   1.000  N
  H110     1.0000 0.84185  0.44313  0.19827  Biso   1.000  H
  H111     1.0000 0.99811  0.47055  0.19746  Biso   1.000  H
  N18      1.0000 0.35130  0.33982  0.20279  Biso   1.000  N
  H112     1.0000 0.55688  0.39869  0.19827  Biso   1.000  H
  H113     1.0000 0.52949  0.52759  0.19746  Biso   1.000  H
  H114     1.0000 0.81077  0.64621  0.20307  Biso   1.000  H
  H115     1.0000 0.81083  0.64632  0.20307  Biso   1.000  H
  O20      1.0000 0.19656  0.91475  0.20307  Biso   1.000  O
  H116     1.0000 0.35378  0.16458  0.20307  Biso   1.000  H
  H117     1.0000 0.07812  0.70179  0.19947  Biso   1.000  H
  H118     1.0000 0.29826  0.37637  0.19947  Biso   1.000  H
  N19      1.0000 0.64868  0.98850  0.29721  Biso   1.000  N
  C100     1.0000 0.70728  0.90859  0.29716  Biso   1.000  C
  C101     1.0000 0.49772  0.93526  0.29255  Biso   1.000  C
  C102     1.0000 0.49778  0.93536  0.29255  Biso   1.000  C
  H119     1.0000 0.70175  0.07808  0.30053  Biso   1.000  H
  C103     1.0000 0.85204  0.95587  0.29746  Biso   1.000  C
  C104     1.0000 0.85209  0.95598  0.29746  Biso   1.000  C
  H120     1.0000 0.64625  0.81082  0.29693  Biso   1.000  H
  H121     1.0000 0.44320  0.84185  0.30173  Biso   1.000  H
  C105     1.0000 0.46526  0.92665  0.25790  Biso   1.000  C
  H122     1.0000 0.47050  0.99806  0.30254  Biso   1.000  H
  H123     1.0000 0.47056  0.99817  0.30254  Biso   1.000  H
  C106     1.0000 0.89414  0.84865  0.29728  Biso   1.000  C
  C107     1.0000 0.95444  0.10582  0.29728  Biso   1.000  C
  H124     1.0000 0.49602  0.86650  0.24803  Biso   1.000  H
  H125     1.0000 0.36338  0.88266  0.25504  Biso   1.000  H
  C108     1.0000 0.53858  0.07330  0.24210  Biso   1.000  C
  C109     1.0000 0.53864  0.07341  0.24210  Biso   1.000  C
  O21      1.0000 0.80345  0.71826  0.29693  Biso   1.000  O
  C110     1.0000 0.04406  0.89615  0.29746  Biso   1.000  C
  O22      1.0000 0.91472  0.19646  0.29693  Biso   1.000  O
  O23      1.0000 0.91478  0.19657  0.29693  Biso   1.000  O
  C111     1.0000 0.10386  0.14790  0.29746  Biso   1.000  C
  C112     1.0000 0.56244  0.06469  0.20745  Biso   1.000  C
  H126     1.0000 0.62949  0.13345  0.25197  Biso   1.000  H
  H127     1.0000 0.48070  0.11729  0.24496  Biso   1.000  H
  H128     1.0000 0.48075  0.11740  0.24496  Biso   1.000  H
  C113     1.0000 0.09137  0.79860  0.29716  Biso   1.000  C
  C114     1.0000 0.15130  0.04546  0.29728  Biso   1.000  C
  C115     1.0000 0.15135  0.04556  0.29728  Biso   1.000  C
  C116     1.0000 0.20140  0.29274  0.29716  Biso   1.000  C
  N20      1.0000 0.66015  0.01145  0.20279  Biso   1.000  N
  H129     1.0000 0.60132  0.15810  0.19827  Biso   1.000  H
  H130     1.0000 0.47241  0.00189  0.19746  Biso   1.000  H
  H131     1.0000 0.60137  0.15821  0.19827  Biso   1.000  H
  N21      1.0000 0.01146  0.66013  0.29721  Biso   1.000  N
  H132     1.0000 0.18917  0.83537  0.29693  Biso   1.000  H
  H133     1.0000 0.18923  0.83547  0.29693  Biso   1.000  H
  O24      1.0000 0.28179  0.08520  0.29693  Biso   1.000  O
  N22      1.0000 0.33983  0.35130  0.29721  Biso   1.000  N
  H134     1.0000 0.16454  0.35374  0.29693  Biso   1.000  H
  H135     1.0000 0.62364  0.92187  0.19947  Biso   1.000  H
  C117     1.0000 0.79867  0.09137  0.20284  Biso   1.000  C
  H136     1.0000 0.92186  0.62358  0.30053  Biso   1.000  H
  H137     1.0000 0.92191  0.62368  0.30053  Biso   1.000  H
  C118     1.0000 0.06464  0.56237  0.29255  Biso   1.000  C
  C119     1.0000 0.06469  0.56247  0.29255  Biso   1.000  C
  H138     1.0000 0.37630  0.29816  0.30053  Biso   1.000  H
  C120     1.0000 0.43755  0.50219  0.29255  Biso   1.000  C
  H139     1.0000 0.37636  0.29827  0.30053  Biso   1.000  H
  C121     1.0000 0.89614  0.04408  0.20254  Biso   1.000  C
  H140     1.0000 0.83541  0.18913  0.20307  Biso   1.000  H
  H141     1.0000 0.15817  0.60126  0.30173  Biso   1.000  H
  H142     1.0000 0.00187  0.47236  0.30254  Biso   1.000  H
  C122     1.0000 0.07335  0.53856  0.25790  Biso   1.000  C
  H143     1.0000 0.15822  0.60137  0.30173  Biso   1.000  H
  H144     1.0000 0.00192  0.47246  0.30254  Biso   1.000  H
  C123     1.0000 0.07340  0.53867  0.25790  Biso   1.000  C
  H145     1.0000 0.39869  0.55682  0.30173  Biso   1.000  H
  H146     1.0000 0.52754  0.52940  0.30254  Biso   1.000  H
  C124     1.0000 0.46136  0.53471  0.25790  Biso   1.000  C
  C125     1.0000 0.84859  0.89413  0.20272  Biso   1.000  C
  C126     1.0000 0.04546  0.15130  0.20272  Biso   1.000  C
  C127     1.0000 0.04552  0.15141  0.20272  Biso   1.000  C
  C128     1.0000 0.92662  0.46524  0.24210  Biso   1.000  C
  H147     1.0000 0.13346  0.62953  0.24803  Biso   1.000  H
  H148     1.0000 0.11733  0.48075  0.25504  Biso   1.000  H
  C129     1.0000 0.53476  0.46139  0.24210  Biso   1.000  C
  H149     1.0000 0.37048  0.50389  0.24803  Biso   1.000  H
  H150     1.0000 0.51931  0.63662  0.25504  Biso   1.000  H
  C130     1.0000 0.95594  0.85205  0.20254  Biso   1.000  C
  O25      1.0000 0.71824  0.80349  0.20307  Biso   1.000  O
  O26      1.0000 0.08517  0.28169  0.20307  Biso   1.000  O
  C131     1.0000 0.14789  0.10380  0.20254  Biso   1.000  C
  O27      1.0000 0.08522  0.28180  0.20307  Biso   1.000  O
  C132     1.0000 0.14794  0.10390  0.20254  Biso   1.000  C
  C133     1.0000 0.93533  0.49776  0.20745  Biso   1.000  C
  H151     1.0000 0.86656  0.49606  0.25197  Biso   1.000  H
  H152     1.0000 0.88266  0.36333  0.24496  Biso   1.000  H
  C134     1.0000 0.50225  0.43758  0.20745  Biso   1.000  C
  H153     1.0000 0.50391  0.37042  0.25197  Biso   1.000  H
  H154     1.0000 0.63655  0.51920  0.24496  Biso   1.000  H
  H155     1.0000 0.63661  0.51930  0.24496  Biso   1.000  H
  C135     1.0000 0.90864  0.70721  0.20284  Biso   1.000  C
  C136     1.0000 0.90869  0.70732  0.20284  Biso   1.000  C
  C137     1.0000 0.10581  0.95449  0.20272  Biso   1.000  C
  C138     1.0000 0.29274  0.20135  0.20284  Biso   1.000  C
  N23      1.0000 0.98851  0.64866  0.20279  Biso   1.000  N
  H156     1.0000 0.84185  0.44313  0.19827  Biso   1.000  H
  H157     1.0000 0.99811  0.47055  0.19746  Biso   1.000  H
  N24      1.0000 0.35130  0.33982  0.20279  Biso   1.000  N
  H158     1.0000 0.55688  0.39869  0.19827  Biso   1.000  H
  H159     1.0000 0.52949  0.52759  0.19746  Biso   1.000  H
  H160     1.0000 0.81077  0.64621  0.20307  Biso   1.000  H
  H161     1.0000 0.81083  0.64632  0.20307  Biso   1.000  H
  O28      1.0000 0.19656  0.91475  0.20307  Biso   1.000  O
  H162     1.0000 0.35378  0.16458  0.20307  Biso   1.000  H
  H163     1.0000 0.07812  0.70179  0.19947  Biso   1.000  H
  H164     1.0000 0.29826  0.37637  0.19947  Biso   1.000  H
  N25      1.0000 0.64868  0.98850  0.29721  Biso   1.000  N
  C139     1.0000 0.70728  0.90859  0.29716  Biso   1.000  C
  C140     1.0000 0.49772  0.93526  0.29255  Biso   1.000  C
  C141     1.0000 0.49778  0.93536  0.29255  Biso   1.000  C
  H165     1.0000 0.70175  0.07808  0.30053  Biso   1.000  H
  C142     1.0000 0.85204  0.95587  0.29746  Biso   1.000  C
  C143     1.0000 0.85209  0.95598  0.29746  Biso   1.000  C
  H166     1.0000 0.64625  0.81082  0.29693  Biso   1.000  H
  H167     1.0000 0.44320  0.84185  0.30173  Biso   1.000  H
  C144     1.0000 0.46526  0.92665  0.25790  Biso   1.000  C
  H168     1.0000 0.47050  0.99806  0.30254  Biso   1.000  H
  H169     1.0000 0.47056  0.99817  0.30254  Biso   1.000  H
  C145     1.0000 0.89414  0.84865  0.29728  Biso   1.000  C
  C146     1.0000 0.95444  0.10582  0.29728  Biso   1.000  C
  H170     1.0000 0.49602  0.86650  0.24803  Biso   1.000  H
  H171     1.0000 0.36338  0.88266  0.25504  Biso   1.000  H
  C147     1.0000 0.53858  0.07330  0.24210  Biso   1.000  C
  C148     1.0000 0.53864  0.07341  0.24210  Biso   1.000  C
  O29      1.0000 0.80345  0.71826  0.29693  Biso   1.000  O
  C149     1.0000 0.04406  0.89615  0.29746  Biso   1.000  C
  O30      1.0000 0.91472  0.19646  0.29693  Biso   1.000  O
  O31      1.0000 0.91478  0.19657  0.29693  Biso   1.000  O
  C150     1.0000 0.10386  0.14790  0.29746  Biso   1.000  C
  C151     1.0000 0.56244  0.06469  0.20745  Biso   1.000  C
  H172     1.0000 0.62949  0.13345  0.25197  Biso   1.000  H
  H173     1.0000 0.48070  0.11729  0.24496  Biso   1.000  H
  H174     1.0000 0.48075  0.11740  0.24496  Biso   1.000  H
  C152     1.0000 0.09137  0.79860  0.29716  Biso   1.000  C
  C153     1.0000 0.15130  0.04546  0.29728  Biso   1.000  C
  C154     1.0000 0.15135  0.04556  0.29728  Biso   1.000  C
  C155     1.0000 0.20140  0.29274  0.29716  Biso   1.000  C
  N26      1.0000 0.66015  0.01145  0.20279  Biso   1.000  N
  H175     1.0000 0.60132  0.15810  0.19827  Biso   1.000  H
  H176     1.0000 0.47241  0.00189  0.19746  Biso   1.000  H
  H177     1.0000 0.60137  0.15821  0.19827  Biso   1.000  H
  N27      1.0000 0.01146  0.66013  0.29721  Biso   1.000  N
  H178     1.0000 0.18917  0.83537  0.29693  Biso   1.000  H
  H179     1.0000 0.18923  0.83547  0.29693  Biso   1.000  H
  O32      1.0000 0.28179  0.08520  0.29693  Biso   1.000  O
  N28      1.0000 0.33983  0.35130  0.29721  Biso   1.000  N
  H180     1.0000 0.16454  0.35374  0.29693  Biso   1.000  H
  H181     1.0000 0.62364  0.92187  0.19947  Biso   1.000  H
  C156     1.0000 0.79867  0.09137  0.20284  Biso   1.000  C
  H182     1.0000 0.92186  0.62358  0.30053  Biso   1.000  H
  H183     1.0000 0.92191  0.62368  0.30053  Biso   1.000  H
  C157     1.0000 0.06464  0.56237  0.29255  Biso   1.000  C
  C158     1.0000 0.06469  0.56247  0.29255  Biso   1.000  C
  H184     1.0000 0.37630  0.29816  0.30053  Biso   1.000  H
  C159     1.0000 0.43755  0.50219  0.29255  Biso   1.000  C
  H185     1.0000 0.37636  0.29827  0.30053  Biso   1.000  H
  C160     1.0000 0.89614  0.04408  0.20254  Biso   1.000  C
  H186     1.0000 0.83541  0.18913  0.20307  Biso   1.000  H
  H187     1.0000 0.15817  0.60126  0.30173  Biso   1.000  H
  H188     1.0000 0.00187  0.47236  0.30254  Biso   1.000  H
  C161     1.0000 0.07335  0.53856  0.25790  Biso   1.000  C
  H189     1.0000 0.15822  0.60137  0.30173  Biso   1.000  H
  H190     1.0000 0.00192  0.47246  0.30254  Biso   1.000  H
  C162     1.0000 0.07340  0.53867  0.25790  Biso   1.000  C
  H191     1.0000 0.39869  0.55682  0.30173  Biso   1.000  H
  H192     1.0000 0.52754  0.52940  0.30254  Biso   1.000  H
  C163     1.0000 0.46136  0.53471  0.25790  Biso   1.000  C
  C164     1.0000 0.84859  0.89413  0.20272  Biso   1.000  C
  C165     1.0000 0.04546  0.15130  0.20272  Biso   1.000  C
  C166     1.0000 0.04552  0.15141  0.20272  Biso   1.000  C
  C167     1.0000 0.92662  0.46524  0.24210  Biso   1.000  C
  H193     1.0000 0.13346  0.62953  0.24803  Biso   1.000  H
  H194     1.0000 0.11733  0.48075  0.25504  Biso   1.000  H
  C168     1.0000 0.53476  0.46139  0.24210  Biso   1.000  C
  H195     1.0000 0.37048  0.50389  0.24803  Biso   1.000  H
  H196     1.0000 0.51931  0.63662  0.25504  Biso   1.000  H
  C169     1.0000 0.95594  0.85205  0.20254  Biso   1.000  C
  O33      1.0000 0.71824  0.80349  0.20307  Biso   1.000  O
  O34      1.0000 0.08517  0.28169  0.20307  Biso   1.000  O
  C170     1.0000 0.14789  0.10380  0.20254  Biso   1.000  C
  O35      1.0000 0.08522  0.28180  0.20307  Biso   1.000  O
  C171     1.0000 0.14794  0.10390  0.20254  Biso   1.000  C
  C172     1.0000 0.93533  0.49776  0.20745  Biso   1.000  C
  H197     1.0000 0.86656  0.49606  0.25197  Biso   1.000  H
  H198     1.0000 0.88266  0.36333  0.24496  Biso   1.000  H
  C173     1.0000 0.50225  0.43758  0.20745  Biso   1.000  C
  H199     1.0000 0.50391  0.37042  0.25197  Biso   1.000  H
  H200     1.0000 0.63655  0.51920  0.24496  Biso   1.000  H
  H201     1.0000 0.63661  0.51930  0.24496  Biso   1.000  H
  C174     1.0000 0.90864  0.70721  0.20284  Biso   1.000  C
  C175     1.0000 0.90869  0.70732  0.20284  Biso   1.000  C
  C176     1.0000 0.10581  0.95449  0.20272  Biso   1.000  C
  C177     1.0000 0.29274  0.20135  0.20284  Biso   1.000  C
  N29      1.0000 0.98851  0.64866  0.20279  Biso   1.000  N
  H202     1.0000 0.84185  0.44313  0.19827  Biso   1.000  H
  H203     1.0000 0.99811  0.47055  0.19746  Biso   1.000  H
  N30      1.0000 0.35130  0.33982  0.20279  Biso   1.000  N
  H204     1.0000 0.55688  0.39869  0.19827  Biso   1.000  H
  H205     1.0000 0.52949  0.52759  0.19746  Biso   1.000  H
  H206     1.0000 0.81077  0.64621  0.20307  Biso   1.000  H
  H207     1.0000 0.81083  0.64632  0.20307  Biso   1.000  H
  O36      1.0000 0.19656  0.91475  0.20307  Biso   1.000  O
  H208     1.0000 0.35378  0.16458  0.20307  Biso   1.000  H
  H209     1.0000 0.07812  0.70179  0.19947  Biso   1.000  H
  H210     1.0000 0.29826  0.37637  0.19947  Biso   1.000  H
  N31      1.0000 0.64868  0.98850  0.29721  Biso   1.000  N
  C178     1.0000 0.70728  0.90859  0.29716  Biso   1.000  C
  C179     1.0000 0.49772  0.93526  0.29255  Biso   1.000  C
  C180     1.0000 0.49778  0.93536  0.29255  Biso   1.000  C
  H211     1.0000 0.70175  0.07808  0.30053  Biso   1.000  H
  C181     1.0000 0.85204  0.95587  0.29746  Biso   1.000  C
  C182     1.0000 0.85209  0.95598  0.29746  Biso   1.000  C
  H212     1.0000 0.64625  0.81082  0.29693  Biso   1.000  H
  H213     1.0000 0.44320  0.84185  0.30173  Biso   1.000  H
  C183     1.0000 0.46526  0.92665  0.25790  Biso   1.000  C
  H214     1.0000 0.47050  0.99806  0.30254  Biso   1.000  H
  H215     1.0000 0.47056  0.99817  0.30254  Biso   1.000  H
  C184     1.0000 0.89414  0.84865  0.29728  Biso   1.000  C
  C185     1.0000 0.95444  0.10582  0.29728  Biso   1.000  C
  H216     1.0000 0.49602  0.86650  0.24803  Biso   1.000  H
  H217     1.0000 0.36338  0.88266  0.25504  Biso   1.000  H
  C186     1.0000 0.53858  0.07330  0.24210  Biso   1.000  C
  C187     1.0000 0.53864  0.07341  0.24210  Biso   1.000  C
  O37      1.0000 0.80345  0.71826  0.29693  Biso   1.000  O
  C188     1.0000 0.04406  0.89615  0.29746  Biso   1.000  C
  O38      1.0000 0.91472  0.19646  0.29693  Biso   1.000  O
  O39      1.0000 0.91478  0.19657  0.29693  Biso   1.000  O
  C189     1.0000 0.10386  0.14790  0.29746  Biso   1.000  C
  C190     1.0000 0.56244  0.06469  0.20745  Biso   1.000  C
  H218     1.0000 0.62949  0.13345  0.25197  Biso   1.000  H
  H219     1.0000 0.48070  0.11729  0.24496  Biso   1.000  H
  H220     1.0000 0.48075  0.11740  0.24496  Biso   1.000  H
  C191     1.0000 0.09137  0.79860  0.29716  Biso   1.000  C
  C192     1.0000 0.15130  0.04546  0.29728  Biso   1.000  C
  C193     1.0000 0.15135  0.04556  0.29728  Biso   1.000  C
  C194     1.0000 0.20140  0.29274  0.29716  Biso   1.000  C
  N32      1.0000 0.66015  0.01145  0.20279  Biso   1.000  N
  H221     1.0000 0.60132  0.15810  0.19827  Biso   1.000  H
  H222     1.0000 0.47241  0.00189  0.19746  Biso   1.000  H
  H223     1.0000 0.60137  0.15821  0.19827  Biso   1.000  H
  N33      1.0000 0.01146  0.66013  0.29721  Biso   1.000  N
  H224     1.0000 0.18917  0.83537  0.29693  Biso   1.000  H
  H225     1.0000 0.18923  0.83547  0.29693  Biso   1.000  H
  O40      1.0000 0.28179  0.08520  0.29693  Biso   1.000  O
  N34      1.0000 0.33983  0.35130  0.29721  Biso   1.000  N
  H226     1.0000 0.16454  0.35374  0.29693  Biso   1.000  H
  H227     1.0000 0.62364  0.92187  0.19947  Biso   1.000  H
  C195     1.0000 0.79867  0.09137  0.20284  Biso   1.000  C
  H228     1.0000 0.92186  0.62358  0.30053  Biso   1.000  H
  H229     1.0000 0.92191  0.62368  0.30053  Biso   1.000  H
  C196     1.0000 0.06464  0.56237  0.29255  Biso   1.000  C
  C197     1.0000 0.06469  0.56247  0.29255  Biso   1.000  C
  H230     1.0000 0.37630  0.29816  0.30053  Biso   1.000  H
  C198     1.0000 0.43755  0.50219  0.29255  Biso   1.000  C
  H231     1.0000 0.37636  0.29827  0.30053  Biso   1.000  H
  C199     1.0000 0.89614  0.04408  0.20254  Biso   1.000  C
  H232     1.0000 0.83541  0.18913  0.20307  Biso   1.000  H
  H233     1.0000 0.15817  0.60126  0.30173  Biso   1.000  H
  H234     1.0000 0.00187  0.47236  0.30254  Biso   1.000  H
  C200     1.0000 0.07335  0.53856  0.25790  Biso   1.000  C
  H235     1.0000 0.15822  0.60137  0.30173  Biso   1.000  H
  H236     1.0000 0.00192  0.47246  0.30254  Biso   1.000  H
  C201     1.0000 0.07340  0.53867  0.25790  Biso   1.000  C
  H237     1.0000 0.39869  0.55682  0.30173  Biso   1.000  H
  H238     1.0000 0.52754  0.52940  0.30254  Biso   1.000  H
  C202     1.0000 0.46136  0.53471  0.25790  Biso   1.000  C
  C203     1.0000 0.84859  0.89413  0.20272  Biso   1.000  C
  C204     1.0000 0.04546  0.15130  0.20272  Biso   1.000  C
  C205     1.0000 0.04552  0.15141  0.20272  Biso   1.000  C
  C206     1.0000 0.92662  0.46524  0.24210  Biso   1.000  C
  H239     1.0000 0.13346  0.62953  0.24803  Biso   1.000  H
  H240     1.0000 0.11733  0.48075  0.25504  Biso   1.000  H
  C207     1.0000 0.53476  0.46139  0.24210  Biso   1.000  C
  H241     1.0000 0.37048  0.50389  0.24803  Biso   1.000  H
  H242     1.0000 0.51931  0.63662  0.25504  Biso   1.000  H
  C208     1.0000 0.95594  0.85205  0.20254  Biso   1.000  C
  O41      1.0000 0.71824  0.80349  0.20307  Biso   1.000  O
  O42      1.0000 0.08517  0.28169  0.20307  Biso   1.000  O
  C209     1.0000 0.14789  0.10380  0.20254  Biso   1.000  C
  O43      1.0000 0.08522  0.28180  0.20307  Biso   1.000  O
  C210     1.0000 0.14794  0.10390  0.20254  Biso   1.000  C
  C211     1.0000 0.93533  0.49776  0.20745  Biso   1.000  C
  H243     1.0000 0.86656  0.49606  0.25197  Biso   1.000  H
  H244     1.0000 0.88266  0.36333  0.24496  Biso   1.000  H
  C212     1.0000 0.50225  0.43758  0.20745  Biso   1.000  C
  H245     1.0000 0.50391  0.37042  0.25197  Biso   1.000  H
  H246     1.0000 0.63655  0.51920  0.24496  Biso   1.000  H
  H247     1.0000 0.63661  0.51930  0.24496  Biso   1.000  H
  C213     1.0000 0.90864  0.70721  0.20284  Biso   1.000  C
  C214     1.0000 0.90869  0.70732  0.20284  Biso   1.000  C
  C215     1.0000 0.10581  0.95449  0.20272  Biso   1.000  C
  C216     1.0000 0.29274  0.20135  0.20284  Biso   1.000  C
  N35      1.0000 0.98851  0.64866  0.20279  Biso   1.000  N
  H248     1.0000 0.84185  0.44313  0.19827  Biso   1.000  H
  H249     1.0000 0.99811  0.47055  0.19746  Biso   1.000  H
  N36      1.0000 0.35130  0.33982  0.20279  Biso   1.000  N
  H250     1.0000 0.55688  0.39869  0.19827  Biso   1.000  H
  H251     1.0000 0.52949  0.52759  0.19746  Biso   1.000  H
  H252     1.0000 0.81077  0.64621  0.20307  Biso   1.000  H
  H253     1.0000 0.81083  0.64632  0.20307  Biso   1.000  H
  O44      1.0000 0.19656  0.91475  0.20307  Biso   1.000  O
  H254     1.0000 0.35378  0.16458  0.20307  Biso   1.000  H
  H255     1.0000 0.07812  0.70179  0.19947  Biso   1.000  H
  H256     1.0000 0.29826  0.37637  0.19947  Biso   1.000  H
  N37      1.0000 0.35130  0.01145  0.70279  Biso   1.000  N
  C217     1.0000 0.29269  0.09137  0.70284  Biso   1.000  C
  H257     1.0000 0.29823  0.92187  0.69947  Biso   1.000  H
  C218     1.0000 0.50225  0.06469  0.70745  Biso   1.000  C
  C219     1.0000 0.14794  0.04408  0.70254  Biso   1.000  C
  H258     1.0000 0.35372  0.18913  0.70307  Biso   1.000  H
  H259     1.0000 0.55678  0.15810  0.69827  Biso   1.000  H
  H260     1.0000 0.52947  0.00189  0.69746  Biso   1.000  H
  C220     1.0000 0.53472  0.07330  0.74210  Biso   1.000  C
  H261     1.0000 0.55683  0.15821  0.69827  Biso   1.000  H
  C221     1.0000 0.53477  0.07341  0.74210  Biso   1.000  C
  C222     1.0000 0.04554  0.89413  0.70272  Biso   1.000  C
  C223     1.0000 0.10584  0.15130  0.70272  Biso   1.000  C
  C224     1.0000 0.10589  0.15141  0.70272  Biso   1.000  C
  C225     1.0000 0.46139  0.92665  0.75790  Biso   1.000  C
  H262     1.0000 0.50396  0.13345  0.75197  Biso   1.000  H
  H263     1.0000 0.63660  0.11729  0.74496  Biso   1.000  H
  H264     1.0000 0.63665  0.11740  0.74496  Biso   1.000  H
  O45      1.0000 0.08525  0.80349  0.70307  Biso   1.000  O
  C226     1.0000 0.89612  0.85205  0.70254  Biso   1.000  C
  C227     1.0000 0.95591  0.10380  0.70254  Biso   1.000  C
  C228     1.0000 0.95596  0.10390  0.70254  Biso   1.000  C
  O46      1.0000 0.19652  0.28169  0.70307  Biso   1.000  O
  O47      1.0000 0.19658  0.28180  0.70307  Biso   1.000  O
  C229     1.0000 0.43754  0.93526  0.79255  Biso   1.000  C
  H265     1.0000 0.37049  0.86650  0.74803  Biso   1.000  H
  H266     1.0000 0.51928  0.88266  0.75504  Biso   1.000  H
  C230     1.0000 0.43759  0.93536  0.79255  Biso   1.000  C
  C231     1.0000 0.84868  0.95449  0.70272  Biso   1.000  C
  C232     1.0000 0.79857  0.70721  0.70284  Biso   1.000  C
  C233     1.0000 0.79862  0.70732  0.70284  Biso   1.000  C
  C234     1.0000 0.90861  0.20135  0.70284  Biso   1.000  C
  N38      1.0000 0.33982  0.98850  0.79721  Biso   1.000  N
  H267     1.0000 0.39865  0.84185  0.80173  Biso   1.000  H
  H268     1.0000 0.52756  0.99806  0.80254  Biso   1.000  H
  H269     1.0000 0.52761  0.99817  0.80254  Biso   1.000  H
  O48      1.0000 0.71819  0.91475  0.70307  Biso   1.000  O
  N39      1.0000 0.66015  0.64866  0.70279  Biso   1.000  N
  H270     1.0000 0.83544  0.64621  0.70307  Biso   1.000  H
  H271     1.0000 0.83549  0.64632  0.70307  Biso   1.000  H
  N40      1.0000 0.98852  0.33982  0.70279  Biso   1.000  N
  H272     1.0000 0.81080  0.16458  0.70307  Biso   1.000  H
  C235     1.0000 0.20130  0.90859  0.79716  Biso   1.000  C
  H273     1.0000 0.37633  0.07808  0.80053  Biso   1.000  H
  H274     1.0000 0.62367  0.70179  0.69947  Biso   1.000  H
  C236     1.0000 0.56242  0.49776  0.70745  Biso   1.000  C
  C237     1.0000 0.93534  0.43758  0.70745  Biso   1.000  C
  H275     1.0000 0.07812  0.37637  0.69947  Biso   1.000  H
  C238     1.0000 0.10383  0.95587  0.79746  Biso   1.000  C
  H276     1.0000 0.16457  0.81082  0.79693  Biso   1.000  H
  C239     1.0000 0.10389  0.95598  0.79746  Biso   1.000  C
  H277     1.0000 0.60128  0.44313  0.69827  Biso   1.000  H
  H278     1.0000 0.47244  0.47055  0.69746  Biso   1.000  H
  C240     1.0000 0.53862  0.46524  0.74210  Biso   1.000  C
  H279     1.0000 0.84181  0.39869  0.69827  Biso   1.000  H
  H280     1.0000 0.99811  0.52759  0.69746  Biso   1.000  H
  C241     1.0000 0.92663  0.46139  0.74210  Biso   1.000  C
  C242     1.0000 0.95451  0.84865  0.79728  Biso   1.000  C
  C243     1.0000 0.15138  0.10582  0.79728  Biso   1.000  C
  C244     1.0000 0.46521  0.53856  0.75790  Biso   1.000  C
  H281     1.0000 0.62949  0.49606  0.75197  Biso   1.000  H
  H282     1.0000 0.48067  0.36333  0.74496  Biso   1.000  H
  C245     1.0000 0.46527  0.53867  0.75790  Biso   1.000  C
  H283     1.0000 0.86651  0.37042  0.75197  Biso   1.000  H
  H284     1.0000 0.88264  0.51920  0.74496  Biso   1.000  H
  H285     1.0000 0.88270  0.51930  0.74496  Biso   1.000  H
  C246     1.0000 0.07336  0.53471  0.75790  Biso   1.000  C
  C247     1.0000 0.85209  0.89615  0.79746  Biso   1.000  C
  O49      1.0000 0.91481  0.71826  0.79693  Biso   1.000  O
  C248     1.0000 0.04404  0.14790  0.79746  Biso   1.000  C
  O50      1.0000 0.28174  0.19646  0.79693  Biso   1.000  O
  O51      1.0000 0.28179  0.19657  0.79693  Biso   1.000  O
  C249     1.0000 0.49773  0.56237  0.79255  Biso   1.000  C
  H286     1.0000 0.49606  0.62953  0.74803  Biso   1.000  H
  H287     1.0000 0.36342  0.48075  0.75504  Biso   1.000  H
  C250     1.0000 0.49778  0.56247  0.79255  Biso   1.000  C
  C251     1.0000 0.06464  0.50219  0.79255  Biso   1.000  C
  H288     1.0000 0.13341  0.50389  0.74803  Biso   1.000  H
  H289     1.0000 0.11732  0.63662  0.75504  Biso   1.000  H
  C252     1.0000 0.70723  0.79860  0.79716  Biso   1.000  C
  C253     1.0000 0.89416  0.04546  0.79728  Biso   1.000  C
  C254     1.0000 0.89422  0.04556  0.79728  Biso   1.000  C
  C255     1.0000 0.09134  0.29274  0.79716  Biso   1.000  C
  N41      1.0000 0.64867  0.66013  0.79721  Biso   1.000  N
  H290     1.0000 0.44309  0.60126  0.80173  Biso   1.000  H
  H291     1.0000 0.47049  0.47236  0.80254  Biso   1.000  H
  H292     1.0000 0.44315  0.60137  0.80173  Biso   1.000  H
  H293     1.0000 0.47054  0.47246  0.80254  Biso   1.000  H
  N42      1.0000 0.01147  0.35130  0.79721  Biso   1.000  N
  H294     1.0000 0.15812  0.55682  0.80173  Biso   1.000  H
  H295     1.0000 0.00186  0.52940  0.80254  Biso   1.000  H
  H296     1.0000 0.64619  0.83537  0.79693  Biso   1.000  H
  H297     1.0000 0.64625  0.83547  0.79693  Biso   1.000  H
  O52      1.0000 0.80341  0.08520  0.79693  Biso   1.000  O
  H298     1.0000 0.18920  0.35374  0.79693  Biso   1.000  H
  H299     1.0000 0.70172  0.62358  0.80053  Biso   1.000  H
  H300     1.0000 0.70177  0.62368  0.80053  Biso   1.000  H
  H301     1.0000 0.92186  0.29816  0.80053  Biso   1.000  H
  H302     1.0000 0.92191  0.29827  0.80053  Biso   1.000  H
  N43      1.0000 0.35130  0.01145  0.70279  Biso   1.000  N
  C256     1.0000 0.29269  0.09137  0.70284  Biso   1.000  C
  H303     1.0000 0.29823  0.92187  0.69947  Biso   1.000  H
  C257     1.0000 0.50225  0.06469  0.70745  Biso   1.000  C
  C258     1.0000 0.14794  0.04408  0.70254  Biso   1.000  C
  H304     1.0000 0.35372  0.18913  0.70307  Biso   1.000  H
  H305     1.0000 0.55678  0.15810  0.69827  Biso   1.000  H
  H306     1.0000 0.52947  0.00189  0.69746  Biso   1.000  H
  C259     1.0000 0.53472  0.07330  0.74210  Biso   1.000  C
  H307     1.0000 0.55683  0.15821  0.69827  Biso   1.000  H
  C260     1.0000 0.53477  0.07341  0.74210  Biso   1.000  C
  C261     1.0000 0.04554  0.89413  0.70272  Biso   1.000  C
  C262     1.0000 0.10584  0.15130  0.70272  Biso   1.000  C
  C263     1.0000 0.10589  0.15141  0.70272  Biso   1.000  C
  C264     1.0000 0.46139  0.92665  0.75790  Biso   1.000  C
  H308     1.0000 0.50396  0.13345  0.75197  Biso   1.000  H
  H309     1.0000 0.63660  0.11729  0.74496  Biso   1.000  H
  H310     1.0000 0.63665  0.11740  0.74496  Biso   1.000  H
  O53      1.0000 0.08525  0.80349  0.70307  Biso   1.000  O
  C265     1.0000 0.89612  0.85205  0.70254  Biso   1.000  C
  C266     1.0000 0.95591  0.10380  0.70254  Biso   1.000  C
  C267     1.0000 0.95596  0.10390  0.70254  Biso   1.000  C
  O54      1.0000 0.19652  0.28169  0.70307  Biso   1.000  O
  O55      1.0000 0.19658  0.28180  0.70307  Biso   1.000  O
  H311     1.0000 0.37049  0.86650  0.74803  Biso   1.000  H
  H312     1.0000 0.51928  0.88266  0.75504  Biso   1.000  H
  C268     1.0000 0.43754  0.93526  0.79255  Biso   1.000  C
  C269     1.0000 0.43759  0.93536  0.79255  Biso   1.000  C
  C270     1.0000 0.84868  0.95449  0.70272  Biso   1.000  C
  C271     1.0000 0.79857  0.70721  0.70284  Biso   1.000  C
  C272     1.0000 0.79862  0.70732  0.70284  Biso   1.000  C
  C273     1.0000 0.90861  0.20135  0.70284  Biso   1.000  C
  N44      1.0000 0.33982  0.98850  0.79721  Biso   1.000  N
  H313     1.0000 0.39865  0.84185  0.80173  Biso   1.000  H
  H314     1.0000 0.52756  0.99806  0.80254  Biso   1.000  H
  H315     1.0000 0.52761  0.99817  0.80254  Biso   1.000  H
  O56      1.0000 0.71819  0.91475  0.70307  Biso   1.000  O
  N45      1.0000 0.66015  0.64866  0.70279  Biso   1.000  N
  H316     1.0000 0.83544  0.64621  0.70307  Biso   1.000  H
  H317     1.0000 0.83549  0.64632  0.70307  Biso   1.000  H
  N46      1.0000 0.98852  0.33982  0.70279  Biso   1.000  N
  H318     1.0000 0.81080  0.16458  0.70307  Biso   1.000  H
  C274     1.0000 0.20130  0.90859  0.79716  Biso   1.000  C
  H319     1.0000 0.37633  0.07808  0.80053  Biso   1.000  H
  H320     1.0000 0.62367  0.70179  0.69947  Biso   1.000  H
  C275     1.0000 0.56242  0.49776  0.70745  Biso   1.000  C
  C276     1.0000 0.93534  0.43758  0.70745  Biso   1.000  C
  H321     1.0000 0.07812  0.37637  0.69947  Biso   1.000  H
  H322     1.0000 0.16457  0.81082  0.79693  Biso   1.000  H
  C277     1.0000 0.10383  0.95587  0.79746  Biso   1.000  C
  C278     1.0000 0.10389  0.95598  0.79746  Biso   1.000  C
  H323     1.0000 0.60128  0.44313  0.69827  Biso   1.000  H
  H324     1.0000 0.47244  0.47055  0.69746  Biso   1.000  H
  C279     1.0000 0.53862  0.46524  0.74210  Biso   1.000  C
  H325     1.0000 0.84181  0.39869  0.69827  Biso   1.000  H
  H326     1.0000 0.99811  0.52759  0.69746  Biso   1.000  H
  C280     1.0000 0.92663  0.46139  0.74210  Biso   1.000  C
  C281     1.0000 0.95451  0.84865  0.79728  Biso   1.000  C
  C282     1.0000 0.15138  0.10582  0.79728  Biso   1.000  C
  C283     1.0000 0.46521  0.53856  0.75790  Biso   1.000  C
  H327     1.0000 0.62949  0.49606  0.75197  Biso   1.000  H
  H328     1.0000 0.48067  0.36333  0.74496  Biso   1.000  H
  C284     1.0000 0.46527  0.53867  0.75790  Biso   1.000  C
  H329     1.0000 0.86651  0.37042  0.75197  Biso   1.000  H
  H330     1.0000 0.88264  0.51920  0.74496  Biso   1.000  H
  H331     1.0000 0.88270  0.51930  0.74496  Biso   1.000  H
  C285     1.0000 0.07336  0.53471  0.75790  Biso   1.000  C
  C286     1.0000 0.85209  0.89615  0.79746  Biso   1.000  C
  O57      1.0000 0.91481  0.71826  0.79693  Biso   1.000  O
  C287     1.0000 0.04404  0.14790  0.79746  Biso   1.000  C
  O58      1.0000 0.28174  0.19646  0.79693  Biso   1.000  O
  O59      1.0000 0.28179  0.19657  0.79693  Biso   1.000  O
  C288     1.0000 0.49773  0.56237  0.79255  Biso   1.000  C
  H332     1.0000 0.49606  0.62953  0.74803  Biso   1.000  H
  H333     1.0000 0.36342  0.48075  0.75504  Biso   1.000  H
  C289     1.0000 0.49778  0.56247  0.79255  Biso   1.000  C
  C290     1.0000 0.06464  0.50219  0.79255  Biso   1.000  C
  H334     1.0000 0.13341  0.50389  0.74803  Biso   1.000  H
  H335     1.0000 0.11732  0.63662  0.75504  Biso   1.000  H
  C291     1.0000 0.70723  0.79860  0.79716  Biso   1.000  C
  C292     1.0000 0.89416  0.04546  0.79728  Biso   1.000  C
  C293     1.0000 0.89422  0.04556  0.79728  Biso   1.000  C
  C294     1.0000 0.09134  0.29274  0.79716  Biso   1.000  C
  N47      1.0000 0.64867  0.66013  0.79721  Biso   1.000  N
  H336     1.0000 0.44309  0.60126  0.80173  Biso   1.000  H
  H337     1.0000 0.47049  0.47236  0.80254  Biso   1.000  H
  H338     1.0000 0.44315  0.60137  0.80173  Biso   1.000  H
  H339     1.0000 0.47054  0.47246  0.80254  Biso   1.000  H
  N48      1.0000 0.01147  0.35130  0.79721  Biso   1.000  N
  H340     1.0000 0.15812  0.55682  0.80173  Biso   1.000  H
  H341     1.0000 0.00186  0.52940  0.80254  Biso   1.000  H
  H342     1.0000 0.64619  0.83537  0.79693  Biso   1.000  H
  H343     1.0000 0.64625  0.83547  0.79693  Biso   1.000  H
  O60      1.0000 0.80341  0.08520  0.79693  Biso   1.000  O
  H344     1.0000 0.18920  0.35374  0.79693  Biso   1.000  H
  H345     1.0000 0.70172  0.62358  0.80053  Biso   1.000  H
  H346     1.0000 0.70177  0.62368  0.80053  Biso   1.000  H
  H347     1.0000 0.92186  0.29816  0.80053  Biso   1.000  H
  H348     1.0000 0.92191  0.29827  0.80053  Biso   1.000  H
  N49      1.0000 0.35130  0.01145  0.70279  Biso   1.000  N
  C295     1.0000 0.29269  0.09137  0.70284  Biso   1.000  C
  H349     1.0000 0.29823  0.92187  0.69947  Biso   1.000  H
  C296     1.0000 0.50225  0.06469  0.70745  Biso   1.000  C
  C297     1.0000 0.14794  0.04408  0.70254  Biso   1.000  C
  H350     1.0000 0.35372  0.18913  0.70307  Biso   1.000  H
  H351     1.0000 0.55678  0.15810  0.69827  Biso   1.000  H
  H352     1.0000 0.52947  0.00189  0.69746  Biso   1.000  H
  C298     1.0000 0.53472  0.07330  0.74210  Biso   1.000  C
  H353     1.0000 0.55683  0.15821  0.69827  Biso   1.000  H
  C299     1.0000 0.53477  0.07341  0.74210  Biso   1.000  C
  C300     1.0000 0.04554  0.89413  0.70272  Biso   1.000  C
  C301     1.0000 0.10584  0.15130  0.70272  Biso   1.000  C
  C302     1.0000 0.10589  0.15141  0.70272  Biso   1.000  C
  C303     1.0000 0.46139  0.92665  0.75790  Biso   1.000  C
  H354     1.0000 0.50396  0.13345  0.75197  Biso   1.000  H
  H355     1.0000 0.63660  0.11729  0.74496  Biso   1.000  H
  H356     1.0000 0.63665  0.11740  0.74496  Biso   1.000  H
  O61      1.0000 0.08525  0.80349  0.70307  Biso   1.000  O
  C304     1.0000 0.89612  0.85205  0.70254  Biso   1.000  C
  C305     1.0000 0.95591  0.10380  0.70254  Biso   1.000  C
  C306     1.0000 0.95596  0.10390  0.70254  Biso   1.000  C
  O62      1.0000 0.19652  0.28169  0.70307  Biso   1.000  O
  O63      1.0000 0.19658  0.28180  0.70307  Biso   1.000  O
  H357     1.0000 0.37049  0.86650  0.74803  Biso   1.000  H
  H358     1.0000 0.51928  0.88266  0.75504  Biso   1.000  H
  C307     1.0000 0.43754  0.93526  0.79255  Biso   1.000  C
  C308     1.0000 0.43759  0.93536  0.79255  Biso   1.000  C
  C309     1.0000 0.84868  0.95449  0.70272  Biso   1.000  C
  C310     1.0000 0.79857  0.70721  0.70284  Biso   1.000  C
  C311     1.0000 0.79862  0.70732  0.70284  Biso   1.000  C
  C312     1.0000 0.90861  0.20135  0.70284  Biso   1.000  C
  N50      1.0000 0.33982  0.98850  0.79721  Biso   1.000  N
  H359     1.0000 0.39865  0.84185  0.80173  Biso   1.000  H
  H360     1.0000 0.52756  0.99806  0.80254  Biso   1.000  H
  H361     1.0000 0.52761  0.99817  0.80254  Biso   1.000  H
  O64      1.0000 0.71819  0.91475  0.70307  Biso   1.000  O
  N51      1.0000 0.66015  0.64866  0.70279  Biso   1.000  N
  H362     1.0000 0.83544  0.64621  0.70307  Biso   1.000  H
  H363     1.0000 0.83549  0.64632  0.70307  Biso   1.000  H
  N52      1.0000 0.98852  0.33982  0.70279  Biso   1.000  N
  H364     1.0000 0.81080  0.16458  0.70307  Biso   1.000  H
  C313     1.0000 0.20130  0.90859  0.79716  Biso   1.000  C
  H365     1.0000 0.37633  0.07808  0.80053  Biso   1.000  H
  H366     1.0000 0.62367  0.70179  0.69947  Biso   1.000  H
  C314     1.0000 0.56242  0.49776  0.70745  Biso   1.000  C
  C315     1.0000 0.93534  0.43758  0.70745  Biso   1.000  C
  H367     1.0000 0.07812  0.37637  0.69947  Biso   1.000  H
  H368     1.0000 0.16457  0.81082  0.79693  Biso   1.000  H
  C316     1.0000 0.10383  0.95587  0.79746  Biso   1.000  C
  C317     1.0000 0.10389  0.95598  0.79746  Biso   1.000  C
  H369     1.0000 0.60128  0.44313  0.69827  Biso   1.000  H
  H370     1.0000 0.47244  0.47055  0.69746  Biso   1.000  H
  C318     1.0000 0.53862  0.46524  0.74210  Biso   1.000  C
  H371     1.0000 0.84181  0.39869  0.69827  Biso   1.000  H
  H372     1.0000 0.99811  0.52759  0.69746  Biso   1.000  H
  C319     1.0000 0.92663  0.46139  0.74210  Biso   1.000  C
  C320     1.0000 0.95451  0.84865  0.79728  Biso   1.000  C
  C321     1.0000 0.15138  0.10582  0.79728  Biso   1.000  C
  C322     1.0000 0.46521  0.53856  0.75790  Biso   1.000  C
  H373     1.0000 0.62949  0.49606  0.75197  Biso   1.000  H
  H374     1.0000 0.48067  0.36333  0.74496  Biso   1.000  H
  C323     1.0000 0.46527  0.53867  0.75790  Biso   1.000  C
  H375     1.0000 0.86651  0.37042  0.75197  Biso   1.000  H
  H376     1.0000 0.88264  0.51920  0.74496  Biso   1.000  H
  H377     1.0000 0.88270  0.51930  0.74496  Biso   1.000  H
  C324     1.0000 0.07336  0.53471  0.75790  Biso   1.000  C
  C325     1.0000 0.85209  0.89615  0.79746  Biso   1.000  C
  O65      1.0000 0.91481  0.71826  0.79693  Biso   1.000  O
  C326     1.0000 0.04404  0.14790  0.79746  Biso   1.000  C
  O66      1.0000 0.28174  0.19646  0.79693  Biso   1.000  O
  O67      1.0000 0.28179  0.19657  0.79693  Biso   1.000  O
  C327     1.0000 0.49773  0.56237  0.79255  Biso   1.000  C
  H378     1.0000 0.49606  0.62953  0.74803  Biso   1.000  H
  H379     1.0000 0.36342  0.48075  0.75504  Biso   1.000  H
  C328     1.0000 0.49778  0.56247  0.79255  Biso   1.000  C
  C329     1.0000 0.06464  0.50219  0.79255  Biso   1.000  C
  H380     1.0000 0.13341  0.50389  0.74803  Biso   1.000  H
  H381     1.0000 0.11732  0.63662  0.75504  Biso   1.000  H
  C330     1.0000 0.70723  0.79860  0.79716  Biso   1.000  C
  C331     1.0000 0.89416  0.04546  0.79728  Biso   1.000  C
  C332     1.0000 0.89422  0.04556  0.79728  Biso   1.000  C
  C333     1.0000 0.09134  0.29274  0.79716  Biso   1.000  C
  N53      1.0000 0.64867  0.66013  0.79721  Biso   1.000  N
  H382     1.0000 0.44309  0.60126  0.80173  Biso   1.000  H
  H383     1.0000 0.47049  0.47236  0.80254  Biso   1.000  H
  H384     1.0000 0.44315  0.60137  0.80173  Biso   1.000  H
  H385     1.0000 0.47054  0.47246  0.80254  Biso   1.000  H
  N54      1.0000 0.01147  0.35130  0.79721  Biso   1.000  N
  H386     1.0000 0.15812  0.55682  0.80173  Biso   1.000  H
  H387     1.0000 0.00186  0.52940  0.80254  Biso   1.000  H
  H388     1.0000 0.64619  0.83537  0.79693  Biso   1.000  H
  H389     1.0000 0.64625  0.83547  0.79693  Biso   1.000  H
  O68      1.0000 0.80341  0.08520  0.79693  Biso   1.000  O
  H390     1.0000 0.18920  0.35374  0.79693  Biso   1.000  H
  H391     1.0000 0.70172  0.62358  0.80053  Biso   1.000  H
  H392     1.0000 0.70177  0.62368  0.80053  Biso   1.000  H
  H393     1.0000 0.92186  0.29816  0.80053  Biso   1.000  H
  H394     1.0000 0.92191  0.29827  0.80053  Biso   1.000  H
  N55      1.0000 0.35130  0.01145  0.70279  Biso   1.000  N
  C334     1.0000 0.29269  0.09137  0.70284  Biso   1.000  C
  H395     1.0000 0.29823  0.92187  0.69947  Biso   1.000  H
  C335     1.0000 0.50225  0.06469  0.70745  Biso   1.000  C
  C336     1.0000 0.14794  0.04408  0.70254  Biso   1.000  C
  H396     1.0000 0.35372  0.18913  0.70307  Biso   1.000  H
  H397     1.0000 0.55678  0.15810  0.69827  Biso   1.000  H
  H398     1.0000 0.52947  0.00189  0.69746  Biso   1.000  H
  C337     1.0000 0.53472  0.07330  0.74210  Biso   1.000  C
  H399     1.0000 0.55683  0.15821  0.69827  Biso   1.000  H
  C338     1.0000 0.53477  0.07341  0.74210  Biso   1.000  C
  C339     1.0000 0.04554  0.89413  0.70272  Biso   1.000  C
  C340     1.0000 0.10584  0.15130  0.70272  Biso   1.000  C
  C341     1.0000 0.10589  0.15141  0.70272  Biso   1.000  C
  C342     1.0000 0.46139  0.92665  0.75790  Biso   1.000  C
  H400     1.0000 0.50396  0.13345  0.75197  Biso   1.000  H
  H401     1.0000 0.63660  0.11729  0.74496  Biso   1.000  H
  H402     1.0000 0.63665  0.11740  0.74496  Biso   1.000  H
  O69      1.0000 0.08525  0.80349  0.70307  Biso   1.000  O
  C343     1.0000 0.89612  0.85205  0.70254  Biso   1.000  C
  C344     1.0000 0.95591  0.10380  0.70254  Biso   1.000  C
  C345     1.0000 0.95596  0.10390  0.70254  Biso   1.000  C
  O70      1.0000 0.19652  0.28169  0.70307  Biso   1.000  O
  O71      1.0000 0.19658  0.28180  0.70307  Biso   1.000  O
  H403     1.0000 0.37049  0.86650  0.74803  Biso   1.000  H
  H404     1.0000 0.51928  0.88266  0.75504  Biso   1.000  H
  C346     1.0000 0.43754  0.93526  0.79255  Biso   1.000  C
  C347     1.0000 0.43759  0.93536  0.79255  Biso   1.000  C
  C348     1.0000 0.84868  0.95449  0.70272  Biso   1.000  C
  C349     1.0000 0.79857  0.70721  0.70284  Biso   1.000  C
  C350     1.0000 0.79862  0.70732  0.70284  Biso   1.000  C
  C351     1.0000 0.90861  0.20135  0.70284  Biso   1.000  C
  N56      1.0000 0.33982  0.98850  0.79721  Biso   1.000  N
  H405     1.0000 0.39865  0.84185  0.80173  Biso   1.000  H
  H406     1.0000 0.52756  0.99806  0.80254  Biso   1.000  H
  H407     1.0000 0.52761  0.99817  0.80254  Biso   1.000  H
  O72      1.0000 0.71819  0.91475  0.70307  Biso   1.000  O
  N57      1.0000 0.66015  0.64866  0.70279  Biso   1.000  N
  H408     1.0000 0.83544  0.64621  0.70307  Biso   1.000  H
  H409     1.0000 0.83549  0.64632  0.70307  Biso   1.000  H
  N58      1.0000 0.98852  0.33982  0.70279  Biso   1.000  N
  H410     1.0000 0.81080  0.16458  0.70307  Biso   1.000  H
  C352     1.0000 0.20130  0.90859  0.79716  Biso   1.000  C
  H411     1.0000 0.37633  0.07808  0.80053  Biso   1.000  H
  H412     1.0000 0.62367  0.70179  0.69947  Biso   1.000  H
  C353     1.0000 0.56242  0.49776  0.70745  Biso   1.000  C
  C354     1.0000 0.93534  0.43758  0.70745  Biso   1.000  C
  H413     1.0000 0.07812  0.37637  0.69947  Biso   1.000  H
  H414     1.0000 0.16457  0.81082  0.79693  Biso   1.000  H
  C355     1.0000 0.10383  0.95587  0.79746  Biso   1.000  C
  C356     1.0000 0.10389  0.95598  0.79746  Biso   1.000  C
  H415     1.0000 0.60128  0.44313  0.69827  Biso   1.000  H
  H416     1.0000 0.47244  0.47055  0.69746  Biso   1.000  H
  C357     1.0000 0.53862  0.46524  0.74210  Biso   1.000  C
  H417     1.0000 0.84181  0.39869  0.69827  Biso   1.000  H
  H418     1.0000 0.99811  0.52759  0.69746  Biso   1.000  H
  C358     1.0000 0.92663  0.46139  0.74210  Biso   1.000  C
  C359     1.0000 0.95451  0.84865  0.79728  Biso   1.000  C
  C360     1.0000 0.15138  0.10582  0.79728  Biso   1.000  C
  C361     1.0000 0.46521  0.53856  0.75790  Biso   1.000  C
  H419     1.0000 0.62949  0.49606  0.75197  Biso   1.000  H
  H420     1.0000 0.48067  0.36333  0.74496  Biso   1.000  H
  C362     1.0000 0.46527  0.53867  0.75790  Biso   1.000  C
  H421     1.0000 0.86651  0.37042  0.75197  Biso   1.000  H
  H422     1.0000 0.88264  0.51920  0.74496  Biso   1.000  H
  H423     1.0000 0.88270  0.51930  0.74496  Biso   1.000  H
  C363     1.0000 0.07336  0.53471  0.75790  Biso   1.000  C
  C364     1.0000 0.85209  0.89615  0.79746  Biso   1.000  C
  O73      1.0000 0.91481  0.71826  0.79693  Biso   1.000  O
  C365     1.0000 0.04404  0.14790  0.79746  Biso   1.000  C
  O74      1.0000 0.28174  0.19646  0.79693  Biso   1.000  O
  O75      1.0000 0.28179  0.19657  0.79693  Biso   1.000  O
  C366     1.0000 0.49773  0.56237  0.79255  Biso   1.000  C
  H424     1.0000 0.49606  0.62953  0.74803  Biso   1.000  H
  H425     1.0000 0.36342  0.48075  0.75504  Biso   1.000  H
  C367     1.0000 0.49778  0.56247  0.79255  Biso   1.000  C
  C368     1.0000 0.06464  0.50219  0.79255  Biso   1.000  C
  H426     1.0000 0.13341  0.50389  0.74803  Biso   1.000  H
  H427     1.0000 0.11732  0.63662  0.75504  Biso   1.000  H
  C369     1.0000 0.70723  0.79860  0.79716  Biso   1.000  C
  C370     1.0000 0.89416  0.04546  0.79728  Biso   1.000  C
  C371     1.0000 0.89422  0.04556  0.79728  Biso   1.000  C
  C372     1.0000 0.09134  0.29274  0.79716  Biso   1.000  C
  N59      1.0000 0.64867  0.66013  0.79721  Biso   1.000  N
  H428     1.0000 0.44309  0.60126  0.80173  Biso   1.000  H
  H429     1.0000 0.47049  0.47236  0.80254  Biso   1.000  H
  H430     1.0000 0.44315  0.60137  0.80173  Biso   1.000  H
  H431     1.0000 0.47054  0.47246  0.80254  Biso   1.000  H
  N60      1.0000 0.01147  0.35130  0.79721  Biso   1.000  N
  H432     1.0000 0.15812  0.55682  0.80173  Biso   1.000  H
  H433     1.0000 0.00186  0.52940  0.80254  Biso   1.000  H
  H434     1.0000 0.64619  0.83537  0.79693  Biso   1.000  H
  H435     1.0000 0.64625  0.83547  0.79693  Biso   1.000  H
  O76      1.0000 0.80341  0.08520  0.79693  Biso   1.000  O
  H436     1.0000 0.18920  0.35374  0.79693  Biso   1.000  H
  H437     1.0000 0.70172  0.62358  0.80053  Biso   1.000  H
  H438     1.0000 0.70177  0.62368  0.80053  Biso   1.000  H
  H439     1.0000 0.92186  0.29816  0.80053  Biso   1.000  H
  H440     1.0000 0.92191  0.29827  0.80053  Biso   1.000  H
  N61      1.0000 0.67816  0.68468  0.13055  Biso   1.000  N
  C373     1.0000 0.75798  0.62602  0.13050  Biso   1.000  C
  H441     1.0000 0.58855  0.63155  0.13387  Biso   1.000  H
  C374     1.0000 0.73134  0.83558  0.12587  Biso   1.000  C
  C375     1.0000 0.71073  0.48128  0.13080  Biso   1.000  C
  H442     1.0000 0.85584  0.68702  0.13027  Biso   1.000  H
  H443     1.0000 0.82482  0.89020  0.13507  Biso   1.000  H
  H444     1.0000 0.66855  0.86278  0.13588  Biso   1.000  H
  C376     1.0000 0.74005  0.86810  0.09124  Biso   1.000  C
  C377     1.0000 0.56086  0.37884  0.13062  Biso   1.000  C
  C378     1.0000 0.81807  0.43920  0.13062  Biso   1.000  C
  C379     1.0000 0.59327  0.79467  0.07542  Biso   1.000  C
  H445     1.0000 0.80011  0.83728  0.08137  Biso   1.000  H
  H446     1.0000 0.78401  0.97001  0.08836  Biso   1.000  H
  O77      1.0000 0.47011  0.41859  0.13027  Biso   1.000  O
  C380     1.0000 0.51873  0.22943  0.13080  Biso   1.000  C
  O78      1.0000 0.94843  0.52985  0.13027  Biso   1.000  O
  C381     1.0000 0.77053  0.28926  0.13080  Biso   1.000  C
  C382     1.0000 0.60198  0.77086  0.04079  Biso   1.000  C
  H447     1.0000 0.53320  0.70381  0.08529  Biso   1.000  H
  H448     1.0000 0.54934  0.85258  0.07830  Biso   1.000  H
  C383     1.0000 0.62115  0.18193  0.13062  Biso   1.000  C
  C384     1.0000 0.37392  0.13198  0.13050  Biso   1.000  C
  C385     1.0000 0.86799  0.24197  0.13050  Biso   1.000  C
  N62      1.0000 0.65521  0.67320  0.03613  Biso   1.000  N
  H449     1.0000 0.50845  0.73197  0.03159  Biso   1.000  H
  H450     1.0000 0.66474  0.86087  0.03080  Biso   1.000  H
  O79      1.0000 0.58145  0.05154  0.13027  Biso   1.000  O
  H451     1.0000 0.31289  0.16875  0.13027  Biso   1.000  H
  N63      1.0000 0.31537  0.99352  0.13055  Biso   1.000  N
  H452     1.0000 0.83126  0.14420  0.13027  Biso   1.000  H
  N64      1.0000 0.00652  0.32188  0.13055  Biso   1.000  N
  H453     1.0000 0.74476  0.70965  0.03281  Biso   1.000  H
  C386     1.0000 0.57530  0.53474  0.03615  Biso   1.000  C
  H454     1.0000 0.36841  0.95696  0.13387  Biso   1.000  H
  C387     1.0000 0.16442  0.89575  0.12587  Biso   1.000  C
  H455     1.0000 0.04302  0.41147  0.13387  Biso   1.000  H
  C388     1.0000 0.10423  0.26864  0.12587  Biso   1.000  C
  C389     1.0000 0.62260  0.43718  0.03585  Biso   1.000  C
  H456     1.0000 0.47744  0.49786  0.03641  Biso   1.000  H
  H457     1.0000 0.10979  0.93465  0.13507  Biso   1.000  H
  H458     1.0000 0.13718  0.80574  0.13588  Biso   1.000  H
  C390     1.0000 0.13191  0.87195  0.09124  Biso   1.000  C
  H459     1.0000 0.06529  0.17513  0.13507  Biso   1.000  H
  H460     1.0000 0.19425  0.33145  0.13588  Biso   1.000  H
  C391     1.0000 0.12803  0.25993  0.09124  Biso   1.000  C
  C392     1.0000 0.77253  0.48469  0.03604  Biso   1.000  C
  C393     1.0000 0.51532  0.28777  0.03604  Biso   1.000  C
  C394     1.0000 0.20531  0.79862  0.07542  Biso   1.000  C
  H461     1.0000 0.16276  0.96291  0.08137  Biso   1.000  H
  H462     1.0000 0.03006  0.81403  0.08836  Biso   1.000  H
  C395     1.0000 0.20141  0.40668  0.07542  Biso   1.000  C
  H463     1.0000 0.03718  0.19989  0.08137  Biso   1.000  H
  H464     1.0000 0.18592  0.21594  0.08836  Biso   1.000  H
  O80      1.0000 0.86322  0.61508  0.03638  Biso   1.000  O
  C396     1.0000 0.81457  0.37736  0.03585  Biso   1.000  C
  C397     1.0000 0.56281  0.18544  0.03585  Biso   1.000  C
  O81      1.0000 0.38488  0.24813  0.03638  Biso   1.000  O
  C398     1.0000 0.22912  0.83114  0.04079  Biso   1.000  C
  H465     1.0000 0.29619  0.82944  0.08529  Biso   1.000  H
  H466     1.0000 0.14736  0.69671  0.07830  Biso   1.000  H
  C399     1.0000 0.16889  0.39797  0.04079  Biso   1.000  C
  H467     1.0000 0.17065  0.46683  0.08529  Biso   1.000  H
  H468     1.0000 0.30329  0.45068  0.07830  Biso   1.000  H
  C400     1.0000 0.95938  0.42475  0.03615  Biso   1.000  C
  C401     1.0000 0.71223  0.22752  0.03604  Biso   1.000  C
  C402     1.0000 0.46526  0.04059  0.03615  Biso   1.000  C
  N65      1.0000 0.32684  0.98204  0.03613  Biso   1.000  N
  H469     1.0000 0.26798  0.77652  0.03159  Biso   1.000  H
  H470     1.0000 0.13913  0.80394  0.03080  Biso   1.000  H
  N66      1.0000 0.01799  0.34484  0.03613  Biso   1.000  N
  H471     1.0000 0.22347  0.49149  0.03159  Biso   1.000  H
  H472     1.0000 0.19611  0.33517  0.03080  Biso   1.000  H
  H473     1.0000 0.02042  0.52252  0.03641  Biso   1.000  H
  O82      1.0000 0.75189  0.13677  0.03638  Biso   1.000  O
  H474     1.0000 0.50213  0.97960  0.03641  Biso   1.000  H
  H475     1.0000 0.29031  0.03507  0.03281  Biso   1.000  H
  H476     1.0000 0.96486  0.25515  0.03281  Biso   1.000  H
  C403     1.0000 0.48126  0.77054  0.86920  Biso   1.000  C
  C404     1.0000 0.43913  0.62113  0.86938  Biso   1.000  C
  C405     1.0000 0.37884  0.81805  0.86938  Biso   1.000  C
  C406     1.0000 0.62606  0.86799  0.86950  Biso   1.000  C
  C407     1.0000 0.28926  0.51869  0.86920  Biso   1.000  C
  O83      1.0000 0.52988  0.58139  0.86973  Biso   1.000  O
  C408     1.0000 0.22946  0.71072  0.86920  Biso   1.000  C
  O84      1.0000 0.41854  0.94844  0.86973  Biso   1.000  O
  H477     1.0000 0.68710  0.83122  0.86973  Biso   1.000  H
  N67      1.0000 0.68467  0.00656  0.86945  Biso   1.000  N
  C409     1.0000 0.24201  0.37395  0.86950  Biso   1.000  C
  C410     1.0000 0.18197  0.56088  0.86938  Biso   1.000  C
  C411     1.0000 0.13199  0.75800  0.86950  Biso   1.000  C
  H478     1.0000 0.63157  0.04301  0.86613  Biso   1.000  H
  C412     1.0000 0.83556  0.10422  0.87413  Biso   1.000  C
  N68      1.0000 0.32183  0.31530  0.86945  Biso   1.000  N
  H479     1.0000 0.14415  0.31296  0.86973  Biso   1.000  H
  O85      1.0000 0.05156  0.47013  0.86973  Biso   1.000  O
  H480     1.0000 0.16878  0.85588  0.86973  Biso   1.000  H
  N69      1.0000 0.99347  0.67809  0.86945  Biso   1.000  N
  H481     1.0000 0.89020  0.06533  0.86493  Biso   1.000  H
  H482     1.0000 0.86281  0.19423  0.86412  Biso   1.000  H
  C413     1.0000 0.86808  0.12803  0.90876  Biso   1.000  C
  H483     1.0000 0.41144  0.36843  0.86613  Biso   1.000  H
  C414     1.0000 0.26865  0.16440  0.87413  Biso   1.000  C
  H484     1.0000 0.95696  0.58851  0.86613  Biso   1.000  H
  C415     1.0000 0.89576  0.73133  0.87413  Biso   1.000  C
  C416     1.0000 0.79468  0.20135  0.92458  Biso   1.000  C
  H485     1.0000 0.83728  0.03717  0.91863  Biso   1.000  H
  H486     1.0000 0.96993  0.18594  0.91164  Biso   1.000  H
  H487     1.0000 0.17522  0.10988  0.86493  Biso   1.000  H
  H488     1.0000 0.33143  0.13719  0.86412  Biso   1.000  H
  C417     1.0000 0.25999  0.13198  0.90876  Biso   1.000  C
  H489     1.0000 0.93469  0.82485  0.86493  Biso   1.000  H
  H490     1.0000 0.80573  0.66853  0.86412  Biso   1.000  H
  C418     1.0000 0.87196  0.74005  0.90876  Biso   1.000  C
  C419     1.0000 0.77092  0.16894  0.95921  Biso   1.000  C
  H491     1.0000 0.70386  0.17064  0.91471  Biso   1.000  H
  H492     1.0000 0.85263  0.30326  0.92170  Biso   1.000  H
  C420     1.0000 0.40672  0.20531  0.92458  Biso   1.000  C
  H493     1.0000 0.19988  0.16270  0.91863  Biso   1.000  H
  H494     1.0000 0.21603  0.03007  0.91164  Biso   1.000  H
  C421     1.0000 0.79858  0.59329  0.92458  Biso   1.000  C
  H495     1.0000 0.96281  0.80009  0.91863  Biso   1.000  H
  H496     1.0000 0.81407  0.78404  0.91164  Biso   1.000  H
  N70      1.0000 0.67320  0.01804  0.96387  Biso   1.000  N
  H497     1.0000 0.73201  0.22346  0.96841  Biso   1.000  H
  H498     1.0000 0.86091  0.19614  0.96920  Biso   1.000  H
  C422     1.0000 0.39801  0.22911  0.95921  Biso   1.000  C
  H499     1.0000 0.46678  0.29617  0.91471  Biso   1.000  H
  H500     1.0000 0.45065  0.14739  0.92170  Biso   1.000  H
  C423     1.0000 0.83110  0.60200  0.95921  Biso   1.000  C
  H501     1.0000 0.82939  0.53325  0.91471  Biso   1.000  H
  H502     1.0000 0.69670  0.54930  0.92170  Biso   1.000  H
  C424     1.0000 0.53472  0.95938  0.96385  Biso   1.000  C
  H503     1.0000 0.70968  0.96491  0.96719  Biso   1.000  H
  N71      1.0000 0.34478  0.32677  0.96387  Biso   1.000  N
  H504     1.0000 0.49154  0.26801  0.96841  Biso   1.000  H
  H505     1.0000 0.33524  0.13910  0.96920  Biso   1.000  H
  N72      1.0000 0.98205  0.65524  0.96387  Biso   1.000  N
  H506     1.0000 0.77652  0.50849  0.96841  Biso   1.000  H
  H507     1.0000 0.80387  0.66481  0.96920  Biso   1.000  H
  C425     1.0000 0.43723  0.81465  0.96415  Biso   1.000  C
  H508     1.0000 0.49786  0.02038  0.96359  Biso   1.000  H
  H509     1.0000 0.25523  0.29032  0.96719  Biso   1.000  H
  C426     1.0000 0.42474  0.46534  0.96385  Biso   1.000  C
  C427     1.0000 0.04066  0.57533  0.96385  Biso   1.000  C
  H510     1.0000 0.03512  0.74483  0.96719  Biso   1.000  H
  C428     1.0000 0.48467  0.71220  0.96396  Biso   1.000  C
  C429     1.0000 0.28776  0.77246  0.96396  Biso   1.000  C
  C430     1.0000 0.37738  0.56279  0.96415  Biso   1.000  C
  H511     1.0000 0.52255  0.50211  0.96359  Biso   1.000  H
  C431     1.0000 0.18541  0.62262  0.96415  Biso   1.000  C
  H512     1.0000 0.97957  0.47746  0.96359  Biso   1.000  H
  O86      1.0000 0.61516  0.75195  0.96362  Biso   1.000  O
  O87      1.0000 0.24810  0.86321  0.96362  Biso   1.000  O
  C432     1.0000 0.22746  0.51529  0.96396  Biso   1.000  C
  O88      1.0000 0.13677  0.38490  0.96362  Biso   1.000  O
