data_image0
_cell_length_a       12.285
_cell_length_b       12.69
_cell_length_c       15.131
_cell_angle_alpha    74.7
_cell_angle_beta     71.41
_cell_angle_gamma    86.51

_symmetry_space_group_name_H-M    "P 1"
_symmetry_int_tables_number       1

loop_
  _symmetry_equiv_pos_as_xyz
  'x, y, z'

loop_
  _atom_site_label
  _atom_site_occupancy
  _atom_site_fract_x
  _atom_site_fract_y
  _atom_site_fract_z
  _atom_site_thermal_displace_type
  _atom_site_B_iso_or_equiv
  _atom_site_type_symbol
  C1       1.0000 0.69613  0.62204  0.18752  Biso   1.000  C
  N1       1.0000 0.66126  0.51642  0.23415  Biso   1.000  N
  N2       1.0000 0.66124  0.51640  0.23422  Biso   1.000  N
  N3       1.0000 0.66118  0.51642  0.23415  Biso   1.000  N
  N4       1.0000 0.66115  0.51640  0.23422  Biso   1.000  N
  N5       1.0000 0.75953  0.65732  0.23372  Biso   1.000  N
  O1       1.0000 0.67030  0.67678  0.11808  Biso   1.000  O
  N6       1.0000 0.75954  0.65724  0.23372  Biso   1.000  N
  N7       1.0000 0.75945  0.65732  0.23372  Biso   1.000  N
  N8       1.0000 0.75946  0.65724  0.23372  Biso   1.000  N
  C2       1.0000 0.58614  0.45873  0.20520  Biso   1.000  C
  C3       1.0000 0.58615  0.45865  0.20520  Biso   1.000  C
  C4       1.0000 0.58606  0.45873  0.20520  Biso   1.000  C
  C5       1.0000 0.58607  0.45865  0.20520  Biso   1.000  C
  C6       1.0000 0.69655  0.47533  0.31983  Biso   1.000  C
  C7       1.0000 0.69647  0.47525  0.31983  Biso   1.000  C
  C8       1.0000 0.69647  0.47533  0.31983  Biso   1.000  C
  C9       1.0000 0.69612  0.62212  0.18752  Biso   1.000  C
  C10      1.0000 0.69605  0.62204  0.18752  Biso   1.000  C
  C11      1.0000 0.76050  0.57736  0.32242  Biso   1.000  C
  C12      1.0000 0.79602  0.77158  0.20853  Biso   1.000  C
  N9       1.0000 0.63965  0.37699  0.15728  Biso   1.000  N
  N10      1.0000 0.63957  0.37699  0.15728  Biso   1.000  N
  H1       1.0000 0.55274  0.51161  0.16262  Biso   1.000  H
  H2       1.0000 0.52373  0.42433  0.26208  Biso   1.000  H
  H3       1.0000 0.55274  0.51154  0.16262  Biso   1.000  H
  H4       1.0000 0.55265  0.51161  0.16262  Biso   1.000  H
  H5       1.0000 0.55266  0.51154  0.16262  Biso   1.000  H
  N11      1.0000 0.78658  0.39407  0.31044  Biso   1.000  N
  C13      1.0000 0.59400  0.43375  0.41041  Biso   1.000  C
  C14      1.0000 0.59400  0.43367  0.41041  Biso   1.000  C
  N12      1.0000 0.87357  0.53665  0.32127  Biso   1.000  N
  N13      1.0000 0.87349  0.53657  0.32127  Biso   1.000  N
  N14      1.0000 0.87348  0.53665  0.32127  Biso   1.000  N
  C15      1.0000 0.69502  0.62170  0.41077  Biso   1.000  C
  H6       1.0000 0.77623  0.79590  0.26706  Biso   1.000  H
  H7       1.0000 0.75333  0.81491  0.16810  Biso   1.000  H
  N15      1.0000 0.91704  0.79251  0.15858  Biso   1.000  N
  H8       1.0000 0.77620  0.79588  0.26713  Biso   1.000  H
  H9       1.0000 0.75333  0.81483  0.16810  Biso   1.000  H
  N16      1.0000 0.91705  0.79243  0.15858  Biso   1.000  N
  N17      1.0000 0.91696  0.79251  0.15858  Biso   1.000  N
  N18      1.0000 0.91697  0.79243  0.15858  Biso   1.000  N
  C16      1.0000 0.65677  0.26517  0.20622  Biso   1.000  C
  C17      1.0000 0.65591  0.39039  0.06128  Biso   1.000  C
  C18      1.0000 0.76691  0.27929  0.32149  Biso   1.000  C
  C19      1.0000 0.88541  0.43052  0.31701  Biso   1.000  C
  H10      1.0000 0.62079  0.40730  0.46519  Biso   1.000  H
  H11      1.0000 0.54223  0.49229  0.42051  Biso   1.000  H
  H12      1.0000 0.55482  0.37538  0.40240  Biso   1.000  H
  C20      1.0000 0.96187  0.59772  0.33246  Biso   1.000  C
  C21      1.0000 0.96176  0.59769  0.33253  Biso   1.000  C
  C22      1.0000 0.96179  0.59772  0.33246  Biso   1.000  C
  H13      1.0000 0.62100  0.64622  0.40630  Biso   1.000  H
  H14      1.0000 0.68539  0.56469  0.46909  Biso   1.000  H
  H15      1.0000 0.73814  0.68180  0.41178  Biso   1.000  H
  C23      1.0000 0.00659  0.78345  0.20520  Biso   1.000  C
  C24      1.0000 0.95741  0.83630  0.06099  Biso   1.000  C
  C25      1.0000 0.95741  0.83622  0.06099  Biso   1.000  C
  C26      1.0000 0.54773  0.21326  0.29218  Biso   1.000  C
  C27      1.0000 0.68822  0.20507  0.12371  Biso   1.000  C
  N19      1.0000 0.75969  0.25275  0.23653  Biso   1.000  N
  C28      1.0000 0.54774  0.21318  0.29218  Biso   1.000  C
  N20      1.0000 0.75967  0.25265  0.23660  Biso   1.000  N
  C29      1.0000 0.68814  0.20507  0.12371  Biso   1.000  C
  N21      1.0000 0.69139  0.29392  0.03862  Biso   1.000  N
  N22      1.0000 0.69139  0.29384  0.03862  Biso   1.000  N
  O2       1.0000 0.63961  0.47410  0.00563  Biso   1.000  O
  H16      1.0000 0.69590  0.25522  0.37353  Biso   1.000  H
  H17      1.0000 0.82864  0.23840  0.34061  Biso   1.000  H
  H18      1.0000 0.82856  0.23840  0.34061  Biso   1.000  H
  O3       1.0000 0.96910  0.37389  0.32170  Biso   1.000  O
  H19      1.0000 0.92541  0.64020  0.37829  Biso   1.000  H
  H20      1.0000 0.01140  0.54629  0.36010  Biso   1.000  H
  N23      1.0000 0.03249  0.67095  0.24433  Biso   1.000  N
  C30      1.0000 0.97860  0.84937  0.27940  Biso   1.000  C
  C31      1.0000 0.11860  0.82477  0.11606  Biso   1.000  C
  C32      1.0000 0.11857  0.82475  0.11614  Biso   1.000  C
  O4       1.0000 0.89865  0.86065  0.00772  Biso   1.000  O
  O5       1.0000 0.89857  0.86065  0.00772  Biso   1.000  O
  N24      1.0000 0.07350  0.85355  0.03414  Biso   1.000  N
  H21      1.0000 0.56314  0.13953  0.32156  Biso   1.000  H
  H22      1.0000 0.48410  0.21322  0.26829  Biso   1.000  H
  H23      1.0000 0.52944  0.25519  0.33910  Biso   1.000  H
  H24      1.0000 0.56311  0.13951  0.32163  Biso   1.000  H
  H25      1.0000 0.52936  0.25519  0.33910  Biso   1.000  H
  C33      1.0000 0.60210  0.11463  0.14277  Biso   1.000  C
  N25      1.0000 0.80083  0.16248  0.12278  Biso   1.000  N
  N26      1.0000 0.80075  0.16248  0.12278  Biso   1.000  N
  C34      1.0000 0.83789  0.18619  0.19149  Biso   1.000  C
  C35      1.0000 0.69739  0.27835  0.94558  Biso   1.000  C
  C36      1.0000 0.13579  0.64039  0.19200  Biso   1.000  C
  H26      1.0000 0.96259  0.92310  0.25032  Biso   1.000  H
  H27      1.0000 0.91260  0.81729  0.33238  Biso   1.000  H
  H28      1.0000 0.04291  0.84968  0.30236  Biso   1.000  H
  H29      1.0000 0.04288  0.84966  0.30243  Biso   1.000  H
  N27      1.0000 0.18723  0.72709  0.11801  Biso   1.000  N
  N28      1.0000 0.18714  0.72709  0.11801  Biso   1.000  N
  C37      1.0000 0.18349  0.91935  0.12307  Biso   1.000  C
  C38      1.0000 0.18346  0.91933  0.12314  Biso   1.000  C
  C39      1.0000 0.13700  0.90859  0.93533  Biso   1.000  C
  H30      1.0000 0.52868  0.14551  0.14299  Biso   1.000  H
  H31      1.0000 0.59505  0.06454  0.20441  Biso   1.000  H
  H32      1.0000 0.62804  0.07640  0.09318  Biso   1.000  H
  H33      1.0000 0.59497  0.06446  0.20441  Biso   1.000  H
  H34      1.0000 0.59496  0.06454  0.20441  Biso   1.000  H
  H35      1.0000 0.62796  0.07640  0.09318  Biso   1.000  H
  C40      1.0000 0.86304  0.09137  0.06467  Biso   1.000  C
  C41      1.0000 0.86296  0.09137  0.06467  Biso   1.000  C
  O6       1.0000 0.92399  0.15128  0.21206  Biso   1.000  O
  H36      1.0000 0.65594  0.21114  0.95619  Biso   1.000  H
  H37      1.0000 0.65880  0.33797  0.91367  Biso   1.000  H
  N29      1.0000 0.81281  0.27295  0.88199  Biso   1.000  N
  H38      1.0000 0.65877  0.33795  0.91375  Biso   1.000  H
  H39      1.0000 0.65586  0.21114  0.95619  Biso   1.000  H
  O7       1.0000 0.17641  0.54946  0.20946  Biso   1.000  O
  C42      1.0000 0.30256  0.72169  0.05442  Biso   1.000  C
  C43      1.0000 0.30257  0.72162  0.05442  Biso   1.000  C
  H40      1.0000 0.13669  0.98274  0.12119  Biso   1.000  H
  H41      1.0000 0.20132  0.89964  0.18261  Biso   1.000  H
  H42      1.0000 0.25339  0.93517  0.06980  Biso   1.000  H
  H43      1.0000 0.19113  0.96063  0.93612  Biso   1.000  H
  H44      1.0000 0.08360  0.94960  0.90472  Biso   1.000  H
  N30      1.0000 0.19920  0.83757  0.87722  Biso   1.000  N
  H45      1.0000 0.19105  0.96063  0.93612  Biso   1.000  H
  H46      1.0000 0.80891  0.03942  0.06388  Biso   1.000  H
  H47      1.0000 0.91644  0.05044  0.09528  Biso   1.000  H
  H48      1.0000 0.91644  0.05036  0.09528  Biso   1.000  H
  H49      1.0000 0.91636  0.05044  0.09528  Biso   1.000  H
  H50      1.0000 0.91636  0.05036  0.09528  Biso   1.000  H
  N31      1.0000 0.92646  0.14649  0.96586  Biso   1.000  N
  N32      1.0000 0.92646  0.14641  0.96586  Biso   1.000  N
  C44      1.0000 0.88136  0.17528  0.88394  Biso   1.000  C
  C45      1.0000 0.86417  0.35965  0.80800  Biso   1.000  C
  N33      1.0000 0.30857  0.70612  0.96138  Biso   1.000  N
  H51      1.0000 0.34410  0.78890  0.04381  Biso   1.000  H
  H52      1.0000 0.34116  0.66207  0.08633  Biso   1.000  H
  H53      1.0000 0.34410  0.78883  0.04381  Biso   1.000  H
  C46      1.0000 0.31182  0.79497  0.87629  Biso   1.000  C
  C47      1.0000 0.31182  0.79489  0.87629  Biso   1.000  C
  C48      1.0000 0.31174  0.79489  0.87629  Biso   1.000  C
  C49      1.0000 0.16207  0.81385  0.80851  Biso   1.000  C
  C50      1.0000 0.04263  0.16374  0.93901  Biso   1.000  C
  C51      1.0000 0.04255  0.16374  0.93901  Biso   1.000  C
  C52      1.0000 0.99337  0.21659  0.79480  Biso   1.000  C
  C53      1.0000 0.81647  0.08069  0.87693  Biso   1.000  C
  C54      1.0000 0.99337  0.21651  0.79480  Biso   1.000  C
  C55      1.0000 0.81647  0.08061  0.87693  Biso   1.000  C
  N34      1.0000 0.96747  0.32909  0.75567  Biso   1.000  N
  O8       1.0000 0.82363  0.45058  0.79054  Biso   1.000  O
  N35      1.0000 0.96744  0.32899  0.75575  Biso   1.000  N
  O9       1.0000 0.82355  0.45058  0.79054  Biso   1.000  O
  C56      1.0000 0.34405  0.60965  0.93872  Biso   1.000  C
  C57      1.0000 0.34319  0.73487  0.79378  Biso   1.000  C
  C58      1.0000 0.34319  0.73479  0.79378  Biso   1.000  C
  C59      1.0000 0.39786  0.88542  0.85723  Biso   1.000  C
  N36      1.0000 0.24027  0.74729  0.76347  Biso   1.000  N
  O10      1.0000 0.07597  0.84869  0.78794  Biso   1.000  O
  N37      1.0000 0.08300  0.20753  0.84142  Biso   1.000  N
  O11      1.0000 0.10139  0.13939  0.99228  Biso   1.000  O
  C60      1.0000 0.02136  0.15067  0.72060  Biso   1.000  C
  H54      1.0000 0.86326  0.01730  0.87881  Biso   1.000  H
  H55      1.0000 0.79872  0.10040  0.81739  Biso   1.000  H
  H56      1.0000 0.74657  0.06487  0.93020  Biso   1.000  H
  H57      1.0000 0.86327  0.01722  0.87881  Biso   1.000  H
  H58      1.0000 0.79873  0.10032  0.81739  Biso   1.000  H
  H59      1.0000 0.79864  0.10040  0.81739  Biso   1.000  H
  H60      1.0000 0.79865  0.10032  0.81739  Biso   1.000  H
  C61      1.0000 0.03817  0.40233  0.66754  Biso   1.000  C
  N38      1.0000 0.36039  0.62305  0.84272  Biso   1.000  N
  O12      1.0000 0.36043  0.52594  0.99437  Biso   1.000  O
  O13      1.0000 0.36035  0.52594  0.99437  Biso   1.000  O
  C62      1.0000 0.45231  0.78679  0.70782  Biso   1.000  C
  C63      1.0000 0.45223  0.78679  0.70782  Biso   1.000  C
  H61      1.0000 0.47127  0.85453  0.85701  Biso   1.000  H
  H62      1.0000 0.40499  0.93550  0.79559  Biso   1.000  H
  H63      1.0000 0.37200  0.92365  0.90682  Biso   1.000  H
  C64      1.0000 0.23313  0.72075  0.67851  Biso   1.000  C
  C65      1.0000 0.23305  0.72067  0.67851  Biso   1.000  C
  C66      1.0000 0.23305  0.72075  0.67851  Biso   1.000  C
  C67      1.0000 0.20402  0.22846  0.79147  Biso   1.000  C
  C68      1.0000 0.20399  0.22844  0.79155  Biso   1.000  C
  C69      1.0000 0.20394  0.22846  0.79147  Biso   1.000  C
  C70      1.0000 0.20391  0.22844  0.79155  Biso   1.000  C
  H64      1.0000 0.95705  0.15036  0.69764  Biso   1.000  H
  H65      1.0000 0.03736  0.07695  0.74968  Biso   1.000  H
  H66      1.0000 0.08735  0.18275  0.66762  Biso   1.000  H
  H67      1.0000 0.98856  0.45376  0.63990  Biso   1.000  H
  H68      1.0000 0.07463  0.35984  0.62171  Biso   1.000  H
  N39      1.0000 0.12647  0.46340  0.67873  Biso   1.000  N
  H69      1.0000 0.07454  0.35984  0.62171  Biso   1.000  H
  C71      1.0000 0.41389  0.54131  0.79480  Biso   1.000  C
  H70      1.0000 0.43690  0.86051  0.67844  Biso   1.000  H
  H71      1.0000 0.51586  0.78682  0.73171  Biso   1.000  H
  H72      1.0000 0.47060  0.74485  0.66090  Biso   1.000  H
  H73      1.0000 0.47060  0.74477  0.66090  Biso   1.000  H
  H74      1.0000 0.43682  0.86051  0.67844  Biso   1.000  H
  N40      1.0000 0.21338  0.60597  0.68956  Biso   1.000  N
  N41      1.0000 0.21338  0.60589  0.68956  Biso   1.000  N
  H75      1.0000 0.30414  0.74482  0.62647  Biso   1.000  H
  H76      1.0000 0.17140  0.76164  0.65939  Biso   1.000  H
  H77      1.0000 0.30403  0.74480  0.62655  Biso   1.000  H
  H78      1.0000 0.30406  0.74482  0.62647  Biso   1.000  H
  H79      1.0000 0.22381  0.20414  0.73294  Biso   1.000  H
  H80      1.0000 0.24671  0.18513  0.83190  Biso   1.000  H
  N42      1.0000 0.24051  0.34273  0.76628  Biso   1.000  N
  H81      1.0000 0.22373  0.20414  0.73294  Biso   1.000  H
  H82      1.0000 0.24663  0.18513  0.83190  Biso   1.000  H
  C72      1.0000 0.23946  0.42268  0.67758  Biso   1.000  C
  C73      1.0000 0.23944  0.42258  0.67765  Biso   1.000  C
  C74      1.0000 0.11463  0.56952  0.68299  Biso   1.000  C
  C75      1.0000 0.11455  0.56952  0.68299  Biso   1.000  C
  N43      1.0000 0.33878  0.48362  0.76585  Biso   1.000  N
  H83      1.0000 0.44730  0.48843  0.83738  Biso   1.000  H
  H84      1.0000 0.47631  0.57571  0.73792  Biso   1.000  H
  H85      1.0000 0.47623  0.57571  0.73792  Biso   1.000  H
  C76      1.0000 0.30349  0.52471  0.68017  Biso   1.000  C
  C77      1.0000 0.30346  0.52469  0.68025  Biso   1.000  C
  C78      1.0000 0.30392  0.37792  0.81248  Biso   1.000  C
  C79      1.0000 0.30383  0.37792  0.81248  Biso   1.000  C
  C80      1.0000 0.30494  0.37834  0.58923  Biso   1.000  C
  O14      1.0000 0.03086  0.62616  0.67830  Biso   1.000  O
  O15      1.0000 0.03086  0.62608  0.67830  Biso   1.000  O
  C81      1.0000 0.40596  0.56629  0.58959  Biso   1.000  C
  O16      1.0000 0.32966  0.32326  0.88192  Biso   1.000  O
  H86      1.0000 0.37896  0.35382  0.59370  Biso   1.000  H
  H87      1.0000 0.31457  0.43535  0.53091  Biso   1.000  H
  H88      1.0000 0.26190  0.31824  0.58822  Biso   1.000  H
  H89      1.0000 0.31457  0.43528  0.53091  Biso   1.000  H
  H90      1.0000 0.26182  0.31824  0.58822  Biso   1.000  H
  H91      1.0000 0.37917  0.59274  0.53481  Biso   1.000  H
  H92      1.0000 0.45781  0.50775  0.57949  Biso   1.000  H
  H93      1.0000 0.44522  0.62466  0.59760  Biso   1.000  H
  H94      1.0000 0.44522  0.62458  0.59760  Biso   1.000  H
  H95      1.0000 0.45773  0.50775  0.57949  Biso   1.000  H
  H96      1.0000 0.44514  0.62466  0.59760  Biso   1.000  H
  H97      1.0000 0.44514  0.62458  0.59760  Biso   1.000  H
  C82      1.0000 0.69613  0.62204  0.18752  Biso   1.000  C
  N44      1.0000 0.66126  0.51642  0.23415  Biso   1.000  N
  N45      1.0000 0.66124  0.51640  0.23422  Biso   1.000  N
  N46      1.0000 0.66118  0.51642  0.23415  Biso   1.000  N
  N47      1.0000 0.66115  0.51640  0.23422  Biso   1.000  N
  O17      1.0000 0.67030  0.67678  0.11808  Biso   1.000  O
  N48      1.0000 0.75953  0.65732  0.23372  Biso   1.000  N
  N49      1.0000 0.75954  0.65724  0.23372  Biso   1.000  N
  N50      1.0000 0.75945  0.65732  0.23372  Biso   1.000  N
  N51      1.0000 0.75946  0.65724  0.23372  Biso   1.000  N
  C83      1.0000 0.58614  0.45873  0.20520  Biso   1.000  C
  C84      1.0000 0.58615  0.45865  0.20520  Biso   1.000  C
  C85      1.0000 0.58606  0.45873  0.20520  Biso   1.000  C
  C86      1.0000 0.58607  0.45865  0.20520  Biso   1.000  C
  C87      1.0000 0.69612  0.62212  0.18752  Biso   1.000  C
  C88      1.0000 0.69647  0.47525  0.31983  Biso   1.000  C
  C89      1.0000 0.69655  0.47533  0.31983  Biso   1.000  C
  C90      1.0000 0.69647  0.47533  0.31983  Biso   1.000  C
  C91      1.0000 0.69605  0.62204  0.18752  Biso   1.000  C
  C92      1.0000 0.76050  0.57736  0.32242  Biso   1.000  C
  C93      1.0000 0.79602  0.77158  0.20853  Biso   1.000  C
  N52      1.0000 0.63965  0.37699  0.15728  Biso   1.000  N
  N53      1.0000 0.63957  0.37699  0.15728  Biso   1.000  N
  H98      1.0000 0.52373  0.42433  0.26208  Biso   1.000  H
  H99      1.0000 0.55274  0.51161  0.16262  Biso   1.000  H
  H100     1.0000 0.55274  0.51154  0.16262  Biso   1.000  H
  H101     1.0000 0.55265  0.51161  0.16262  Biso   1.000  H
  H102     1.0000 0.55266  0.51154  0.16262  Biso   1.000  H
  N54      1.0000 0.78658  0.39407  0.31044  Biso   1.000  N
  C94      1.0000 0.59400  0.43375  0.41041  Biso   1.000  C
  C95      1.0000 0.59400  0.43367  0.41041  Biso   1.000  C
  N55      1.0000 0.87349  0.53657  0.32127  Biso   1.000  N
  N56      1.0000 0.87357  0.53665  0.32127  Biso   1.000  N
  N57      1.0000 0.87348  0.53665  0.32127  Biso   1.000  N
  C96      1.0000 0.69502  0.62170  0.41077  Biso   1.000  C
  H103     1.0000 0.77623  0.79590  0.26706  Biso   1.000  H
  H104     1.0000 0.75333  0.81491  0.16810  Biso   1.000  H
  H105     1.0000 0.77620  0.79588  0.26713  Biso   1.000  H
  H106     1.0000 0.75333  0.81483  0.16810  Biso   1.000  H
  N58      1.0000 0.91704  0.79251  0.15858  Biso   1.000  N
  N59      1.0000 0.91705  0.79243  0.15858  Biso   1.000  N
  N60      1.0000 0.91696  0.79251  0.15858  Biso   1.000  N
  N61      1.0000 0.91697  0.79243  0.15858  Biso   1.000  N
  C97      1.0000 0.65677  0.26517  0.20622  Biso   1.000  C
  C98      1.0000 0.65591  0.39039  0.06128  Biso   1.000  C
  C99      1.0000 0.76691  0.27929  0.32149  Biso   1.000  C
  C100     1.0000 0.88541  0.43052  0.31701  Biso   1.000  C
  H107     1.0000 0.62079  0.40730  0.46519  Biso   1.000  H
  H108     1.0000 0.54223  0.49229  0.42051  Biso   1.000  H
  H109     1.0000 0.55482  0.37538  0.40240  Biso   1.000  H
  C101     1.0000 0.96176  0.59769  0.33253  Biso   1.000  C
  C102     1.0000 0.96187  0.59772  0.33246  Biso   1.000  C
  C103     1.0000 0.96179  0.59772  0.33246  Biso   1.000  C
  H110     1.0000 0.62100  0.64622  0.40630  Biso   1.000  H
  H111     1.0000 0.68539  0.56469  0.46909  Biso   1.000  H
  H112     1.0000 0.73814  0.68180  0.41178  Biso   1.000  H
  C104     1.0000 0.95741  0.83630  0.06099  Biso   1.000  C
  C105     1.0000 0.95741  0.83622  0.06099  Biso   1.000  C
  C106     1.0000 0.00659  0.78345  0.20520  Biso   1.000  C
  C107     1.0000 0.54773  0.21326  0.29218  Biso   1.000  C
  C108     1.0000 0.68822  0.20507  0.12371  Biso   1.000  C
  N62      1.0000 0.75969  0.25275  0.23653  Biso   1.000  N
  C109     1.0000 0.54774  0.21318  0.29218  Biso   1.000  C
  N63      1.0000 0.75967  0.25265  0.23660  Biso   1.000  N
  C110     1.0000 0.68814  0.20507  0.12371  Biso   1.000  C
  N64      1.0000 0.69139  0.29392  0.03862  Biso   1.000  N
  N65      1.0000 0.69139  0.29384  0.03862  Biso   1.000  N
  O18      1.0000 0.63961  0.47410  0.00563  Biso   1.000  O
  H113     1.0000 0.69590  0.25522  0.37353  Biso   1.000  H
  H114     1.0000 0.82864  0.23840  0.34061  Biso   1.000  H
  H115     1.0000 0.82856  0.23840  0.34061  Biso   1.000  H
  O19      1.0000 0.96910  0.37389  0.32170  Biso   1.000  O
  H116     1.0000 0.92541  0.64020  0.37829  Biso   1.000  H
  H117     1.0000 0.01140  0.54629  0.36010  Biso   1.000  H
  N66      1.0000 0.03249  0.67095  0.24433  Biso   1.000  N
  O20      1.0000 0.89865  0.86065  0.00772  Biso   1.000  O
  O21      1.0000 0.89857  0.86065  0.00772  Biso   1.000  O
  N67      1.0000 0.07350  0.85355  0.03414  Biso   1.000  N
  C111     1.0000 0.97860  0.84937  0.27940  Biso   1.000  C
  C112     1.0000 0.11860  0.82477  0.11606  Biso   1.000  C
  C113     1.0000 0.11857  0.82475  0.11614  Biso   1.000  C
  H118     1.0000 0.48410  0.21322  0.26829  Biso   1.000  H
  H119     1.0000 0.52944  0.25519  0.33910  Biso   1.000  H
  H120     1.0000 0.56314  0.13953  0.32156  Biso   1.000  H
  H121     1.0000 0.56311  0.13951  0.32163  Biso   1.000  H
  H122     1.0000 0.52936  0.25519  0.33910  Biso   1.000  H
  C114     1.0000 0.60210  0.11463  0.14277  Biso   1.000  C
  N68      1.0000 0.80083  0.16248  0.12278  Biso   1.000  N
  N69      1.0000 0.80075  0.16248  0.12278  Biso   1.000  N
  C115     1.0000 0.83789  0.18619  0.19149  Biso   1.000  C
  C116     1.0000 0.69739  0.27835  0.94558  Biso   1.000  C
  C117     1.0000 0.13579  0.64039  0.19200  Biso   1.000  C
  C118     1.0000 0.13700  0.90859  0.93533  Biso   1.000  C
  H123     1.0000 0.96259  0.92310  0.25032  Biso   1.000  H
  H124     1.0000 0.91260  0.81729  0.33238  Biso   1.000  H
  H125     1.0000 0.04291  0.84968  0.30236  Biso   1.000  H
  H126     1.0000 0.04288  0.84966  0.30243  Biso   1.000  H
  N70      1.0000 0.18723  0.72709  0.11801  Biso   1.000  N
  N71      1.0000 0.18714  0.72709  0.11801  Biso   1.000  N
  C119     1.0000 0.18349  0.91935  0.12307  Biso   1.000  C
  C120     1.0000 0.18346  0.91933  0.12314  Biso   1.000  C
  H127     1.0000 0.52868  0.14551  0.14299  Biso   1.000  H
  H128     1.0000 0.62804  0.07640  0.09318  Biso   1.000  H
  H129     1.0000 0.59497  0.06446  0.20441  Biso   1.000  H
  H130     1.0000 0.62796  0.07640  0.09318  Biso   1.000  H
  H131     1.0000 0.59505  0.06454  0.20441  Biso   1.000  H
  H132     1.0000 0.59496  0.06454  0.20441  Biso   1.000  H
  C121     1.0000 0.86304  0.09137  0.06467  Biso   1.000  C
  C122     1.0000 0.86296  0.09137  0.06467  Biso   1.000  C
  O22      1.0000 0.92399  0.15128  0.21206  Biso   1.000  O
  H133     1.0000 0.65594  0.21114  0.95619  Biso   1.000  H
  H134     1.0000 0.65880  0.33797  0.91367  Biso   1.000  H
  N72      1.0000 0.81281  0.27295  0.88199  Biso   1.000  N
  H135     1.0000 0.65877  0.33795  0.91375  Biso   1.000  H
  H136     1.0000 0.65586  0.21114  0.95619  Biso   1.000  H
  O23      1.0000 0.17641  0.54946  0.20946  Biso   1.000  O
  H137     1.0000 0.19113  0.96063  0.93612  Biso   1.000  H
  H138     1.0000 0.08360  0.94960  0.90472  Biso   1.000  H
  N73      1.0000 0.19920  0.83757  0.87722  Biso   1.000  N
  H139     1.0000 0.19105  0.96063  0.93612  Biso   1.000  H
  C123     1.0000 0.30256  0.72169  0.05442  Biso   1.000  C
  C124     1.0000 0.30257  0.72162  0.05442  Biso   1.000  C
  H140     1.0000 0.13669  0.98274  0.12119  Biso   1.000  H
  H141     1.0000 0.20132  0.89964  0.18261  Biso   1.000  H
  H142     1.0000 0.25339  0.93517  0.06980  Biso   1.000  H
  H143     1.0000 0.80891  0.03942  0.06388  Biso   1.000  H
  N74      1.0000 0.92646  0.14649  0.96586  Biso   1.000  N
  N75      1.0000 0.92646  0.14641  0.96586  Biso   1.000  N
  H144     1.0000 0.91644  0.05044  0.09528  Biso   1.000  H
  H145     1.0000 0.91644  0.05036  0.09528  Biso   1.000  H
  H146     1.0000 0.91636  0.05044  0.09528  Biso   1.000  H
  H147     1.0000 0.91636  0.05036  0.09528  Biso   1.000  H
  C125     1.0000 0.88136  0.17528  0.88394  Biso   1.000  C
  C126     1.0000 0.86417  0.35965  0.80800  Biso   1.000  C
  C127     1.0000 0.31182  0.79497  0.87629  Biso   1.000  C
  C128     1.0000 0.16207  0.81385  0.80851  Biso   1.000  C
  C129     1.0000 0.31182  0.79489  0.87629  Biso   1.000  C
  C130     1.0000 0.31174  0.79489  0.87629  Biso   1.000  C
  N76      1.0000 0.30857  0.70612  0.96138  Biso   1.000  N
  H148     1.0000 0.34410  0.78890  0.04381  Biso   1.000  H
  H149     1.0000 0.34116  0.66207  0.08633  Biso   1.000  H
  H150     1.0000 0.34410  0.78883  0.04381  Biso   1.000  H
  C131     1.0000 0.04263  0.16374  0.93901  Biso   1.000  C
  C132     1.0000 0.04255  0.16374  0.93901  Biso   1.000  C
  C133     1.0000 0.99337  0.21659  0.79480  Biso   1.000  C
  C134     1.0000 0.81647  0.08069  0.87693  Biso   1.000  C
  C135     1.0000 0.99337  0.21651  0.79480  Biso   1.000  C
  C136     1.0000 0.81647  0.08061  0.87693  Biso   1.000  C
  N77      1.0000 0.96747  0.32909  0.75567  Biso   1.000  N
  O24      1.0000 0.82363  0.45058  0.79054  Biso   1.000  O
  N78      1.0000 0.96744  0.32899  0.75575  Biso   1.000  N
  O25      1.0000 0.82355  0.45058  0.79054  Biso   1.000  O
  C137     1.0000 0.34319  0.73487  0.79378  Biso   1.000  C
  C138     1.0000 0.34319  0.73479  0.79378  Biso   1.000  C
  C139     1.0000 0.39786  0.88542  0.85723  Biso   1.000  C
  N79      1.0000 0.24027  0.74729  0.76347  Biso   1.000  N
  O26      1.0000 0.07597  0.84869  0.78794  Biso   1.000  O
  C140     1.0000 0.34405  0.60965  0.93872  Biso   1.000  C
  N80      1.0000 0.08300  0.20753  0.84142  Biso   1.000  N
  O27      1.0000 0.10139  0.13939  0.99228  Biso   1.000  O
  C141     1.0000 0.02136  0.15067  0.72060  Biso   1.000  C
  H151     1.0000 0.86326  0.01730  0.87881  Biso   1.000  H
  H152     1.0000 0.79872  0.10040  0.81739  Biso   1.000  H
  H153     1.0000 0.74657  0.06487  0.93020  Biso   1.000  H
  H154     1.0000 0.86327  0.01722  0.87881  Biso   1.000  H
  H155     1.0000 0.79873  0.10032  0.81739  Biso   1.000  H
  H156     1.0000 0.79864  0.10040  0.81739  Biso   1.000  H
  H157     1.0000 0.79865  0.10032  0.81739  Biso   1.000  H
  C142     1.0000 0.03817  0.40233  0.66754  Biso   1.000  C
  N81      1.0000 0.36039  0.62305  0.84272  Biso   1.000  N
  C143     1.0000 0.45231  0.78679  0.70782  Biso   1.000  C
  C144     1.0000 0.45223  0.78679  0.70782  Biso   1.000  C
  H158     1.0000 0.47127  0.85453  0.85701  Biso   1.000  H
  H159     1.0000 0.40499  0.93550  0.79559  Biso   1.000  H
  H160     1.0000 0.37200  0.92365  0.90682  Biso   1.000  H
  C145     1.0000 0.23313  0.72075  0.67851  Biso   1.000  C
  C146     1.0000 0.23305  0.72067  0.67851  Biso   1.000  C
  C147     1.0000 0.23305  0.72075  0.67851  Biso   1.000  C
  O28      1.0000 0.36043  0.52594  0.99437  Biso   1.000  O
  O29      1.0000 0.36035  0.52594  0.99437  Biso   1.000  O
  C148     1.0000 0.20402  0.22846  0.79147  Biso   1.000  C
  C149     1.0000 0.20399  0.22844  0.79155  Biso   1.000  C
  C150     1.0000 0.20394  0.22846  0.79147  Biso   1.000  C
  C151     1.0000 0.20391  0.22844  0.79155  Biso   1.000  C
  H161     1.0000 0.95705  0.15036  0.69764  Biso   1.000  H
  H162     1.0000 0.03736  0.07695  0.74968  Biso   1.000  H
  H163     1.0000 0.08735  0.18275  0.66762  Biso   1.000  H
  H164     1.0000 0.98856  0.45376  0.63990  Biso   1.000  H
  H165     1.0000 0.07463  0.35984  0.62171  Biso   1.000  H
  N82      1.0000 0.12647  0.46340  0.67873  Biso   1.000  N
  H166     1.0000 0.07454  0.35984  0.62171  Biso   1.000  H
  C152     1.0000 0.41389  0.54131  0.79480  Biso   1.000  C
  H167     1.0000 0.43690  0.86051  0.67844  Biso   1.000  H
  H168     1.0000 0.51586  0.78682  0.73171  Biso   1.000  H
  H169     1.0000 0.47060  0.74485  0.66090  Biso   1.000  H
  H170     1.0000 0.47060  0.74477  0.66090  Biso   1.000  H
  H171     1.0000 0.43682  0.86051  0.67844  Biso   1.000  H
  N83      1.0000 0.21338  0.60597  0.68956  Biso   1.000  N
  N84      1.0000 0.21338  0.60589  0.68956  Biso   1.000  N
  H172     1.0000 0.30414  0.74482  0.62647  Biso   1.000  H
  H173     1.0000 0.17140  0.76164  0.65939  Biso   1.000  H
  H174     1.0000 0.30403  0.74480  0.62655  Biso   1.000  H
  H175     1.0000 0.30406  0.74482  0.62647  Biso   1.000  H
  H176     1.0000 0.22381  0.20414  0.73294  Biso   1.000  H
  H177     1.0000 0.24671  0.18513  0.83190  Biso   1.000  H
  N85      1.0000 0.24051  0.34273  0.76628  Biso   1.000  N
  H178     1.0000 0.22373  0.20414  0.73294  Biso   1.000  H
  H179     1.0000 0.24663  0.18513  0.83190  Biso   1.000  H
  C153     1.0000 0.23946  0.42268  0.67758  Biso   1.000  C
  C154     1.0000 0.23944  0.42258  0.67765  Biso   1.000  C
  C155     1.0000 0.11463  0.56952  0.68299  Biso   1.000  C
  C156     1.0000 0.11455  0.56952  0.68299  Biso   1.000  C
  N86      1.0000 0.33878  0.48362  0.76585  Biso   1.000  N
  H180     1.0000 0.44730  0.48843  0.83738  Biso   1.000  H
  H181     1.0000 0.47631  0.57571  0.73792  Biso   1.000  H
  H182     1.0000 0.47623  0.57571  0.73792  Biso   1.000  H
  C157     1.0000 0.30349  0.52471  0.68017  Biso   1.000  C
  C158     1.0000 0.30346  0.52469  0.68025  Biso   1.000  C
  C159     1.0000 0.30392  0.37792  0.81248  Biso   1.000  C
  C160     1.0000 0.30383  0.37792  0.81248  Biso   1.000  C
  C161     1.0000 0.30494  0.37834  0.58923  Biso   1.000  C
  O30      1.0000 0.03086  0.62616  0.67830  Biso   1.000  O
  O31      1.0000 0.03086  0.62608  0.67830  Biso   1.000  O
  C162     1.0000 0.40596  0.56629  0.58959  Biso   1.000  C
  O32      1.0000 0.32966  0.32326  0.88192  Biso   1.000  O
  H183     1.0000 0.37896  0.35382  0.59370  Biso   1.000  H
  H184     1.0000 0.31457  0.43535  0.53091  Biso   1.000  H
  H185     1.0000 0.26190  0.31824  0.58822  Biso   1.000  H
  H186     1.0000 0.31457  0.43528  0.53091  Biso   1.000  H
  H187     1.0000 0.26182  0.31824  0.58822  Biso   1.000  H
  H188     1.0000 0.37917  0.59274  0.53481  Biso   1.000  H
  H189     1.0000 0.45781  0.50775  0.57949  Biso   1.000  H
  H190     1.0000 0.44522  0.62466  0.59760  Biso   1.000  H
  H191     1.0000 0.44522  0.62458  0.59760  Biso   1.000  H
  H192     1.0000 0.45773  0.50775  0.57949  Biso   1.000  H
  H193     1.0000 0.44514  0.62466  0.59760  Biso   1.000  H
  H194     1.0000 0.44514  0.62458  0.59760  Biso   1.000  H
  C163     1.0000 0.69613  0.62204  0.18752  Biso   1.000  C
  N87      1.0000 0.66126  0.51642  0.23415  Biso   1.000  N
  N88      1.0000 0.66124  0.51640  0.23422  Biso   1.000  N
  N89      1.0000 0.66118  0.51642  0.23415  Biso   1.000  N
  N90      1.0000 0.66115  0.51640  0.23422  Biso   1.000  N
  O33      1.0000 0.67030  0.67678  0.11808  Biso   1.000  O
  N91      1.0000 0.75953  0.65732  0.23372  Biso   1.000  N
  N92      1.0000 0.75954  0.65724  0.23372  Biso   1.000  N
  N93      1.0000 0.75945  0.65732  0.23372  Biso   1.000  N
  N94      1.0000 0.75946  0.65724  0.23372  Biso   1.000  N
  C164     1.0000 0.58614  0.45873  0.20520  Biso   1.000  C
  C165     1.0000 0.58615  0.45865  0.20520  Biso   1.000  C
  C166     1.0000 0.58606  0.45873  0.20520  Biso   1.000  C
  C167     1.0000 0.58607  0.45865  0.20520  Biso   1.000  C
  C168     1.0000 0.69655  0.47533  0.31983  Biso   1.000  C
  C169     1.0000 0.69647  0.47525  0.31983  Biso   1.000  C
  C170     1.0000 0.69647  0.47533  0.31983  Biso   1.000  C
  C171     1.0000 0.69612  0.62212  0.18752  Biso   1.000  C
  C172     1.0000 0.69605  0.62204  0.18752  Biso   1.000  C
  C173     1.0000 0.76050  0.57736  0.32242  Biso   1.000  C
  C174     1.0000 0.79602  0.77158  0.20853  Biso   1.000  C
  N95      1.0000 0.63965  0.37699  0.15728  Biso   1.000  N
  N96      1.0000 0.63957  0.37699  0.15728  Biso   1.000  N
  H195     1.0000 0.52373  0.42433  0.26208  Biso   1.000  H
  H196     1.0000 0.55274  0.51161  0.16262  Biso   1.000  H
  H197     1.0000 0.55274  0.51154  0.16262  Biso   1.000  H
  H198     1.0000 0.55265  0.51161  0.16262  Biso   1.000  H
  H199     1.0000 0.55266  0.51154  0.16262  Biso   1.000  H
  N97      1.0000 0.78658  0.39407  0.31044  Biso   1.000  N
  C175     1.0000 0.59400  0.43375  0.41041  Biso   1.000  C
  C176     1.0000 0.59400  0.43367  0.41041  Biso   1.000  C
  N98      1.0000 0.87357  0.53665  0.32127  Biso   1.000  N
  N99      1.0000 0.87349  0.53657  0.32127  Biso   1.000  N
  N100     1.0000 0.87348  0.53665  0.32127  Biso   1.000  N
  C177     1.0000 0.69502  0.62170  0.41077  Biso   1.000  C
  H200     1.0000 0.77623  0.79590  0.26706  Biso   1.000  H
  H201     1.0000 0.75333  0.81491  0.16810  Biso   1.000  H
  N101     1.0000 0.91704  0.79251  0.15858  Biso   1.000  N
  H202     1.0000 0.77620  0.79588  0.26713  Biso   1.000  H
  H203     1.0000 0.75333  0.81483  0.16810  Biso   1.000  H
  N102     1.0000 0.91705  0.79243  0.15858  Biso   1.000  N
  N103     1.0000 0.91696  0.79251  0.15858  Biso   1.000  N
  N104     1.0000 0.91697  0.79243  0.15858  Biso   1.000  N
  C178     1.0000 0.65677  0.26517  0.20622  Biso   1.000  C
  C179     1.0000 0.65591  0.39039  0.06128  Biso   1.000  C
  C180     1.0000 0.76691  0.27929  0.32149  Biso   1.000  C
  C181     1.0000 0.88541  0.43052  0.31701  Biso   1.000  C
  H204     1.0000 0.62079  0.40730  0.46519  Biso   1.000  H
  H205     1.0000 0.54223  0.49229  0.42051  Biso   1.000  H
  H206     1.0000 0.55482  0.37538  0.40240  Biso   1.000  H
  C182     1.0000 0.96187  0.59772  0.33246  Biso   1.000  C
  C183     1.0000 0.96176  0.59769  0.33253  Biso   1.000  C
  C184     1.0000 0.96179  0.59772  0.33246  Biso   1.000  C
  H207     1.0000 0.62100  0.64622  0.40630  Biso   1.000  H
  H208     1.0000 0.68539  0.56469  0.46909  Biso   1.000  H
  H209     1.0000 0.73814  0.68180  0.41178  Biso   1.000  H
  C185     1.0000 0.00659  0.78345  0.20520  Biso   1.000  C
  C186     1.0000 0.95741  0.83630  0.06099  Biso   1.000  C
  C187     1.0000 0.95741  0.83622  0.06099  Biso   1.000  C
  C188     1.0000 0.68822  0.20507  0.12371  Biso   1.000  C
  C189     1.0000 0.68814  0.20507  0.12371  Biso   1.000  C
  C190     1.0000 0.54773  0.21326  0.29218  Biso   1.000  C
  N105     1.0000 0.75969  0.25275  0.23653  Biso   1.000  N
  C191     1.0000 0.54774  0.21318  0.29218  Biso   1.000  C
  N106     1.0000 0.75967  0.25265  0.23660  Biso   1.000  N
  N107     1.0000 0.69139  0.29392  0.03862  Biso   1.000  N
  N108     1.0000 0.69139  0.29384  0.03862  Biso   1.000  N
  O34      1.0000 0.63961  0.47410  0.00563  Biso   1.000  O
  H210     1.0000 0.69590  0.25522  0.37353  Biso   1.000  H
  H211     1.0000 0.82864  0.23840  0.34061  Biso   1.000  H
  H212     1.0000 0.82856  0.23840  0.34061  Biso   1.000  H
  O35      1.0000 0.96910  0.37389  0.32170  Biso   1.000  O
  H213     1.0000 0.92541  0.64020  0.37829  Biso   1.000  H
  H214     1.0000 0.01140  0.54629  0.36010  Biso   1.000  H
  N109     1.0000 0.03249  0.67095  0.24433  Biso   1.000  N
  C192     1.0000 0.97860  0.84937  0.27940  Biso   1.000  C
  C193     1.0000 0.11860  0.82477  0.11606  Biso   1.000  C
  C194     1.0000 0.11857  0.82475  0.11614  Biso   1.000  C
  O36      1.0000 0.89865  0.86065  0.00772  Biso   1.000  O
  O37      1.0000 0.89857  0.86065  0.00772  Biso   1.000  O
  N110     1.0000 0.07350  0.85355  0.03414  Biso   1.000  N
  C195     1.0000 0.60210  0.11463  0.14277  Biso   1.000  C
  N111     1.0000 0.80083  0.16248  0.12278  Biso   1.000  N
  N112     1.0000 0.80075  0.16248  0.12278  Biso   1.000  N
  H215     1.0000 0.48410  0.21322  0.26829  Biso   1.000  H
  H216     1.0000 0.52944  0.25519  0.33910  Biso   1.000  H
  H217     1.0000 0.56314  0.13953  0.32156  Biso   1.000  H
  H218     1.0000 0.56311  0.13951  0.32163  Biso   1.000  H
  H219     1.0000 0.52936  0.25519  0.33910  Biso   1.000  H
  C196     1.0000 0.83789  0.18619  0.19149  Biso   1.000  C
  C197     1.0000 0.69739  0.27835  0.94558  Biso   1.000  C
  C198     1.0000 0.13579  0.64039  0.19200  Biso   1.000  C
  H220     1.0000 0.96259  0.92310  0.25032  Biso   1.000  H
  H221     1.0000 0.91260  0.81729  0.33238  Biso   1.000  H
  H222     1.0000 0.04291  0.84968  0.30236  Biso   1.000  H
  H223     1.0000 0.04288  0.84966  0.30243  Biso   1.000  H
  N113     1.0000 0.18723  0.72709  0.11801  Biso   1.000  N
  N114     1.0000 0.18714  0.72709  0.11801  Biso   1.000  N
  C199     1.0000 0.18349  0.91935  0.12307  Biso   1.000  C
  C200     1.0000 0.18346  0.91933  0.12314  Biso   1.000  C
  C201     1.0000 0.13700  0.90859  0.93533  Biso   1.000  C
  H224     1.0000 0.52868  0.14551  0.14299  Biso   1.000  H
  H225     1.0000 0.59505  0.06454  0.20441  Biso   1.000  H
  H226     1.0000 0.62804  0.07640  0.09318  Biso   1.000  H
  H227     1.0000 0.59497  0.06446  0.20441  Biso   1.000  H
  H228     1.0000 0.59496  0.06454  0.20441  Biso   1.000  H
  H229     1.0000 0.62796  0.07640  0.09318  Biso   1.000  H
  C202     1.0000 0.86304  0.09137  0.06467  Biso   1.000  C
  C203     1.0000 0.86296  0.09137  0.06467  Biso   1.000  C
  O38      1.0000 0.92399  0.15128  0.21206  Biso   1.000  O
  H230     1.0000 0.65594  0.21114  0.95619  Biso   1.000  H
  H231     1.0000 0.65880  0.33797  0.91367  Biso   1.000  H
  N115     1.0000 0.81281  0.27295  0.88199  Biso   1.000  N
  H232     1.0000 0.65877  0.33795  0.91375  Biso   1.000  H
  H233     1.0000 0.65586  0.21114  0.95619  Biso   1.000  H
  O39      1.0000 0.17641  0.54946  0.20946  Biso   1.000  O
  C204     1.0000 0.30256  0.72169  0.05442  Biso   1.000  C
  C205     1.0000 0.30257  0.72162  0.05442  Biso   1.000  C
  H234     1.0000 0.13669  0.98274  0.12119  Biso   1.000  H
  H235     1.0000 0.20132  0.89964  0.18261  Biso   1.000  H
  H236     1.0000 0.25339  0.93517  0.06980  Biso   1.000  H
  H237     1.0000 0.19113  0.96063  0.93612  Biso   1.000  H
  H238     1.0000 0.08360  0.94960  0.90472  Biso   1.000  H
  N116     1.0000 0.19920  0.83757  0.87722  Biso   1.000  N
  H239     1.0000 0.19105  0.96063  0.93612  Biso   1.000  H
  H240     1.0000 0.80891  0.03942  0.06388  Biso   1.000  H
  N117     1.0000 0.92646  0.14649  0.96586  Biso   1.000  N
  N118     1.0000 0.92646  0.14641  0.96586  Biso   1.000  N
  H241     1.0000 0.91644  0.05044  0.09528  Biso   1.000  H
  H242     1.0000 0.91644  0.05036  0.09528  Biso   1.000  H
  H243     1.0000 0.91636  0.05044  0.09528  Biso   1.000  H
  H244     1.0000 0.91636  0.05036  0.09528  Biso   1.000  H
  C206     1.0000 0.88136  0.17528  0.88394  Biso   1.000  C
  C207     1.0000 0.86417  0.35965  0.80800  Biso   1.000  C
  N119     1.0000 0.30857  0.70612  0.96138  Biso   1.000  N
  H245     1.0000 0.34410  0.78890  0.04381  Biso   1.000  H
  H246     1.0000 0.34116  0.66207  0.08633  Biso   1.000  H
  H247     1.0000 0.34410  0.78883  0.04381  Biso   1.000  H
  C208     1.0000 0.16207  0.81385  0.80851  Biso   1.000  C
  C209     1.0000 0.31182  0.79497  0.87629  Biso   1.000  C
  C210     1.0000 0.31182  0.79489  0.87629  Biso   1.000  C
  C211     1.0000 0.31174  0.79489  0.87629  Biso   1.000  C
  C212     1.0000 0.04263  0.16374  0.93901  Biso   1.000  C
  C213     1.0000 0.04255  0.16374  0.93901  Biso   1.000  C
  C214     1.0000 0.99337  0.21659  0.79480  Biso   1.000  C
  C215     1.0000 0.81647  0.08069  0.87693  Biso   1.000  C
  C216     1.0000 0.99337  0.21651  0.79480  Biso   1.000  C
  C217     1.0000 0.81647  0.08061  0.87693  Biso   1.000  C
  N120     1.0000 0.96747  0.32909  0.75567  Biso   1.000  N
  O40      1.0000 0.82363  0.45058  0.79054  Biso   1.000  O
  N121     1.0000 0.96744  0.32899  0.75575  Biso   1.000  N
  O41      1.0000 0.82355  0.45058  0.79054  Biso   1.000  O
  C218     1.0000 0.34405  0.60965  0.93872  Biso   1.000  C
  N122     1.0000 0.24027  0.74729  0.76347  Biso   1.000  N
  O42      1.0000 0.07597  0.84869  0.78794  Biso   1.000  O
  C219     1.0000 0.34319  0.73487  0.79378  Biso   1.000  C
  C220     1.0000 0.34319  0.73479  0.79378  Biso   1.000  C
  C221     1.0000 0.39786  0.88542  0.85723  Biso   1.000  C
  N123     1.0000 0.08300  0.20753  0.84142  Biso   1.000  N
  O43      1.0000 0.10139  0.13939  0.99228  Biso   1.000  O
  C222     1.0000 0.02136  0.15067  0.72060  Biso   1.000  C
  H248     1.0000 0.86326  0.01730  0.87881  Biso   1.000  H
  H249     1.0000 0.79872  0.10040  0.81739  Biso   1.000  H
  H250     1.0000 0.74657  0.06487  0.93020  Biso   1.000  H
  H251     1.0000 0.86327  0.01722  0.87881  Biso   1.000  H
  H252     1.0000 0.79873  0.10032  0.81739  Biso   1.000  H
  H253     1.0000 0.79864  0.10040  0.81739  Biso   1.000  H
  H254     1.0000 0.79865  0.10032  0.81739  Biso   1.000  H
  C223     1.0000 0.03817  0.40233  0.66754  Biso   1.000  C
  N124     1.0000 0.36039  0.62305  0.84272  Biso   1.000  N
  O44      1.0000 0.36043  0.52594  0.99437  Biso   1.000  O
  O45      1.0000 0.36035  0.52594  0.99437  Biso   1.000  O
  C224     1.0000 0.23313  0.72075  0.67851  Biso   1.000  C
  C225     1.0000 0.23305  0.72067  0.67851  Biso   1.000  C
  C226     1.0000 0.23305  0.72075  0.67851  Biso   1.000  C
  C227     1.0000 0.45231  0.78679  0.70782  Biso   1.000  C
  C228     1.0000 0.45223  0.78679  0.70782  Biso   1.000  C
  H255     1.0000 0.47127  0.85453  0.85701  Biso   1.000  H
  H256     1.0000 0.40499  0.93550  0.79559  Biso   1.000  H
  H257     1.0000 0.37200  0.92365  0.90682  Biso   1.000  H
  C229     1.0000 0.20402  0.22846  0.79147  Biso   1.000  C
  C230     1.0000 0.20399  0.22844  0.79155  Biso   1.000  C
  C231     1.0000 0.20394  0.22846  0.79147  Biso   1.000  C
  C232     1.0000 0.20391  0.22844  0.79155  Biso   1.000  C
  H258     1.0000 0.95705  0.15036  0.69764  Biso   1.000  H
  H259     1.0000 0.03736  0.07695  0.74968  Biso   1.000  H
  H260     1.0000 0.08735  0.18275  0.66762  Biso   1.000  H
  H261     1.0000 0.98856  0.45376  0.63990  Biso   1.000  H
  H262     1.0000 0.07463  0.35984  0.62171  Biso   1.000  H
  N125     1.0000 0.12647  0.46340  0.67873  Biso   1.000  N
  H263     1.0000 0.07454  0.35984  0.62171  Biso   1.000  H
  C233     1.0000 0.41389  0.54131  0.79480  Biso   1.000  C
  N126     1.0000 0.21338  0.60597  0.68956  Biso   1.000  N
  N127     1.0000 0.21338  0.60589  0.68956  Biso   1.000  N
  H264     1.0000 0.30414  0.74482  0.62647  Biso   1.000  H
  H265     1.0000 0.17140  0.76164  0.65939  Biso   1.000  H
  H266     1.0000 0.30403  0.74480  0.62655  Biso   1.000  H
  H267     1.0000 0.30406  0.74482  0.62647  Biso   1.000  H
  H268     1.0000 0.43690  0.86051  0.67844  Biso   1.000  H
  H269     1.0000 0.51586  0.78682  0.73171  Biso   1.000  H
  H270     1.0000 0.47060  0.74485  0.66090  Biso   1.000  H
  H271     1.0000 0.47060  0.74477  0.66090  Biso   1.000  H
  H272     1.0000 0.43682  0.86051  0.67844  Biso   1.000  H
  H273     1.0000 0.22381  0.20414  0.73294  Biso   1.000  H
  H274     1.0000 0.24671  0.18513  0.83190  Biso   1.000  H
  N128     1.0000 0.24051  0.34273  0.76628  Biso   1.000  N
  H275     1.0000 0.22373  0.20414  0.73294  Biso   1.000  H
  H276     1.0000 0.24663  0.18513  0.83190  Biso   1.000  H
  C234     1.0000 0.23946  0.42268  0.67758  Biso   1.000  C
  C235     1.0000 0.23944  0.42258  0.67765  Biso   1.000  C
  C236     1.0000 0.11463  0.56952  0.68299  Biso   1.000  C
  C237     1.0000 0.11455  0.56952  0.68299  Biso   1.000  C
  N129     1.0000 0.33878  0.48362  0.76585  Biso   1.000  N
  H277     1.0000 0.44730  0.48843  0.83738  Biso   1.000  H
  H278     1.0000 0.47631  0.57571  0.73792  Biso   1.000  H
  H279     1.0000 0.47623  0.57571  0.73792  Biso   1.000  H
  C238     1.0000 0.30349  0.52471  0.68017  Biso   1.000  C
  C239     1.0000 0.30346  0.52469  0.68025  Biso   1.000  C
  C240     1.0000 0.30392  0.37792  0.81248  Biso   1.000  C
  C241     1.0000 0.30383  0.37792  0.81248  Biso   1.000  C
  C242     1.0000 0.30494  0.37834  0.58923  Biso   1.000  C
  O46      1.0000 0.03086  0.62616  0.67830  Biso   1.000  O
  O47      1.0000 0.03086  0.62608  0.67830  Biso   1.000  O
  C243     1.0000 0.40596  0.56629  0.58959  Biso   1.000  C
  O48      1.0000 0.32966  0.32326  0.88192  Biso   1.000  O
  H280     1.0000 0.37896  0.35382  0.59370  Biso   1.000  H
  H281     1.0000 0.31457  0.43535  0.53091  Biso   1.000  H
  H282     1.0000 0.26190  0.31824  0.58822  Biso   1.000  H
  H283     1.0000 0.31457  0.43528  0.53091  Biso   1.000  H
  H284     1.0000 0.26182  0.31824  0.58822  Biso   1.000  H
  H285     1.0000 0.37917  0.59274  0.53481  Biso   1.000  H
  H286     1.0000 0.45781  0.50775  0.57949  Biso   1.000  H
  H287     1.0000 0.44522  0.62466  0.59760  Biso   1.000  H
  H288     1.0000 0.44522  0.62458  0.59760  Biso   1.000  H
  H289     1.0000 0.45773  0.50775  0.57949  Biso   1.000  H
  H290     1.0000 0.44514  0.62466  0.59760  Biso   1.000  H
  H291     1.0000 0.44514  0.62458  0.59760  Biso   1.000  H
  C244     1.0000 0.69613  0.62204  0.18752  Biso   1.000  C
  N130     1.0000 0.66126  0.51642  0.23415  Biso   1.000  N
  N131     1.0000 0.66124  0.51640  0.23422  Biso   1.000  N
  N132     1.0000 0.66118  0.51642  0.23415  Biso   1.000  N
  N133     1.0000 0.66115  0.51640  0.23422  Biso   1.000  N
  O49      1.0000 0.67030  0.67678  0.11808  Biso   1.000  O
  N134     1.0000 0.75953  0.65732  0.23372  Biso   1.000  N
  N135     1.0000 0.75954  0.65724  0.23372  Biso   1.000  N
  N136     1.0000 0.75945  0.65732  0.23372  Biso   1.000  N
  N137     1.0000 0.75946  0.65724  0.23372  Biso   1.000  N
  C245     1.0000 0.58614  0.45873  0.20520  Biso   1.000  C
  C246     1.0000 0.58615  0.45865  0.20520  Biso   1.000  C
  C247     1.0000 0.58606  0.45873  0.20520  Biso   1.000  C
  C248     1.0000 0.58607  0.45865  0.20520  Biso   1.000  C
  C249     1.0000 0.69655  0.47533  0.31983  Biso   1.000  C
  C250     1.0000 0.69647  0.47525  0.31983  Biso   1.000  C
  C251     1.0000 0.69647  0.47533  0.31983  Biso   1.000  C
  C252     1.0000 0.69612  0.62212  0.18752  Biso   1.000  C
  C253     1.0000 0.69605  0.62204  0.18752  Biso   1.000  C
  C254     1.0000 0.76050  0.57736  0.32242  Biso   1.000  C
  C255     1.0000 0.79602  0.77158  0.20853  Biso   1.000  C
  N138     1.0000 0.63965  0.37699  0.15728  Biso   1.000  N
  N139     1.0000 0.63957  0.37699  0.15728  Biso   1.000  N
  H292     1.0000 0.52373  0.42433  0.26208  Biso   1.000  H
  H293     1.0000 0.55274  0.51161  0.16262  Biso   1.000  H
  H294     1.0000 0.55274  0.51154  0.16262  Biso   1.000  H
  H295     1.0000 0.55265  0.51161  0.16262  Biso   1.000  H
  H296     1.0000 0.55266  0.51154  0.16262  Biso   1.000  H
  N140     1.0000 0.78658  0.39407  0.31044  Biso   1.000  N
  C256     1.0000 0.59400  0.43375  0.41041  Biso   1.000  C
  C257     1.0000 0.59400  0.43367  0.41041  Biso   1.000  C
  N141     1.0000 0.87357  0.53665  0.32127  Biso   1.000  N
  N142     1.0000 0.87349  0.53657  0.32127  Biso   1.000  N
  N143     1.0000 0.87348  0.53665  0.32127  Biso   1.000  N
  C258     1.0000 0.69502  0.62170  0.41077  Biso   1.000  C
  H297     1.0000 0.77623  0.79590  0.26706  Biso   1.000  H
  H298     1.0000 0.75333  0.81491  0.16810  Biso   1.000  H
  N144     1.0000 0.91704  0.79251  0.15858  Biso   1.000  N
  H299     1.0000 0.77620  0.79588  0.26713  Biso   1.000  H
  H300     1.0000 0.75333  0.81483  0.16810  Biso   1.000  H
  N145     1.0000 0.91705  0.79243  0.15858  Biso   1.000  N
  N146     1.0000 0.91696  0.79251  0.15858  Biso   1.000  N
  N147     1.0000 0.91697  0.79243  0.15858  Biso   1.000  N
  C259     1.0000 0.65677  0.26517  0.20622  Biso   1.000  C
  C260     1.0000 0.65591  0.39039  0.06128  Biso   1.000  C
  C261     1.0000 0.76691  0.27929  0.32149  Biso   1.000  C
  C262     1.0000 0.88541  0.43052  0.31701  Biso   1.000  C
  H301     1.0000 0.62079  0.40730  0.46519  Biso   1.000  H
  H302     1.0000 0.54223  0.49229  0.42051  Biso   1.000  H
  H303     1.0000 0.55482  0.37538  0.40240  Biso   1.000  H
  C263     1.0000 0.96187  0.59772  0.33246  Biso   1.000  C
  C264     1.0000 0.96176  0.59769  0.33253  Biso   1.000  C
  C265     1.0000 0.96179  0.59772  0.33246  Biso   1.000  C
  H304     1.0000 0.62100  0.64622  0.40630  Biso   1.000  H
  H305     1.0000 0.68539  0.56469  0.46909  Biso   1.000  H
  H306     1.0000 0.73814  0.68180  0.41178  Biso   1.000  H
  C266     1.0000 0.00659  0.78345  0.20520  Biso   1.000  C
  C267     1.0000 0.95741  0.83630  0.06099  Biso   1.000  C
  C268     1.0000 0.95741  0.83622  0.06099  Biso   1.000  C
  C269     1.0000 0.68822  0.20507  0.12371  Biso   1.000  C
  C270     1.0000 0.68814  0.20507  0.12371  Biso   1.000  C
  C271     1.0000 0.54773  0.21326  0.29218  Biso   1.000  C
  N148     1.0000 0.75969  0.25275  0.23653  Biso   1.000  N
  C272     1.0000 0.54774  0.21318  0.29218  Biso   1.000  C
  N149     1.0000 0.75967  0.25265  0.23660  Biso   1.000  N
  N150     1.0000 0.69139  0.29392  0.03862  Biso   1.000  N
  N151     1.0000 0.69139  0.29384  0.03862  Biso   1.000  N
  O50      1.0000 0.63961  0.47410  0.00563  Biso   1.000  O
  H307     1.0000 0.69590  0.25522  0.37353  Biso   1.000  H
  H308     1.0000 0.82864  0.23840  0.34061  Biso   1.000  H
  H309     1.0000 0.82856  0.23840  0.34061  Biso   1.000  H
  O51      1.0000 0.96910  0.37389  0.32170  Biso   1.000  O
  H310     1.0000 0.92541  0.64020  0.37829  Biso   1.000  H
  H311     1.0000 0.01140  0.54629  0.36010  Biso   1.000  H
  N152     1.0000 0.03249  0.67095  0.24433  Biso   1.000  N
  C273     1.0000 0.97860  0.84937  0.27940  Biso   1.000  C
  C274     1.0000 0.11860  0.82477  0.11606  Biso   1.000  C
  C275     1.0000 0.11857  0.82475  0.11614  Biso   1.000  C
  O52      1.0000 0.89865  0.86065  0.00772  Biso   1.000  O
  O53      1.0000 0.89857  0.86065  0.00772  Biso   1.000  O
  N153     1.0000 0.07350  0.85355  0.03414  Biso   1.000  N
  C276     1.0000 0.60210  0.11463  0.14277  Biso   1.000  C
  N154     1.0000 0.80083  0.16248  0.12278  Biso   1.000  N
  N155     1.0000 0.80075  0.16248  0.12278  Biso   1.000  N
  H312     1.0000 0.48410  0.21322  0.26829  Biso   1.000  H
  H313     1.0000 0.56314  0.13953  0.32156  Biso   1.000  H
  H314     1.0000 0.52944  0.25519  0.33910  Biso   1.000  H
  H315     1.0000 0.56311  0.13951  0.32163  Biso   1.000  H
  H316     1.0000 0.52936  0.25519  0.33910  Biso   1.000  H
  C277     1.0000 0.83789  0.18619  0.19149  Biso   1.000  C
  C278     1.0000 0.69739  0.27835  0.94558  Biso   1.000  C
  C279     1.0000 0.13579  0.64039  0.19200  Biso   1.000  C
  H317     1.0000 0.96259  0.92310  0.25032  Biso   1.000  H
  H318     1.0000 0.91260  0.81729  0.33238  Biso   1.000  H
  H319     1.0000 0.04291  0.84968  0.30236  Biso   1.000  H
  H320     1.0000 0.04288  0.84966  0.30243  Biso   1.000  H
  N156     1.0000 0.18723  0.72709  0.11801  Biso   1.000  N
  N157     1.0000 0.18714  0.72709  0.11801  Biso   1.000  N
  C280     1.0000 0.18349  0.91935  0.12307  Biso   1.000  C
  C281     1.0000 0.18346  0.91933  0.12314  Biso   1.000  C
  C282     1.0000 0.13700  0.90859  0.93533  Biso   1.000  C
  H321     1.0000 0.52868  0.14551  0.14299  Biso   1.000  H
  H322     1.0000 0.59505  0.06454  0.20441  Biso   1.000  H
  H323     1.0000 0.62804  0.07640  0.09318  Biso   1.000  H
  H324     1.0000 0.59497  0.06446  0.20441  Biso   1.000  H
  H325     1.0000 0.59496  0.06454  0.20441  Biso   1.000  H
  H326     1.0000 0.62796  0.07640  0.09318  Biso   1.000  H
  C283     1.0000 0.86304  0.09137  0.06467  Biso   1.000  C
  C284     1.0000 0.86296  0.09137  0.06467  Biso   1.000  C
  O54      1.0000 0.92399  0.15128  0.21206  Biso   1.000  O
  H327     1.0000 0.65594  0.21114  0.95619  Biso   1.000  H
  H328     1.0000 0.65880  0.33797  0.91367  Biso   1.000  H
  N158     1.0000 0.81281  0.27295  0.88199  Biso   1.000  N
  H329     1.0000 0.65877  0.33795  0.91375  Biso   1.000  H
  H330     1.0000 0.65586  0.21114  0.95619  Biso   1.000  H
  O55      1.0000 0.17641  0.54946  0.20946  Biso   1.000  O
  C285     1.0000 0.30256  0.72169  0.05442  Biso   1.000  C
  C286     1.0000 0.30257  0.72162  0.05442  Biso   1.000  C
  H331     1.0000 0.13669  0.98274  0.12119  Biso   1.000  H
  H332     1.0000 0.20132  0.89964  0.18261  Biso   1.000  H
  H333     1.0000 0.25339  0.93517  0.06980  Biso   1.000  H
  H334     1.0000 0.19113  0.96063  0.93612  Biso   1.000  H
  H335     1.0000 0.08360  0.94960  0.90472  Biso   1.000  H
  N159     1.0000 0.19920  0.83757  0.87722  Biso   1.000  N
  H336     1.0000 0.19105  0.96063  0.93612  Biso   1.000  H
  H337     1.0000 0.80891  0.03942  0.06388  Biso   1.000  H
  N160     1.0000 0.92646  0.14649  0.96586  Biso   1.000  N
  N161     1.0000 0.92646  0.14641  0.96586  Biso   1.000  N
  H338     1.0000 0.91644  0.05044  0.09528  Biso   1.000  H
  H339     1.0000 0.91644  0.05036  0.09528  Biso   1.000  H
  H340     1.0000 0.91636  0.05044  0.09528  Biso   1.000  H
  H341     1.0000 0.91636  0.05036  0.09528  Biso   1.000  H
  C287     1.0000 0.88136  0.17528  0.88394  Biso   1.000  C
  C288     1.0000 0.86417  0.35965  0.80800  Biso   1.000  C
  N162     1.0000 0.30857  0.70612  0.96138  Biso   1.000  N
  H342     1.0000 0.34410  0.78890  0.04381  Biso   1.000  H
  H343     1.0000 0.34116  0.66207  0.08633  Biso   1.000  H
  H344     1.0000 0.34410  0.78883  0.04381  Biso   1.000  H
  C289     1.0000 0.16207  0.81385  0.80851  Biso   1.000  C
  C290     1.0000 0.31182  0.79497  0.87629  Biso   1.000  C
  C291     1.0000 0.31182  0.79489  0.87629  Biso   1.000  C
  C292     1.0000 0.31174  0.79489  0.87629  Biso   1.000  C
  C293     1.0000 0.04263  0.16374  0.93901  Biso   1.000  C
  C294     1.0000 0.04255  0.16374  0.93901  Biso   1.000  C
  C295     1.0000 0.99337  0.21659  0.79480  Biso   1.000  C
  C296     1.0000 0.81647  0.08069  0.87693  Biso   1.000  C
  C297     1.0000 0.99337  0.21651  0.79480  Biso   1.000  C
  C298     1.0000 0.81647  0.08061  0.87693  Biso   1.000  C
  N163     1.0000 0.96747  0.32909  0.75567  Biso   1.000  N
  O56      1.0000 0.82363  0.45058  0.79054  Biso   1.000  O
  N164     1.0000 0.96744  0.32899  0.75575  Biso   1.000  N
  O57      1.0000 0.82355  0.45058  0.79054  Biso   1.000  O
  C299     1.0000 0.34405  0.60965  0.93872  Biso   1.000  C
  N165     1.0000 0.24027  0.74729  0.76347  Biso   1.000  N
  O58      1.0000 0.07597  0.84869  0.78794  Biso   1.000  O
  C300     1.0000 0.34319  0.73487  0.79378  Biso   1.000  C
  C301     1.0000 0.34319  0.73479  0.79378  Biso   1.000  C
  C302     1.0000 0.39786  0.88542  0.85723  Biso   1.000  C
  N166     1.0000 0.08300  0.20753  0.84142  Biso   1.000  N
  O59      1.0000 0.10139  0.13939  0.99228  Biso   1.000  O
  C303     1.0000 0.02136  0.15067  0.72060  Biso   1.000  C
  H345     1.0000 0.86326  0.01730  0.87881  Biso   1.000  H
  H346     1.0000 0.79872  0.10040  0.81739  Biso   1.000  H
  H347     1.0000 0.74657  0.06487  0.93020  Biso   1.000  H
  H348     1.0000 0.86327  0.01722  0.87881  Biso   1.000  H
  H349     1.0000 0.79873  0.10032  0.81739  Biso   1.000  H
  H350     1.0000 0.79864  0.10040  0.81739  Biso   1.000  H
  H351     1.0000 0.79865  0.10032  0.81739  Biso   1.000  H
  C304     1.0000 0.03817  0.40233  0.66754  Biso   1.000  C
  N167     1.0000 0.36039  0.62305  0.84272  Biso   1.000  N
  O60      1.0000 0.36043  0.52594  0.99437  Biso   1.000  O
  O61      1.0000 0.36035  0.52594  0.99437  Biso   1.000  O
  C305     1.0000 0.23313  0.72075  0.67851  Biso   1.000  C
  C306     1.0000 0.23305  0.72067  0.67851  Biso   1.000  C
  C307     1.0000 0.23305  0.72075  0.67851  Biso   1.000  C
  C308     1.0000 0.45231  0.78679  0.70782  Biso   1.000  C
  C309     1.0000 0.45223  0.78679  0.70782  Biso   1.000  C
  H352     1.0000 0.47127  0.85453  0.85701  Biso   1.000  H
  H353     1.0000 0.40499  0.93550  0.79559  Biso   1.000  H
  H354     1.0000 0.37200  0.92365  0.90682  Biso   1.000  H
  C310     1.0000 0.20402  0.22846  0.79147  Biso   1.000  C
  C311     1.0000 0.20399  0.22844  0.79155  Biso   1.000  C
  C312     1.0000 0.20394  0.22846  0.79147  Biso   1.000  C
  C313     1.0000 0.20391  0.22844  0.79155  Biso   1.000  C
  H355     1.0000 0.95705  0.15036  0.69764  Biso   1.000  H
  H356     1.0000 0.03736  0.07695  0.74968  Biso   1.000  H
  H357     1.0000 0.08735  0.18275  0.66762  Biso   1.000  H
  H358     1.0000 0.98856  0.45376  0.63990  Biso   1.000  H
  H359     1.0000 0.07463  0.35984  0.62171  Biso   1.000  H
  N168     1.0000 0.12647  0.46340  0.67873  Biso   1.000  N
  H360     1.0000 0.07454  0.35984  0.62171  Biso   1.000  H
  C314     1.0000 0.41389  0.54131  0.79480  Biso   1.000  C
  N169     1.0000 0.21338  0.60597  0.68956  Biso   1.000  N
  N170     1.0000 0.21338  0.60589  0.68956  Biso   1.000  N
  H361     1.0000 0.30414  0.74482  0.62647  Biso   1.000  H
  H362     1.0000 0.17140  0.76164  0.65939  Biso   1.000  H
  H363     1.0000 0.30403  0.74480  0.62655  Biso   1.000  H
  H364     1.0000 0.30406  0.74482  0.62647  Biso   1.000  H
  H365     1.0000 0.43690  0.86051  0.67844  Biso   1.000  H
  H366     1.0000 0.51586  0.78682  0.73171  Biso   1.000  H
  H367     1.0000 0.47060  0.74485  0.66090  Biso   1.000  H
  H368     1.0000 0.47060  0.74477  0.66090  Biso   1.000  H
  H369     1.0000 0.43682  0.86051  0.67844  Biso   1.000  H
  H370     1.0000 0.22381  0.20414  0.73294  Biso   1.000  H
  H371     1.0000 0.24671  0.18513  0.83190  Biso   1.000  H
  N171     1.0000 0.24051  0.34273  0.76628  Biso   1.000  N
  H372     1.0000 0.22373  0.20414  0.73294  Biso   1.000  H
  H373     1.0000 0.24663  0.18513  0.83190  Biso   1.000  H
  C315     1.0000 0.23946  0.42268  0.67758  Biso   1.000  C
  C316     1.0000 0.23944  0.42258  0.67765  Biso   1.000  C
  C317     1.0000 0.11463  0.56952  0.68299  Biso   1.000  C
  C318     1.0000 0.11455  0.56952  0.68299  Biso   1.000  C
  N172     1.0000 0.33878  0.48362  0.76585  Biso   1.000  N
  H374     1.0000 0.44730  0.48843  0.83738  Biso   1.000  H
  H375     1.0000 0.47631  0.57571  0.73792  Biso   1.000  H
  H376     1.0000 0.47623  0.57571  0.73792  Biso   1.000  H
  C319     1.0000 0.30349  0.52471  0.68017  Biso   1.000  C
  C320     1.0000 0.30346  0.52469  0.68025  Biso   1.000  C
  C321     1.0000 0.30392  0.37792  0.81248  Biso   1.000  C
  C322     1.0000 0.30383  0.37792  0.81248  Biso   1.000  C
  C323     1.0000 0.30494  0.37834  0.58923  Biso   1.000  C
  O62      1.0000 0.03086  0.62616  0.67830  Biso   1.000  O
  O63      1.0000 0.03086  0.62608  0.67830  Biso   1.000  O
  C324     1.0000 0.40596  0.56629  0.58959  Biso   1.000  C
  O64      1.0000 0.32966  0.32326  0.88192  Biso   1.000  O
  H377     1.0000 0.37896  0.35382  0.59370  Biso   1.000  H
  H378     1.0000 0.31457  0.43535  0.53091  Biso   1.000  H
  H379     1.0000 0.26190  0.31824  0.58822  Biso   1.000  H
  H380     1.0000 0.31457  0.43528  0.53091  Biso   1.000  H
  H381     1.0000 0.26182  0.31824  0.58822  Biso   1.000  H
  H382     1.0000 0.37917  0.59274  0.53481  Biso   1.000  H
  H383     1.0000 0.45781  0.50775  0.57949  Biso   1.000  H
  H384     1.0000 0.44522  0.62466  0.59760  Biso   1.000  H
  H385     1.0000 0.44522  0.62458  0.59760  Biso   1.000  H
  H386     1.0000 0.45773  0.50775  0.57949  Biso   1.000  H
  H387     1.0000 0.44514  0.62466  0.59760  Biso   1.000  H
  H388     1.0000 0.44514  0.62458  0.59760  Biso   1.000  H
