data_image0
_cell_length_a       17.758
_cell_length_b       17.908
_cell_length_c       18.914
_cell_angle_alpha    88.29
_cell_angle_beta     83.07
_cell_angle_gamma    63.6

_symmetry_space_group_name_H-M    "P 1"
_symmetry_int_tables_number       1

loop_
  _symmetry_equiv_pos_as_xyz
  'x, y, z'

loop_
  _atom_site_label
  _atom_site_occupancy
  _atom_site_fract_x
  _atom_site_fract_y
  _atom_site_fract_z
  _atom_site_thermal_displace_type
  _atom_site_B_iso_or_equiv
  _atom_site_type_symbol
  C1       1.0000 0.45682  0.39611  0.26810  Biso   1.000  C
  N1       1.0000 0.37857  0.42494  0.23699  Biso   1.000  N
  N2       1.0000 0.37860  0.42487  0.23699  Biso   1.000  N
  H1       1.0000 0.45335  0.44022  0.29890  Biso   1.000  H
  H2       1.0000 0.46323  0.34885  0.29762  Biso   1.000  H
  N3       1.0000 0.53137  0.37172  0.21605  Biso   1.000  N
  H3       1.0000 0.45341  0.44022  0.29890  Biso   1.000  H
  H4       1.0000 0.46332  0.34878  0.29762  Biso   1.000  H
  N4       1.0000 0.53139  0.37166  0.21610  Biso   1.000  N
  C2       1.0000 0.34360  0.37310  0.20837  Biso   1.000  C
  C3       1.0000 0.34359  0.37311  0.20843  Biso   1.000  C
  C4       1.0000 0.33377  0.50750  0.22388  Biso   1.000  C
  C5       1.0000 0.45676  0.39611  0.26810  Biso   1.000  C
  C6       1.0000 0.33382  0.50750  0.22393  Biso   1.000  C
  C7       1.0000 0.58106  0.28644  0.19010  Biso   1.000  C
  C8       1.0000 0.57657  0.41834  0.20342  Biso   1.000  C
  C9       1.0000 0.58114  0.28637  0.19010  Biso   1.000  C
  C10      1.0000 0.57660  0.41827  0.20342  Biso   1.000  C
  C11      1.0000 0.32778  0.31799  0.26608  Biso   1.000  C
  C12      1.0000 0.26157  0.44053  0.17758  Biso   1.000  C
  N5       1.0000 0.39445  0.32312  0.14524  Biso   1.000  N
  C13      1.0000 0.26159  0.44047  0.17763  Biso   1.000  C
  C14      1.0000 0.32783  0.31800  0.26613  Biso   1.000  C
  N6       1.0000 0.39453  0.32306  0.14529  Biso   1.000  N
  N7       1.0000 0.26761  0.51828  0.18797  Biso   1.000  N
  N8       1.0000 0.26760  0.51829  0.18802  Biso   1.000  N
  O1       1.0000 0.34831  0.56331  0.24418  Biso   1.000  O
  O2       1.0000 0.34836  0.56331  0.24423  Biso   1.000  O
  N9       1.0000 0.54769  0.26192  0.13389  Biso   1.000  N
  N10      1.0000 0.54771  0.26186  0.13394  Biso   1.000  N
  H5       1.0000 0.59288  0.24714  0.22910  Biso   1.000  H
  C15      1.0000 0.66399  0.28571  0.15110  Biso   1.000  C
  H6       1.0000 0.59291  0.24707  0.22910  Biso   1.000  H
  N11      1.0000 0.65099  0.37063  0.16325  Biso   1.000  N
  O3       1.0000 0.55245  0.48967  0.22590  Biso   1.000  O
  N12      1.0000 0.65102  0.37057  0.16325  Biso   1.000  N
  O4       1.0000 0.55244  0.48968  0.22596  Biso   1.000  O
  H7       1.0000 0.29408  0.35201  0.30710  Biso   1.000  H
  H8       1.0000 0.38096  0.27720  0.27940  Biso   1.000  H
  H9       1.0000 0.29831  0.29018  0.24801  Biso   1.000  H
  H10      1.0000 0.38102  0.27720  0.27940  Biso   1.000  H
  C16      1.0000 0.17785  0.44551  0.21312  Biso   1.000  C
  N13      1.0000 0.27706  0.41263  0.10310  Biso   1.000  N
  C17      1.0000 0.17791  0.44551  0.21312  Biso   1.000  C
  N14      1.0000 0.27714  0.41257  0.10315  Biso   1.000  N
  C18      1.0000 0.35229  0.34522  0.08642  Biso   1.000  C
  C19      1.0000 0.47348  0.24718  0.14492  Biso   1.000  C
  C20      1.0000 0.47354  0.24718  0.14492  Biso   1.000  C
  C21      1.0000 0.20809  0.60120  0.16991  Biso   1.000  C
  C22      1.0000 0.59790  0.24571  0.07012  Biso   1.000  C
  N15      1.0000 0.66369  0.26360  0.07811  Biso   1.000  N
  H11      1.0000 0.71417  0.24489  0.17129  Biso   1.000  H
  H12      1.0000 0.71422  0.24489  0.17129  Biso   1.000  H
  C23      1.0000 0.71917  0.39521  0.14987  Biso   1.000  C
  C24      1.0000 0.71922  0.39521  0.14993  Biso   1.000  C
  H13      1.0000 0.16926  0.46350  0.26192  Biso   1.000  H
  H14      1.0000 0.17896  0.39152  0.21099  Biso   1.000  H
  H15      1.0000 0.13247  0.48464  0.18871  Biso   1.000  H
  H16      1.0000 0.16931  0.46350  0.26192  Biso   1.000  H
  H17      1.0000 0.17902  0.39152  0.21099  Biso   1.000  H
  H18      1.0000 0.13250  0.48458  0.18871  Biso   1.000  H
  C25      1.0000 0.22078  0.45139  0.04870  Biso   1.000  C
  C26      1.0000 0.22084  0.45139  0.04870  Biso   1.000  C
  O5       1.0000 0.37732  0.30794  0.02877  Biso   1.000  O
  O6       1.0000 0.37731  0.30794  0.02882  Biso   1.000  O
  H19      1.0000 0.47691  0.20960  0.10741  Biso   1.000  H
  H20      1.0000 0.47317  0.22004  0.18989  Biso   1.000  H
  H21      1.0000 0.47320  0.21997  0.18989  Biso   1.000  H
  H22      1.0000 0.15138  0.60542  0.17753  Biso   1.000  H
  H23      1.0000 0.21010  0.64159  0.20171  Biso   1.000  H
  N16      1.0000 0.22455  0.62241  0.09702  Biso   1.000  N
  N17      1.0000 0.22461  0.62241  0.09702  Biso   1.000  N
  O7       1.0000 0.58658  0.21858  0.01625  Biso   1.000  O
  O8       1.0000 0.58663  0.21858  0.01625  Biso   1.000  O
  C27      1.0000 0.73661  0.23773  0.02430  Biso   1.000  C
  C28      1.0000 0.73663  0.23766  0.02430  Biso   1.000  C
  H24      1.0000 0.70479  0.44462  0.17880  Biso   1.000  H
  H25      1.0000 0.77036  0.35091  0.16469  Biso   1.000  H
  N18      1.0000 0.73609  0.41258  0.07550  Biso   1.000  N
  H26      1.0000 0.77041  0.35091  0.16469  Biso   1.000  H
  H27      1.0000 0.22958  0.40890  0.01369  Biso   1.000  H
  H28      1.0000 0.16267  0.47303  0.07091  Biso   1.000  H
  N19      1.0000 0.23240  0.51809  0.01257  Biso   1.000  N
  H29      1.0000 0.22964  0.40890  0.01369  Biso   1.000  H
  H30      1.0000 0.16269  0.47297  0.07091  Biso   1.000  H
  C29      1.0000 0.25526  0.67911  0.08003  Biso   1.000  C
  C30      1.0000 0.18958  0.60349  0.03820  Biso   1.000  C
  C31      1.0000 0.25532  0.67911  0.08003  Biso   1.000  C
  C32      1.0000 0.18963  0.60349  0.03820  Biso   1.000  C
  H31      1.0000 0.78698  0.20231  0.04598  Biso   1.000  H
  H32      1.0000 0.78703  0.20231  0.04603  Biso   1.000  H
  H33      1.0000 0.73045  0.20484  0.98759  Biso   1.000  H
  N20      1.0000 0.74768  0.30658  0.99148  Biso   1.000  N
  N21      1.0000 0.74776  0.30652  0.99148  Biso   1.000  N
  C33      1.0000 0.78969  0.34793  0.02382  Biso   1.000  C
  C34      1.0000 0.72885  0.49032  0.05562  Biso   1.000  C
  C35      1.0000 0.78971  0.34787  0.02382  Biso   1.000  C
  C36      1.0000 0.72890  0.49032  0.05562  Biso   1.000  C
  C37      1.0000 0.27102  0.50978  0.94438  Biso   1.000  C
  C38      1.0000 0.27102  0.50978  0.94443  Biso   1.000  C
  N22      1.0000 0.25219  0.69352  0.00852  Biso   1.000  N
  O9       1.0000 0.27979  0.71250  0.12100  Biso   1.000  O
  H34      1.0000 0.12838  0.62234  0.04902  Biso   1.000  H
  H35      1.0000 0.12840  0.62228  0.04902  Biso   1.000  H
  C39      1.0000 0.21018  0.65217  0.97618  Biso   1.000  C
  C40      1.0000 0.21024  0.65217  0.97618  Biso   1.000  C
  C41      1.0000 0.74461  0.32099  0.91997  Biso   1.000  C
  C42      1.0000 0.74463  0.32093  0.92003  Biso   1.000  C
  H36      1.0000 0.84108  0.30763  0.04278  Biso   1.000  H
  H37      1.0000 0.84110  0.30757  0.04284  Biso   1.000  H
  C43      1.0000 0.81032  0.39655  0.96180  Biso   1.000  C
  O10      1.0000 0.69540  0.55370  0.09255  Biso   1.000  O
  O11      1.0000 0.69545  0.55370  0.09260  Biso   1.000  O
  N23      1.0000 0.76749  0.48195  0.98743  Biso   1.000  N
  N24      1.0000 0.76755  0.48195  0.98743  Biso   1.000  N
  N25      1.0000 0.26381  0.58746  0.92450  Biso   1.000  N
  O12      1.0000 0.30449  0.44634  0.90745  Biso   1.000  O
  C44      1.0000 0.26326  0.76237  0.97570  Biso   1.000  C
  C45      1.0000 0.26332  0.76237  0.97570  Biso   1.000  C
  H38      1.0000 0.15879  0.69247  0.95722  Biso   1.000  H
  N26      1.0000 0.77532  0.37769  0.90298  Biso   1.000  N
  O13      1.0000 0.72011  0.28753  0.87900  Biso   1.000  O
  N27      1.0000 0.77534  0.37762  0.90303  Biso   1.000  N
  O14      1.0000 0.72016  0.28753  0.87900  Biso   1.000  O
  H39      1.0000 0.87149  0.37776  0.95098  Biso   1.000  H
  H40      1.0000 0.87155  0.37776  0.95098  Biso   1.000  H
  C46      1.0000 0.77911  0.54865  0.95130  Biso   1.000  C
  C47      1.0000 0.28070  0.60489  0.85013  Biso   1.000  C
  C48      1.0000 0.28072  0.60483  0.85013  Biso   1.000  C
  H41      1.0000 0.26945  0.79519  0.01241  Biso   1.000  H
  H42      1.0000 0.26951  0.79519  0.01241  Biso   1.000  H
  H43      1.0000 0.21289  0.79779  0.95402  Biso   1.000  H
  N28      1.0000 0.33618  0.73650  0.92189  Biso   1.000  N
  H44      1.0000 0.21292  0.79773  0.95402  Biso   1.000  H
  N29      1.0000 0.33621  0.73644  0.92189  Biso   1.000  N
  C49      1.0000 0.79181  0.39884  0.83009  Biso   1.000  C
  C50      1.0000 0.79187  0.39884  0.83009  Biso   1.000  C
  H45      1.0000 0.77029  0.59120  0.98631  Biso   1.000  H
  H46      1.0000 0.83720  0.52707  0.92909  Biso   1.000  H
  N30      1.0000 0.72280  0.58746  0.89690  Biso   1.000  N
  H47      1.0000 0.77032  0.59114  0.98631  Biso   1.000  H
  H48      1.0000 0.29508  0.55548  0.82120  Biso   1.000  H
  H49      1.0000 0.22951  0.64919  0.83531  Biso   1.000  H
  N31      1.0000 0.34888  0.62947  0.83675  Biso   1.000  N
  H50      1.0000 0.29516  0.55542  0.82120  Biso   1.000  H
  H51      1.0000 0.22954  0.64912  0.83531  Biso   1.000  H
  N32      1.0000 0.34893  0.62947  0.83675  Biso   1.000  N
  C51      1.0000 0.40197  0.75439  0.92988  Biso   1.000  C
  C52      1.0000 0.33588  0.71439  0.84890  Biso   1.000  C
  C53      1.0000 0.40205  0.75433  0.92988  Biso   1.000  C
  C54      1.0000 0.33596  0.71432  0.84890  Biso   1.000  C
  H52      1.0000 0.84849  0.39468  0.82247  Biso   1.000  H
  H53      1.0000 0.78980  0.35844  0.79829  Biso   1.000  H
  N33      1.0000 0.73229  0.48175  0.81203  Biso   1.000  N
  H54      1.0000 0.84854  0.39468  0.82253  Biso   1.000  H
  H55      1.0000 0.78985  0.35844  0.79829  Biso   1.000  H
  N34      1.0000 0.73235  0.48175  0.81203  Biso   1.000  N
  C55      1.0000 0.73830  0.55957  0.82242  Biso   1.000  C
  C56      1.0000 0.64758  0.65488  0.91358  Biso   1.000  C
  C57      1.0000 0.64763  0.65488  0.91363  Biso   1.000  C
  C58      1.0000 0.42330  0.58176  0.79658  Biso   1.000  C
  C59      1.0000 0.42335  0.58177  0.79663  Biso   1.000  C
  N35      1.0000 0.45218  0.73818  0.86611  Biso   1.000  N
  O15      1.0000 0.41332  0.78145  0.98375  Biso   1.000  O
  N36      1.0000 0.45223  0.73818  0.86611  Biso   1.000  N
  C60      1.0000 0.41881  0.71366  0.80990  Biso   1.000  C
  H56      1.0000 0.28573  0.75515  0.82871  Biso   1.000  H
  C61      1.0000 0.66610  0.49260  0.77612  Biso   1.000  C
  C62      1.0000 0.66613  0.49253  0.77612  Biso   1.000  C
  C63      1.0000 0.65627  0.62699  0.79163  Biso   1.000  C
  C64      1.0000 0.65636  0.62693  0.79163  Biso   1.000  C
  C65      1.0000 0.82202  0.55459  0.78688  Biso   1.000  C
  C66      1.0000 0.82205  0.55453  0.78688  Biso   1.000  C
  N37      1.0000 0.60542  0.67698  0.85476  Biso   1.000  N
  O16      1.0000 0.62255  0.69216  0.97123  Biso   1.000  O
  O17      1.0000 0.62258  0.69210  0.97123  Biso   1.000  O
  N38      1.0000 0.46850  0.62837  0.78395  Biso   1.000  N
  O18      1.0000 0.44742  0.51043  0.77410  Biso   1.000  O
  O19      1.0000 0.44750  0.51036  0.77410  Biso   1.000  O
  C67      1.0000 0.52641  0.75286  0.85508  Biso   1.000  C
  C68      1.0000 0.52641  0.75286  0.85513  Biso   1.000  C
  H57      1.0000 0.40699  0.75296  0.77090  Biso   1.000  H
  H58      1.0000 0.40705  0.75296  0.77090  Biso   1.000  H
  N39      1.0000 0.62130  0.57516  0.76301  Biso   1.000  N
  N40      1.0000 0.62136  0.57516  0.76301  Biso   1.000  N
  O20      1.0000 0.65155  0.43679  0.75582  Biso   1.000  O
  O21      1.0000 0.65158  0.43672  0.75582  Biso   1.000  O
  C69      1.0000 0.67212  0.68204  0.73392  Biso   1.000  C
  H59      1.0000 0.83064  0.53654  0.73808  Biso   1.000  H
  H60      1.0000 0.82090  0.60858  0.78901  Biso   1.000  H
  H61      1.0000 0.86740  0.51546  0.81129  Biso   1.000  H
  H62      1.0000 0.83063  0.53654  0.73813  Biso   1.000  H
  H63      1.0000 0.82093  0.60852  0.78901  Biso   1.000  H
  H64      1.0000 0.86746  0.51546  0.81129  Biso   1.000  H
  C70      1.0000 0.54311  0.60399  0.73190  Biso   1.000  C
  C71      1.0000 0.54314  0.60393  0.73190  Biso   1.000  C
  H65      1.0000 0.52296  0.79050  0.89259  Biso   1.000  H
  H66      1.0000 0.52670  0.78006  0.81011  Biso   1.000  H
  H67      1.0000 0.52304  0.79044  0.89259  Biso   1.000  H
  H68      1.0000 0.70579  0.64809  0.69290  Biso   1.000  H
  H69      1.0000 0.61891  0.72290  0.72060  Biso   1.000  H
  H70      1.0000 0.70159  0.70985  0.75199  Biso   1.000  H
  H71      1.0000 0.70587  0.64803  0.69290  Biso   1.000  H
  H72      1.0000 0.61893  0.72283  0.72060  Biso   1.000  H
  H73      1.0000 0.70164  0.70985  0.75199  Biso   1.000  H
  H74      1.0000 0.54652  0.55988  0.70110  Biso   1.000  H
  H75      1.0000 0.53663  0.65125  0.70238  Biso   1.000  H
  H76      1.0000 0.54654  0.55982  0.70110  Biso   1.000  H
  C72      1.0000 0.45682  0.39611  0.26810  Biso   1.000  C
  N41      1.0000 0.37857  0.42494  0.23699  Biso   1.000  N
  N42      1.0000 0.37860  0.42487  0.23699  Biso   1.000  N
  H77      1.0000 0.45335  0.44022  0.29890  Biso   1.000  H
  H78      1.0000 0.46323  0.34885  0.29762  Biso   1.000  H
  N43      1.0000 0.53137  0.37172  0.21605  Biso   1.000  N
  H79      1.0000 0.45341  0.44022  0.29890  Biso   1.000  H
  H80      1.0000 0.46332  0.34878  0.29762  Biso   1.000  H
  N44      1.0000 0.53139  0.37166  0.21610  Biso   1.000  N
  C73      1.0000 0.34360  0.37310  0.20837  Biso   1.000  C
  C74      1.0000 0.34359  0.37311  0.20843  Biso   1.000  C
  C75      1.0000 0.33377  0.50750  0.22388  Biso   1.000  C
  C76      1.0000 0.33382  0.50750  0.22393  Biso   1.000  C
  C77      1.0000 0.45676  0.39611  0.26810  Biso   1.000  C
  C78      1.0000 0.58106  0.28644  0.19010  Biso   1.000  C
  C79      1.0000 0.58114  0.28637  0.19010  Biso   1.000  C
  C80      1.0000 0.57657  0.41834  0.20342  Biso   1.000  C
  C81      1.0000 0.57660  0.41827  0.20342  Biso   1.000  C
  N45      1.0000 0.39445  0.32312  0.14524  Biso   1.000  N
  N46      1.0000 0.39453  0.32306  0.14529  Biso   1.000  N
  C82      1.0000 0.26157  0.44053  0.17758  Biso   1.000  C
  C83      1.0000 0.26159  0.44047  0.17763  Biso   1.000  C
  C84      1.0000 0.32778  0.31799  0.26608  Biso   1.000  C
  C85      1.0000 0.32783  0.31800  0.26613  Biso   1.000  C
  N47      1.0000 0.26761  0.51828  0.18797  Biso   1.000  N
  N48      1.0000 0.26760  0.51829  0.18802  Biso   1.000  N
  O22      1.0000 0.34831  0.56331  0.24418  Biso   1.000  O
  O23      1.0000 0.34836  0.56331  0.24423  Biso   1.000  O
  N49      1.0000 0.54769  0.26192  0.13389  Biso   1.000  N
  N50      1.0000 0.54771  0.26186  0.13394  Biso   1.000  N
  C86      1.0000 0.66399  0.28571  0.15110  Biso   1.000  C
  H81      1.0000 0.59288  0.24714  0.22910  Biso   1.000  H
  H82      1.0000 0.59291  0.24707  0.22910  Biso   1.000  H
  N51      1.0000 0.65099  0.37063  0.16325  Biso   1.000  N
  N52      1.0000 0.65102  0.37057  0.16325  Biso   1.000  N
  O24      1.0000 0.55245  0.48967  0.22590  Biso   1.000  O
  O25      1.0000 0.55244  0.48968  0.22596  Biso   1.000  O
  C87      1.0000 0.35229  0.34522  0.08642  Biso   1.000  C
  C88      1.0000 0.47348  0.24718  0.14492  Biso   1.000  C
  C89      1.0000 0.47354  0.24718  0.14492  Biso   1.000  C
  N53      1.0000 0.27706  0.41263  0.10310  Biso   1.000  N
  N54      1.0000 0.27714  0.41257  0.10315  Biso   1.000  N
  C90      1.0000 0.17785  0.44551  0.21312  Biso   1.000  C
  C91      1.0000 0.17791  0.44551  0.21312  Biso   1.000  C
  H83      1.0000 0.29408  0.35201  0.30710  Biso   1.000  H
  H84      1.0000 0.29831  0.29018  0.24801  Biso   1.000  H
  H85      1.0000 0.38096  0.27720  0.27940  Biso   1.000  H
  H86      1.0000 0.38102  0.27720  0.27940  Biso   1.000  H
  C92      1.0000 0.20809  0.60120  0.16991  Biso   1.000  C
  C93      1.0000 0.59790  0.24571  0.07012  Biso   1.000  C
  N55      1.0000 0.66369  0.26360  0.07811  Biso   1.000  N
  H87      1.0000 0.71417  0.24489  0.17129  Biso   1.000  H
  H88      1.0000 0.71422  0.24489  0.17129  Biso   1.000  H
  C94      1.0000 0.71917  0.39521  0.14987  Biso   1.000  C
  C95      1.0000 0.71922  0.39521  0.14993  Biso   1.000  C
  O26      1.0000 0.37732  0.30794  0.02877  Biso   1.000  O
  O27      1.0000 0.37731  0.30794  0.02882  Biso   1.000  O
  H89      1.0000 0.47691  0.20960  0.10741  Biso   1.000  H
  H90      1.0000 0.47317  0.22004  0.18989  Biso   1.000  H
  H91      1.0000 0.47320  0.21997  0.18989  Biso   1.000  H
  C96      1.0000 0.22078  0.45139  0.04870  Biso   1.000  C
  C97      1.0000 0.22084  0.45139  0.04870  Biso   1.000  C
  H92      1.0000 0.16926  0.46350  0.26192  Biso   1.000  H
  H93      1.0000 0.17896  0.39152  0.21099  Biso   1.000  H
  H94      1.0000 0.13247  0.48464  0.18871  Biso   1.000  H
  H95      1.0000 0.16931  0.46350  0.26192  Biso   1.000  H
  H96      1.0000 0.17902  0.39152  0.21099  Biso   1.000  H
  H97      1.0000 0.13250  0.48458  0.18871  Biso   1.000  H
  N56      1.0000 0.22455  0.62241  0.09702  Biso   1.000  N
  N57      1.0000 0.22461  0.62241  0.09702  Biso   1.000  N
  H98      1.0000 0.15138  0.60542  0.17753  Biso   1.000  H
  H99      1.0000 0.21010  0.64159  0.20171  Biso   1.000  H
  O28      1.0000 0.58658  0.21858  0.01625  Biso   1.000  O
  O29      1.0000 0.58663  0.21858  0.01625  Biso   1.000  O
  C98      1.0000 0.73661  0.23773  0.02430  Biso   1.000  C
  C99      1.0000 0.73663  0.23766  0.02430  Biso   1.000  C
  H100     1.0000 0.70479  0.44462  0.17880  Biso   1.000  H
  N58      1.0000 0.73609  0.41258  0.07550  Biso   1.000  N
  H101     1.0000 0.77036  0.35091  0.16469  Biso   1.000  H
  H102     1.0000 0.77041  0.35091  0.16469  Biso   1.000  H
  N59      1.0000 0.23240  0.51809  0.01257  Biso   1.000  N
  H103     1.0000 0.22958  0.40890  0.01369  Biso   1.000  H
  H104     1.0000 0.16267  0.47303  0.07091  Biso   1.000  H
  H105     1.0000 0.22964  0.40890  0.01369  Biso   1.000  H
  H106     1.0000 0.16269  0.47297  0.07091  Biso   1.000  H
  C100     1.0000 0.18958  0.60349  0.03820  Biso   1.000  C
  C101     1.0000 0.18963  0.60349  0.03820  Biso   1.000  C
  C102     1.0000 0.25526  0.67911  0.08003  Biso   1.000  C
  C103     1.0000 0.25532  0.67911  0.08003  Biso   1.000  C
  H107     1.0000 0.73045  0.20484  0.98759  Biso   1.000  H
  N60      1.0000 0.74768  0.30658  0.99148  Biso   1.000  N
  N61      1.0000 0.74776  0.30652  0.99148  Biso   1.000  N
  H108     1.0000 0.78698  0.20231  0.04598  Biso   1.000  H
  H109     1.0000 0.78703  0.20231  0.04603  Biso   1.000  H
  C104     1.0000 0.78969  0.34793  0.02382  Biso   1.000  C
  C105     1.0000 0.78971  0.34787  0.02382  Biso   1.000  C
  C106     1.0000 0.72885  0.49032  0.05562  Biso   1.000  C
  C107     1.0000 0.72890  0.49032  0.05562  Biso   1.000  C
  C108     1.0000 0.27102  0.50978  0.94438  Biso   1.000  C
  C109     1.0000 0.27102  0.50978  0.94443  Biso   1.000  C
  C110     1.0000 0.21018  0.65217  0.97618  Biso   1.000  C
  C111     1.0000 0.21024  0.65217  0.97618  Biso   1.000  C
  H110     1.0000 0.12838  0.62234  0.04902  Biso   1.000  H
  H111     1.0000 0.12840  0.62228  0.04902  Biso   1.000  H
  N62      1.0000 0.25219  0.69352  0.00852  Biso   1.000  N
  O30      1.0000 0.27979  0.71250  0.12100  Biso   1.000  O
  C112     1.0000 0.74461  0.32099  0.91997  Biso   1.000  C
  C113     1.0000 0.74463  0.32093  0.92003  Biso   1.000  C
  C114     1.0000 0.81032  0.39655  0.96180  Biso   1.000  C
  H112     1.0000 0.84108  0.30763  0.04278  Biso   1.000  H
  H113     1.0000 0.84110  0.30757  0.04284  Biso   1.000  H
  N63      1.0000 0.76749  0.48195  0.98743  Biso   1.000  N
  N64      1.0000 0.76755  0.48195  0.98743  Biso   1.000  N
  O31      1.0000 0.69540  0.55370  0.09255  Biso   1.000  O
  O32      1.0000 0.69545  0.55370  0.09260  Biso   1.000  O
  N65      1.0000 0.26381  0.58746  0.92450  Biso   1.000  N
  O33      1.0000 0.30449  0.44634  0.90745  Biso   1.000  O
  H114     1.0000 0.15879  0.69247  0.95722  Biso   1.000  H
  C115     1.0000 0.26326  0.76237  0.97570  Biso   1.000  C
  C116     1.0000 0.26332  0.76237  0.97570  Biso   1.000  C
  N66      1.0000 0.77532  0.37769  0.90298  Biso   1.000  N
  O34      1.0000 0.72011  0.28753  0.87900  Biso   1.000  O
  N67      1.0000 0.77534  0.37762  0.90303  Biso   1.000  N
  O35      1.0000 0.72016  0.28753  0.87900  Biso   1.000  O
  H115     1.0000 0.87149  0.37776  0.95098  Biso   1.000  H
  H116     1.0000 0.87155  0.37776  0.95098  Biso   1.000  H
  C117     1.0000 0.77911  0.54865  0.95130  Biso   1.000  C
  C118     1.0000 0.28070  0.60489  0.85013  Biso   1.000  C
  C119     1.0000 0.28072  0.60483  0.85013  Biso   1.000  C
  H117     1.0000 0.21289  0.79779  0.95402  Biso   1.000  H
  N68      1.0000 0.33618  0.73650  0.92189  Biso   1.000  N
  H118     1.0000 0.21292  0.79773  0.95402  Biso   1.000  H
  N69      1.0000 0.33621  0.73644  0.92189  Biso   1.000  N
  H119     1.0000 0.26945  0.79519  0.01241  Biso   1.000  H
  H120     1.0000 0.26951  0.79519  0.01241  Biso   1.000  H
  C120     1.0000 0.79181  0.39884  0.83009  Biso   1.000  C
  C121     1.0000 0.79187  0.39884  0.83009  Biso   1.000  C
  H121     1.0000 0.77029  0.59120  0.98631  Biso   1.000  H
  H122     1.0000 0.83720  0.52707  0.92909  Biso   1.000  H
  N70      1.0000 0.72280  0.58746  0.89690  Biso   1.000  N
  H123     1.0000 0.77032  0.59114  0.98631  Biso   1.000  H
  H124     1.0000 0.29508  0.55548  0.82120  Biso   1.000  H
  H125     1.0000 0.22951  0.64919  0.83531  Biso   1.000  H
  N71      1.0000 0.34888  0.62947  0.83675  Biso   1.000  N
  H126     1.0000 0.29516  0.55542  0.82120  Biso   1.000  H
  H127     1.0000 0.22954  0.64912  0.83531  Biso   1.000  H
  N72      1.0000 0.34893  0.62947  0.83675  Biso   1.000  N
  C122     1.0000 0.33588  0.71439  0.84890  Biso   1.000  C
  C123     1.0000 0.33596  0.71432  0.84890  Biso   1.000  C
  C124     1.0000 0.40197  0.75439  0.92988  Biso   1.000  C
  C125     1.0000 0.40205  0.75433  0.92988  Biso   1.000  C
  H128     1.0000 0.84849  0.39468  0.82247  Biso   1.000  H
  H129     1.0000 0.78980  0.35844  0.79829  Biso   1.000  H
  N73      1.0000 0.73229  0.48175  0.81203  Biso   1.000  N
  H130     1.0000 0.84854  0.39468  0.82253  Biso   1.000  H
  H131     1.0000 0.78985  0.35844  0.79829  Biso   1.000  H
  N74      1.0000 0.73235  0.48175  0.81203  Biso   1.000  N
  C126     1.0000 0.73830  0.55957  0.82242  Biso   1.000  C
  C127     1.0000 0.64758  0.65488  0.91358  Biso   1.000  C
  C128     1.0000 0.64763  0.65488  0.91363  Biso   1.000  C
  C129     1.0000 0.42330  0.58176  0.79658  Biso   1.000  C
  C130     1.0000 0.42335  0.58177  0.79663  Biso   1.000  C
  C131     1.0000 0.41881  0.71366  0.80990  Biso   1.000  C
  H132     1.0000 0.28573  0.75515  0.82871  Biso   1.000  H
  N75      1.0000 0.45218  0.73818  0.86611  Biso   1.000  N
  N76      1.0000 0.45223  0.73818  0.86611  Biso   1.000  N
  O36      1.0000 0.41332  0.78145  0.98375  Biso   1.000  O
  C132     1.0000 0.66610  0.49260  0.77612  Biso   1.000  C
  C133     1.0000 0.66613  0.49253  0.77612  Biso   1.000  C
  C134     1.0000 0.65627  0.62699  0.79163  Biso   1.000  C
  C135     1.0000 0.65636  0.62693  0.79163  Biso   1.000  C
  C136     1.0000 0.82202  0.55459  0.78688  Biso   1.000  C
  C137     1.0000 0.82205  0.55453  0.78688  Biso   1.000  C
  N77      1.0000 0.60542  0.67698  0.85476  Biso   1.000  N
  O37      1.0000 0.62255  0.69216  0.97123  Biso   1.000  O
  O38      1.0000 0.62258  0.69210  0.97123  Biso   1.000  O
  N78      1.0000 0.46850  0.62837  0.78395  Biso   1.000  N
  O39      1.0000 0.44742  0.51043  0.77410  Biso   1.000  O
  O40      1.0000 0.44750  0.51036  0.77410  Biso   1.000  O
  H133     1.0000 0.40699  0.75296  0.77090  Biso   1.000  H
  H134     1.0000 0.40705  0.75296  0.77090  Biso   1.000  H
  C138     1.0000 0.52641  0.75286  0.85508  Biso   1.000  C
  C139     1.0000 0.52641  0.75286  0.85513  Biso   1.000  C
  N79      1.0000 0.62130  0.57516  0.76301  Biso   1.000  N
  N80      1.0000 0.62136  0.57516  0.76301  Biso   1.000  N
  O41      1.0000 0.65155  0.43679  0.75582  Biso   1.000  O
  O42      1.0000 0.65158  0.43672  0.75582  Biso   1.000  O
  C140     1.0000 0.67212  0.68204  0.73392  Biso   1.000  C
  H135     1.0000 0.83064  0.53654  0.73808  Biso   1.000  H
  H136     1.0000 0.82090  0.60858  0.78901  Biso   1.000  H
  H137     1.0000 0.86740  0.51546  0.81129  Biso   1.000  H
  H138     1.0000 0.83063  0.53654  0.73813  Biso   1.000  H
  H139     1.0000 0.82093  0.60852  0.78901  Biso   1.000  H
  H140     1.0000 0.86746  0.51546  0.81129  Biso   1.000  H
  C141     1.0000 0.54311  0.60399  0.73190  Biso   1.000  C
  C142     1.0000 0.54314  0.60393  0.73190  Biso   1.000  C
  H141     1.0000 0.52296  0.79050  0.89259  Biso   1.000  H
  H142     1.0000 0.52670  0.78006  0.81011  Biso   1.000  H
  H143     1.0000 0.52304  0.79044  0.89259  Biso   1.000  H
  H144     1.0000 0.70579  0.64809  0.69290  Biso   1.000  H
  H145     1.0000 0.61891  0.72290  0.72060  Biso   1.000  H
  H146     1.0000 0.70159  0.70985  0.75199  Biso   1.000  H
  H147     1.0000 0.70587  0.64803  0.69290  Biso   1.000  H
  H148     1.0000 0.61893  0.72283  0.72060  Biso   1.000  H
  H149     1.0000 0.70164  0.70985  0.75199  Biso   1.000  H
  H150     1.0000 0.54652  0.55988  0.70110  Biso   1.000  H
  H151     1.0000 0.53663  0.65125  0.70238  Biso   1.000  H
  H152     1.0000 0.54654  0.55982  0.70110  Biso   1.000  H
  O43      1.0000 0.30895  0.25812  0.42431  Biso   1.000  O
  C143     1.0000 0.26798  0.22570  0.45799  Biso   1.000  C
  N81      1.0000 0.25237  0.16351  0.43311  Biso   1.000  N
  N82      1.0000 0.22869  0.24759  0.52602  Biso   1.000  N
  C144     1.0000 0.26498  0.14290  0.35830  Biso   1.000  C
  C145     1.0000 0.19365  0.14613  0.48319  Biso   1.000  C
  C146     1.0000 0.18309  0.19972  0.55011  Biso   1.000  C
  C147     1.0000 0.18304  0.19972  0.55011  Biso   1.000  C
  C148     1.0000 0.23952  0.30535  0.57062  Biso   1.000  C
  C149     1.0000 0.23955  0.30528  0.57062  Biso   1.000  C
  H153     1.0000 0.21065  0.15482  0.34290  Biso   1.000  H
  H154     1.0000 0.28620  0.17849  0.33230  Biso   1.000  H
  N83      1.0000 0.32338  0.05660  0.33992  Biso   1.000  N
  H155     1.0000 0.13958  0.16243  0.46449  Biso   1.000  H
  N84      1.0000 0.22714  0.06212  0.50818  Biso   1.000  N
  H156     1.0000 0.13960  0.16237  0.46449  Biso   1.000  H
  H157     1.0000 0.12315  0.23612  0.56572  Biso   1.000  H
  N85      1.0000 0.22070  0.13770  0.60227  Biso   1.000  N
  H158     1.0000 0.24973  0.34555  0.54062  Biso   1.000  H
  H159     1.0000 0.18748  0.33550  0.60179  Biso   1.000  H
  N86      1.0000 0.30848  0.26561  0.61351  Biso   1.000  N
  H160     1.0000 0.24976  0.34549  0.54062  Biso   1.000  H
  C150     1.0000 0.40006  0.03621  0.30209  Biso   1.000  C
  C151     1.0000 0.29968  0.98779  0.34242  Biso   1.000  C
  C152     1.0000 0.29971  0.98773  0.34242  Biso   1.000  C
  C153     1.0000 0.23966  0.05883  0.57829  Biso   1.000  C
  C154     1.0000 0.23968  0.05877  0.57829  Biso   1.000  C
  C155     1.0000 0.22611  0.99385  0.47003  Biso   1.000  C
  C156     1.0000 0.21445  0.15791  0.67632  Biso   1.000  C
  C157     1.0000 0.38773  0.26114  0.59433  Biso   1.000  C
  C158     1.0000 0.29728  0.24290  0.68661  Biso   1.000  C
  C159     1.0000 0.38776  0.26108  0.59433  Biso   1.000  C
  O44      1.0000 0.43178  0.08432  0.28749  Biso   1.000  O
  O45      1.0000 0.43181  0.08426  0.28749  Biso   1.000  O
  N87      1.0000 0.43561  0.95457  0.28099  Biso   1.000  N
  C160     1.0000 0.21909  0.01152  0.30790  Biso   1.000  C
  C161     1.0000 0.21912  0.01146  0.30790  Biso   1.000  C
  C162     1.0000 0.38141  0.91379  0.30252  Biso   1.000  C
  N88      1.0000 0.29521  0.95586  0.41371  Biso   1.000  N
  C163     1.0000 0.38144  0.91372  0.30252  Biso   1.000  C
  O46      1.0000 0.26325  0.99631  0.61415  Biso   1.000  O
  O47      1.0000 0.26328  0.99624  0.61415  Biso   1.000  O
  H161     1.0000 0.17320  0.01409  0.44962  Biso   1.000  H
  H162     1.0000 0.22768  0.95145  0.50370  Biso   1.000  H
  H163     1.0000 0.16343  0.20935  0.68831  Biso   1.000  H
  H164     1.0000 0.20878  0.11423  0.70462  Biso   1.000  H
  N89      1.0000 0.28689  0.16800  0.69572  Biso   1.000  N
  H165     1.0000 0.16346  0.20929  0.68831  Biso   1.000  H
  N90      1.0000 0.43523  0.22793  0.64862  Biso   1.000  N
  O48      1.0000 0.41033  0.28514  0.53849  Biso   1.000  O
  O49      1.0000 0.41036  0.28507  0.53849  Biso   1.000  O
  C164     1.0000 0.38546  0.21785  0.71090  Biso   1.000  C
  H166     1.0000 0.25257  0.28962  0.71548  Biso   1.000  H
  C165     1.0000 0.38549  0.21779  0.71090  Biso   1.000  C
  C166     1.0000 0.51380  0.91647  0.23310  Biso   1.000  C
  H167     1.0000 0.22541  0.03181  0.26112  Biso   1.000  H
  H168     1.0000 0.17208  0.05431  0.33640  Biso   1.000  H
  H169     1.0000 0.22535  0.03181  0.26112  Biso   1.000  H
  H170     1.0000 0.20881  0.96347  0.30449  Biso   1.000  H
  C167     1.0000 0.36601  0.87588  0.23869  Biso   1.000  C
  N91      1.0000 0.41221  0.85459  0.35921  Biso   1.000  N
  N92      1.0000 0.41224  0.85453  0.35921  Biso   1.000  N
  C168     1.0000 0.36068  0.87956  0.42202  Biso   1.000  C
  C169     1.0000 0.35115  0.10581  0.72641  Biso   1.000  C
  C170     1.0000 0.51648  0.22743  0.65048  Biso   1.000  C
  H171     1.0000 0.38169  0.25369  0.75060  Biso   1.000  H
  N93      1.0000 0.41115  0.13244  0.73280  Biso   1.000  N
  N94      1.0000 0.41117  0.13238  0.73280  Biso   1.000  N
  N95      1.0000 0.58869  0.86767  0.26719  Biso   1.000  N
  H172     1.0000 0.52202  0.96016  0.20688  Biso   1.000  H
  H173     1.0000 0.50794  0.88086  0.19878  Biso   1.000  H
  H174     1.0000 0.34517  0.91748  0.20353  Biso   1.000  H
  H175     1.0000 0.41810  0.83056  0.21892  Biso   1.000  H
  H176     1.0000 0.32499  0.85545  0.25318  Biso   1.000  H
  C171     1.0000 0.48341  0.77268  0.34951  Biso   1.000  C
  C172     1.0000 0.48344  0.77262  0.34951  Biso   1.000  C
  O50      1.0000 0.37041  0.83944  0.47663  Biso   1.000  O
  O51      1.0000 0.35374  0.03953  0.74601  Biso   1.000  O
  N96      1.0000 0.58768  0.14552  0.64079  Biso   1.000  N
  H177     1.0000 0.52397  0.26305  0.61340  Biso   1.000  H
  H178     1.0000 0.51647  0.25123  0.69588  Biso   1.000  H
  H179     1.0000 0.52400  0.26298  0.61340  Biso   1.000  H
  C173     1.0000 0.48603  0.08363  0.76690  Biso   1.000  C
  C174     1.0000 0.48606  0.08357  0.76690  Biso   1.000  C
  C175     1.0000 0.61443  0.78226  0.28909  Biso   1.000  C
  C176     1.0000 0.64871  0.89424  0.27359  Biso   1.000  C
  H180     1.0000 0.47592  0.73706  0.38659  Biso   1.000  H
  H181     1.0000 0.48342  0.74888  0.30412  Biso   1.000  H
  N97      1.0000 0.56460  0.77218  0.35138  Biso   1.000  N
  C177     1.0000 0.61847  0.08632  0.69753  Biso   1.000  C
  C178     1.0000 0.63915  0.12054  0.57802  Biso   1.000  C
  C179     1.0000 0.63918  0.12048  0.57802  Biso   1.000  C
  H182     1.0000 0.47787  0.03994  0.79311  Biso   1.000  H
  H183     1.0000 0.49195  0.11925  0.80121  Biso   1.000  H
  N98      1.0000 0.56423  0.04554  0.71900  Biso   1.000  N
  H184     1.0000 0.47790  0.03988  0.79311  Biso   1.000  H
  H185     1.0000 0.49198  0.11919  0.80121  Biso   1.000  H
  N99      1.0000 0.56426  0.04548  0.71900  Biso   1.000  N
  H186     1.0000 0.61823  0.74635  0.24940  Biso   1.000  H
  C180     1.0000 0.70264  0.75715  0.31339  Biso   1.000  C
  N100     1.0000 0.71303  0.83205  0.30428  Biso   1.000  N
  O52      1.0000 0.64609  0.96058  0.25398  Biso   1.000  O
  O53      1.0000 0.64612  0.96052  0.25398  Biso   1.000  O
  C181     1.0000 0.61209  0.73897  0.40572  Biso   1.000  C
  C182     1.0000 0.70014  0.01232  0.65762  Biso   1.000  C
  C183     1.0000 0.63388  0.12423  0.76130  Biso   1.000  C
  N101     1.0000 0.70471  0.04418  0.58628  Biso   1.000  N
  O54      1.0000 0.62945  0.16060  0.52336  Biso   1.000  O
  C184     1.0000 0.59978  0.96389  0.69790  Biso   1.000  C
  C185     1.0000 0.59980  0.96383  0.69790  Biso   1.000  C
  H187     1.0000 0.74733  0.71048  0.28451  Biso   1.000  H
  N102     1.0000 0.69144  0.73444  0.38649  Biso   1.000  N
  H188     1.0000 0.74735  0.71042  0.28451  Biso   1.000  H
  C186     1.0000 0.78538  0.84219  0.32372  Biso   1.000  C
  C187     1.0000 0.78541  0.84213  0.32372  Biso   1.000  C
  O55      1.0000 0.58949  0.71497  0.46156  Biso   1.000  O
  C188     1.0000 0.78080  0.98859  0.69210  Biso   1.000  C
  N103     1.0000 0.67645  0.94351  0.66013  Biso   1.000  N
  N104     1.0000 0.67647  0.94345  0.66013  Biso   1.000  N
  H189     1.0000 0.65465  0.08263  0.79652  Biso   1.000  H
  H190     1.0000 0.58173  0.16955  0.78112  Biso   1.000  H
  H191     1.0000 0.67487  0.14460  0.74681  Biso   1.000  H
  H192     1.0000 0.58176  0.16949  0.78112  Biso   1.000  H
  C189     1.0000 0.77380  0.00620  0.53002  Biso   1.000  C
  O56      1.0000 0.56806  0.91579  0.71250  Biso   1.000  O
  C190     1.0000 0.76031  0.69476  0.42938  Biso   1.000  C
  H193     1.0000 0.83640  0.79076  0.31168  Biso   1.000  H
  H194     1.0000 0.79111  0.88588  0.29538  Biso   1.000  H
  N105     1.0000 0.77922  0.86234  0.39773  Biso   1.000  N
  H195     1.0000 0.79114  0.88582  0.29538  Biso   1.000  H
  H196     1.0000 0.79108  0.03664  0.69551  Biso   1.000  H
  H197     1.0000 0.79106  0.03657  0.69551  Biso   1.000  H
  H198     1.0000 0.77447  0.96830  0.73893  Biso   1.000  H
  H199     1.0000 0.82775  0.94580  0.66359  Biso   1.000  H
  H200     1.0000 0.77450  0.96823  0.73893  Biso   1.000  H
  H201     1.0000 0.82778  0.94574  0.66359  Biso   1.000  H
  C191     1.0000 0.73488  0.85715  0.64169  Biso   1.000  C
  N106     1.0000 0.77269  0.93798  0.49182  Biso   1.000  N
  H202     1.0000 0.77218  0.04860  0.49629  Biso   1.000  H
  H203     1.0000 0.82671  0.98595  0.55043  Biso   1.000  H
  H204     1.0000 0.75009  0.65456  0.45943  Biso   1.000  H
  H205     1.0000 0.81244  0.66455  0.39821  Biso   1.000  H
  N107     1.0000 0.77122  0.75246  0.47402  Biso   1.000  N
  C192     1.0000 0.81680  0.80039  0.44989  Biso   1.000  C
  C193     1.0000 0.76018  0.94127  0.42170  Biso   1.000  C
  C194     1.0000 0.81683  0.80033  0.44989  Biso   1.000  C
  N108     1.0000 0.74746  0.83660  0.56689  Biso   1.000  N
  N109     1.0000 0.74749  0.83654  0.56689  Biso   1.000  N
  H206     1.0000 0.78919  0.84529  0.65709  Biso   1.000  H
  H207     1.0000 0.71371  0.82155  0.66769  Biso   1.000  H
  C195     1.0000 0.80619  0.85398  0.51681  Biso   1.000  C
  C196     1.0000 0.73189  0.77435  0.54201  Biso   1.000  C
  H208     1.0000 0.87668  0.76399  0.43428  Biso   1.000  H
  H209     1.0000 0.87671  0.76393  0.43428  Biso   1.000  H
  O57      1.0000 0.73658  0.00380  0.38585  Biso   1.000  O
  H210     1.0000 0.86031  0.83767  0.53551  Biso   1.000  H
  O58      1.0000 0.69088  0.74199  0.57568  Biso   1.000  O
  O59      1.0000 0.69091  0.74193  0.57568  Biso   1.000  O
  O60      1.0000 0.30895  0.25812  0.42431  Biso   1.000  O
  C197     1.0000 0.26798  0.22570  0.45799  Biso   1.000  C
  N110     1.0000 0.25237  0.16351  0.43311  Biso   1.000  N
  N111     1.0000 0.22869  0.24759  0.52602  Biso   1.000  N
  C198     1.0000 0.26498  0.14290  0.35830  Biso   1.000  C
  C199     1.0000 0.19365  0.14613  0.48319  Biso   1.000  C
  C200     1.0000 0.18309  0.19972  0.55011  Biso   1.000  C
  C201     1.0000 0.18304  0.19972  0.55011  Biso   1.000  C
  C202     1.0000 0.23952  0.30535  0.57062  Biso   1.000  C
  C203     1.0000 0.23955  0.30528  0.57062  Biso   1.000  C
  H211     1.0000 0.21065  0.15482  0.34290  Biso   1.000  H
  H212     1.0000 0.28620  0.17849  0.33230  Biso   1.000  H
  N112     1.0000 0.32338  0.05660  0.33992  Biso   1.000  N
  N113     1.0000 0.22714  0.06212  0.50818  Biso   1.000  N
  H213     1.0000 0.13958  0.16243  0.46449  Biso   1.000  H
  H214     1.0000 0.13960  0.16237  0.46449  Biso   1.000  H
  H215     1.0000 0.12315  0.23612  0.56572  Biso   1.000  H
  N114     1.0000 0.22070  0.13770  0.60227  Biso   1.000  N
  H216     1.0000 0.18748  0.33550  0.60179  Biso   1.000  H
  N115     1.0000 0.30848  0.26561  0.61351  Biso   1.000  N
  H217     1.0000 0.24973  0.34555  0.54062  Biso   1.000  H
  H218     1.0000 0.24976  0.34549  0.54062  Biso   1.000  H
  C204     1.0000 0.40006  0.03621  0.30209  Biso   1.000  C
  C205     1.0000 0.29968  0.98779  0.34242  Biso   1.000  C
  C206     1.0000 0.29971  0.98773  0.34242  Biso   1.000  C
  C207     1.0000 0.22611  0.99385  0.47003  Biso   1.000  C
  C208     1.0000 0.23966  0.05883  0.57829  Biso   1.000  C
  C209     1.0000 0.23968  0.05877  0.57829  Biso   1.000  C
  C210     1.0000 0.21445  0.15791  0.67632  Biso   1.000  C
  C211     1.0000 0.29728  0.24290  0.68661  Biso   1.000  C
  C212     1.0000 0.38773  0.26114  0.59433  Biso   1.000  C
  C213     1.0000 0.38776  0.26108  0.59433  Biso   1.000  C
  N116     1.0000 0.43561  0.95457  0.28099  Biso   1.000  N
  O61      1.0000 0.43178  0.08432  0.28749  Biso   1.000  O
  O62      1.0000 0.43181  0.08426  0.28749  Biso   1.000  O
  C214     1.0000 0.38141  0.91379  0.30252  Biso   1.000  C
  N117     1.0000 0.29521  0.95586  0.41371  Biso   1.000  N
  C215     1.0000 0.38144  0.91372  0.30252  Biso   1.000  C
  C216     1.0000 0.21909  0.01152  0.30790  Biso   1.000  C
  C217     1.0000 0.21912  0.01146  0.30790  Biso   1.000  C
  H219     1.0000 0.17320  0.01409  0.44962  Biso   1.000  H
  H220     1.0000 0.22768  0.95145  0.50370  Biso   1.000  H
  O63      1.0000 0.26325  0.99631  0.61415  Biso   1.000  O
  O64      1.0000 0.26328  0.99624  0.61415  Biso   1.000  O
  H221     1.0000 0.20878  0.11423  0.70462  Biso   1.000  H
  N118     1.0000 0.28689  0.16800  0.69572  Biso   1.000  N
  H222     1.0000 0.16343  0.20935  0.68831  Biso   1.000  H
  H223     1.0000 0.16346  0.20929  0.68831  Biso   1.000  H
  H224     1.0000 0.25257  0.28962  0.71548  Biso   1.000  H
  C218     1.0000 0.38546  0.21785  0.71090  Biso   1.000  C
  C219     1.0000 0.38549  0.21779  0.71090  Biso   1.000  C
  N119     1.0000 0.43523  0.22793  0.64862  Biso   1.000  N
  O65      1.0000 0.41033  0.28514  0.53849  Biso   1.000  O
  O66      1.0000 0.41036  0.28507  0.53849  Biso   1.000  O
  C220     1.0000 0.51380  0.91647  0.23310  Biso   1.000  C
  C221     1.0000 0.36601  0.87588  0.23869  Biso   1.000  C
  N120     1.0000 0.41221  0.85459  0.35921  Biso   1.000  N
  N121     1.0000 0.41224  0.85453  0.35921  Biso   1.000  N
  C222     1.0000 0.36068  0.87956  0.42202  Biso   1.000  C
  H225     1.0000 0.17208  0.05431  0.33640  Biso   1.000  H
  H226     1.0000 0.20881  0.96347  0.30449  Biso   1.000  H
  H227     1.0000 0.22541  0.03181  0.26112  Biso   1.000  H
  H228     1.0000 0.22535  0.03181  0.26112  Biso   1.000  H
  C223     1.0000 0.35115  0.10581  0.72641  Biso   1.000  C
  H229     1.0000 0.38169  0.25369  0.75060  Biso   1.000  H
  N122     1.0000 0.41115  0.13244  0.73280  Biso   1.000  N
  N123     1.0000 0.41117  0.13238  0.73280  Biso   1.000  N
  C224     1.0000 0.51648  0.22743  0.65048  Biso   1.000  C
  N124     1.0000 0.58869  0.86767  0.26719  Biso   1.000  N
  H230     1.0000 0.52202  0.96016  0.20688  Biso   1.000  H
  H231     1.0000 0.50794  0.88086  0.19878  Biso   1.000  H
  H232     1.0000 0.34517  0.91748  0.20353  Biso   1.000  H
  H233     1.0000 0.41810  0.83056  0.21892  Biso   1.000  H
  H234     1.0000 0.32499  0.85545  0.25318  Biso   1.000  H
  C225     1.0000 0.48341  0.77268  0.34951  Biso   1.000  C
  C226     1.0000 0.48344  0.77262  0.34951  Biso   1.000  C
  O67      1.0000 0.37041  0.83944  0.47663  Biso   1.000  O
  O68      1.0000 0.35374  0.03953  0.74601  Biso   1.000  O
  C227     1.0000 0.48603  0.08363  0.76690  Biso   1.000  C
  C228     1.0000 0.48606  0.08357  0.76690  Biso   1.000  C
  N125     1.0000 0.58768  0.14552  0.64079  Biso   1.000  N
  H235     1.0000 0.51647  0.25123  0.69588  Biso   1.000  H
  H236     1.0000 0.52397  0.26305  0.61340  Biso   1.000  H
  H237     1.0000 0.52400  0.26298  0.61340  Biso   1.000  H
  C229     1.0000 0.61443  0.78226  0.28909  Biso   1.000  C
  C230     1.0000 0.64871  0.89424  0.27359  Biso   1.000  C
  H238     1.0000 0.47592  0.73706  0.38659  Biso   1.000  H
  H239     1.0000 0.48342  0.74888  0.30412  Biso   1.000  H
  N126     1.0000 0.56460  0.77218  0.35138  Biso   1.000  N
  H240     1.0000 0.47787  0.03994  0.79311  Biso   1.000  H
  H241     1.0000 0.49195  0.11925  0.80121  Biso   1.000  H
  N127     1.0000 0.56423  0.04554  0.71900  Biso   1.000  N
  H242     1.0000 0.47790  0.03988  0.79311  Biso   1.000  H
  H243     1.0000 0.49198  0.11919  0.80121  Biso   1.000  H
  N128     1.0000 0.56426  0.04548  0.71900  Biso   1.000  N
  C231     1.0000 0.61847  0.08632  0.69753  Biso   1.000  C
  C232     1.0000 0.63915  0.12054  0.57802  Biso   1.000  C
  C233     1.0000 0.63918  0.12048  0.57802  Biso   1.000  C
  H244     1.0000 0.61823  0.74635  0.24940  Biso   1.000  H
  C234     1.0000 0.70264  0.75715  0.31339  Biso   1.000  C
  N129     1.0000 0.71303  0.83205  0.30428  Biso   1.000  N
  O69      1.0000 0.64609  0.96058  0.25398  Biso   1.000  O
  O70      1.0000 0.64612  0.96052  0.25398  Biso   1.000  O
  C235     1.0000 0.61209  0.73897  0.40572  Biso   1.000  C
  C236     1.0000 0.59978  0.96389  0.69790  Biso   1.000  C
  C237     1.0000 0.59980  0.96383  0.69790  Biso   1.000  C
  C238     1.0000 0.70014  0.01232  0.65762  Biso   1.000  C
  C239     1.0000 0.63388  0.12423  0.76130  Biso   1.000  C
  N130     1.0000 0.70471  0.04418  0.58628  Biso   1.000  N
  O71      1.0000 0.62945  0.16060  0.52336  Biso   1.000  O
  H245     1.0000 0.74733  0.71048  0.28451  Biso   1.000  H
  N131     1.0000 0.69144  0.73444  0.38649  Biso   1.000  N
  H246     1.0000 0.74735  0.71042  0.28451  Biso   1.000  H
  C240     1.0000 0.78538  0.84219  0.32372  Biso   1.000  C
  C241     1.0000 0.78541  0.84213  0.32372  Biso   1.000  C
  O72      1.0000 0.58949  0.71497  0.46156  Biso   1.000  O
  N132     1.0000 0.67645  0.94351  0.66013  Biso   1.000  N
  O73      1.0000 0.56806  0.91579  0.71250  Biso   1.000  O
  N133     1.0000 0.67647  0.94345  0.66013  Biso   1.000  N
  C242     1.0000 0.78080  0.98859  0.69210  Biso   1.000  C
  H247     1.0000 0.65465  0.08263  0.79652  Biso   1.000  H
  H248     1.0000 0.67487  0.14460  0.74681  Biso   1.000  H
  H249     1.0000 0.58173  0.16955  0.78112  Biso   1.000  H
  H250     1.0000 0.58176  0.16949  0.78112  Biso   1.000  H
  C243     1.0000 0.77380  0.00620  0.53002  Biso   1.000  C
  C244     1.0000 0.76031  0.69476  0.42938  Biso   1.000  C
  H251     1.0000 0.83640  0.79076  0.31168  Biso   1.000  H
  H252     1.0000 0.79111  0.88588  0.29538  Biso   1.000  H
  N134     1.0000 0.77922  0.86234  0.39773  Biso   1.000  N
  H253     1.0000 0.79114  0.88582  0.29538  Biso   1.000  H
  C245     1.0000 0.73488  0.85715  0.64169  Biso   1.000  C
  H254     1.0000 0.77447  0.96830  0.73893  Biso   1.000  H
  H255     1.0000 0.82775  0.94580  0.66359  Biso   1.000  H
  H256     1.0000 0.77450  0.96823  0.73893  Biso   1.000  H
  H257     1.0000 0.82778  0.94574  0.66359  Biso   1.000  H
  H258     1.0000 0.79108  0.03664  0.69551  Biso   1.000  H
  H259     1.0000 0.79106  0.03657  0.69551  Biso   1.000  H
  N135     1.0000 0.77269  0.93798  0.49182  Biso   1.000  N
  H260     1.0000 0.77218  0.04860  0.49629  Biso   1.000  H
  H261     1.0000 0.82671  0.98595  0.55043  Biso   1.000  H
  H262     1.0000 0.75009  0.65456  0.45943  Biso   1.000  H
  H263     1.0000 0.81244  0.66455  0.39821  Biso   1.000  H
  N136     1.0000 0.77122  0.75246  0.47402  Biso   1.000  N
  C246     1.0000 0.81680  0.80039  0.44989  Biso   1.000  C
  C247     1.0000 0.76018  0.94127  0.42170  Biso   1.000  C
  C248     1.0000 0.81683  0.80033  0.44989  Biso   1.000  C
  N137     1.0000 0.74746  0.83660  0.56689  Biso   1.000  N
  N138     1.0000 0.74749  0.83654  0.56689  Biso   1.000  N
  H264     1.0000 0.78919  0.84529  0.65709  Biso   1.000  H
  H265     1.0000 0.71371  0.82155  0.66769  Biso   1.000  H
  C249     1.0000 0.80619  0.85398  0.51681  Biso   1.000  C
  C250     1.0000 0.73189  0.77435  0.54201  Biso   1.000  C
  H266     1.0000 0.87668  0.76399  0.43428  Biso   1.000  H
  H267     1.0000 0.87671  0.76393  0.43428  Biso   1.000  H
  O74      1.0000 0.73658  0.00380  0.38585  Biso   1.000  O
  H268     1.0000 0.86031  0.83767  0.53551  Biso   1.000  H
  O75      1.0000 0.69088  0.74199  0.57568  Biso   1.000  O
  O76      1.0000 0.69091  0.74193  0.57568  Biso   1.000  O
