data_image0
_cell_length_a       15.15
_cell_length_b       15.15
_cell_length_c       44.75
_cell_angle_alpha    90
_cell_angle_beta     90
_cell_angle_gamma    120

_symmetry_space_group_name_H-M    "P 1"
_symmetry_int_tables_number       1

loop_
  _symmetry_equiv_pos_as_xyz
  'x, y, z'

loop_
  _atom_site_label
  _atom_site_occupancy
  _atom_site_fract_x
  _atom_site_fract_y
  _atom_site_fract_z
  _atom_site_thermal_displace_type
  _atom_site_B_iso_or_equiv
  _atom_site_type_symbol
  C1       1.0000 0.50667  0.54351  0.37242  Biso   1.000  C
  N1       1.0000 0.44320  0.44244  0.36058  Biso   1.000  N
  N2       1.0000 0.60903  0.59404  0.36042  Biso   1.000  N
  H1       1.0000 0.47478  0.58520  0.36793  Biso   1.000  H
  H2       1.0000 0.51017  0.53901  0.39444  Biso   1.000  H
  C2       1.0000 0.38340  0.42225  0.33341  Biso   1.000  C
  C3       1.0000 0.41485  0.35525  0.37672  Biso   1.000  C
  C4       1.0000 0.63776  0.65532  0.33350  Biso   1.000  C
  C5       1.0000 0.69054  0.60471  0.37622  Biso   1.000  C
  C6       1.0000 0.31581  0.30449  0.33316  Biso   1.000  C
  N3       1.0000 0.44242  0.44405  0.30608  Biso   1.000  N
  H3       1.0000 0.34150  0.45647  0.33363  Biso   1.000  H
  N4       1.0000 0.34278  0.27408  0.36083  Biso   1.000  N
  O1       1.0000 0.44830  0.35152  0.40127  Biso   1.000  O
  N5       1.0000 0.60745  0.59801  0.30583  Biso   1.000  N
  C7       1.0000 0.75555  0.70555  0.33327  Biso   1.000  C
  H4       1.0000 0.61575  0.70753  0.33412  Biso   1.000  H
  N6       1.0000 0.77731  0.66828  0.36058  Biso   1.000  N
  O2       1.0000 0.68757  0.56523  0.40031  Biso   1.000  O
  N7       1.0000 0.34834  0.27568  0.30623  Biso   1.000  N
  H5       1.0000 0.24156  0.28246  0.33254  Biso   1.000  H
  C8       1.0000 0.41914  0.35723  0.29044  Biso   1.000  C
  C9       1.0000 0.50448  0.54572  0.29455  Biso   1.000  C
  C10      1.0000 0.29209  0.17111  0.37213  Biso   1.000  C
  C11      1.0000 0.68858  0.60700  0.28994  Biso   1.000  C
  N8       1.0000 0.77580  0.66592  0.30610  Biso   1.000  N
  H6       1.0000 0.78975  0.78161  0.33303  Biso   1.000  H
  C12      1.0000 0.87904  0.70791  0.37213  Biso   1.000  C
  C13      1.0000 0.29643  0.17332  0.29423  Biso   1.000  C
  O3       1.0000 0.45568  0.35426  0.26637  Biso   1.000  O
  H7       1.0000 0.47168  0.58627  0.29953  Biso   1.000  H
  H8       1.0000 0.50684  0.54214  0.27254  Biso   1.000  H
  N9       1.0000 0.33170  0.10907  0.36058  Biso   1.000  N
  H9       1.0000 0.21874  0.13834  0.36713  Biso   1.000  H
  H10      1.0000 0.29806  0.17355  0.39412  Biso   1.000  H
  O4       1.0000 0.68487  0.56988  0.26539  Biso   1.000  O
  C14      1.0000 0.87687  0.70357  0.29423  Biso   1.000  C
  N10      1.0000 0.93132  0.65723  0.36083  Biso   1.000  N
  H11      1.0000 0.91959  0.78123  0.36713  Biso   1.000  H
  H12      1.0000 0.87547  0.70197  0.39412  Biso   1.000  H
  N11      1.0000 0.33406  0.10983  0.30610  Biso   1.000  N
  H13      1.0000 0.22288  0.14146  0.29873  Biso   1.000  H
  H14      1.0000 0.30445  0.17683  0.27222  Biso   1.000  H
  C15      1.0000 0.29444  0.05000  0.33327  Biso   1.000  C
  C16      1.0000 0.39525  0.08582  0.37622  Biso   1.000  C
  N12      1.0000 0.92735  0.65166  0.30623  Biso   1.000  N
  H15      1.0000 0.91859  0.77712  0.29873  Biso   1.000  H
  H16      1.0000 0.87240  0.69556  0.27222  Biso   1.000  H
  C17      1.0000 0.98870  0.68421  0.33316  Biso   1.000  C
  C18      1.0000 0.94035  0.58512  0.37672  Biso   1.000  C
  C19      1.0000 0.39299  0.08155  0.28994  Biso   1.000  C
  H17      1.0000 0.21840  0.00816  0.33303  Biso   1.000  H
  C20      1.0000 0.34463  0.98247  0.33350  Biso   1.000  C
  N13      1.0000 0.40599  0.01501  0.36042  Biso   1.000  N
  O5       1.0000 0.43476  0.12233  0.40031  Biso   1.000  O
  C21      1.0000 0.93808  0.58086  0.29044  Biso   1.000  C
  C22      1.0000 0.03886  0.61660  0.33341  Biso   1.000  C
  H18      1.0000 0.04087  0.75844  0.33254  Biso   1.000  H
  O6       1.0000 0.90323  0.55166  0.40127  Biso   1.000  O
  N14      1.0000 0.99928  0.55685  0.36058  Biso   1.000  N
  O7       1.0000 0.43011  0.11501  0.26539  Biso   1.000  O
  N15      1.0000 0.40202  0.00945  0.30583  Biso   1.000  N
  H19      1.0000 0.29247  0.90823  0.33412  Biso   1.000  H
  C23      1.0000 0.45647  0.96311  0.37242  Biso   1.000  C
  O8       1.0000 0.89858  0.54435  0.26637  Biso   1.000  O
  N16      1.0000 0.00164  0.55761  0.30608  Biso   1.000  N
  H20      1.0000 0.11494  0.65852  0.33363  Biso   1.000  H
  C24      1.0000 0.03691  0.49336  0.37242  Biso   1.000  C
  C25      1.0000 0.45430  0.95877  0.29455  Biso   1.000  C
  N17      1.0000 0.55750  0.00069  0.36058  Biso   1.000  N
  H21      1.0000 0.41475  0.88956  0.36793  Biso   1.000  H
  H22      1.0000 0.46094  0.97111  0.39444  Biso   1.000  H
  C26      1.0000 0.04125  0.49557  0.29455  Biso   1.000  C
  N18      1.0000 0.98500  0.39100  0.36042  Biso   1.000  N
  H23      1.0000 0.11046  0.52522  0.36793  Biso   1.000  H
  H24      1.0000 0.02889  0.48985  0.39444  Biso   1.000  H
  N19      1.0000 0.55603  0.99840  0.30608  Biso   1.000  N
  H25      1.0000 0.41375  0.88544  0.29953  Biso   1.000  H
  H26      1.0000 0.45787  0.96471  0.27254  Biso   1.000  H
  C27      1.0000 0.57779  0.96113  0.33341  Biso   1.000  C
  C28      1.0000 0.64472  0.05960  0.37672  Biso   1.000  C
  N20      1.0000 0.99056  0.39260  0.30583  Biso   1.000  N
  H27      1.0000 0.11460  0.52834  0.29953  Biso   1.000  H
  H28      1.0000 0.03528  0.49313  0.27254  Biso   1.000  H
  C29      1.0000 0.91419  0.30944  0.37622  Biso   1.000  C
  C30      1.0000 0.01753  0.36219  0.33350  Biso   1.000  C
  C31      1.0000 0.64276  0.06189  0.29044  Biso   1.000  C
  C32      1.0000 0.69554  0.01128  0.33316  Biso   1.000  C
  H29      1.0000 0.54359  0.88506  0.33363  Biso   1.000  H
  O9       1.0000 0.64846  0.09680  0.40127  Biso   1.000  O
  N21      1.0000 0.72589  0.06867  0.36083  Biso   1.000  N
  C33      1.0000 0.91849  0.31143  0.28994  Biso   1.000  C
  N22      1.0000 0.89092  0.22263  0.36058  Biso   1.000  N
  O10      1.0000 0.87766  0.31242  0.40031  Biso   1.000  O
  C34      1.0000 0.94994  0.24443  0.33327  Biso   1.000  C
  H30      1.0000 0.09178  0.38421  0.33412  Biso   1.000  H
  O11      1.0000 0.64573  0.10137  0.26637  Biso   1.000  O
  N23      1.0000 0.72430  0.07264  0.30623  Biso   1.000  N
  H31      1.0000 0.71759  0.95915  0.33254  Biso   1.000  H
  C35      1.0000 0.82886  0.12096  0.37213  Biso   1.000  C
  N24      1.0000 0.89014  0.22423  0.30610  Biso   1.000  N
  O12      1.0000 0.88504  0.31516  0.26539  Biso   1.000  O
  H32      1.0000 0.99184  0.21021  0.33303  Biso   1.000  H
  C36      1.0000 0.82667  0.12317  0.29423  Biso   1.000  C
  H33      1.0000 0.86166  0.08041  0.36713  Biso   1.000  H
  H34      1.0000 0.82649  0.12454  0.39412  Biso   1.000  H
  H35      1.0000 0.85852  0.08140  0.29873  Biso   1.000  H
  H36      1.0000 0.82317  0.12766  0.27222  Biso   1.000  H
  C37      1.0000 0.62980  0.78977  0.46092  Biso   1.000  C
  N25      1.0000 0.68163  0.73924  0.47289  Biso   1.000  N
  N26      1.0000 0.68167  0.73931  0.47289  Biso   1.000  N
  N27      1.0000 0.66740  0.89083  0.47276  Biso   1.000  N
  H37      1.0000 0.55622  0.74808  0.46541  Biso   1.000  H
  H38      1.0000 0.63779  0.79427  0.43891  Biso   1.000  H
  N28      1.0000 0.66744  0.89091  0.47276  Biso   1.000  N
  C38      1.0000 0.75247  0.72857  0.45712  Biso   1.000  C
  C39      1.0000 0.64908  0.67796  0.49982  Biso   1.000  C
  C40      1.0000 0.62783  0.91111  0.49993  Biso   1.000  C
  C41      1.0000 0.72628  0.97810  0.45663  Biso   1.000  C
  O13      1.0000 0.78897  0.76805  0.43303  Biso   1.000  O
  N29      1.0000 0.77567  0.66500  0.47276  Biso   1.000  N
  C42      1.0000 0.71668  0.62781  0.50007  Biso   1.000  C
  N30      1.0000 0.67612  0.73535  0.52749  Biso   1.000  N
  H39      1.0000 0.57485  0.62575  0.49920  Biso   1.000  H
  H40      1.0000 0.57489  0.62582  0.49920  Biso   1.000  H
  N31      1.0000 0.66505  0.88931  0.52724  Biso   1.000  N
  H41      1.0000 0.55171  0.87689  0.49971  Biso   1.000  H
  C43      1.0000 0.67800  0.02886  0.50018  Biso   1.000  C
  O14      1.0000 0.76342  0.98176  0.43204  Biso   1.000  O
  N32      1.0000 0.73534  0.05920  0.47251  Biso   1.000  N
  C44      1.0000 0.83777  0.62537  0.46121  Biso   1.000  C
  N33      1.0000 0.77652  0.66736  0.52724  Biso   1.000  N
  H42      1.0000 0.67478  0.55166  0.50029  Biso   1.000  H
  C45      1.0000 0.74822  0.72628  0.54337  Biso   1.000  C
  C46      1.0000 0.62540  0.78756  0.53879  Biso   1.000  C
  C47      1.0000 0.62543  0.78764  0.53879  Biso   1.000  C
  C48      1.0000 0.72855  0.97605  0.54288  Biso   1.000  C
  C49      1.0000 0.72859  0.97612  0.54288  Biso   1.000  C
  N34      1.0000 0.73929  0.05760  0.52711  Biso   1.000  N
  H43      1.0000 0.62578  0.05089  0.50080  Biso   1.000  H
  N35      1.0000 0.73933  0.05768  0.52711  Biso   1.000  N
  C50      1.0000 0.78762  0.16217  0.46121  Biso   1.000  C
  C51      1.0000 0.78766  0.16225  0.46121  Biso   1.000  C
  N36      1.0000 0.94077  0.67613  0.47251  Biso   1.000  N
  H44      1.0000 0.80500  0.55205  0.46619  Biso   1.000  H
  H45      1.0000 0.84018  0.63139  0.43920  Biso   1.000  H
  H46      1.0000 0.80504  0.55212  0.46619  Biso   1.000  H
  C52      1.0000 0.83998  0.62979  0.53908  Biso   1.000  C
  O15      1.0000 0.78163  0.76340  0.56796  Biso   1.000  O
  O16      1.0000 0.78167  0.76347  0.56796  Biso   1.000  O
  H47      1.0000 0.55209  0.74709  0.53381  Biso   1.000  H
  H48      1.0000 0.63135  0.79114  0.56080  Biso   1.000  H
  H49      1.0000 0.63138  0.79122  0.56080  Biso   1.000  H
  O17      1.0000 0.76810  0.97909  0.56697  Biso   1.000  O
  C53      1.0000 0.78975  0.15996  0.53908  Biso   1.000  C
  C54      1.0000 0.78979  0.16004  0.53908  Biso   1.000  C
  N37      1.0000 0.88931  0.22429  0.47276  Biso   1.000  N
  H50      1.0000 0.74704  0.19494  0.46619  Biso   1.000  H
  H51      1.0000 0.79119  0.15981  0.43920  Biso   1.000  H
  H52      1.0000 0.74708  0.19502  0.46619  Biso   1.000  H
  C55      1.0000 0.97114  0.64907  0.50018  Biso   1.000  C
  C56      1.0000 0.02187  0.74815  0.45663  Biso   1.000  C
  C57      1.0000 0.02190  0.74823  0.45663  Biso   1.000  C
  N38      1.0000 0.94233  0.68162  0.52711  Biso   1.000  N
  H53      1.0000 0.80811  0.55616  0.53459  Biso   1.000  H
  H54      1.0000 0.84352  0.63779  0.56109  Biso   1.000  H
  H55      1.0000 0.80815  0.55624  0.53459  Biso   1.000  H
  H56      1.0000 0.80805  0.55616  0.53459  Biso   1.000  H
  N39      1.0000 0.89087  0.22345  0.52724  Biso   1.000  N
  H57      1.0000 0.74809  0.19189  0.53459  Biso   1.000  H
  H58      1.0000 0.79427  0.15645  0.56109  Biso   1.000  H
  N40      1.0000 0.89090  0.22353  0.52724  Biso   1.000  N
  H59      1.0000 0.79430  0.15653  0.56109  Biso   1.000  H
  C58      1.0000 0.97607  0.24746  0.45712  Biso   1.000  C
  C59      1.0000 0.91108  0.28328  0.50007  Biso   1.000  C
  C60      1.0000 0.97611  0.24753  0.45712  Biso   1.000  C
  H60      1.0000 0.94911  0.57491  0.50080  Biso   1.000  H
  C61      1.0000 0.08890  0.71668  0.49993  Biso   1.000  C
  O18      1.0000 0.01820  0.78161  0.43204  Biso   1.000  O
  N41      1.0000 0.10911  0.77651  0.47276  Biso   1.000  N
  O19      1.0000 0.01824  0.78169  0.43204  Biso   1.000  O
  C62      1.0000 0.02391  0.75250  0.54288  Biso   1.000  C
  C63      1.0000 0.97811  0.25180  0.54337  Biso   1.000  C
  O20      1.0000 0.97911  0.21103  0.43303  Biso   1.000  O
  N42      1.0000 0.05765  0.31834  0.47289  Biso   1.000  N
  H61      1.0000 0.87692  0.32520  0.50029  Biso   1.000  H
  C64      1.0000 0.02884  0.35089  0.49982  Biso   1.000  C
  N43      1.0000 0.11067  0.77567  0.52724  Biso   1.000  N
  H62      1.0000 0.12305  0.67476  0.49971  Biso   1.000  H
  N44      1.0000 0.11071  0.77575  0.52724  Biso   1.000  N
  H63      1.0000 0.12309  0.67483  0.49971  Biso   1.000  H
  C65      1.0000 0.21023  0.84000  0.46092  Biso   1.000  C
  O21      1.0000 0.02087  0.78893  0.56697  Biso   1.000  O
  O22      1.0000 0.02091  0.78901  0.56697  Biso   1.000  O
  O23      1.0000 0.98178  0.21834  0.56796  Biso   1.000  O
  N45      1.0000 0.05921  0.32383  0.52749  Biso   1.000  N
  N46      1.0000 0.05925  0.32390  0.52749  Biso   1.000  N
  C66      1.0000 0.16000  0.37017  0.46092  Biso   1.000  C
  H64      1.0000 0.05087  0.42505  0.49920  Biso   1.000  H
  H65      1.0000 0.05091  0.42512  0.49920  Biso   1.000  H
  C67      1.0000 0.21236  0.83779  0.53879  Biso   1.000  C
  N47      1.0000 0.26068  0.94236  0.47289  Biso   1.000  N
  H66      1.0000 0.25189  0.80806  0.46541  Biso   1.000  H
  H67      1.0000 0.20571  0.84350  0.43891  Biso   1.000  H
  H68      1.0000 0.25192  0.80814  0.46541  Biso   1.000  H
  C68      1.0000 0.16221  0.37459  0.53879  Biso   1.000  C
  N48      1.0000 0.22346  0.33259  0.47276  Biso   1.000  N
  H69      1.0000 0.19193  0.44379  0.46541  Biso   1.000  H
  H70      1.0000 0.15646  0.36217  0.43891  Biso   1.000  H
  N49      1.0000 0.26464  0.94076  0.52749  Biso   1.000  N
  H71      1.0000 0.25294  0.80501  0.53381  Biso   1.000  H
  H72      1.0000 0.20879  0.84015  0.56080  Biso   1.000  H
  H73      1.0000 0.20883  0.84023  0.56080  Biso   1.000  H
  C69      1.0000 0.32198  0.97109  0.49982  Biso   1.000  C
  C70      1.0000 0.27143  0.02391  0.45712  Biso   1.000  C
  N50      1.0000 0.22431  0.33496  0.52724  Biso   1.000  N
  H74      1.0000 0.19498  0.44791  0.53381  Biso   1.000  H
  H75      1.0000 0.15980  0.36857  0.56080  Biso   1.000  H
  C71      1.0000 0.25176  0.27368  0.45663  Biso   1.000  C
  C72      1.0000 0.28330  0.37215  0.49993  Biso   1.000  C
  C73      1.0000 0.28334  0.37223  0.49993  Biso   1.000  C
  C74      1.0000 0.27370  0.02185  0.54337  Biso   1.000  C
  C75      1.0000 0.27374  0.02193  0.54337  Biso   1.000  C
  H76      1.0000 0.37420  0.94906  0.49920  Biso   1.000  H
  C76      1.0000 0.37215  0.08885  0.50007  Biso   1.000  C
  C77      1.0000 0.37219  0.08892  0.50007  Biso   1.000  C
  O24      1.0000 0.23188  0.02086  0.43303  Biso   1.000  O
  N51      1.0000 0.33493  0.11065  0.47276  Biso   1.000  N
  C78      1.0000 0.24751  0.27139  0.54288  Biso   1.000  C
  N52      1.0000 0.32385  0.26461  0.47251  Biso   1.000  N
  O25      1.0000 0.21835  0.23656  0.43204  Biso   1.000  O
  C79      1.0000 0.35090  0.32200  0.50018  Biso   1.000  C
  H77      1.0000 0.32520  0.44829  0.49971  Biso   1.000  H
  O26      1.0000 0.23656  0.01819  0.56796  Biso   1.000  O
  N53      1.0000 0.33258  0.10912  0.52724  Biso   1.000  N
  H78      1.0000 0.44827  0.12307  0.50029  Biso   1.000  H
  C80      1.0000 0.37458  0.21240  0.46121  Biso   1.000  C
  N54      1.0000 0.31835  0.26072  0.52711  Biso   1.000  N
  O27      1.0000 0.21100  0.23191  0.56697  Biso   1.000  O
  H79      1.0000 0.42512  0.37421  0.50080  Biso   1.000  H
  C81      1.0000 0.37018  0.21019  0.53908  Biso   1.000  C
  H80      1.0000 0.44789  0.25287  0.46619  Biso   1.000  H
  H81      1.0000 0.36863  0.20882  0.43920  Biso   1.000  H
  H82      1.0000 0.44376  0.25188  0.53459  Biso   1.000  H
  H83      1.0000 0.36219  0.20569  0.56109  Biso   1.000  H
  C82      1.0000 0.62980  0.78977  0.46092  Biso   1.000  C
  N55      1.0000 0.68163  0.73924  0.47289  Biso   1.000  N
  N56      1.0000 0.68167  0.73931  0.47289  Biso   1.000  N
  H84      1.0000 0.55622  0.74808  0.46541  Biso   1.000  H
  H85      1.0000 0.63779  0.79427  0.43891  Biso   1.000  H
  N57      1.0000 0.66740  0.89083  0.47276  Biso   1.000  N
  N58      1.0000 0.66744  0.89091  0.47276  Biso   1.000  N
  C83      1.0000 0.75247  0.72857  0.45712  Biso   1.000  C
  C84      1.0000 0.64908  0.67796  0.49982  Biso   1.000  C
  C85      1.0000 0.62783  0.91111  0.49993  Biso   1.000  C
  C86      1.0000 0.72628  0.97810  0.45663  Biso   1.000  C
  O28      1.0000 0.78897  0.76805  0.43303  Biso   1.000  O
  N59      1.0000 0.77567  0.66500  0.47276  Biso   1.000  N
  C87      1.0000 0.71668  0.62781  0.50007  Biso   1.000  C
  N60      1.0000 0.67612  0.73535  0.52749  Biso   1.000  N
  H86      1.0000 0.57485  0.62575  0.49920  Biso   1.000  H
  H87      1.0000 0.57489  0.62582  0.49920  Biso   1.000  H
  N61      1.0000 0.66505  0.88931  0.52724  Biso   1.000  N
  H88      1.0000 0.55171  0.87689  0.49971  Biso   1.000  H
  C88      1.0000 0.67800  0.02886  0.50018  Biso   1.000  C
  O29      1.0000 0.76342  0.98176  0.43204  Biso   1.000  O
  N62      1.0000 0.73534  0.05920  0.47251  Biso   1.000  N
  C89      1.0000 0.83777  0.62537  0.46121  Biso   1.000  C
  N63      1.0000 0.77652  0.66736  0.52724  Biso   1.000  N
  H89      1.0000 0.67478  0.55166  0.50029  Biso   1.000  H
  C90      1.0000 0.74822  0.72628  0.54337  Biso   1.000  C
  C91      1.0000 0.62540  0.78756  0.53879  Biso   1.000  C
  C92      1.0000 0.62543  0.78764  0.53879  Biso   1.000  C
  C93      1.0000 0.72855  0.97605  0.54288  Biso   1.000  C
  C94      1.0000 0.72859  0.97612  0.54288  Biso   1.000  C
  N64      1.0000 0.73929  0.05760  0.52711  Biso   1.000  N
  H90      1.0000 0.62578  0.05089  0.50080  Biso   1.000  H
  N65      1.0000 0.73933  0.05768  0.52711  Biso   1.000  N
  C95      1.0000 0.78762  0.16217  0.46121  Biso   1.000  C
  C96      1.0000 0.78766  0.16225  0.46121  Biso   1.000  C
  N66      1.0000 0.94077  0.67613  0.47251  Biso   1.000  N
  H91      1.0000 0.84018  0.63139  0.43920  Biso   1.000  H
  H92      1.0000 0.80500  0.55205  0.46619  Biso   1.000  H
  H93      1.0000 0.80504  0.55212  0.46619  Biso   1.000  H
  C97      1.0000 0.83998  0.62979  0.53908  Biso   1.000  C
  O30      1.0000 0.78163  0.76340  0.56796  Biso   1.000  O
  O31      1.0000 0.78167  0.76347  0.56796  Biso   1.000  O
  H94      1.0000 0.55209  0.74709  0.53381  Biso   1.000  H
  H95      1.0000 0.63135  0.79114  0.56080  Biso   1.000  H
  H96      1.0000 0.63138  0.79122  0.56080  Biso   1.000  H
  O32      1.0000 0.76810  0.97909  0.56697  Biso   1.000  O
  C98      1.0000 0.78975  0.15996  0.53908  Biso   1.000  C
  C99      1.0000 0.78979  0.16004  0.53908  Biso   1.000  C
  N67      1.0000 0.88931  0.22429  0.47276  Biso   1.000  N
  H97      1.0000 0.74704  0.19494  0.46619  Biso   1.000  H
  H98      1.0000 0.79119  0.15981  0.43920  Biso   1.000  H
  H99      1.0000 0.74708  0.19502  0.46619  Biso   1.000  H
  C100     1.0000 0.97114  0.64907  0.50018  Biso   1.000  C
  C101     1.0000 0.02187  0.74815  0.45663  Biso   1.000  C
  C102     1.0000 0.02190  0.74823  0.45663  Biso   1.000  C
  N68      1.0000 0.94233  0.68162  0.52711  Biso   1.000  N
  H100     1.0000 0.84352  0.63779  0.56109  Biso   1.000  H
  H101     1.0000 0.80815  0.55624  0.53459  Biso   1.000  H
  H102     1.0000 0.80811  0.55616  0.53459  Biso   1.000  H
  H103     1.0000 0.80805  0.55616  0.53459  Biso   1.000  H
  N69      1.0000 0.89087  0.22345  0.52724  Biso   1.000  N
  H104     1.0000 0.74809  0.19189  0.53459  Biso   1.000  H
  H105     1.0000 0.79427  0.15645  0.56109  Biso   1.000  H
  N70      1.0000 0.89090  0.22353  0.52724  Biso   1.000  N
  H106     1.0000 0.79430  0.15653  0.56109  Biso   1.000  H
  C103     1.0000 0.97607  0.24746  0.45712  Biso   1.000  C
  C104     1.0000 0.91108  0.28328  0.50007  Biso   1.000  C
  C105     1.0000 0.97611  0.24753  0.45712  Biso   1.000  C
  H107     1.0000 0.94911  0.57491  0.50080  Biso   1.000  H
  C106     1.0000 0.08890  0.71668  0.49993  Biso   1.000  C
  O33      1.0000 0.01820  0.78161  0.43204  Biso   1.000  O
  N71      1.0000 0.10911  0.77651  0.47276  Biso   1.000  N
  O34      1.0000 0.01824  0.78169  0.43204  Biso   1.000  O
  C107     1.0000 0.02391  0.75250  0.54288  Biso   1.000  C
  C108     1.0000 0.97811  0.25180  0.54337  Biso   1.000  C
  O35      1.0000 0.97911  0.21103  0.43303  Biso   1.000  O
  N72      1.0000 0.05765  0.31834  0.47289  Biso   1.000  N
  H108     1.0000 0.87692  0.32520  0.50029  Biso   1.000  H
  C109     1.0000 0.02884  0.35089  0.49982  Biso   1.000  C
  N73      1.0000 0.11067  0.77567  0.52724  Biso   1.000  N
  H109     1.0000 0.12305  0.67476  0.49971  Biso   1.000  H
  N74      1.0000 0.11071  0.77575  0.52724  Biso   1.000  N
  H110     1.0000 0.12309  0.67483  0.49971  Biso   1.000  H
  C110     1.0000 0.21023  0.84000  0.46092  Biso   1.000  C
  O36      1.0000 0.02087  0.78893  0.56697  Biso   1.000  O
  O37      1.0000 0.02091  0.78901  0.56697  Biso   1.000  O
  O38      1.0000 0.98178  0.21834  0.56796  Biso   1.000  O
  N75      1.0000 0.05921  0.32383  0.52749  Biso   1.000  N
  N76      1.0000 0.05925  0.32390  0.52749  Biso   1.000  N
  C111     1.0000 0.16000  0.37017  0.46092  Biso   1.000  C
  H111     1.0000 0.05087  0.42505  0.49920  Biso   1.000  H
  H112     1.0000 0.05091  0.42512  0.49920  Biso   1.000  H
  C112     1.0000 0.21236  0.83779  0.53879  Biso   1.000  C
  N77      1.0000 0.26068  0.94236  0.47289  Biso   1.000  N
  H113     1.0000 0.25189  0.80806  0.46541  Biso   1.000  H
  H114     1.0000 0.20571  0.84350  0.43891  Biso   1.000  H
  H115     1.0000 0.25192  0.80814  0.46541  Biso   1.000  H
  C113     1.0000 0.16221  0.37459  0.53879  Biso   1.000  C
  N78      1.0000 0.22346  0.33259  0.47276  Biso   1.000  N
  H116     1.0000 0.19193  0.44379  0.46541  Biso   1.000  H
  H117     1.0000 0.15646  0.36217  0.43891  Biso   1.000  H
  N79      1.0000 0.26464  0.94076  0.52749  Biso   1.000  N
  H118     1.0000 0.25294  0.80501  0.53381  Biso   1.000  H
  H119     1.0000 0.20879  0.84015  0.56080  Biso   1.000  H
  H120     1.0000 0.20883  0.84023  0.56080  Biso   1.000  H
  C114     1.0000 0.32198  0.97109  0.49982  Biso   1.000  C
  C115     1.0000 0.27143  0.02391  0.45712  Biso   1.000  C
  N80      1.0000 0.22431  0.33496  0.52724  Biso   1.000  N
  H121     1.0000 0.19498  0.44791  0.53381  Biso   1.000  H
  H122     1.0000 0.15980  0.36857  0.56080  Biso   1.000  H
  C116     1.0000 0.25176  0.27368  0.45663  Biso   1.000  C
  C117     1.0000 0.28330  0.37215  0.49993  Biso   1.000  C
  C118     1.0000 0.28334  0.37223  0.49993  Biso   1.000  C
  C119     1.0000 0.27370  0.02185  0.54337  Biso   1.000  C
  C120     1.0000 0.27374  0.02193  0.54337  Biso   1.000  C
  H123     1.0000 0.37420  0.94906  0.49920  Biso   1.000  H
  C121     1.0000 0.37215  0.08885  0.50007  Biso   1.000  C
  C122     1.0000 0.37219  0.08892  0.50007  Biso   1.000  C
  O39      1.0000 0.23188  0.02086  0.43303  Biso   1.000  O
  N81      1.0000 0.33493  0.11065  0.47276  Biso   1.000  N
  C123     1.0000 0.24751  0.27139  0.54288  Biso   1.000  C
  N82      1.0000 0.32385  0.26461  0.47251  Biso   1.000  N
  O40      1.0000 0.21835  0.23656  0.43204  Biso   1.000  O
  C124     1.0000 0.35090  0.32200  0.50018  Biso   1.000  C
  H124     1.0000 0.32520  0.44829  0.49971  Biso   1.000  H
  O41      1.0000 0.23656  0.01819  0.56796  Biso   1.000  O
  N83      1.0000 0.33258  0.10912  0.52724  Biso   1.000  N
  H125     1.0000 0.44827  0.12307  0.50029  Biso   1.000  H
  C125     1.0000 0.37458  0.21240  0.46121  Biso   1.000  C
  N84      1.0000 0.31835  0.26072  0.52711  Biso   1.000  N
  O42      1.0000 0.21100  0.23191  0.56697  Biso   1.000  O
  H126     1.0000 0.42512  0.37421  0.50080  Biso   1.000  H
  C126     1.0000 0.37018  0.21019  0.53908  Biso   1.000  C
  H127     1.0000 0.44789  0.25287  0.46619  Biso   1.000  H
  H128     1.0000 0.36863  0.20882  0.43920  Biso   1.000  H
  H129     1.0000 0.44376  0.25188  0.53459  Biso   1.000  H
  H130     1.0000 0.36219  0.20569  0.56109  Biso   1.000  H
  C127     1.0000 0.62980  0.78977  0.46092  Biso   1.000  C
  N85      1.0000 0.68163  0.73924  0.47289  Biso   1.000  N
  N86      1.0000 0.68167  0.73931  0.47289  Biso   1.000  N
  H131     1.0000 0.55622  0.74808  0.46541  Biso   1.000  H
  H132     1.0000 0.63779  0.79427  0.43891  Biso   1.000  H
  N87      1.0000 0.66740  0.89083  0.47276  Biso   1.000  N
  N88      1.0000 0.66744  0.89091  0.47276  Biso   1.000  N
  C128     1.0000 0.75247  0.72857  0.45712  Biso   1.000  C
  C129     1.0000 0.64908  0.67796  0.49982  Biso   1.000  C
  C130     1.0000 0.62783  0.91111  0.49993  Biso   1.000  C
  C131     1.0000 0.72628  0.97810  0.45663  Biso   1.000  C
  O43      1.0000 0.78897  0.76805  0.43303  Biso   1.000  O
  N89      1.0000 0.77567  0.66500  0.47276  Biso   1.000  N
  C132     1.0000 0.71668  0.62781  0.50007  Biso   1.000  C
  N90      1.0000 0.67612  0.73535  0.52749  Biso   1.000  N
  H133     1.0000 0.57485  0.62575  0.49920  Biso   1.000  H
  H134     1.0000 0.57489  0.62582  0.49920  Biso   1.000  H
  N91      1.0000 0.66505  0.88931  0.52724  Biso   1.000  N
  H135     1.0000 0.55171  0.87689  0.49971  Biso   1.000  H
  C133     1.0000 0.67800  0.02886  0.50018  Biso   1.000  C
  O44      1.0000 0.76342  0.98176  0.43204  Biso   1.000  O
  N92      1.0000 0.73534  0.05920  0.47251  Biso   1.000  N
  C134     1.0000 0.83777  0.62537  0.46121  Biso   1.000  C
  N93      1.0000 0.77652  0.66736  0.52724  Biso   1.000  N
  H136     1.0000 0.67478  0.55166  0.50029  Biso   1.000  H
  C135     1.0000 0.74822  0.72628  0.54337  Biso   1.000  C
  C136     1.0000 0.62540  0.78756  0.53879  Biso   1.000  C
  C137     1.0000 0.62543  0.78764  0.53879  Biso   1.000  C
  C138     1.0000 0.72855  0.97605  0.54288  Biso   1.000  C
  C139     1.0000 0.72859  0.97612  0.54288  Biso   1.000  C
  N94      1.0000 0.73929  0.05760  0.52711  Biso   1.000  N
  H137     1.0000 0.62578  0.05089  0.50080  Biso   1.000  H
  N95      1.0000 0.73933  0.05768  0.52711  Biso   1.000  N
  C140     1.0000 0.78762  0.16217  0.46121  Biso   1.000  C
  C141     1.0000 0.78766  0.16225  0.46121  Biso   1.000  C
  N96      1.0000 0.94077  0.67613  0.47251  Biso   1.000  N
  H138     1.0000 0.84018  0.63139  0.43920  Biso   1.000  H
  H139     1.0000 0.80500  0.55205  0.46619  Biso   1.000  H
  H140     1.0000 0.80504  0.55212  0.46619  Biso   1.000  H
  C142     1.0000 0.83998  0.62979  0.53908  Biso   1.000  C
  O45      1.0000 0.78163  0.76340  0.56796  Biso   1.000  O
  O46      1.0000 0.78167  0.76347  0.56796  Biso   1.000  O
  H141     1.0000 0.55209  0.74709  0.53381  Biso   1.000  H
  H142     1.0000 0.63135  0.79114  0.56080  Biso   1.000  H
  H143     1.0000 0.63138  0.79122  0.56080  Biso   1.000  H
  O47      1.0000 0.76810  0.97909  0.56697  Biso   1.000  O
  C143     1.0000 0.78975  0.15996  0.53908  Biso   1.000  C
  C144     1.0000 0.78979  0.16004  0.53908  Biso   1.000  C
  N97      1.0000 0.88931  0.22429  0.47276  Biso   1.000  N
  H144     1.0000 0.74704  0.19494  0.46619  Biso   1.000  H
  H145     1.0000 0.79119  0.15981  0.43920  Biso   1.000  H
  H146     1.0000 0.74708  0.19502  0.46619  Biso   1.000  H
  C145     1.0000 0.97114  0.64907  0.50018  Biso   1.000  C
  C146     1.0000 0.02187  0.74815  0.45663  Biso   1.000  C
  C147     1.0000 0.02190  0.74823  0.45663  Biso   1.000  C
  N98      1.0000 0.94233  0.68162  0.52711  Biso   1.000  N
  H147     1.0000 0.84352  0.63779  0.56109  Biso   1.000  H
  H148     1.0000 0.80811  0.55616  0.53459  Biso   1.000  H
  H149     1.0000 0.80815  0.55624  0.53459  Biso   1.000  H
  H150     1.0000 0.80805  0.55616  0.53459  Biso   1.000  H
  N99      1.0000 0.89087  0.22345  0.52724  Biso   1.000  N
  H151     1.0000 0.74809  0.19189  0.53459  Biso   1.000  H
  H152     1.0000 0.79427  0.15645  0.56109  Biso   1.000  H
  N100     1.0000 0.89090  0.22353  0.52724  Biso   1.000  N
  H153     1.0000 0.79430  0.15653  0.56109  Biso   1.000  H
  C148     1.0000 0.97607  0.24746  0.45712  Biso   1.000  C
  C149     1.0000 0.91108  0.28328  0.50007  Biso   1.000  C
  C150     1.0000 0.97611  0.24753  0.45712  Biso   1.000  C
  H154     1.0000 0.94911  0.57491  0.50080  Biso   1.000  H
  C151     1.0000 0.08890  0.71668  0.49993  Biso   1.000  C
  O48      1.0000 0.01820  0.78161  0.43204  Biso   1.000  O
  N101     1.0000 0.10911  0.77651  0.47276  Biso   1.000  N
  O49      1.0000 0.01824  0.78169  0.43204  Biso   1.000  O
  C152     1.0000 0.02391  0.75250  0.54288  Biso   1.000  C
  C153     1.0000 0.97811  0.25180  0.54337  Biso   1.000  C
  O50      1.0000 0.97911  0.21103  0.43303  Biso   1.000  O
  N102     1.0000 0.05765  0.31834  0.47289  Biso   1.000  N
  H155     1.0000 0.87692  0.32520  0.50029  Biso   1.000  H
  C154     1.0000 0.02884  0.35089  0.49982  Biso   1.000  C
  N103     1.0000 0.11067  0.77567  0.52724  Biso   1.000  N
  H156     1.0000 0.12305  0.67476  0.49971  Biso   1.000  H
  N104     1.0000 0.11071  0.77575  0.52724  Biso   1.000  N
  H157     1.0000 0.12309  0.67483  0.49971  Biso   1.000  H
  C155     1.0000 0.21023  0.84000  0.46092  Biso   1.000  C
  O51      1.0000 0.02087  0.78893  0.56697  Biso   1.000  O
  O52      1.0000 0.02091  0.78901  0.56697  Biso   1.000  O
  O53      1.0000 0.98178  0.21834  0.56796  Biso   1.000  O
  N105     1.0000 0.05921  0.32383  0.52749  Biso   1.000  N
  N106     1.0000 0.05925  0.32390  0.52749  Biso   1.000  N
  C156     1.0000 0.16000  0.37017  0.46092  Biso   1.000  C
  H158     1.0000 0.05087  0.42505  0.49920  Biso   1.000  H
  H159     1.0000 0.05091  0.42512  0.49920  Biso   1.000  H
  C157     1.0000 0.21236  0.83779  0.53879  Biso   1.000  C
  N107     1.0000 0.26068  0.94236  0.47289  Biso   1.000  N
  H160     1.0000 0.25189  0.80806  0.46541  Biso   1.000  H
  H161     1.0000 0.20571  0.84350  0.43891  Biso   1.000  H
  H162     1.0000 0.25192  0.80814  0.46541  Biso   1.000  H
  C158     1.0000 0.16221  0.37459  0.53879  Biso   1.000  C
  N108     1.0000 0.22346  0.33259  0.47276  Biso   1.000  N
  H163     1.0000 0.19193  0.44379  0.46541  Biso   1.000  H
  H164     1.0000 0.15646  0.36217  0.43891  Biso   1.000  H
  N109     1.0000 0.26464  0.94076  0.52749  Biso   1.000  N
  H165     1.0000 0.25294  0.80501  0.53381  Biso   1.000  H
  H166     1.0000 0.20879  0.84015  0.56080  Biso   1.000  H
  H167     1.0000 0.20883  0.84023  0.56080  Biso   1.000  H
  C159     1.0000 0.32198  0.97109  0.49982  Biso   1.000  C
  C160     1.0000 0.27143  0.02391  0.45712  Biso   1.000  C
  N110     1.0000 0.22431  0.33496  0.52724  Biso   1.000  N
  H168     1.0000 0.19498  0.44791  0.53381  Biso   1.000  H
  H169     1.0000 0.15980  0.36857  0.56080  Biso   1.000  H
  C161     1.0000 0.25176  0.27368  0.45663  Biso   1.000  C
  C162     1.0000 0.28330  0.37215  0.49993  Biso   1.000  C
  C163     1.0000 0.28334  0.37223  0.49993  Biso   1.000  C
  C164     1.0000 0.27370  0.02185  0.54337  Biso   1.000  C
  C165     1.0000 0.27374  0.02193  0.54337  Biso   1.000  C
  H170     1.0000 0.37420  0.94906  0.49920  Biso   1.000  H
  C166     1.0000 0.37215  0.08885  0.50007  Biso   1.000  C
  C167     1.0000 0.37219  0.08892  0.50007  Biso   1.000  C
  O54      1.0000 0.23188  0.02086  0.43303  Biso   1.000  O
  N111     1.0000 0.33493  0.11065  0.47276  Biso   1.000  N
  C168     1.0000 0.24751  0.27139  0.54288  Biso   1.000  C
  N112     1.0000 0.32385  0.26461  0.47251  Biso   1.000  N
  O55      1.0000 0.21835  0.23656  0.43204  Biso   1.000  O
  C169     1.0000 0.35090  0.32200  0.50018  Biso   1.000  C
  H171     1.0000 0.32520  0.44829  0.49971  Biso   1.000  H
  O56      1.0000 0.23656  0.01819  0.56796  Biso   1.000  O
  N113     1.0000 0.33258  0.10912  0.52724  Biso   1.000  N
  H172     1.0000 0.44827  0.12307  0.50029  Biso   1.000  H
  C170     1.0000 0.37458  0.21240  0.46121  Biso   1.000  C
  N114     1.0000 0.31835  0.26072  0.52711  Biso   1.000  N
  O57      1.0000 0.21100  0.23191  0.56697  Biso   1.000  O
  H173     1.0000 0.42512  0.37421  0.50080  Biso   1.000  H
  C171     1.0000 0.37018  0.21019  0.53908  Biso   1.000  C
  H174     1.0000 0.44789  0.25287  0.46619  Biso   1.000  H
  H175     1.0000 0.36863  0.20882  0.43920  Biso   1.000  H
  H176     1.0000 0.44376  0.25188  0.53459  Biso   1.000  H
  H177     1.0000 0.36219  0.20569  0.56109  Biso   1.000  H
  C172     1.0000 0.62980  0.78977  0.46092  Biso   1.000  C
  N115     1.0000 0.68163  0.73924  0.47289  Biso   1.000  N
  N116     1.0000 0.68167  0.73931  0.47289  Biso   1.000  N
  H178     1.0000 0.55622  0.74808  0.46541  Biso   1.000  H
  H179     1.0000 0.63779  0.79427  0.43891  Biso   1.000  H
  N117     1.0000 0.66740  0.89083  0.47276  Biso   1.000  N
  N118     1.0000 0.66744  0.89091  0.47276  Biso   1.000  N
  C173     1.0000 0.75247  0.72857  0.45712  Biso   1.000  C
  C174     1.0000 0.64908  0.67796  0.49982  Biso   1.000  C
  C175     1.0000 0.62783  0.91111  0.49993  Biso   1.000  C
  C176     1.0000 0.72628  0.97810  0.45663  Biso   1.000  C
  O58      1.0000 0.78897  0.76805  0.43303  Biso   1.000  O
  N119     1.0000 0.77567  0.66500  0.47276  Biso   1.000  N
  C177     1.0000 0.71668  0.62781  0.50007  Biso   1.000  C
  N120     1.0000 0.67612  0.73535  0.52749  Biso   1.000  N
  H180     1.0000 0.57485  0.62575  0.49920  Biso   1.000  H
  H181     1.0000 0.57489  0.62582  0.49920  Biso   1.000  H
  N121     1.0000 0.66505  0.88931  0.52724  Biso   1.000  N
  H182     1.0000 0.55171  0.87689  0.49971  Biso   1.000  H
  C178     1.0000 0.67800  0.02886  0.50018  Biso   1.000  C
  O59      1.0000 0.76342  0.98176  0.43204  Biso   1.000  O
  N122     1.0000 0.73534  0.05920  0.47251  Biso   1.000  N
  C179     1.0000 0.83777  0.62537  0.46121  Biso   1.000  C
  N123     1.0000 0.77652  0.66736  0.52724  Biso   1.000  N
  H183     1.0000 0.67478  0.55166  0.50029  Biso   1.000  H
  C180     1.0000 0.74822  0.72628  0.54337  Biso   1.000  C
  C181     1.0000 0.62540  0.78756  0.53879  Biso   1.000  C
  C182     1.0000 0.62543  0.78764  0.53879  Biso   1.000  C
  C183     1.0000 0.72855  0.97605  0.54288  Biso   1.000  C
  C184     1.0000 0.72859  0.97612  0.54288  Biso   1.000  C
  N124     1.0000 0.73929  0.05760  0.52711  Biso   1.000  N
  H184     1.0000 0.62578  0.05089  0.50080  Biso   1.000  H
  N125     1.0000 0.73933  0.05768  0.52711  Biso   1.000  N
  C185     1.0000 0.78762  0.16217  0.46121  Biso   1.000  C
  C186     1.0000 0.78766  0.16225  0.46121  Biso   1.000  C
  N126     1.0000 0.94077  0.67613  0.47251  Biso   1.000  N
  H185     1.0000 0.84018  0.63139  0.43920  Biso   1.000  H
  H186     1.0000 0.80500  0.55205  0.46619  Biso   1.000  H
  H187     1.0000 0.80504  0.55212  0.46619  Biso   1.000  H
  C187     1.0000 0.83998  0.62979  0.53908  Biso   1.000  C
  O60      1.0000 0.78163  0.76340  0.56796  Biso   1.000  O
  O61      1.0000 0.78167  0.76347  0.56796  Biso   1.000  O
  H188     1.0000 0.55209  0.74709  0.53381  Biso   1.000  H
  H189     1.0000 0.63135  0.79114  0.56080  Biso   1.000  H
  H190     1.0000 0.63138  0.79122  0.56080  Biso   1.000  H
  O62      1.0000 0.76810  0.97909  0.56697  Biso   1.000  O
  C188     1.0000 0.78975  0.15996  0.53908  Biso   1.000  C
  C189     1.0000 0.78979  0.16004  0.53908  Biso   1.000  C
  N127     1.0000 0.88931  0.22429  0.47276  Biso   1.000  N
  H191     1.0000 0.74704  0.19494  0.46619  Biso   1.000  H
  H192     1.0000 0.79119  0.15981  0.43920  Biso   1.000  H
  H193     1.0000 0.74708  0.19502  0.46619  Biso   1.000  H
  C190     1.0000 0.97114  0.64907  0.50018  Biso   1.000  C
  C191     1.0000 0.02187  0.74815  0.45663  Biso   1.000  C
  C192     1.0000 0.02190  0.74823  0.45663  Biso   1.000  C
  N128     1.0000 0.94233  0.68162  0.52711  Biso   1.000  N
  H194     1.0000 0.84352  0.63779  0.56109  Biso   1.000  H
  H195     1.0000 0.80811  0.55616  0.53459  Biso   1.000  H
  H196     1.0000 0.80815  0.55624  0.53459  Biso   1.000  H
  H197     1.0000 0.80805  0.55616  0.53459  Biso   1.000  H
  N129     1.0000 0.89087  0.22345  0.52724  Biso   1.000  N
  H198     1.0000 0.74809  0.19189  0.53459  Biso   1.000  H
  H199     1.0000 0.79427  0.15645  0.56109  Biso   1.000  H
  N130     1.0000 0.89090  0.22353  0.52724  Biso   1.000  N
  H200     1.0000 0.79430  0.15653  0.56109  Biso   1.000  H
  C193     1.0000 0.97607  0.24746  0.45712  Biso   1.000  C
  C194     1.0000 0.91108  0.28328  0.50007  Biso   1.000  C
  C195     1.0000 0.97611  0.24753  0.45712  Biso   1.000  C
  H201     1.0000 0.94911  0.57491  0.50080  Biso   1.000  H
  C196     1.0000 0.08890  0.71668  0.49993  Biso   1.000  C
  O63      1.0000 0.01820  0.78161  0.43204  Biso   1.000  O
  N131     1.0000 0.10911  0.77651  0.47276  Biso   1.000  N
  O64      1.0000 0.01824  0.78169  0.43204  Biso   1.000  O
  C197     1.0000 0.02391  0.75250  0.54288  Biso   1.000  C
  C198     1.0000 0.97811  0.25180  0.54337  Biso   1.000  C
  O65      1.0000 0.97911  0.21103  0.43303  Biso   1.000  O
  N132     1.0000 0.05765  0.31834  0.47289  Biso   1.000  N
  H202     1.0000 0.87692  0.32520  0.50029  Biso   1.000  H
  C199     1.0000 0.02884  0.35089  0.49982  Biso   1.000  C
  N133     1.0000 0.11067  0.77567  0.52724  Biso   1.000  N
  H203     1.0000 0.12305  0.67476  0.49971  Biso   1.000  H
  N134     1.0000 0.11071  0.77575  0.52724  Biso   1.000  N
  H204     1.0000 0.12309  0.67483  0.49971  Biso   1.000  H
  C200     1.0000 0.21023  0.84000  0.46092  Biso   1.000  C
  O66      1.0000 0.02087  0.78893  0.56697  Biso   1.000  O
  O67      1.0000 0.02091  0.78901  0.56697  Biso   1.000  O
  O68      1.0000 0.98178  0.21834  0.56796  Biso   1.000  O
  N135     1.0000 0.05921  0.32383  0.52749  Biso   1.000  N
  N136     1.0000 0.05925  0.32390  0.52749  Biso   1.000  N
  C201     1.0000 0.16000  0.37017  0.46092  Biso   1.000  C
  H205     1.0000 0.05087  0.42505  0.49920  Biso   1.000  H
  H206     1.0000 0.05091  0.42512  0.49920  Biso   1.000  H
  C202     1.0000 0.21236  0.83779  0.53879  Biso   1.000  C
  N137     1.0000 0.26068  0.94236  0.47289  Biso   1.000  N
  H207     1.0000 0.25189  0.80806  0.46541  Biso   1.000  H
  H208     1.0000 0.20571  0.84350  0.43891  Biso   1.000  H
  H209     1.0000 0.25192  0.80814  0.46541  Biso   1.000  H
  C203     1.0000 0.16221  0.37459  0.53879  Biso   1.000  C
  N138     1.0000 0.22346  0.33259  0.47276  Biso   1.000  N
  H210     1.0000 0.19193  0.44379  0.46541  Biso   1.000  H
  H211     1.0000 0.15646  0.36217  0.43891  Biso   1.000  H
  N139     1.0000 0.26464  0.94076  0.52749  Biso   1.000  N
  H212     1.0000 0.25294  0.80501  0.53381  Biso   1.000  H
  H213     1.0000 0.20879  0.84015  0.56080  Biso   1.000  H
  H214     1.0000 0.20883  0.84023  0.56080  Biso   1.000  H
  C204     1.0000 0.32198  0.97109  0.49982  Biso   1.000  C
  C205     1.0000 0.27143  0.02391  0.45712  Biso   1.000  C
  N140     1.0000 0.22431  0.33496  0.52724  Biso   1.000  N
  H215     1.0000 0.19498  0.44791  0.53381  Biso   1.000  H
  H216     1.0000 0.15980  0.36857  0.56080  Biso   1.000  H
  C206     1.0000 0.25176  0.27368  0.45663  Biso   1.000  C
  C207     1.0000 0.28330  0.37215  0.49993  Biso   1.000  C
  C208     1.0000 0.28334  0.37223  0.49993  Biso   1.000  C
  C209     1.0000 0.27370  0.02185  0.54337  Biso   1.000  C
  C210     1.0000 0.27374  0.02193  0.54337  Biso   1.000  C
  H217     1.0000 0.37420  0.94906  0.49920  Biso   1.000  H
  C211     1.0000 0.37215  0.08885  0.50007  Biso   1.000  C
  C212     1.0000 0.37219  0.08892  0.50007  Biso   1.000  C
  O69      1.0000 0.23188  0.02086  0.43303  Biso   1.000  O
  N141     1.0000 0.33493  0.11065  0.47276  Biso   1.000  N
  C213     1.0000 0.24751  0.27139  0.54288  Biso   1.000  C
  N142     1.0000 0.32385  0.26461  0.47251  Biso   1.000  N
  O70      1.0000 0.21835  0.23656  0.43204  Biso   1.000  O
  C214     1.0000 0.35090  0.32200  0.50018  Biso   1.000  C
  H218     1.0000 0.32520  0.44829  0.49971  Biso   1.000  H
  O71      1.0000 0.23656  0.01819  0.56796  Biso   1.000  O
  N143     1.0000 0.33258  0.10912  0.52724  Biso   1.000  N
  H219     1.0000 0.44827  0.12307  0.50029  Biso   1.000  H
  C215     1.0000 0.37458  0.21240  0.46121  Biso   1.000  C
  N144     1.0000 0.31835  0.26072  0.52711  Biso   1.000  N
  O72      1.0000 0.21100  0.23191  0.56697  Biso   1.000  O
  H220     1.0000 0.42512  0.37421  0.50080  Biso   1.000  H
  C216     1.0000 0.37018  0.21019  0.53908  Biso   1.000  C
  H221     1.0000 0.44789  0.25287  0.46619  Biso   1.000  H
  H222     1.0000 0.36863  0.20882  0.43920  Biso   1.000  H
  H223     1.0000 0.44376  0.25188  0.53459  Biso   1.000  H
  H224     1.0000 0.36219  0.20569  0.56109  Biso   1.000  H
  O73      1.0000 0.54435  0.89861  0.23363  Biso   1.000  O
  C217     1.0000 0.58086  0.93809  0.20956  Biso   1.000  C
  N145     1.0000 0.65166  0.92734  0.19377  Biso   1.000  N
  N146     1.0000 0.55766  0.00166  0.19392  Biso   1.000  N
  C218     1.0000 0.70353  0.87689  0.20577  Biso   1.000  C
  C219     1.0000 0.68425  0.98870  0.16684  Biso   1.000  C
  C220     1.0000 0.61665  0.03885  0.16659  Biso   1.000  C
  C221     1.0000 0.49556  0.04129  0.20545  Biso   1.000  C
  N147     1.0000 0.66593  0.77582  0.19390  Biso   1.000  N
  H225     1.0000 0.77711  0.91858  0.20127  Biso   1.000  H
  H226     1.0000 0.69553  0.87239  0.22778  Biso   1.000  H
  N148     1.0000 0.65720  0.93131  0.13917  Biso   1.000  N
  H227     1.0000 0.75844  0.04083  0.16746  Biso   1.000  H
  N149     1.0000 0.55681  0.99929  0.13942  Biso   1.000  N
  H228     1.0000 0.65855  0.11499  0.16637  Biso   1.000  H
  N150     1.0000 0.39256  0.99053  0.19417  Biso   1.000  N
  H229     1.0000 0.52829  0.11453  0.20047  Biso   1.000  H
  H230     1.0000 0.49315  0.03527  0.22746  Biso   1.000  H
  C222     1.0000 0.60705  0.68855  0.21006  Biso   1.000  C
  C223     1.0000 0.70550  0.75555  0.16673  Biso   1.000  C
  C224     1.0000 0.70789  0.87902  0.12787  Biso   1.000  C
  C225     1.0000 0.58511  0.94038  0.12328  Biso   1.000  C
  C226     1.0000 0.49335  0.03687  0.12758  Biso   1.000  C
  C227     1.0000 0.31146  0.91850  0.21006  Biso   1.000  C
  C228     1.0000 0.36219  0.01758  0.16650  Biso   1.000  C
  N151     1.0000 0.59799  0.60746  0.19417  Biso   1.000  N
  O74      1.0000 0.56991  0.68489  0.23461  Biso   1.000  O
  C229     1.0000 0.65533  0.63779  0.16650  Biso   1.000  C
  N152     1.0000 0.66828  0.77735  0.13942  Biso   1.000  N
  H231     1.0000 0.78162  0.78977  0.16697  Biso   1.000  H
  H232     1.0000 0.78124  0.91957  0.13287  Biso   1.000  H
  H233     1.0000 0.70194  0.87544  0.10588  Biso   1.000  H
  O75      1.0000 0.55166  0.90318  0.09873  Biso   1.000  O
  N153     1.0000 0.39100  0.98504  0.13958  Biso   1.000  N
  H234     1.0000 0.52528  0.11049  0.13207  Biso   1.000  H
  H235     1.0000 0.48981  0.02886  0.10556  Biso   1.000  H
  N154     1.0000 0.22422  0.89015  0.19390  Biso   1.000  N
  O76      1.0000 0.31513  0.88504  0.23461  Biso   1.000  O
  C230     1.0000 0.24443  0.94998  0.16673  Biso   1.000  C
  H236     1.0000 0.38422  0.09174  0.16588  Biso   1.000  H
  C231     1.0000 0.54571  0.50449  0.20545  Biso   1.000  C
  N155     1.0000 0.59403  0.60906  0.13958  Biso   1.000  N
  H237     1.0000 0.70755  0.61576  0.16588  Biso   1.000  H
  C232     1.0000 0.60478  0.69061  0.12378  Biso   1.000  C
  C233     1.0000 0.30942  0.91416  0.12378  Biso   1.000  C
  C234     1.0000 0.12310  0.82666  0.20577  Biso   1.000  C
  N156     1.0000 0.22266  0.89099  0.13942  Biso   1.000  N
  H238     1.0000 0.21027  0.99190  0.16697  Biso   1.000  H
  N157     1.0000 0.44402  0.44237  0.19392  Biso   1.000  N
  H239     1.0000 0.58625  0.47164  0.20047  Biso   1.000  H
  H240     1.0000 0.54214  0.50685  0.22746  Biso   1.000  H
  C235     1.0000 0.54358  0.50670  0.12758  Biso   1.000  C
  O77      1.0000 0.56523  0.68756  0.09969  Biso   1.000  O
  O78      1.0000 0.31246  0.87772  0.09969  Biso   1.000  O
  N158     1.0000 0.07264  0.72430  0.19377  Biso   1.000  N
  H241     1.0000 0.08144  0.85859  0.20127  Biso   1.000  H
  H242     1.0000 0.12762  0.82315  0.22778  Biso   1.000  H
  C236     1.0000 0.12097  0.82887  0.12787  Biso   1.000  C
  C237     1.0000 0.35726  0.41920  0.20956  Biso   1.000  C
  C238     1.0000 0.42225  0.38338  0.16659  Biso   1.000  C
  N159     1.0000 0.44246  0.44321  0.13942  Biso   1.000  N
  H243     1.0000 0.58524  0.47476  0.13207  Biso   1.000  H
  H244     1.0000 0.53906  0.51020  0.10556  Biso   1.000  H
  C239     1.0000 0.06190  0.64275  0.20956  Biso   1.000  C
  C240     1.0000 0.01135  0.69556  0.16684  Biso   1.000  C
  N160     1.0000 0.06869  0.72590  0.13917  Biso   1.000  N
  H245     1.0000 0.08039  0.86164  0.13287  Biso   1.000  H
  H246     1.0000 0.12450  0.82643  0.10588  Biso   1.000  H
  N161     1.0000 0.27568  0.34832  0.19377  Biso   1.000  N
  O79      1.0000 0.35422  0.45563  0.23363  Biso   1.000  O
  C241     1.0000 0.30449  0.31577  0.16684  Biso   1.000  C
  H247     1.0000 0.45640  0.34146  0.16637  Biso   1.000  H
  C242     1.0000 0.35522  0.41485  0.12328  Biso   1.000  C
  N162     1.0000 0.99840  0.55601  0.19392  Biso   1.000  N
  O80      1.0000 0.10144  0.64579  0.23363  Biso   1.000  O
  C243     1.0000 0.96114  0.57773  0.16659  Biso   1.000  C
  H248     1.0000 0.95913  0.71759  0.16746  Biso   1.000  H
  C244     1.0000 0.05963  0.64480  0.12328  Biso   1.000  C
  C245     1.0000 0.17333  0.29649  0.20577  Biso   1.000  C
  N163     1.0000 0.27412  0.34283  0.13917  Biso   1.000  N
  H249     1.0000 0.28242  0.24153  0.16746  Biso   1.000  H
  O81      1.0000 0.35155  0.44831  0.09873  Biso   1.000  O
  C246     1.0000 0.95875  0.45426  0.20545  Biso   1.000  C
  N164     1.0000 0.00075  0.55753  0.13942  Biso   1.000  N
  H250     1.0000 0.88506  0.54359  0.16637  Biso   1.000  H
  O82      1.0000 0.09677  0.64846  0.09873  Biso   1.000  O
  N165     1.0000 0.10987  0.33406  0.19390  Biso   1.000  N
  H251     1.0000 0.14146  0.22286  0.20127  Biso   1.000  H
  H252     1.0000 0.17687  0.30449  0.22778  Biso   1.000  H
  C247     1.0000 0.17112  0.29207  0.12787  Biso   1.000  C
  N166     1.0000 0.00947  0.40205  0.19417  Biso   1.000  N
  H253     1.0000 0.88544  0.41379  0.20047  Biso   1.000  H
  H254     1.0000 0.96470  0.45784  0.22746  Biso   1.000  H
  C248     1.0000 0.96315  0.45647  0.12758  Biso   1.000  C
  C249     1.0000 0.04999  0.29443  0.16673  Biso   1.000  C
  C250     1.0000 0.08157  0.39298  0.21006  Biso   1.000  C
  N167     1.0000 0.10902  0.33170  0.13942  Biso   1.000  N
  H255     1.0000 0.13835  0.21875  0.13287  Biso   1.000  H
  H256     1.0000 0.17353  0.29809  0.10588  Biso   1.000  H
  C251     1.0000 0.98243  0.34466  0.16650  Biso   1.000  C
  N168     1.0000 0.01498  0.40594  0.13958  Biso   1.000  N
  H257     1.0000 0.88957  0.41478  0.13207  Biso   1.000  H
  H258     1.0000 0.97114  0.46097  0.10556  Biso   1.000  H
  H259     1.0000 0.00813  0.21836  0.16697  Biso   1.000  H
  O83      1.0000 0.11498  0.43010  0.23461  Biso   1.000  O
  C252     1.0000 0.08582  0.39527  0.12378  Biso   1.000  C
  H260     1.0000 0.90820  0.29245  0.16588  Biso   1.000  H
  O84      1.0000 0.12232  0.43475  0.09969  Biso   1.000  O
  O85      1.0000 0.56527  0.87772  0.59969  Biso   1.000  O
  C253     1.0000 0.60474  0.91416  0.62378  Biso   1.000  C
  N169     1.0000 0.66833  0.89099  0.63942  Biso   1.000  N
  N170     1.0000 0.59404  0.98504  0.63958  Biso   1.000  N
  C254     1.0000 0.70790  0.82887  0.62787  Biso   1.000  C
  C255     1.0000 0.70555  0.94998  0.66673  Biso   1.000  C
  C256     1.0000 0.65539  0.01758  0.66650  Biso   1.000  C
  C257     1.0000 0.54352  0.03687  0.62758  Biso   1.000  C
  N171     1.0000 0.65721  0.72590  0.63917  Biso   1.000  N
  H261     1.0000 0.78125  0.86164  0.63287  Biso   1.000  H
  H262     1.0000 0.70193  0.82643  0.60588  Biso   1.000  H
  N172     1.0000 0.66593  0.89015  0.69390  Biso   1.000  N
  H263     1.0000 0.78163  0.99190  0.66697  Biso   1.000  H
  N173     1.0000 0.59797  0.99053  0.69417  Biso   1.000  N
  H264     1.0000 0.70752  0.09174  0.66588  Biso   1.000  H
  N174     1.0000 0.44248  0.99929  0.63942  Biso   1.000  N
  H265     1.0000 0.58528  0.11049  0.63207  Biso   1.000  H
  H266     1.0000 0.53905  0.02886  0.60556  Biso   1.000  H
  C258     1.0000 0.58517  0.64480  0.62328  Biso   1.000  C
  C259     1.0000 0.68422  0.69556  0.66684  Biso   1.000  C
  C260     1.0000 0.70356  0.82666  0.70577  Biso   1.000  C
  C261     1.0000 0.60704  0.91850  0.71006  Biso   1.000  C
  C262     1.0000 0.54573  0.04129  0.70545  Biso   1.000  C
  C263     1.0000 0.35527  0.94038  0.62328  Biso   1.000  C
  C264     1.0000 0.42220  0.03885  0.66659  Biso   1.000  C
  N175     1.0000 0.55679  0.55753  0.63942  Biso   1.000  N
  O86      1.0000 0.55169  0.64846  0.59873  Biso   1.000  O
  C265     1.0000 0.61659  0.57773  0.66659  Biso   1.000  C
  N176     1.0000 0.65165  0.72430  0.69377  Biso   1.000  N
  H267     1.0000 0.75847  0.71759  0.66746  Biso   1.000  H
  H268     1.0000 0.77715  0.85859  0.70127  Biso   1.000  H
  H269     1.0000 0.69554  0.82315  0.72778  Biso   1.000  H
  O87      1.0000 0.56991  0.88504  0.73461  Biso   1.000  O
  N177     1.0000 0.44400  0.00166  0.69392  Biso   1.000  N
  H270     1.0000 0.58624  0.11453  0.70047  Biso   1.000  H
  H271     1.0000 0.54212  0.03527  0.72746  Biso   1.000  H
  N178     1.0000 0.27410  0.93131  0.63917  Biso   1.000  N
  O88      1.0000 0.35152  0.90318  0.59873  Biso   1.000  O
  C266     1.0000 0.30445  0.98870  0.66684  Biso   1.000  C
  H272     1.0000 0.45644  0.11499  0.66637  Biso   1.000  H
  C267     1.0000 0.49332  0.45647  0.62758  Biso   1.000  C
  N179     1.0000 0.55761  0.55601  0.69392  Biso   1.000  N
  H273     1.0000 0.65853  0.54359  0.66637  Biso   1.000  H
  C268     1.0000 0.58084  0.64275  0.70956  Biso   1.000  C
  C269     1.0000 0.35723  0.93809  0.70956  Biso   1.000  C
  C270     1.0000 0.17113  0.87902  0.62787  Biso   1.000  C
  N180     1.0000 0.27568  0.92734  0.69377  Biso   1.000  N
  H274     1.0000 0.28240  0.04083  0.66746  Biso   1.000  H
  N181     1.0000 0.39095  0.40594  0.63958  Biso   1.000  N
  H275     1.0000 0.52521  0.41478  0.63207  Biso   1.000  H
  H276     1.0000 0.48982  0.46097  0.60556  Biso   1.000  H
  C271     1.0000 0.49551  0.45426  0.70545  Biso   1.000  C
  O89      1.0000 0.54435  0.64579  0.73363  Biso   1.000  O
  O90      1.0000 0.35425  0.89861  0.73363  Biso   1.000  O
  N182     1.0000 0.10907  0.77735  0.63942  Biso   1.000  N
  H277     1.0000 0.13833  0.91957  0.63287  Biso   1.000  H
  H278     1.0000 0.17349  0.87544  0.60588  Biso   1.000  H
  C272     1.0000 0.17336  0.87689  0.70577  Biso   1.000  C
  C273     1.0000 0.30945  0.39527  0.62378  Biso   1.000  C
  C274     1.0000 0.36223  0.34466  0.66650  Biso   1.000  C
  N183     1.0000 0.39258  0.40205  0.69417  Biso   1.000  N
  H279     1.0000 0.52835  0.41379  0.70047  Biso   1.000  H
  H280     1.0000 0.49314  0.45784  0.72746  Biso   1.000  H
  C275     1.0000 0.08583  0.69061  0.62378  Biso   1.000  C
  C276     1.0000 0.05005  0.75555  0.66673  Biso   1.000  C
  N184     1.0000 0.10989  0.77582  0.69390  Biso   1.000  N
  H281     1.0000 0.14147  0.91858  0.70127  Biso   1.000  H
  H282     1.0000 0.17685  0.87239  0.72778  Biso   1.000  H
  O91      1.0000 0.31242  0.43475  0.59969  Biso   1.000  O
  N185     1.0000 0.22268  0.33170  0.63942  Biso   1.000  N
  C277     1.0000 0.24444  0.29443  0.66673  Biso   1.000  C
  H283     1.0000 0.38424  0.29245  0.66588  Biso   1.000  H
  C278     1.0000 0.31141  0.39298  0.71006  Biso   1.000  C
  N186     1.0000 0.01502  0.60906  0.63958  Biso   1.000  N
  O92      1.0000 0.12233  0.68756  0.59969  Biso   1.000  O
  C279     1.0000 0.98246  0.63779  0.66650  Biso   1.000  C
  H284     1.0000 0.00815  0.78977  0.66697  Biso   1.000  H
  C280     1.0000 0.08150  0.68855  0.71006  Biso   1.000  C
  C281     1.0000 0.12095  0.29207  0.62787  Biso   1.000  C
  N187     1.0000 0.22419  0.33406  0.69390  Biso   1.000  N
  H285     1.0000 0.21024  0.21836  0.66697  Biso   1.000  H
  O93      1.0000 0.31511  0.43010  0.73461  Biso   1.000  O
  C282     1.0000 0.96312  0.50670  0.62758  Biso   1.000  C
  N188     1.0000 0.00947  0.60746  0.69417  Biso   1.000  N
  H286     1.0000 0.90821  0.61576  0.66588  Biso   1.000  H
  O94      1.0000 0.11499  0.68489  0.73461  Biso   1.000  O
  N189     1.0000 0.06871  0.34283  0.63917  Biso   1.000  N
  H287     1.0000 0.08040  0.21875  0.63287  Biso   1.000  H
  H288     1.0000 0.12456  0.29809  0.60588  Biso   1.000  H
  C283     1.0000 0.12316  0.29649  0.70577  Biso   1.000  C
  N190     1.0000 0.00075  0.44321  0.63942  Biso   1.000  N
  H289     1.0000 0.88953  0.47476  0.63207  Biso   1.000  H
  H290     1.0000 0.97114  0.51020  0.60556  Biso   1.000  H
  C284     1.0000 0.95878  0.50449  0.70545  Biso   1.000  C
  C285     1.0000 0.01128  0.31577  0.66684  Biso   1.000  C
  C286     1.0000 0.05964  0.41485  0.62328  Biso   1.000  C
  N191     1.0000 0.07264  0.34832  0.69377  Biso   1.000  N
  H291     1.0000 0.08146  0.22286  0.70127  Biso   1.000  H
  H292     1.0000 0.12762  0.30449  0.72778  Biso   1.000  H
  C287     1.0000 0.96113  0.38338  0.66659  Biso   1.000  C
  N192     1.0000 0.99835  0.44237  0.69392  Biso   1.000  N
  H293     1.0000 0.88539  0.47164  0.70047  Biso   1.000  H
  H294     1.0000 0.96471  0.50685  0.72746  Biso   1.000  H
  H295     1.0000 0.95912  0.24153  0.66746  Biso   1.000  H
  O95      1.0000 0.09676  0.44831  0.59873  Biso   1.000  O
  C288     1.0000 0.06194  0.41920  0.70956  Biso   1.000  C
  H296     1.0000 0.88505  0.34146  0.66637  Biso   1.000  H
  O96      1.0000 0.10141  0.45563  0.73363  Biso   1.000  O
  O97      1.0000 0.21100  0.97909  0.06697  Biso   1.000  O
  C289     1.0000 0.24749  0.97605  0.04288  Biso   1.000  C
  C290     1.0000 0.24753  0.97612  0.04288  Biso   1.000  C
  N193     1.0000 0.22426  0.88931  0.02724  Biso   1.000  N
  N194     1.0000 0.31830  0.05760  0.02711  Biso   1.000  N
  N195     1.0000 0.31834  0.05768  0.02711  Biso   1.000  N
  C291     1.0000 0.16216  0.78756  0.03879  Biso   1.000  C
  C292     1.0000 0.16220  0.78764  0.03879  Biso   1.000  C
  C293     1.0000 0.28328  0.91111  0.99993  Biso   1.000  C
  C294     1.0000 0.35087  0.02886  0.00018  Biso   1.000  C
  C295     1.0000 0.37021  0.15996  0.03908  Biso   1.000  C
  C296     1.0000 0.37025  0.16004  0.03908  Biso   1.000  C
  N196     1.0000 0.05923  0.73535  0.02749  Biso   1.000  N
  H297     1.0000 0.19500  0.74709  0.03381  Biso   1.000  H
  H298     1.0000 0.15980  0.79114  0.06080  Biso   1.000  H
  H299     1.0000 0.15983  0.79122  0.06080  Biso   1.000  H
  N197     1.0000 0.22344  0.89083  0.97276  Biso   1.000  N
  H300     1.0000 0.32518  0.87689  0.99971  Biso   1.000  H
  N198     1.0000 0.22348  0.89091  0.97276  Biso   1.000  N
  N199     1.0000 0.32386  0.05920  0.97251  Biso   1.000  N
  H301     1.0000 0.42512  0.05089  0.00080  Biso   1.000  H
  N200     1.0000 0.33258  0.22345  0.02724  Biso   1.000  N
  H302     1.0000 0.44380  0.19189  0.03459  Biso   1.000  H
  H303     1.0000 0.36219  0.15645  0.06109  Biso   1.000  H
  N201     1.0000 0.33262  0.22353  0.02724  Biso   1.000  N
  H304     1.0000 0.36223  0.15653  0.06109  Biso   1.000  H
  C297     1.0000 0.97806  0.72628  0.04337  Biso   1.000  C
  C298     1.0000 0.02888  0.67796  0.99982  Biso   1.000  C
  C299     1.0000 0.15997  0.78977  0.96092  Biso   1.000  C
  C300     1.0000 0.25182  0.97810  0.95663  Biso   1.000  C
  C301     1.0000 0.37455  0.16217  0.96121  Biso   1.000  C
  C302     1.0000 0.37459  0.16225  0.96121  Biso   1.000  C
  C303     1.0000 0.37220  0.28328  0.00007  Biso   1.000  C
  C304     1.0000 0.27369  0.25180  0.04337  Biso   1.000  C
  O98      1.0000 0.98177  0.76340  0.06796  Biso   1.000  O
  N202     1.0000 0.89084  0.66736  0.02724  Biso   1.000  N
  O99      1.0000 0.98180  0.76347  0.06796  Biso   1.000  O
  C305     1.0000 0.91113  0.62781  0.00007  Biso   1.000  C
  N203     1.0000 0.05761  0.73924  0.97289  Biso   1.000  N
  H305     1.0000 0.05089  0.62575  0.99920  Biso   1.000  H
  N204     1.0000 0.05764  0.73931  0.97289  Biso   1.000  N
  H306     1.0000 0.05093  0.62582  0.99920  Biso   1.000  H
  H307     1.0000 0.19186  0.74808  0.96541  Biso   1.000  H
  H308     1.0000 0.15647  0.79427  0.93891  Biso   1.000  H
  O100     1.0000 0.21834  0.98176  0.93204  Biso   1.000  O
  N205     1.0000 0.33498  0.22429  0.97276  Biso   1.000  N
  H309     1.0000 0.44790  0.19494  0.96619  Biso   1.000  H
  H310     1.0000 0.36862  0.15981  0.93920  Biso   1.000  H
  H311     1.0000 0.44794  0.19502  0.96619  Biso   1.000  H
  C306     1.0000 0.32204  0.35089  0.99982  Biso   1.000  C
  H312     1.0000 0.44828  0.32520  0.00029  Biso   1.000  H
  O101     1.0000 0.23656  0.21834  0.06796  Biso   1.000  O
  N206     1.0000 0.26462  0.32383  0.02749  Biso   1.000  N
  N207     1.0000 0.26466  0.32390  0.02749  Biso   1.000  N
  C307     1.0000 0.78981  0.62979  0.03908  Biso   1.000  C
  N208     1.0000 0.88933  0.66500  0.97276  Biso   1.000  N
  H313     1.0000 0.87689  0.55166  0.00029  Biso   1.000  H
  C308     1.0000 0.97610  0.72857  0.95712  Biso   1.000  C
  C309     1.0000 0.27139  0.24746  0.95712  Biso   1.000  C
  C310     1.0000 0.27142  0.24753  0.95712  Biso   1.000  C
  N209     1.0000 0.26069  0.31834  0.97289  Biso   1.000  N
  H314     1.0000 0.37417  0.42505  0.99920  Biso   1.000  H
  H315     1.0000 0.37421  0.42512  0.99920  Biso   1.000  H
  C311     1.0000 0.21238  0.37459  0.03879  Biso   1.000  C
  N210     1.0000 0.73929  0.68162  0.02711  Biso   1.000  N
  H316     1.0000 0.74805  0.55616  0.03459  Biso   1.000  H
  H317     1.0000 0.79428  0.63779  0.06109  Biso   1.000  H
  H318     1.0000 0.74811  0.55616  0.03459  Biso   1.000  H
  H319     1.0000 0.74815  0.55624  0.03459  Biso   1.000  H
  C312     1.0000 0.78760  0.62537  0.96121  Biso   1.000  C
  O102     1.0000 0.97907  0.76805  0.93303  Biso   1.000  O
  O103     1.0000 0.23192  0.21103  0.93303  Biso   1.000  O
  C313     1.0000 0.21017  0.37017  0.96092  Biso   1.000  C
  N211     1.0000 0.11065  0.33496  0.02724  Biso   1.000  N
  H320     1.0000 0.25293  0.44791  0.03381  Biso   1.000  H
  H321     1.0000 0.20877  0.36857  0.06080  Biso   1.000  H
  C314     1.0000 0.72859  0.75250  0.04288  Biso   1.000  C
  C315     1.0000 0.67793  0.64907  0.00018  Biso   1.000  C
  N212     1.0000 0.73536  0.67613  0.97251  Biso   1.000  N
  H322     1.0000 0.74705  0.55205  0.96619  Biso   1.000  H
  H323     1.0000 0.79121  0.63139  0.93920  Biso   1.000  H
  H324     1.0000 0.74708  0.55212  0.96619  Biso   1.000  H
  H325     1.0000 0.25193  0.44379  0.96541  Biso   1.000  H
  H326     1.0000 0.20570  0.36217  0.93891  Biso   1.000  H
  N213     1.0000 0.10913  0.33259  0.97276  Biso   1.000  N
  C316     1.0000 0.08885  0.37215  0.99993  Biso   1.000  C
  C317     1.0000 0.08889  0.37223  0.99993  Biso   1.000  C
  C318     1.0000 0.02388  0.27139  0.04288  Biso   1.000  C
  O104     1.0000 0.76806  0.78893  0.06697  Biso   1.000  O
  N214     1.0000 0.66500  0.77567  0.02724  Biso   1.000  N
  O105     1.0000 0.76810  0.78901  0.06697  Biso   1.000  O
  N215     1.0000 0.66503  0.77575  0.02724  Biso   1.000  N
  C319     1.0000 0.62778  0.71668  0.99993  Biso   1.000  C
  H327     1.0000 0.62581  0.57491  0.00080  Biso   1.000  H
  C320     1.0000 0.72629  0.74815  0.95663  Biso   1.000  C
  C321     1.0000 0.72633  0.74823  0.95663  Biso   1.000  C
  C322     1.0000 0.02192  0.27368  0.95663  Biso   1.000  C
  C323     1.0000 0.97110  0.32200  0.00018  Biso   1.000  C
  H328     1.0000 0.12309  0.44829  0.99971  Biso   1.000  H
  N216     1.0000 0.94237  0.26072  0.02711  Biso   1.000  N
  O106     1.0000 0.02091  0.23191  0.06697  Biso   1.000  O
  C324     1.0000 0.62543  0.83779  0.03879  Biso   1.000  C
  N217     1.0000 0.66740  0.77651  0.97276  Biso   1.000  N
  H329     1.0000 0.55170  0.67476  0.99971  Biso   1.000  H
  H330     1.0000 0.55174  0.67483  0.99971  Biso   1.000  H
  O107     1.0000 0.76341  0.78161  0.93204  Biso   1.000  O
  O108     1.0000 0.76345  0.78169  0.93204  Biso   1.000  O
  N218     1.0000 0.94075  0.26461  0.97251  Biso   1.000  N
  O109     1.0000 0.01821  0.23656  0.93204  Biso   1.000  O
  H331     1.0000 0.94908  0.37421  0.00080  Biso   1.000  H
  C325     1.0000 0.84001  0.21019  0.03908  Biso   1.000  C
  N219     1.0000 0.67612  0.94076  0.02749  Biso   1.000  N
  H332     1.0000 0.55208  0.80501  0.03381  Biso   1.000  H
  H333     1.0000 0.63136  0.84015  0.06080  Biso   1.000  H
  H334     1.0000 0.63140  0.84023  0.06080  Biso   1.000  H
  C326     1.0000 0.62977  0.84000  0.96092  Biso   1.000  C
  C327     1.0000 0.83782  0.21240  0.96121  Biso   1.000  C
  N220     1.0000 0.77654  0.10912  0.02724  Biso   1.000  N
  H335     1.0000 0.80812  0.25188  0.03459  Biso   1.000  H
  H336     1.0000 0.84351  0.20569  0.06109  Biso   1.000  H
  C328     1.0000 0.64911  0.97109  0.99982  Biso   1.000  C
  C329     1.0000 0.74815  0.02185  0.04337  Biso   1.000  C
  C330     1.0000 0.74819  0.02193  0.04337  Biso   1.000  C
  N221     1.0000 0.68167  0.94236  0.97289  Biso   1.000  N
  H337     1.0000 0.55618  0.80806  0.96541  Biso   1.000  H
  H338     1.0000 0.63779  0.84350  0.93891  Biso   1.000  H
  H339     1.0000 0.55621  0.80814  0.96541  Biso   1.000  H
  N222     1.0000 0.77572  0.11065  0.97276  Biso   1.000  N
  H340     1.0000 0.80498  0.25287  0.96619  Biso   1.000  H
  H341     1.0000 0.84018  0.20882  0.93920  Biso   1.000  H
  C331     1.0000 0.71670  0.08885  0.00007  Biso   1.000  C
  C332     1.0000 0.71674  0.08892  0.00007  Biso   1.000  C
  H342     1.0000 0.57486  0.94906  0.99920  Biso   1.000  H
  O110     1.0000 0.78164  0.01819  0.06796  Biso   1.000  O
  C333     1.0000 0.75248  0.02391  0.95712  Biso   1.000  C
  H343     1.0000 0.67480  0.12307  0.00029  Biso   1.000  H
  O111     1.0000 0.78898  0.02086  0.93303  Biso   1.000  O
  O112     1.0000 0.21100  0.97909  0.06697  Biso   1.000  O
  C334     1.0000 0.24749  0.97605  0.04288  Biso   1.000  C
  C335     1.0000 0.24753  0.97612  0.04288  Biso   1.000  C
  N223     1.0000 0.22426  0.88931  0.02724  Biso   1.000  N
  N224     1.0000 0.31830  0.05760  0.02711  Biso   1.000  N
  N225     1.0000 0.31834  0.05768  0.02711  Biso   1.000  N
  C336     1.0000 0.16216  0.78756  0.03879  Biso   1.000  C
  C337     1.0000 0.16220  0.78764  0.03879  Biso   1.000  C
  C338     1.0000 0.28328  0.91111  0.99993  Biso   1.000  C
  C339     1.0000 0.35087  0.02886  0.00018  Biso   1.000  C
  C340     1.0000 0.37021  0.15996  0.03908  Biso   1.000  C
  C341     1.0000 0.37025  0.16004  0.03908  Biso   1.000  C
  N226     1.0000 0.05923  0.73535  0.02749  Biso   1.000  N
  H344     1.0000 0.19500  0.74709  0.03381  Biso   1.000  H
  H345     1.0000 0.15980  0.79114  0.06080  Biso   1.000  H
  H346     1.0000 0.15983  0.79122  0.06080  Biso   1.000  H
  N227     1.0000 0.22344  0.89083  0.97276  Biso   1.000  N
  H347     1.0000 0.32518  0.87689  0.99971  Biso   1.000  H
  N228     1.0000 0.22348  0.89091  0.97276  Biso   1.000  N
  N229     1.0000 0.32386  0.05920  0.97251  Biso   1.000  N
  H348     1.0000 0.42512  0.05089  0.00080  Biso   1.000  H
  N230     1.0000 0.33258  0.22345  0.02724  Biso   1.000  N
  H349     1.0000 0.44380  0.19189  0.03459  Biso   1.000  H
  H350     1.0000 0.36219  0.15645  0.06109  Biso   1.000  H
  N231     1.0000 0.33262  0.22353  0.02724  Biso   1.000  N
  H351     1.0000 0.36223  0.15653  0.06109  Biso   1.000  H
  C342     1.0000 0.97806  0.72628  0.04337  Biso   1.000  C
  C343     1.0000 0.02888  0.67796  0.99982  Biso   1.000  C
  C344     1.0000 0.15997  0.78977  0.96092  Biso   1.000  C
  C345     1.0000 0.25182  0.97810  0.95663  Biso   1.000  C
  C346     1.0000 0.37455  0.16217  0.96121  Biso   1.000  C
  C347     1.0000 0.37459  0.16225  0.96121  Biso   1.000  C
  C348     1.0000 0.37220  0.28328  0.00007  Biso   1.000  C
  C349     1.0000 0.27369  0.25180  0.04337  Biso   1.000  C
  O113     1.0000 0.98177  0.76340  0.06796  Biso   1.000  O
  N232     1.0000 0.89084  0.66736  0.02724  Biso   1.000  N
  O114     1.0000 0.98180  0.76347  0.06796  Biso   1.000  O
  C350     1.0000 0.91113  0.62781  0.00007  Biso   1.000  C
  N233     1.0000 0.05761  0.73924  0.97289  Biso   1.000  N
  H352     1.0000 0.05089  0.62575  0.99920  Biso   1.000  H
  N234     1.0000 0.05764  0.73931  0.97289  Biso   1.000  N
  H353     1.0000 0.05093  0.62582  0.99920  Biso   1.000  H
  H354     1.0000 0.19186  0.74808  0.96541  Biso   1.000  H
  H355     1.0000 0.15647  0.79427  0.93891  Biso   1.000  H
  O115     1.0000 0.21834  0.98176  0.93204  Biso   1.000  O
  N235     1.0000 0.33498  0.22429  0.97276  Biso   1.000  N
  H356     1.0000 0.44790  0.19494  0.96619  Biso   1.000  H
  H357     1.0000 0.36862  0.15981  0.93920  Biso   1.000  H
  H358     1.0000 0.44794  0.19502  0.96619  Biso   1.000  H
  C351     1.0000 0.32204  0.35089  0.99982  Biso   1.000  C
  H359     1.0000 0.44828  0.32520  0.00029  Biso   1.000  H
  O116     1.0000 0.23656  0.21834  0.06796  Biso   1.000  O
  N236     1.0000 0.26462  0.32383  0.02749  Biso   1.000  N
  N237     1.0000 0.26466  0.32390  0.02749  Biso   1.000  N
  C352     1.0000 0.78981  0.62979  0.03908  Biso   1.000  C
  N238     1.0000 0.88933  0.66500  0.97276  Biso   1.000  N
  H360     1.0000 0.87689  0.55166  0.00029  Biso   1.000  H
  C353     1.0000 0.97610  0.72857  0.95712  Biso   1.000  C
  C354     1.0000 0.27139  0.24746  0.95712  Biso   1.000  C
  C355     1.0000 0.27142  0.24753  0.95712  Biso   1.000  C
  N239     1.0000 0.26069  0.31834  0.97289  Biso   1.000  N
  H361     1.0000 0.37417  0.42505  0.99920  Biso   1.000  H
  H362     1.0000 0.37421  0.42512  0.99920  Biso   1.000  H
  C356     1.0000 0.21238  0.37459  0.03879  Biso   1.000  C
  N240     1.0000 0.73929  0.68162  0.02711  Biso   1.000  N
  H363     1.0000 0.74805  0.55616  0.03459  Biso   1.000  H
  H364     1.0000 0.79428  0.63779  0.06109  Biso   1.000  H
  H365     1.0000 0.74811  0.55616  0.03459  Biso   1.000  H
  H366     1.0000 0.74815  0.55624  0.03459  Biso   1.000  H
  C357     1.0000 0.78760  0.62537  0.96121  Biso   1.000  C
  O117     1.0000 0.97907  0.76805  0.93303  Biso   1.000  O
  O118     1.0000 0.23192  0.21103  0.93303  Biso   1.000  O
  C358     1.0000 0.21017  0.37017  0.96092  Biso   1.000  C
  N241     1.0000 0.11065  0.33496  0.02724  Biso   1.000  N
  H367     1.0000 0.25293  0.44791  0.03381  Biso   1.000  H
  H368     1.0000 0.20877  0.36857  0.06080  Biso   1.000  H
  C359     1.0000 0.72859  0.75250  0.04288  Biso   1.000  C
  C360     1.0000 0.67793  0.64907  0.00018  Biso   1.000  C
  N242     1.0000 0.73536  0.67613  0.97251  Biso   1.000  N
  H369     1.0000 0.74705  0.55205  0.96619  Biso   1.000  H
  H370     1.0000 0.79121  0.63139  0.93920  Biso   1.000  H
  H371     1.0000 0.74708  0.55212  0.96619  Biso   1.000  H
  H372     1.0000 0.25193  0.44379  0.96541  Biso   1.000  H
  H373     1.0000 0.20570  0.36217  0.93891  Biso   1.000  H
  N243     1.0000 0.10913  0.33259  0.97276  Biso   1.000  N
  C361     1.0000 0.08885  0.37215  0.99993  Biso   1.000  C
  C362     1.0000 0.08889  0.37223  0.99993  Biso   1.000  C
  C363     1.0000 0.02388  0.27139  0.04288  Biso   1.000  C
  O119     1.0000 0.76806  0.78893  0.06697  Biso   1.000  O
  N244     1.0000 0.66500  0.77567  0.02724  Biso   1.000  N
  O120     1.0000 0.76810  0.78901  0.06697  Biso   1.000  O
  N245     1.0000 0.66503  0.77575  0.02724  Biso   1.000  N
  C364     1.0000 0.62778  0.71668  0.99993  Biso   1.000  C
  H374     1.0000 0.62581  0.57491  0.00080  Biso   1.000  H
  C365     1.0000 0.72629  0.74815  0.95663  Biso   1.000  C
  C366     1.0000 0.72633  0.74823  0.95663  Biso   1.000  C
  C367     1.0000 0.02192  0.27368  0.95663  Biso   1.000  C
  C368     1.0000 0.97110  0.32200  0.00018  Biso   1.000  C
  H375     1.0000 0.12309  0.44829  0.99971  Biso   1.000  H
  N246     1.0000 0.94237  0.26072  0.02711  Biso   1.000  N
  O121     1.0000 0.02091  0.23191  0.06697  Biso   1.000  O
  C369     1.0000 0.62543  0.83779  0.03879  Biso   1.000  C
  N247     1.0000 0.66740  0.77651  0.97276  Biso   1.000  N
  H376     1.0000 0.55170  0.67476  0.99971  Biso   1.000  H
  H377     1.0000 0.55174  0.67483  0.99971  Biso   1.000  H
  O122     1.0000 0.76341  0.78161  0.93204  Biso   1.000  O
  O123     1.0000 0.76345  0.78169  0.93204  Biso   1.000  O
  N248     1.0000 0.94075  0.26461  0.97251  Biso   1.000  N
  O124     1.0000 0.01821  0.23656  0.93204  Biso   1.000  O
  H378     1.0000 0.94908  0.37421  0.00080  Biso   1.000  H
  C370     1.0000 0.84001  0.21019  0.03908  Biso   1.000  C
  N249     1.0000 0.67612  0.94076  0.02749  Biso   1.000  N
  H379     1.0000 0.55208  0.80501  0.03381  Biso   1.000  H
  H380     1.0000 0.63136  0.84015  0.06080  Biso   1.000  H
  H381     1.0000 0.63140  0.84023  0.06080  Biso   1.000  H
  C371     1.0000 0.62977  0.84000  0.96092  Biso   1.000  C
  C372     1.0000 0.83782  0.21240  0.96121  Biso   1.000  C
  N250     1.0000 0.77654  0.10912  0.02724  Biso   1.000  N
  H382     1.0000 0.80812  0.25188  0.03459  Biso   1.000  H
  H383     1.0000 0.84351  0.20569  0.06109  Biso   1.000  H
  C373     1.0000 0.64911  0.97109  0.99982  Biso   1.000  C
  C374     1.0000 0.74815  0.02185  0.04337  Biso   1.000  C
  C375     1.0000 0.74819  0.02193  0.04337  Biso   1.000  C
  N251     1.0000 0.68167  0.94236  0.97289  Biso   1.000  N
  H384     1.0000 0.55618  0.80806  0.96541  Biso   1.000  H
  H385     1.0000 0.63779  0.84350  0.93891  Biso   1.000  H
  H386     1.0000 0.55621  0.80814  0.96541  Biso   1.000  H
  N252     1.0000 0.77572  0.11065  0.97276  Biso   1.000  N
  H387     1.0000 0.80498  0.25287  0.96619  Biso   1.000  H
  H388     1.0000 0.84018  0.20882  0.93920  Biso   1.000  H
  C376     1.0000 0.71670  0.08885  0.00007  Biso   1.000  C
  C377     1.0000 0.71674  0.08892  0.00007  Biso   1.000  C
  H389     1.0000 0.57486  0.94906  0.99920  Biso   1.000  H
  O125     1.0000 0.78164  0.01819  0.06796  Biso   1.000  O
  C378     1.0000 0.75248  0.02391  0.95712  Biso   1.000  C
  H390     1.0000 0.67480  0.12307  0.00029  Biso   1.000  H
  O126     1.0000 0.78898  0.02086  0.93303  Biso   1.000  O
  O127     1.0000 0.21100  0.97909  0.06697  Biso   1.000  O
  C379     1.0000 0.24749  0.97605  0.04288  Biso   1.000  C
  C380     1.0000 0.24753  0.97612  0.04288  Biso   1.000  C
  N253     1.0000 0.22426  0.88931  0.02724  Biso   1.000  N
  N254     1.0000 0.31830  0.05760  0.02711  Biso   1.000  N
  N255     1.0000 0.31834  0.05768  0.02711  Biso   1.000  N
  C381     1.0000 0.16216  0.78756  0.03879  Biso   1.000  C
  C382     1.0000 0.16220  0.78764  0.03879  Biso   1.000  C
  C383     1.0000 0.28328  0.91111  0.99993  Biso   1.000  C
  C384     1.0000 0.35087  0.02886  0.00018  Biso   1.000  C
  C385     1.0000 0.37021  0.15996  0.03908  Biso   1.000  C
  C386     1.0000 0.37025  0.16004  0.03908  Biso   1.000  C
  N256     1.0000 0.05923  0.73535  0.02749  Biso   1.000  N
  H391     1.0000 0.19500  0.74709  0.03381  Biso   1.000  H
  H392     1.0000 0.15980  0.79114  0.06080  Biso   1.000  H
  H393     1.0000 0.15983  0.79122  0.06080  Biso   1.000  H
  N257     1.0000 0.22344  0.89083  0.97276  Biso   1.000  N
  H394     1.0000 0.32518  0.87689  0.99971  Biso   1.000  H
  N258     1.0000 0.22348  0.89091  0.97276  Biso   1.000  N
  N259     1.0000 0.32386  0.05920  0.97251  Biso   1.000  N
  H395     1.0000 0.42512  0.05089  0.00080  Biso   1.000  H
  N260     1.0000 0.33258  0.22345  0.02724  Biso   1.000  N
  H396     1.0000 0.44380  0.19189  0.03459  Biso   1.000  H
  H397     1.0000 0.36219  0.15645  0.06109  Biso   1.000  H
  N261     1.0000 0.33262  0.22353  0.02724  Biso   1.000  N
  H398     1.0000 0.36223  0.15653  0.06109  Biso   1.000  H
  C387     1.0000 0.97806  0.72628  0.04337  Biso   1.000  C
  C388     1.0000 0.02888  0.67796  0.99982  Biso   1.000  C
  C389     1.0000 0.15997  0.78977  0.96092  Biso   1.000  C
  C390     1.0000 0.25182  0.97810  0.95663  Biso   1.000  C
  C391     1.0000 0.37455  0.16217  0.96121  Biso   1.000  C
  C392     1.0000 0.37459  0.16225  0.96121  Biso   1.000  C
  C393     1.0000 0.37220  0.28328  0.00007  Biso   1.000  C
  C394     1.0000 0.27369  0.25180  0.04337  Biso   1.000  C
  O128     1.0000 0.98177  0.76340  0.06796  Biso   1.000  O
  N262     1.0000 0.89084  0.66736  0.02724  Biso   1.000  N
  O129     1.0000 0.98180  0.76347  0.06796  Biso   1.000  O
  C395     1.0000 0.91113  0.62781  0.00007  Biso   1.000  C
  N263     1.0000 0.05761  0.73924  0.97289  Biso   1.000  N
  H399     1.0000 0.05089  0.62575  0.99920  Biso   1.000  H
  N264     1.0000 0.05764  0.73931  0.97289  Biso   1.000  N
  H400     1.0000 0.05093  0.62582  0.99920  Biso   1.000  H
  H401     1.0000 0.19186  0.74808  0.96541  Biso   1.000  H
  H402     1.0000 0.15647  0.79427  0.93891  Biso   1.000  H
  O130     1.0000 0.21834  0.98176  0.93204  Biso   1.000  O
  N265     1.0000 0.33498  0.22429  0.97276  Biso   1.000  N
  H403     1.0000 0.44790  0.19494  0.96619  Biso   1.000  H
  H404     1.0000 0.36862  0.15981  0.93920  Biso   1.000  H
  H405     1.0000 0.44794  0.19502  0.96619  Biso   1.000  H
  C396     1.0000 0.32204  0.35089  0.99982  Biso   1.000  C
  H406     1.0000 0.44828  0.32520  0.00029  Biso   1.000  H
  O131     1.0000 0.23656  0.21834  0.06796  Biso   1.000  O
  N266     1.0000 0.26462  0.32383  0.02749  Biso   1.000  N
  N267     1.0000 0.26466  0.32390  0.02749  Biso   1.000  N
  C397     1.0000 0.78981  0.62979  0.03908  Biso   1.000  C
  N268     1.0000 0.88933  0.66500  0.97276  Biso   1.000  N
  H407     1.0000 0.87689  0.55166  0.00029  Biso   1.000  H
  C398     1.0000 0.97610  0.72857  0.95712  Biso   1.000  C
  C399     1.0000 0.27139  0.24746  0.95712  Biso   1.000  C
  C400     1.0000 0.27142  0.24753  0.95712  Biso   1.000  C
  N269     1.0000 0.26069  0.31834  0.97289  Biso   1.000  N
  H408     1.0000 0.37417  0.42505  0.99920  Biso   1.000  H
  H409     1.0000 0.37421  0.42512  0.99920  Biso   1.000  H
  C401     1.0000 0.21238  0.37459  0.03879  Biso   1.000  C
  N270     1.0000 0.73929  0.68162  0.02711  Biso   1.000  N
  H410     1.0000 0.74805  0.55616  0.03459  Biso   1.000  H
  H411     1.0000 0.79428  0.63779  0.06109  Biso   1.000  H
  H412     1.0000 0.74811  0.55616  0.03459  Biso   1.000  H
  H413     1.0000 0.74815  0.55624  0.03459  Biso   1.000  H
  C402     1.0000 0.78760  0.62537  0.96121  Biso   1.000  C
  O132     1.0000 0.97907  0.76805  0.93303  Biso   1.000  O
  O133     1.0000 0.23192  0.21103  0.93303  Biso   1.000  O
  C403     1.0000 0.21017  0.37017  0.96092  Biso   1.000  C
  N271     1.0000 0.11065  0.33496  0.02724  Biso   1.000  N
  H414     1.0000 0.25293  0.44791  0.03381  Biso   1.000  H
  H415     1.0000 0.20877  0.36857  0.06080  Biso   1.000  H
  C404     1.0000 0.72859  0.75250  0.04288  Biso   1.000  C
  C405     1.0000 0.67793  0.64907  0.00018  Biso   1.000  C
  N272     1.0000 0.73536  0.67613  0.97251  Biso   1.000  N
  H416     1.0000 0.74705  0.55205  0.96619  Biso   1.000  H
  H417     1.0000 0.79121  0.63139  0.93920  Biso   1.000  H
  H418     1.0000 0.74708  0.55212  0.96619  Biso   1.000  H
  H419     1.0000 0.25193  0.44379  0.96541  Biso   1.000  H
  H420     1.0000 0.20570  0.36217  0.93891  Biso   1.000  H
  N273     1.0000 0.10913  0.33259  0.97276  Biso   1.000  N
  C406     1.0000 0.08885  0.37215  0.99993  Biso   1.000  C
  C407     1.0000 0.08889  0.37223  0.99993  Biso   1.000  C
  C408     1.0000 0.02388  0.27139  0.04288  Biso   1.000  C
  O134     1.0000 0.76806  0.78893  0.06697  Biso   1.000  O
  N274     1.0000 0.66500  0.77567  0.02724  Biso   1.000  N
  O135     1.0000 0.76810  0.78901  0.06697  Biso   1.000  O
  N275     1.0000 0.66503  0.77575  0.02724  Biso   1.000  N
  C409     1.0000 0.62778  0.71668  0.99993  Biso   1.000  C
  H421     1.0000 0.62581  0.57491  0.00080  Biso   1.000  H
  C410     1.0000 0.72629  0.74815  0.95663  Biso   1.000  C
  C411     1.0000 0.72633  0.74823  0.95663  Biso   1.000  C
  C412     1.0000 0.02192  0.27368  0.95663  Biso   1.000  C
  C413     1.0000 0.97110  0.32200  0.00018  Biso   1.000  C
  H422     1.0000 0.12309  0.44829  0.99971  Biso   1.000  H
  N276     1.0000 0.94237  0.26072  0.02711  Biso   1.000  N
  O136     1.0000 0.02091  0.23191  0.06697  Biso   1.000  O
  C414     1.0000 0.62543  0.83779  0.03879  Biso   1.000  C
  N277     1.0000 0.66740  0.77651  0.97276  Biso   1.000  N
  H423     1.0000 0.55170  0.67476  0.99971  Biso   1.000  H
  H424     1.0000 0.55174  0.67483  0.99971  Biso   1.000  H
  O137     1.0000 0.76341  0.78161  0.93204  Biso   1.000  O
  O138     1.0000 0.76345  0.78169  0.93204  Biso   1.000  O
  N278     1.0000 0.94075  0.26461  0.97251  Biso   1.000  N
  O139     1.0000 0.01821  0.23656  0.93204  Biso   1.000  O
  H425     1.0000 0.94908  0.37421  0.00080  Biso   1.000  H
  C415     1.0000 0.84001  0.21019  0.03908  Biso   1.000  C
  N279     1.0000 0.67612  0.94076  0.02749  Biso   1.000  N
  H426     1.0000 0.55208  0.80501  0.03381  Biso   1.000  H
  H427     1.0000 0.63136  0.84015  0.06080  Biso   1.000  H
  H428     1.0000 0.63140  0.84023  0.06080  Biso   1.000  H
  C416     1.0000 0.62977  0.84000  0.96092  Biso   1.000  C
  C417     1.0000 0.83782  0.21240  0.96121  Biso   1.000  C
  N280     1.0000 0.77654  0.10912  0.02724  Biso   1.000  N
  H429     1.0000 0.80812  0.25188  0.03459  Biso   1.000  H
  H430     1.0000 0.84351  0.20569  0.06109  Biso   1.000  H
  C418     1.0000 0.64911  0.97109  0.99982  Biso   1.000  C
  C419     1.0000 0.74815  0.02185  0.04337  Biso   1.000  C
  C420     1.0000 0.74819  0.02193  0.04337  Biso   1.000  C
  N281     1.0000 0.68167  0.94236  0.97289  Biso   1.000  N
  H431     1.0000 0.55618  0.80806  0.96541  Biso   1.000  H
  H432     1.0000 0.63779  0.84350  0.93891  Biso   1.000  H
  H433     1.0000 0.55621  0.80814  0.96541  Biso   1.000  H
  N282     1.0000 0.77572  0.11065  0.97276  Biso   1.000  N
  H434     1.0000 0.80498  0.25287  0.96619  Biso   1.000  H
  H435     1.0000 0.84018  0.20882  0.93920  Biso   1.000  H
  C421     1.0000 0.71670  0.08885  0.00007  Biso   1.000  C
  C422     1.0000 0.71674  0.08892  0.00007  Biso   1.000  C
  H436     1.0000 0.57486  0.94906  0.99920  Biso   1.000  H
  O140     1.0000 0.78164  0.01819  0.06796  Biso   1.000  O
  C423     1.0000 0.75248  0.02391  0.95712  Biso   1.000  C
  H437     1.0000 0.67480  0.12307  0.00029  Biso   1.000  H
  O141     1.0000 0.78898  0.02086  0.93303  Biso   1.000  O
  O142     1.0000 0.21100  0.97909  0.06697  Biso   1.000  O
  C424     1.0000 0.24749  0.97605  0.04288  Biso   1.000  C
  C425     1.0000 0.24753  0.97612  0.04288  Biso   1.000  C
  N283     1.0000 0.22426  0.88931  0.02724  Biso   1.000  N
  N284     1.0000 0.31830  0.05760  0.02711  Biso   1.000  N
  N285     1.0000 0.31834  0.05768  0.02711  Biso   1.000  N
  C426     1.0000 0.16216  0.78756  0.03879  Biso   1.000  C
  C427     1.0000 0.16220  0.78764  0.03879  Biso   1.000  C
  C428     1.0000 0.28328  0.91111  0.99993  Biso   1.000  C
  C429     1.0000 0.35087  0.02886  0.00018  Biso   1.000  C
  C430     1.0000 0.37021  0.15996  0.03908  Biso   1.000  C
  C431     1.0000 0.37025  0.16004  0.03908  Biso   1.000  C
  N286     1.0000 0.05923  0.73535  0.02749  Biso   1.000  N
  H438     1.0000 0.19500  0.74709  0.03381  Biso   1.000  H
  H439     1.0000 0.15980  0.79114  0.06080  Biso   1.000  H
  H440     1.0000 0.15983  0.79122  0.06080  Biso   1.000  H
  N287     1.0000 0.22344  0.89083  0.97276  Biso   1.000  N
  H441     1.0000 0.32518  0.87689  0.99971  Biso   1.000  H
  N288     1.0000 0.22348  0.89091  0.97276  Biso   1.000  N
  N289     1.0000 0.32386  0.05920  0.97251  Biso   1.000  N
  H442     1.0000 0.42512  0.05089  0.00080  Biso   1.000  H
  N290     1.0000 0.33258  0.22345  0.02724  Biso   1.000  N
  H443     1.0000 0.44380  0.19189  0.03459  Biso   1.000  H
  H444     1.0000 0.36219  0.15645  0.06109  Biso   1.000  H
  N291     1.0000 0.33262  0.22353  0.02724  Biso   1.000  N
  H445     1.0000 0.36223  0.15653  0.06109  Biso   1.000  H
  C432     1.0000 0.97806  0.72628  0.04337  Biso   1.000  C
  C433     1.0000 0.02888  0.67796  0.99982  Biso   1.000  C
  C434     1.0000 0.15997  0.78977  0.96092  Biso   1.000  C
  C435     1.0000 0.25182  0.97810  0.95663  Biso   1.000  C
  C436     1.0000 0.37455  0.16217  0.96121  Biso   1.000  C
  C437     1.0000 0.37459  0.16225  0.96121  Biso   1.000  C
  C438     1.0000 0.37220  0.28328  0.00007  Biso   1.000  C
  C439     1.0000 0.27369  0.25180  0.04337  Biso   1.000  C
  O143     1.0000 0.98177  0.76340  0.06796  Biso   1.000  O
  N292     1.0000 0.89084  0.66736  0.02724  Biso   1.000  N
  O144     1.0000 0.98180  0.76347  0.06796  Biso   1.000  O
  C440     1.0000 0.91113  0.62781  0.00007  Biso   1.000  C
  N293     1.0000 0.05761  0.73924  0.97289  Biso   1.000  N
  H446     1.0000 0.05089  0.62575  0.99920  Biso   1.000  H
  N294     1.0000 0.05764  0.73931  0.97289  Biso   1.000  N
  H447     1.0000 0.05093  0.62582  0.99920  Biso   1.000  H
  H448     1.0000 0.19186  0.74808  0.96541  Biso   1.000  H
  H449     1.0000 0.15647  0.79427  0.93891  Biso   1.000  H
  O145     1.0000 0.21834  0.98176  0.93204  Biso   1.000  O
  N295     1.0000 0.33498  0.22429  0.97276  Biso   1.000  N
  H450     1.0000 0.44790  0.19494  0.96619  Biso   1.000  H
  H451     1.0000 0.36862  0.15981  0.93920  Biso   1.000  H
  H452     1.0000 0.44794  0.19502  0.96619  Biso   1.000  H
  C441     1.0000 0.32204  0.35089  0.99982  Biso   1.000  C
  H453     1.0000 0.44828  0.32520  0.00029  Biso   1.000  H
  O146     1.0000 0.23656  0.21834  0.06796  Biso   1.000  O
  N296     1.0000 0.26462  0.32383  0.02749  Biso   1.000  N
  N297     1.0000 0.26466  0.32390  0.02749  Biso   1.000  N
  C442     1.0000 0.78981  0.62979  0.03908  Biso   1.000  C
  N298     1.0000 0.88933  0.66500  0.97276  Biso   1.000  N
  H454     1.0000 0.87689  0.55166  0.00029  Biso   1.000  H
  C443     1.0000 0.97610  0.72857  0.95712  Biso   1.000  C
  C444     1.0000 0.27139  0.24746  0.95712  Biso   1.000  C
  C445     1.0000 0.27142  0.24753  0.95712  Biso   1.000  C
  N299     1.0000 0.26069  0.31834  0.97289  Biso   1.000  N
  H455     1.0000 0.37417  0.42505  0.99920  Biso   1.000  H
  H456     1.0000 0.37421  0.42512  0.99920  Biso   1.000  H
  C446     1.0000 0.21238  0.37459  0.03879  Biso   1.000  C
  N300     1.0000 0.73929  0.68162  0.02711  Biso   1.000  N
  H457     1.0000 0.74805  0.55616  0.03459  Biso   1.000  H
  H458     1.0000 0.79428  0.63779  0.06109  Biso   1.000  H
  H459     1.0000 0.74811  0.55616  0.03459  Biso   1.000  H
  H460     1.0000 0.74815  0.55624  0.03459  Biso   1.000  H
  C447     1.0000 0.78760  0.62537  0.96121  Biso   1.000  C
  O147     1.0000 0.97907  0.76805  0.93303  Biso   1.000  O
  O148     1.0000 0.23192  0.21103  0.93303  Biso   1.000  O
  C448     1.0000 0.21017  0.37017  0.96092  Biso   1.000  C
  N301     1.0000 0.11065  0.33496  0.02724  Biso   1.000  N
  H461     1.0000 0.25293  0.44791  0.03381  Biso   1.000  H
  H462     1.0000 0.20877  0.36857  0.06080  Biso   1.000  H
  C449     1.0000 0.72859  0.75250  0.04288  Biso   1.000  C
  C450     1.0000 0.67793  0.64907  0.00018  Biso   1.000  C
  N302     1.0000 0.73536  0.67613  0.97251  Biso   1.000  N
  H463     1.0000 0.74705  0.55205  0.96619  Biso   1.000  H
  H464     1.0000 0.79121  0.63139  0.93920  Biso   1.000  H
  H465     1.0000 0.74708  0.55212  0.96619  Biso   1.000  H
  H466     1.0000 0.25193  0.44379  0.96541  Biso   1.000  H
  H467     1.0000 0.20570  0.36217  0.93891  Biso   1.000  H
  N303     1.0000 0.10913  0.33259  0.97276  Biso   1.000  N
  C451     1.0000 0.08885  0.37215  0.99993  Biso   1.000  C
  C452     1.0000 0.08889  0.37223  0.99993  Biso   1.000  C
  C453     1.0000 0.02388  0.27139  0.04288  Biso   1.000  C
  O149     1.0000 0.76806  0.78893  0.06697  Biso   1.000  O
  N304     1.0000 0.66500  0.77567  0.02724  Biso   1.000  N
  O150     1.0000 0.76810  0.78901  0.06697  Biso   1.000  O
  N305     1.0000 0.66503  0.77575  0.02724  Biso   1.000  N
  C454     1.0000 0.62778  0.71668  0.99993  Biso   1.000  C
  H468     1.0000 0.62581  0.57491  0.00080  Biso   1.000  H
  C455     1.0000 0.72629  0.74815  0.95663  Biso   1.000  C
  C456     1.0000 0.72633  0.74823  0.95663  Biso   1.000  C
  C457     1.0000 0.02192  0.27368  0.95663  Biso   1.000  C
  C458     1.0000 0.97110  0.32200  0.00018  Biso   1.000  C
  H469     1.0000 0.12309  0.44829  0.99971  Biso   1.000  H
  N306     1.0000 0.94237  0.26072  0.02711  Biso   1.000  N
  O151     1.0000 0.02091  0.23191  0.06697  Biso   1.000  O
  C459     1.0000 0.62543  0.83779  0.03879  Biso   1.000  C
  N307     1.0000 0.66740  0.77651  0.97276  Biso   1.000  N
  H470     1.0000 0.55170  0.67476  0.99971  Biso   1.000  H
  H471     1.0000 0.55174  0.67483  0.99971  Biso   1.000  H
  O152     1.0000 0.76341  0.78161  0.93204  Biso   1.000  O
  O153     1.0000 0.76345  0.78169  0.93204  Biso   1.000  O
  N308     1.0000 0.94075  0.26461  0.97251  Biso   1.000  N
  O154     1.0000 0.01821  0.23656  0.93204  Biso   1.000  O
  H472     1.0000 0.94908  0.37421  0.00080  Biso   1.000  H
  C460     1.0000 0.84001  0.21019  0.03908  Biso   1.000  C
  N309     1.0000 0.67612  0.94076  0.02749  Biso   1.000  N
  H473     1.0000 0.55208  0.80501  0.03381  Biso   1.000  H
  H474     1.0000 0.63136  0.84015  0.06080  Biso   1.000  H
  H475     1.0000 0.63140  0.84023  0.06080  Biso   1.000  H
  C461     1.0000 0.62977  0.84000  0.96092  Biso   1.000  C
  C462     1.0000 0.83782  0.21240  0.96121  Biso   1.000  C
  N310     1.0000 0.77654  0.10912  0.02724  Biso   1.000  N
  H476     1.0000 0.80812  0.25188  0.03459  Biso   1.000  H
  H477     1.0000 0.84351  0.20569  0.06109  Biso   1.000  H
  C463     1.0000 0.64911  0.97109  0.99982  Biso   1.000  C
  C464     1.0000 0.74815  0.02185  0.04337  Biso   1.000  C
  C465     1.0000 0.74819  0.02193  0.04337  Biso   1.000  C
  N311     1.0000 0.68167  0.94236  0.97289  Biso   1.000  N
  H478     1.0000 0.55618  0.80806  0.96541  Biso   1.000  H
  H479     1.0000 0.63779  0.84350  0.93891  Biso   1.000  H
  H480     1.0000 0.55621  0.80814  0.96541  Biso   1.000  H
  N312     1.0000 0.77572  0.11065  0.97276  Biso   1.000  N
  H481     1.0000 0.80498  0.25287  0.96619  Biso   1.000  H
  H482     1.0000 0.84018  0.20882  0.93920  Biso   1.000  H
  C466     1.0000 0.71670  0.08885  0.00007  Biso   1.000  C
  C467     1.0000 0.71674  0.08892  0.00007  Biso   1.000  C
  H483     1.0000 0.57486  0.94906  0.99920  Biso   1.000  H
  O155     1.0000 0.78164  0.01819  0.06796  Biso   1.000  O
  C468     1.0000 0.75248  0.02391  0.95712  Biso   1.000  C
  H484     1.0000 0.67480  0.12307  0.00029  Biso   1.000  H
  O156     1.0000 0.78898  0.02086  0.93303  Biso   1.000  O
  O157     1.0000 0.21100  0.97909  0.06697  Biso   1.000  O
  C469     1.0000 0.24749  0.97605  0.04288  Biso   1.000  C
  C470     1.0000 0.24753  0.97612  0.04288  Biso   1.000  C
  N313     1.0000 0.22426  0.88931  0.02724  Biso   1.000  N
  N314     1.0000 0.31830  0.05760  0.02711  Biso   1.000  N
  N315     1.0000 0.31834  0.05768  0.02711  Biso   1.000  N
  C471     1.0000 0.16216  0.78756  0.03879  Biso   1.000  C
  C472     1.0000 0.16220  0.78764  0.03879  Biso   1.000  C
  C473     1.0000 0.28328  0.91111  0.99993  Biso   1.000  C
  C474     1.0000 0.35087  0.02886  0.00018  Biso   1.000  C
  C475     1.0000 0.37021  0.15996  0.03908  Biso   1.000  C
  C476     1.0000 0.37025  0.16004  0.03908  Biso   1.000  C
  N316     1.0000 0.05923  0.73535  0.02749  Biso   1.000  N
  H485     1.0000 0.19500  0.74709  0.03381  Biso   1.000  H
  H486     1.0000 0.15980  0.79114  0.06080  Biso   1.000  H
  H487     1.0000 0.15983  0.79122  0.06080  Biso   1.000  H
  N317     1.0000 0.22344  0.89083  0.97276  Biso   1.000  N
  N318     1.0000 0.22348  0.89091  0.97276  Biso   1.000  N
  H488     1.0000 0.32518  0.87689  0.99971  Biso   1.000  H
  N319     1.0000 0.32386  0.05920  0.97251  Biso   1.000  N
  H489     1.0000 0.42512  0.05089  0.00080  Biso   1.000  H
  N320     1.0000 0.33258  0.22345  0.02724  Biso   1.000  N
  H490     1.0000 0.44380  0.19189  0.03459  Biso   1.000  H
  H491     1.0000 0.36219  0.15645  0.06109  Biso   1.000  H
  N321     1.0000 0.33262  0.22353  0.02724  Biso   1.000  N
  H492     1.0000 0.36223  0.15653  0.06109  Biso   1.000  H
  C477     1.0000 0.97806  0.72628  0.04337  Biso   1.000  C
  C478     1.0000 0.02888  0.67796  0.99982  Biso   1.000  C
  C479     1.0000 0.15997  0.78977  0.96092  Biso   1.000  C
  C480     1.0000 0.25182  0.97810  0.95663  Biso   1.000  C
  C481     1.0000 0.37455  0.16217  0.96121  Biso   1.000  C
  C482     1.0000 0.37459  0.16225  0.96121  Biso   1.000  C
  C483     1.0000 0.37220  0.28328  0.00007  Biso   1.000  C
  C484     1.0000 0.27369  0.25180  0.04337  Biso   1.000  C
  O158     1.0000 0.98177  0.76340  0.06796  Biso   1.000  O
  N322     1.0000 0.89084  0.66736  0.02724  Biso   1.000  N
  O159     1.0000 0.98180  0.76347  0.06796  Biso   1.000  O
  C485     1.0000 0.91113  0.62781  0.00007  Biso   1.000  C
  N323     1.0000 0.05761  0.73924  0.97289  Biso   1.000  N
  H493     1.0000 0.05089  0.62575  0.99920  Biso   1.000  H
  N324     1.0000 0.05764  0.73931  0.97289  Biso   1.000  N
  H494     1.0000 0.05093  0.62582  0.99920  Biso   1.000  H
  H495     1.0000 0.19186  0.74808  0.96541  Biso   1.000  H
  H496     1.0000 0.15647  0.79427  0.93891  Biso   1.000  H
  O160     1.0000 0.21834  0.98176  0.93204  Biso   1.000  O
  N325     1.0000 0.33498  0.22429  0.97276  Biso   1.000  N
  H497     1.0000 0.44790  0.19494  0.96619  Biso   1.000  H
  H498     1.0000 0.36862  0.15981  0.93920  Biso   1.000  H
  H499     1.0000 0.44794  0.19502  0.96619  Biso   1.000  H
  C486     1.0000 0.32204  0.35089  0.99982  Biso   1.000  C
  H500     1.0000 0.44828  0.32520  0.00029  Biso   1.000  H
  O161     1.0000 0.23656  0.21834  0.06796  Biso   1.000  O
  N326     1.0000 0.26462  0.32383  0.02749  Biso   1.000  N
  N327     1.0000 0.26466  0.32390  0.02749  Biso   1.000  N
  C487     1.0000 0.78981  0.62979  0.03908  Biso   1.000  C
  N328     1.0000 0.88933  0.66500  0.97276  Biso   1.000  N
  H501     1.0000 0.87689  0.55166  0.00029  Biso   1.000  H
  C488     1.0000 0.97610  0.72857  0.95712  Biso   1.000  C
  C489     1.0000 0.27139  0.24746  0.95712  Biso   1.000  C
  C490     1.0000 0.27142  0.24753  0.95712  Biso   1.000  C
  N329     1.0000 0.26069  0.31834  0.97289  Biso   1.000  N
  H502     1.0000 0.37417  0.42505  0.99920  Biso   1.000  H
  H503     1.0000 0.37421  0.42512  0.99920  Biso   1.000  H
  C491     1.0000 0.21238  0.37459  0.03879  Biso   1.000  C
  N330     1.0000 0.73929  0.68162  0.02711  Biso   1.000  N
  H504     1.0000 0.74805  0.55616  0.03459  Biso   1.000  H
  H505     1.0000 0.79428  0.63779  0.06109  Biso   1.000  H
  H506     1.0000 0.74811  0.55616  0.03459  Biso   1.000  H
  H507     1.0000 0.74815  0.55624  0.03459  Biso   1.000  H
  C492     1.0000 0.78760  0.62537  0.96121  Biso   1.000  C
  O162     1.0000 0.97907  0.76805  0.93303  Biso   1.000  O
  O163     1.0000 0.23192  0.21103  0.93303  Biso   1.000  O
  C493     1.0000 0.21017  0.37017  0.96092  Biso   1.000  C
  N331     1.0000 0.11065  0.33496  0.02724  Biso   1.000  N
  H508     1.0000 0.25293  0.44791  0.03381  Biso   1.000  H
  H509     1.0000 0.20877  0.36857  0.06080  Biso   1.000  H
  C494     1.0000 0.72859  0.75250  0.04288  Biso   1.000  C
  C495     1.0000 0.67793  0.64907  0.00018  Biso   1.000  C
  N332     1.0000 0.73536  0.67613  0.97251  Biso   1.000  N
  H510     1.0000 0.74705  0.55205  0.96619  Biso   1.000  H
  H511     1.0000 0.79121  0.63139  0.93920  Biso   1.000  H
  H512     1.0000 0.74708  0.55212  0.96619  Biso   1.000  H
  H513     1.0000 0.25193  0.44379  0.96541  Biso   1.000  H
  H514     1.0000 0.20570  0.36217  0.93891  Biso   1.000  H
  N333     1.0000 0.10913  0.33259  0.97276  Biso   1.000  N
  C496     1.0000 0.08885  0.37215  0.99993  Biso   1.000  C
  C497     1.0000 0.08889  0.37223  0.99993  Biso   1.000  C
  C498     1.0000 0.02388  0.27139  0.04288  Biso   1.000  C
  O164     1.0000 0.76806  0.78893  0.06697  Biso   1.000  O
  N334     1.0000 0.66500  0.77567  0.02724  Biso   1.000  N
  O165     1.0000 0.76810  0.78901  0.06697  Biso   1.000  O
  N335     1.0000 0.66503  0.77575  0.02724  Biso   1.000  N
  C499     1.0000 0.62778  0.71668  0.99993  Biso   1.000  C
  H515     1.0000 0.62581  0.57491  0.00080  Biso   1.000  H
  C500     1.0000 0.72629  0.74815  0.95663  Biso   1.000  C
  C501     1.0000 0.72633  0.74823  0.95663  Biso   1.000  C
  C502     1.0000 0.02192  0.27368  0.95663  Biso   1.000  C
  C503     1.0000 0.97110  0.32200  0.00018  Biso   1.000  C
  H516     1.0000 0.12309  0.44829  0.99971  Biso   1.000  H
  N336     1.0000 0.94237  0.26072  0.02711  Biso   1.000  N
  O166     1.0000 0.02091  0.23191  0.06697  Biso   1.000  O
  C504     1.0000 0.62543  0.83779  0.03879  Biso   1.000  C
  N337     1.0000 0.66740  0.77651  0.97276  Biso   1.000  N
  H517     1.0000 0.55170  0.67476  0.99971  Biso   1.000  H
  H518     1.0000 0.55174  0.67483  0.99971  Biso   1.000  H
  O167     1.0000 0.76341  0.78161  0.93204  Biso   1.000  O
  O168     1.0000 0.76345  0.78169  0.93204  Biso   1.000  O
  N338     1.0000 0.94075  0.26461  0.97251  Biso   1.000  N
  O169     1.0000 0.01821  0.23656  0.93204  Biso   1.000  O
  H519     1.0000 0.94908  0.37421  0.00080  Biso   1.000  H
  C505     1.0000 0.84001  0.21019  0.03908  Biso   1.000  C
  N339     1.0000 0.67612  0.94076  0.02749  Biso   1.000  N
  H520     1.0000 0.55208  0.80501  0.03381  Biso   1.000  H
  H521     1.0000 0.63136  0.84015  0.06080  Biso   1.000  H
  H522     1.0000 0.63140  0.84023  0.06080  Biso   1.000  H
  C506     1.0000 0.62977  0.84000  0.96092  Biso   1.000  C
  C507     1.0000 0.83782  0.21240  0.96121  Biso   1.000  C
  N340     1.0000 0.77654  0.10912  0.02724  Biso   1.000  N
  H523     1.0000 0.80812  0.25188  0.03459  Biso   1.000  H
  H524     1.0000 0.84351  0.20569  0.06109  Biso   1.000  H
  C508     1.0000 0.64911  0.97109  0.99982  Biso   1.000  C
  C509     1.0000 0.74815  0.02185  0.04337  Biso   1.000  C
  C510     1.0000 0.74819  0.02193  0.04337  Biso   1.000  C
  N341     1.0000 0.68167  0.94236  0.97289  Biso   1.000  N
  H525     1.0000 0.55618  0.80806  0.96541  Biso   1.000  H
  H526     1.0000 0.63779  0.84350  0.93891  Biso   1.000  H
  H527     1.0000 0.55621  0.80814  0.96541  Biso   1.000  H
  N342     1.0000 0.77572  0.11065  0.97276  Biso   1.000  N
  H528     1.0000 0.80498  0.25287  0.96619  Biso   1.000  H
  H529     1.0000 0.84018  0.20882  0.93920  Biso   1.000  H
  C511     1.0000 0.71670  0.08885  0.00007  Biso   1.000  C
  C512     1.0000 0.71674  0.08892  0.00007  Biso   1.000  C
  H530     1.0000 0.57486  0.94906  0.99920  Biso   1.000  H
  O170     1.0000 0.78164  0.01819  0.06796  Biso   1.000  O
  C513     1.0000 0.75248  0.02391  0.95712  Biso   1.000  C
  H531     1.0000 0.67480  0.12307  0.00029  Biso   1.000  H
  O171     1.0000 0.78898  0.02086  0.93303  Biso   1.000  O
  O172     1.0000 0.21100  0.97909  0.06697  Biso   1.000  O
  C514     1.0000 0.24749  0.97605  0.04288  Biso   1.000  C
  C515     1.0000 0.24753  0.97612  0.04288  Biso   1.000  C
  N343     1.0000 0.22426  0.88931  0.02724  Biso   1.000  N
  N344     1.0000 0.31830  0.05760  0.02711  Biso   1.000  N
  N345     1.0000 0.31834  0.05768  0.02711  Biso   1.000  N
  C516     1.0000 0.16216  0.78756  0.03879  Biso   1.000  C
  C517     1.0000 0.16220  0.78764  0.03879  Biso   1.000  C
  C518     1.0000 0.28328  0.91111  0.99993  Biso   1.000  C
  C519     1.0000 0.35087  0.02886  0.00018  Biso   1.000  C
  C520     1.0000 0.37021  0.15996  0.03908  Biso   1.000  C
  C521     1.0000 0.37025  0.16004  0.03908  Biso   1.000  C
  N346     1.0000 0.05923  0.73535  0.02749  Biso   1.000  N
  H532     1.0000 0.19500  0.74709  0.03381  Biso   1.000  H
  H533     1.0000 0.15980  0.79114  0.06080  Biso   1.000  H
  H534     1.0000 0.15983  0.79122  0.06080  Biso   1.000  H
  N347     1.0000 0.22344  0.89083  0.97276  Biso   1.000  N
  N348     1.0000 0.22348  0.89091  0.97276  Biso   1.000  N
  H535     1.0000 0.32518  0.87689  0.99971  Biso   1.000  H
  N349     1.0000 0.32386  0.05920  0.97251  Biso   1.000  N
  H536     1.0000 0.42512  0.05089  0.00080  Biso   1.000  H
  N350     1.0000 0.33258  0.22345  0.02724  Biso   1.000  N
  H537     1.0000 0.44380  0.19189  0.03459  Biso   1.000  H
  H538     1.0000 0.36219  0.15645  0.06109  Biso   1.000  H
  N351     1.0000 0.33262  0.22353  0.02724  Biso   1.000  N
  H539     1.0000 0.36223  0.15653  0.06109  Biso   1.000  H
  C522     1.0000 0.97806  0.72628  0.04337  Biso   1.000  C
  C523     1.0000 0.02888  0.67796  0.99982  Biso   1.000  C
  C524     1.0000 0.15997  0.78977  0.96092  Biso   1.000  C
  C525     1.0000 0.25182  0.97810  0.95663  Biso   1.000  C
  C526     1.0000 0.37455  0.16217  0.96121  Biso   1.000  C
  C527     1.0000 0.37459  0.16225  0.96121  Biso   1.000  C
  C528     1.0000 0.37220  0.28328  0.00007  Biso   1.000  C
  C529     1.0000 0.27369  0.25180  0.04337  Biso   1.000  C
  O173     1.0000 0.98177  0.76340  0.06796  Biso   1.000  O
  N352     1.0000 0.89084  0.66736  0.02724  Biso   1.000  N
  O174     1.0000 0.98180  0.76347  0.06796  Biso   1.000  O
  C530     1.0000 0.91113  0.62781  0.00007  Biso   1.000  C
  N353     1.0000 0.05761  0.73924  0.97289  Biso   1.000  N
  H540     1.0000 0.05089  0.62575  0.99920  Biso   1.000  H
  N354     1.0000 0.05764  0.73931  0.97289  Biso   1.000  N
  H541     1.0000 0.05093  0.62582  0.99920  Biso   1.000  H
  H542     1.0000 0.19186  0.74808  0.96541  Biso   1.000  H
  H543     1.0000 0.15647  0.79427  0.93891  Biso   1.000  H
  O175     1.0000 0.21834  0.98176  0.93204  Biso   1.000  O
  N355     1.0000 0.33498  0.22429  0.97276  Biso   1.000  N
  H544     1.0000 0.44790  0.19494  0.96619  Biso   1.000  H
  H545     1.0000 0.36862  0.15981  0.93920  Biso   1.000  H
  H546     1.0000 0.44794  0.19502  0.96619  Biso   1.000  H
  C531     1.0000 0.32204  0.35089  0.99982  Biso   1.000  C
  H547     1.0000 0.44828  0.32520  0.00029  Biso   1.000  H
  O176     1.0000 0.23656  0.21834  0.06796  Biso   1.000  O
  N356     1.0000 0.26462  0.32383  0.02749  Biso   1.000  N
  N357     1.0000 0.26466  0.32390  0.02749  Biso   1.000  N
  C532     1.0000 0.78981  0.62979  0.03908  Biso   1.000  C
  N358     1.0000 0.88933  0.66500  0.97276  Biso   1.000  N
  H548     1.0000 0.87689  0.55166  0.00029  Biso   1.000  H
  C533     1.0000 0.97610  0.72857  0.95712  Biso   1.000  C
  C534     1.0000 0.27139  0.24746  0.95712  Biso   1.000  C
  C535     1.0000 0.27142  0.24753  0.95712  Biso   1.000  C
  N359     1.0000 0.26069  0.31834  0.97289  Biso   1.000  N
  H549     1.0000 0.37417  0.42505  0.99920  Biso   1.000  H
  H550     1.0000 0.37421  0.42512  0.99920  Biso   1.000  H
  C536     1.0000 0.21238  0.37459  0.03879  Biso   1.000  C
  N360     1.0000 0.73929  0.68162  0.02711  Biso   1.000  N
  H551     1.0000 0.74805  0.55616  0.03459  Biso   1.000  H
  H552     1.0000 0.79428  0.63779  0.06109  Biso   1.000  H
  H553     1.0000 0.74811  0.55616  0.03459  Biso   1.000  H
  H554     1.0000 0.74815  0.55624  0.03459  Biso   1.000  H
  C537     1.0000 0.78760  0.62537  0.96121  Biso   1.000  C
  O177     1.0000 0.97907  0.76805  0.93303  Biso   1.000  O
  O178     1.0000 0.23192  0.21103  0.93303  Biso   1.000  O
  C538     1.0000 0.21017  0.37017  0.96092  Biso   1.000  C
  N361     1.0000 0.11065  0.33496  0.02724  Biso   1.000  N
  H555     1.0000 0.25293  0.44791  0.03381  Biso   1.000  H
  H556     1.0000 0.20877  0.36857  0.06080  Biso   1.000  H
  C539     1.0000 0.72859  0.75250  0.04288  Biso   1.000  C
  C540     1.0000 0.67793  0.64907  0.00018  Biso   1.000  C
  N362     1.0000 0.73536  0.67613  0.97251  Biso   1.000  N
  H557     1.0000 0.74705  0.55205  0.96619  Biso   1.000  H
  H558     1.0000 0.79121  0.63139  0.93920  Biso   1.000  H
  H559     1.0000 0.74708  0.55212  0.96619  Biso   1.000  H
  H560     1.0000 0.25193  0.44379  0.96541  Biso   1.000  H
  H561     1.0000 0.20570  0.36217  0.93891  Biso   1.000  H
  N363     1.0000 0.10913  0.33259  0.97276  Biso   1.000  N
  C541     1.0000 0.08885  0.37215  0.99993  Biso   1.000  C
  C542     1.0000 0.08889  0.37223  0.99993  Biso   1.000  C
  C543     1.0000 0.02388  0.27139  0.04288  Biso   1.000  C
  O179     1.0000 0.76806  0.78893  0.06697  Biso   1.000  O
  N364     1.0000 0.66500  0.77567  0.02724  Biso   1.000  N
  O180     1.0000 0.76810  0.78901  0.06697  Biso   1.000  O
  N365     1.0000 0.66503  0.77575  0.02724  Biso   1.000  N
  C544     1.0000 0.62778  0.71668  0.99993  Biso   1.000  C
  H562     1.0000 0.62581  0.57491  0.00080  Biso   1.000  H
  C545     1.0000 0.72629  0.74815  0.95663  Biso   1.000  C
  C546     1.0000 0.72633  0.74823  0.95663  Biso   1.000  C
  C547     1.0000 0.02192  0.27368  0.95663  Biso   1.000  C
  C548     1.0000 0.97110  0.32200  0.00018  Biso   1.000  C
  H563     1.0000 0.12309  0.44829  0.99971  Biso   1.000  H
  N366     1.0000 0.94237  0.26072  0.02711  Biso   1.000  N
  O181     1.0000 0.02091  0.23191  0.06697  Biso   1.000  O
  C549     1.0000 0.62543  0.83779  0.03879  Biso   1.000  C
  N367     1.0000 0.66740  0.77651  0.97276  Biso   1.000  N
  H564     1.0000 0.55170  0.67476  0.99971  Biso   1.000  H
  H565     1.0000 0.55174  0.67483  0.99971  Biso   1.000  H
  O182     1.0000 0.76341  0.78161  0.93204  Biso   1.000  O
  O183     1.0000 0.76345  0.78169  0.93204  Biso   1.000  O
  N368     1.0000 0.94075  0.26461  0.97251  Biso   1.000  N
  O184     1.0000 0.01821  0.23656  0.93204  Biso   1.000  O
  H566     1.0000 0.94908  0.37421  0.00080  Biso   1.000  H
  C550     1.0000 0.84001  0.21019  0.03908  Biso   1.000  C
  N369     1.0000 0.67612  0.94076  0.02749  Biso   1.000  N
  H567     1.0000 0.55208  0.80501  0.03381  Biso   1.000  H
  H568     1.0000 0.63136  0.84015  0.06080  Biso   1.000  H
  H569     1.0000 0.63140  0.84023  0.06080  Biso   1.000  H
  C551     1.0000 0.62977  0.84000  0.96092  Biso   1.000  C
  C552     1.0000 0.83782  0.21240  0.96121  Biso   1.000  C
  N370     1.0000 0.77654  0.10912  0.02724  Biso   1.000  N
  H570     1.0000 0.80812  0.25188  0.03459  Biso   1.000  H
  H571     1.0000 0.84351  0.20569  0.06109  Biso   1.000  H
  C553     1.0000 0.64911  0.97109  0.99982  Biso   1.000  C
  C554     1.0000 0.74815  0.02185  0.04337  Biso   1.000  C
  C555     1.0000 0.74819  0.02193  0.04337  Biso   1.000  C
  N371     1.0000 0.68167  0.94236  0.97289  Biso   1.000  N
  H572     1.0000 0.55618  0.80806  0.96541  Biso   1.000  H
  H573     1.0000 0.63779  0.84350  0.93891  Biso   1.000  H
  H574     1.0000 0.55621  0.80814  0.96541  Biso   1.000  H
  N372     1.0000 0.77572  0.11065  0.97276  Biso   1.000  N
  H575     1.0000 0.80498  0.25287  0.96619  Biso   1.000  H
  H576     1.0000 0.84018  0.20882  0.93920  Biso   1.000  H
  C556     1.0000 0.71670  0.08885  0.00007  Biso   1.000  C
  C557     1.0000 0.71674  0.08892  0.00007  Biso   1.000  C
  H577     1.0000 0.57486  0.94906  0.99920  Biso   1.000  H
  O185     1.0000 0.78164  0.01819  0.06796  Biso   1.000  O
  C558     1.0000 0.75248  0.02391  0.95712  Biso   1.000  C
  H578     1.0000 0.67480  0.12307  0.00029  Biso   1.000  H
  O186     1.0000 0.78898  0.02086  0.93303  Biso   1.000  O
  O187     1.0000 0.21100  0.97909  0.06697  Biso   1.000  O
  C559     1.0000 0.24749  0.97605  0.04288  Biso   1.000  C
  C560     1.0000 0.24753  0.97612  0.04288  Biso   1.000  C
  N373     1.0000 0.22426  0.88931  0.02724  Biso   1.000  N
  N374     1.0000 0.31830  0.05760  0.02711  Biso   1.000  N
  N375     1.0000 0.31834  0.05768  0.02711  Biso   1.000  N
  C561     1.0000 0.16216  0.78756  0.03879  Biso   1.000  C
  C562     1.0000 0.16220  0.78764  0.03879  Biso   1.000  C
  C563     1.0000 0.28328  0.91111  0.99993  Biso   1.000  C
  C564     1.0000 0.35087  0.02886  0.00018  Biso   1.000  C
  C565     1.0000 0.37021  0.15996  0.03908  Biso   1.000  C
  C566     1.0000 0.37025  0.16004  0.03908  Biso   1.000  C
  N376     1.0000 0.05923  0.73535  0.02749  Biso   1.000  N
  H579     1.0000 0.19500  0.74709  0.03381  Biso   1.000  H
  H580     1.0000 0.15980  0.79114  0.06080  Biso   1.000  H
  H581     1.0000 0.15983  0.79122  0.06080  Biso   1.000  H
  N377     1.0000 0.22344  0.89083  0.97276  Biso   1.000  N
  N378     1.0000 0.22348  0.89091  0.97276  Biso   1.000  N
  H582     1.0000 0.32518  0.87689  0.99971  Biso   1.000  H
  N379     1.0000 0.32386  0.05920  0.97251  Biso   1.000  N
  H583     1.0000 0.42512  0.05089  0.00080  Biso   1.000  H
  N380     1.0000 0.33258  0.22345  0.02724  Biso   1.000  N
  H584     1.0000 0.44380  0.19189  0.03459  Biso   1.000  H
  H585     1.0000 0.36219  0.15645  0.06109  Biso   1.000  H
  N381     1.0000 0.33262  0.22353  0.02724  Biso   1.000  N
  H586     1.0000 0.36223  0.15653  0.06109  Biso   1.000  H
  C567     1.0000 0.97806  0.72628  0.04337  Biso   1.000  C
  C568     1.0000 0.02888  0.67796  0.99982  Biso   1.000  C
  C569     1.0000 0.15997  0.78977  0.96092  Biso   1.000  C
  C570     1.0000 0.25182  0.97810  0.95663  Biso   1.000  C
  C571     1.0000 0.37455  0.16217  0.96121  Biso   1.000  C
  C572     1.0000 0.37459  0.16225  0.96121  Biso   1.000  C
  C573     1.0000 0.37220  0.28328  0.00007  Biso   1.000  C
  C574     1.0000 0.27369  0.25180  0.04337  Biso   1.000  C
  O188     1.0000 0.98177  0.76340  0.06796  Biso   1.000  O
  N382     1.0000 0.89084  0.66736  0.02724  Biso   1.000  N
  O189     1.0000 0.98180  0.76347  0.06796  Biso   1.000  O
  C575     1.0000 0.91113  0.62781  0.00007  Biso   1.000  C
  N383     1.0000 0.05761  0.73924  0.97289  Biso   1.000  N
  H587     1.0000 0.05089  0.62575  0.99920  Biso   1.000  H
  N384     1.0000 0.05764  0.73931  0.97289  Biso   1.000  N
  H588     1.0000 0.05093  0.62582  0.99920  Biso   1.000  H
  H589     1.0000 0.19186  0.74808  0.96541  Biso   1.000  H
  H590     1.0000 0.15647  0.79427  0.93891  Biso   1.000  H
  O190     1.0000 0.21834  0.98176  0.93204  Biso   1.000  O
  N385     1.0000 0.33498  0.22429  0.97276  Biso   1.000  N
  H591     1.0000 0.44790  0.19494  0.96619  Biso   1.000  H
  H592     1.0000 0.36862  0.15981  0.93920  Biso   1.000  H
  H593     1.0000 0.44794  0.19502  0.96619  Biso   1.000  H
  C576     1.0000 0.32204  0.35089  0.99982  Biso   1.000  C
  H594     1.0000 0.44828  0.32520  0.00029  Biso   1.000  H
  O191     1.0000 0.23656  0.21834  0.06796  Biso   1.000  O
  N386     1.0000 0.26462  0.32383  0.02749  Biso   1.000  N
  N387     1.0000 0.26466  0.32390  0.02749  Biso   1.000  N
  C577     1.0000 0.78981  0.62979  0.03908  Biso   1.000  C
  N388     1.0000 0.88933  0.66500  0.97276  Biso   1.000  N
  H595     1.0000 0.87689  0.55166  0.00029  Biso   1.000  H
  C578     1.0000 0.97610  0.72857  0.95712  Biso   1.000  C
  C579     1.0000 0.27139  0.24746  0.95712  Biso   1.000  C
  C580     1.0000 0.27142  0.24753  0.95712  Biso   1.000  C
  N389     1.0000 0.26069  0.31834  0.97289  Biso   1.000  N
  H596     1.0000 0.37417  0.42505  0.99920  Biso   1.000  H
  H597     1.0000 0.37421  0.42512  0.99920  Biso   1.000  H
  C581     1.0000 0.21238  0.37459  0.03879  Biso   1.000  C
  N390     1.0000 0.73929  0.68162  0.02711  Biso   1.000  N
  H598     1.0000 0.74805  0.55616  0.03459  Biso   1.000  H
  H599     1.0000 0.79428  0.63779  0.06109  Biso   1.000  H
  H600     1.0000 0.74811  0.55616  0.03459  Biso   1.000  H
  H601     1.0000 0.74815  0.55624  0.03459  Biso   1.000  H
  C582     1.0000 0.78760  0.62537  0.96121  Biso   1.000  C
  O192     1.0000 0.97907  0.76805  0.93303  Biso   1.000  O
  O193     1.0000 0.23192  0.21103  0.93303  Biso   1.000  O
  C583     1.0000 0.21017  0.37017  0.96092  Biso   1.000  C
  N391     1.0000 0.11065  0.33496  0.02724  Biso   1.000  N
  H602     1.0000 0.25293  0.44791  0.03381  Biso   1.000  H
  H603     1.0000 0.20877  0.36857  0.06080  Biso   1.000  H
  C584     1.0000 0.72859  0.75250  0.04288  Biso   1.000  C
  C585     1.0000 0.67793  0.64907  0.00018  Biso   1.000  C
  N392     1.0000 0.73536  0.67613  0.97251  Biso   1.000  N
  H604     1.0000 0.74705  0.55205  0.96619  Biso   1.000  H
  H605     1.0000 0.79121  0.63139  0.93920  Biso   1.000  H
  H606     1.0000 0.74708  0.55212  0.96619  Biso   1.000  H
  H607     1.0000 0.25193  0.44379  0.96541  Biso   1.000  H
  H608     1.0000 0.20570  0.36217  0.93891  Biso   1.000  H
  N393     1.0000 0.10913  0.33259  0.97276  Biso   1.000  N
  C586     1.0000 0.08885  0.37215  0.99993  Biso   1.000  C
  C587     1.0000 0.08889  0.37223  0.99993  Biso   1.000  C
  C588     1.0000 0.02388  0.27139  0.04288  Biso   1.000  C
  O194     1.0000 0.76806  0.78893  0.06697  Biso   1.000  O
  N394     1.0000 0.66500  0.77567  0.02724  Biso   1.000  N
  O195     1.0000 0.76810  0.78901  0.06697  Biso   1.000  O
  N395     1.0000 0.66503  0.77575  0.02724  Biso   1.000  N
  C589     1.0000 0.62778  0.71668  0.99993  Biso   1.000  C
  H609     1.0000 0.62581  0.57491  0.00080  Biso   1.000  H
  C590     1.0000 0.72629  0.74815  0.95663  Biso   1.000  C
  C591     1.0000 0.72633  0.74823  0.95663  Biso   1.000  C
  C592     1.0000 0.02192  0.27368  0.95663  Biso   1.000  C
  C593     1.0000 0.97110  0.32200  0.00018  Biso   1.000  C
  H610     1.0000 0.12309  0.44829  0.99971  Biso   1.000  H
  N396     1.0000 0.94237  0.26072  0.02711  Biso   1.000  N
  O196     1.0000 0.02091  0.23191  0.06697  Biso   1.000  O
  C594     1.0000 0.62543  0.83779  0.03879  Biso   1.000  C
  N397     1.0000 0.66740  0.77651  0.97276  Biso   1.000  N
  H611     1.0000 0.55170  0.67476  0.99971  Biso   1.000  H
  H612     1.0000 0.55174  0.67483  0.99971  Biso   1.000  H
  O197     1.0000 0.76341  0.78161  0.93204  Biso   1.000  O
  O198     1.0000 0.76345  0.78169  0.93204  Biso   1.000  O
  N398     1.0000 0.94075  0.26461  0.97251  Biso   1.000  N
  O199     1.0000 0.01821  0.23656  0.93204  Biso   1.000  O
  H613     1.0000 0.94908  0.37421  0.00080  Biso   1.000  H
  C595     1.0000 0.84001  0.21019  0.03908  Biso   1.000  C
  N399     1.0000 0.67612  0.94076  0.02749  Biso   1.000  N
  H614     1.0000 0.55208  0.80501  0.03381  Biso   1.000  H
  H615     1.0000 0.63136  0.84015  0.06080  Biso   1.000  H
  H616     1.0000 0.63140  0.84023  0.06080  Biso   1.000  H
  C596     1.0000 0.62977  0.84000  0.96092  Biso   1.000  C
  C597     1.0000 0.83782  0.21240  0.96121  Biso   1.000  C
  N400     1.0000 0.77654  0.10912  0.02724  Biso   1.000  N
  H617     1.0000 0.80812  0.25188  0.03459  Biso   1.000  H
  H618     1.0000 0.84351  0.20569  0.06109  Biso   1.000  H
  C598     1.0000 0.64911  0.97109  0.99982  Biso   1.000  C
  C599     1.0000 0.74815  0.02185  0.04337  Biso   1.000  C
  C600     1.0000 0.74819  0.02193  0.04337  Biso   1.000  C
  N401     1.0000 0.68167  0.94236  0.97289  Biso   1.000  N
  H619     1.0000 0.55618  0.80806  0.96541  Biso   1.000  H
  H620     1.0000 0.63779  0.84350  0.93891  Biso   1.000  H
  H621     1.0000 0.55621  0.80814  0.96541  Biso   1.000  H
  N402     1.0000 0.77572  0.11065  0.97276  Biso   1.000  N
  H622     1.0000 0.80498  0.25287  0.96619  Biso   1.000  H
  H623     1.0000 0.84018  0.20882  0.93920  Biso   1.000  H
  C601     1.0000 0.71670  0.08885  0.00007  Biso   1.000  C
  C602     1.0000 0.71674  0.08892  0.00007  Biso   1.000  C
  H624     1.0000 0.57486  0.94906  0.99920  Biso   1.000  H
  O200     1.0000 0.78164  0.01819  0.06796  Biso   1.000  O
  C603     1.0000 0.75248  0.02391  0.95712  Biso   1.000  C
  H625     1.0000 0.67480  0.12307  0.00029  Biso   1.000  H
  O201     1.0000 0.78898  0.02086  0.93303  Biso   1.000  O
  O202     1.0000 0.21100  0.97909  0.06697  Biso   1.000  O
  C604     1.0000 0.24749  0.97605  0.04288  Biso   1.000  C
  C605     1.0000 0.24753  0.97612  0.04288  Biso   1.000  C
  N403     1.0000 0.22426  0.88931  0.02724  Biso   1.000  N
  N404     1.0000 0.31830  0.05760  0.02711  Biso   1.000  N
  N405     1.0000 0.31834  0.05768  0.02711  Biso   1.000  N
  C606     1.0000 0.16216  0.78756  0.03879  Biso   1.000  C
  C607     1.0000 0.16220  0.78764  0.03879  Biso   1.000  C
  C608     1.0000 0.28328  0.91111  0.99993  Biso   1.000  C
  C609     1.0000 0.35087  0.02886  0.00018  Biso   1.000  C
  C610     1.0000 0.37021  0.15996  0.03908  Biso   1.000  C
  C611     1.0000 0.37025  0.16004  0.03908  Biso   1.000  C
  N406     1.0000 0.05923  0.73535  0.02749  Biso   1.000  N
  H626     1.0000 0.19500  0.74709  0.03381  Biso   1.000  H
  H627     1.0000 0.15980  0.79114  0.06080  Biso   1.000  H
  H628     1.0000 0.15983  0.79122  0.06080  Biso   1.000  H
  N407     1.0000 0.22344  0.89083  0.97276  Biso   1.000  N
  N408     1.0000 0.22348  0.89091  0.97276  Biso   1.000  N
  H629     1.0000 0.32518  0.87689  0.99971  Biso   1.000  H
  N409     1.0000 0.32386  0.05920  0.97251  Biso   1.000  N
  H630     1.0000 0.42512  0.05089  0.00080  Biso   1.000  H
  N410     1.0000 0.33258  0.22345  0.02724  Biso   1.000  N
  H631     1.0000 0.44380  0.19189  0.03459  Biso   1.000  H
  H632     1.0000 0.36219  0.15645  0.06109  Biso   1.000  H
  N411     1.0000 0.33262  0.22353  0.02724  Biso   1.000  N
  H633     1.0000 0.36223  0.15653  0.06109  Biso   1.000  H
  C612     1.0000 0.97806  0.72628  0.04337  Biso   1.000  C
  C613     1.0000 0.02888  0.67796  0.99982  Biso   1.000  C
  C614     1.0000 0.15997  0.78977  0.96092  Biso   1.000  C
  C615     1.0000 0.25182  0.97810  0.95663  Biso   1.000  C
  C616     1.0000 0.37455  0.16217  0.96121  Biso   1.000  C
  C617     1.0000 0.37459  0.16225  0.96121  Biso   1.000  C
  C618     1.0000 0.37220  0.28328  0.00007  Biso   1.000  C
  C619     1.0000 0.27369  0.25180  0.04337  Biso   1.000  C
  O203     1.0000 0.98177  0.76340  0.06796  Biso   1.000  O
  N412     1.0000 0.89084  0.66736  0.02724  Biso   1.000  N
  O204     1.0000 0.98180  0.76347  0.06796  Biso   1.000  O
  C620     1.0000 0.91113  0.62781  0.00007  Biso   1.000  C
  N413     1.0000 0.05761  0.73924  0.97289  Biso   1.000  N
  H634     1.0000 0.05089  0.62575  0.99920  Biso   1.000  H
  N414     1.0000 0.05764  0.73931  0.97289  Biso   1.000  N
  H635     1.0000 0.05093  0.62582  0.99920  Biso   1.000  H
  H636     1.0000 0.19186  0.74808  0.96541  Biso   1.000  H
  H637     1.0000 0.15647  0.79427  0.93891  Biso   1.000  H
  O205     1.0000 0.21834  0.98176  0.93204  Biso   1.000  O
  N415     1.0000 0.33498  0.22429  0.97276  Biso   1.000  N
  H638     1.0000 0.44790  0.19494  0.96619  Biso   1.000  H
  H639     1.0000 0.36862  0.15981  0.93920  Biso   1.000  H
  H640     1.0000 0.44794  0.19502  0.96619  Biso   1.000  H
  C621     1.0000 0.32204  0.35089  0.99982  Biso   1.000  C
  H641     1.0000 0.44828  0.32520  0.00029  Biso   1.000  H
  O206     1.0000 0.23656  0.21834  0.06796  Biso   1.000  O
  N416     1.0000 0.26462  0.32383  0.02749  Biso   1.000  N
  N417     1.0000 0.26466  0.32390  0.02749  Biso   1.000  N
  C622     1.0000 0.78981  0.62979  0.03908  Biso   1.000  C
  N418     1.0000 0.88933  0.66500  0.97276  Biso   1.000  N
  H642     1.0000 0.87689  0.55166  0.00029  Biso   1.000  H
  C623     1.0000 0.97610  0.72857  0.95712  Biso   1.000  C
  C624     1.0000 0.27139  0.24746  0.95712  Biso   1.000  C
  C625     1.0000 0.27142  0.24753  0.95712  Biso   1.000  C
  N419     1.0000 0.26069  0.31834  0.97289  Biso   1.000  N
  H643     1.0000 0.37417  0.42505  0.99920  Biso   1.000  H
  H644     1.0000 0.37421  0.42512  0.99920  Biso   1.000  H
  C626     1.0000 0.21238  0.37459  0.03879  Biso   1.000  C
  N420     1.0000 0.73929  0.68162  0.02711  Biso   1.000  N
  H645     1.0000 0.74805  0.55616  0.03459  Biso   1.000  H
  H646     1.0000 0.79428  0.63779  0.06109  Biso   1.000  H
  H647     1.0000 0.74811  0.55616  0.03459  Biso   1.000  H
  H648     1.0000 0.74815  0.55624  0.03459  Biso   1.000  H
  C627     1.0000 0.78760  0.62537  0.96121  Biso   1.000  C
  O207     1.0000 0.97907  0.76805  0.93303  Biso   1.000  O
  O208     1.0000 0.23192  0.21103  0.93303  Biso   1.000  O
  C628     1.0000 0.21017  0.37017  0.96092  Biso   1.000  C
  N421     1.0000 0.11065  0.33496  0.02724  Biso   1.000  N
  H649     1.0000 0.25293  0.44791  0.03381  Biso   1.000  H
  H650     1.0000 0.20877  0.36857  0.06080  Biso   1.000  H
  C629     1.0000 0.72859  0.75250  0.04288  Biso   1.000  C
  C630     1.0000 0.67793  0.64907  0.00018  Biso   1.000  C
  N422     1.0000 0.73536  0.67613  0.97251  Biso   1.000  N
  H651     1.0000 0.74705  0.55205  0.96619  Biso   1.000  H
  H652     1.0000 0.79121  0.63139  0.93920  Biso   1.000  H
  H653     1.0000 0.74708  0.55212  0.96619  Biso   1.000  H
  H654     1.0000 0.25193  0.44379  0.96541  Biso   1.000  H
  H655     1.0000 0.20570  0.36217  0.93891  Biso   1.000  H
  N423     1.0000 0.10913  0.33259  0.97276  Biso   1.000  N
  C631     1.0000 0.08885  0.37215  0.99993  Biso   1.000  C
  C632     1.0000 0.08889  0.37223  0.99993  Biso   1.000  C
  C633     1.0000 0.02388  0.27139  0.04288  Biso   1.000  C
  O209     1.0000 0.76806  0.78893  0.06697  Biso   1.000  O
  N424     1.0000 0.66500  0.77567  0.02724  Biso   1.000  N
  O210     1.0000 0.76810  0.78901  0.06697  Biso   1.000  O
  N425     1.0000 0.66503  0.77575  0.02724  Biso   1.000  N
  C634     1.0000 0.62778  0.71668  0.99993  Biso   1.000  C
  H656     1.0000 0.62581  0.57491  0.00080  Biso   1.000  H
  C635     1.0000 0.72629  0.74815  0.95663  Biso   1.000  C
  C636     1.0000 0.72633  0.74823  0.95663  Biso   1.000  C
  C637     1.0000 0.02192  0.27368  0.95663  Biso   1.000  C
  C638     1.0000 0.97110  0.32200  0.00018  Biso   1.000  C
  H657     1.0000 0.12309  0.44829  0.99971  Biso   1.000  H
  N426     1.0000 0.94237  0.26072  0.02711  Biso   1.000  N
  O211     1.0000 0.02091  0.23191  0.06697  Biso   1.000  O
  C639     1.0000 0.62543  0.83779  0.03879  Biso   1.000  C
  N427     1.0000 0.66740  0.77651  0.97276  Biso   1.000  N
  H658     1.0000 0.55170  0.67476  0.99971  Biso   1.000  H
  H659     1.0000 0.55174  0.67483  0.99971  Biso   1.000  H
  O212     1.0000 0.76341  0.78161  0.93204  Biso   1.000  O
  O213     1.0000 0.76345  0.78169  0.93204  Biso   1.000  O
  N428     1.0000 0.94075  0.26461  0.97251  Biso   1.000  N
  O214     1.0000 0.01821  0.23656  0.93204  Biso   1.000  O
  H660     1.0000 0.94908  0.37421  0.00080  Biso   1.000  H
  C640     1.0000 0.84001  0.21019  0.03908  Biso   1.000  C
  N429     1.0000 0.67612  0.94076  0.02749  Biso   1.000  N
  H661     1.0000 0.55208  0.80501  0.03381  Biso   1.000  H
  H662     1.0000 0.63136  0.84015  0.06080  Biso   1.000  H
  H663     1.0000 0.63140  0.84023  0.06080  Biso   1.000  H
  C641     1.0000 0.62977  0.84000  0.96092  Biso   1.000  C
  C642     1.0000 0.83782  0.21240  0.96121  Biso   1.000  C
  N430     1.0000 0.77654  0.10912  0.02724  Biso   1.000  N
  H664     1.0000 0.80812  0.25188  0.03459  Biso   1.000  H
  H665     1.0000 0.84351  0.20569  0.06109  Biso   1.000  H
  C643     1.0000 0.64911  0.97109  0.99982  Biso   1.000  C
  C644     1.0000 0.74815  0.02185  0.04337  Biso   1.000  C
  C645     1.0000 0.74819  0.02193  0.04337  Biso   1.000  C
  N431     1.0000 0.68167  0.94236  0.97289  Biso   1.000  N
  H666     1.0000 0.55618  0.80806  0.96541  Biso   1.000  H
  H667     1.0000 0.63779  0.84350  0.93891  Biso   1.000  H
  H668     1.0000 0.55621  0.80814  0.96541  Biso   1.000  H
  N432     1.0000 0.77572  0.11065  0.97276  Biso   1.000  N
  H669     1.0000 0.80498  0.25287  0.96619  Biso   1.000  H
  H670     1.0000 0.84018  0.20882  0.93920  Biso   1.000  H
  C646     1.0000 0.71670  0.08885  0.00007  Biso   1.000  C
  C647     1.0000 0.71674  0.08892  0.00007  Biso   1.000  C
  H671     1.0000 0.57486  0.94906  0.99920  Biso   1.000  H
  O215     1.0000 0.78164  0.01819  0.06796  Biso   1.000  O
  C648     1.0000 0.75248  0.02391  0.95712  Biso   1.000  C
  H672     1.0000 0.67480  0.12307  0.00029  Biso   1.000  H
  O216     1.0000 0.78898  0.02086  0.93303  Biso   1.000  O
  O217     1.0000 0.64577  0.54435  0.76637  Biso   1.000  O
  C649     1.0000 0.64277  0.58086  0.79044  Biso   1.000  C
  N433     1.0000 0.55597  0.55761  0.80608  Biso   1.000  N
  N434     1.0000 0.72431  0.65166  0.80623  Biso   1.000  N
  C650     1.0000 0.45432  0.49557  0.79455  Biso   1.000  C
  C651     1.0000 0.57774  0.61660  0.83341  Biso   1.000  C
  C652     1.0000 0.69550  0.68421  0.83316  Biso   1.000  C
  C653     1.0000 0.82670  0.70357  0.79423  Biso   1.000  C
  N435     1.0000 0.40204  0.39260  0.80583  Biso   1.000  N
  H673     1.0000 0.41374  0.52834  0.79953  Biso   1.000  H
  H674     1.0000 0.45785  0.49313  0.77254  Biso   1.000  H
  N436     1.0000 0.55757  0.55685  0.86058  Biso   1.000  N
  H675     1.0000 0.54358  0.65852  0.83363  Biso   1.000  H
  N437     1.0000 0.72591  0.65723  0.86083  Biso   1.000  N
  H676     1.0000 0.71757  0.75844  0.83254  Biso   1.000  H
  N438     1.0000 0.89012  0.66592  0.80610  Biso   1.000  N
  H677     1.0000 0.85859  0.77712  0.79873  Biso   1.000  H
  H678     1.0000 0.82316  0.69556  0.77222  Biso   1.000  H
  C654     1.0000 0.39294  0.31143  0.78994  Biso   1.000  C
  C655     1.0000 0.34466  0.36219  0.83350  Biso   1.000  C
  C656     1.0000 0.45645  0.49336  0.87242  Biso   1.000  C
  C657     1.0000 0.64477  0.58512  0.87672  Biso   1.000  C
  C658     1.0000 0.82887  0.70791  0.87213  Biso   1.000  C
  C659     1.0000 0.95000  0.70555  0.83327  Biso   1.000  C
  C660     1.0000 0.91842  0.60700  0.78994  Biso   1.000  C
  O218     1.0000 0.43012  0.31516  0.76539  Biso   1.000  O
  N439     1.0000 0.33410  0.22423  0.80610  Biso   1.000  N
  C661     1.0000 0.29449  0.24443  0.83327  Biso   1.000  C
  N440     1.0000 0.40599  0.39100  0.86042  Biso   1.000  N
  H679     1.0000 0.29244  0.38421  0.83412  Biso   1.000  H
  H680     1.0000 0.41475  0.52522  0.86793  Biso   1.000  H
  H681     1.0000 0.46097  0.48985  0.89444  Biso   1.000  H
  O219     1.0000 0.64844  0.55166  0.90127  Biso   1.000  O
  N441     1.0000 0.89097  0.66828  0.86058  Biso   1.000  N
  H682     1.0000 0.86164  0.78123  0.86713  Biso   1.000  H
  H683     1.0000 0.82649  0.70197  0.89412  Biso   1.000  H
  H684     1.0000 0.99186  0.78161  0.83303  Biso   1.000  H
  C662     1.0000 0.01756  0.65532  0.83350  Biso   1.000  C
  O220     1.0000 0.88501  0.56988  0.76539  Biso   1.000  O
  N442     1.0000 0.99055  0.59801  0.80583  Biso   1.000  N
  C663     1.0000 0.29650  0.12317  0.79423  Biso   1.000  C
  N443     1.0000 0.33171  0.22263  0.86058  Biso   1.000  N
  H685     1.0000 0.21837  0.21021  0.83303  Biso   1.000  H
  C664     1.0000 0.39525  0.30944  0.87622  Biso   1.000  C
  C665     1.0000 0.91417  0.60471  0.87622  Biso   1.000  C
  N444     1.0000 0.98501  0.59404  0.86042  Biso   1.000  N
  H686     1.0000 0.09178  0.70753  0.83412  Biso   1.000  H
  C666     1.0000 0.04124  0.54572  0.79455  Biso   1.000  C
  N445     1.0000 0.34833  0.07264  0.80623  Biso   1.000  N
  H687     1.0000 0.22288  0.08140  0.79873  Biso   1.000  H
  H688     1.0000 0.30449  0.12766  0.77222  Biso   1.000  H
  C667     1.0000 0.29210  0.12096  0.87213  Biso   1.000  C
  O221     1.0000 0.43476  0.31242  0.90031  Biso   1.000  O
  O222     1.0000 0.87767  0.56523  0.90031  Biso   1.000  O
  C668     1.0000 0.03684  0.54351  0.87242  Biso   1.000  C
  N446     1.0000 0.00163  0.44405  0.80608  Biso   1.000  N
  H689     1.0000 0.11459  0.58627  0.79953  Biso   1.000  H
  H690     1.0000 0.03529  0.54214  0.77254  Biso   1.000  H
  C669     1.0000 0.41913  0.06189  0.79044  Biso   1.000  C
  C670     1.0000 0.31574  0.01128  0.83316  Biso   1.000  C
  N447     1.0000 0.34278  0.06867  0.86083  Biso   1.000  N
  H691     1.0000 0.21875  0.08041  0.86713  Biso   1.000  H
  H692     1.0000 0.29805  0.12454  0.89412  Biso   1.000  H
  N448     1.0000 0.99924  0.44244  0.86058  Biso   1.000  N
  H693     1.0000 0.11042  0.58520  0.86793  Biso   1.000  H
  H694     1.0000 0.02885  0.53901  0.89444  Biso   1.000  H
  C671     1.0000 0.93809  0.35723  0.79044  Biso   1.000  C
  C672     1.0000 0.03885  0.42225  0.83341  Biso   1.000  C
  O223     1.0000 0.45564  0.10137  0.76637  Biso   1.000  O
  N449     1.0000 0.44237  0.99840  0.80608  Biso   1.000  N
  C673     1.0000 0.38334  0.96113  0.83341  Biso   1.000  C
  H695     1.0000 0.24155  0.95915  0.83254  Biso   1.000  H
  C674     1.0000 0.41488  0.05960  0.87672  Biso   1.000  C
  C675     1.0000 0.94040  0.35525  0.87672  Biso   1.000  C
  N450     1.0000 0.92734  0.27568  0.80623  Biso   1.000  N
  O224     1.0000 0.89858  0.35426  0.76637  Biso   1.000  O
  C676     1.0000 0.98868  0.30449  0.83316  Biso   1.000  C
  H696     1.0000 0.11497  0.45647  0.83363  Biso   1.000  H
  C677     1.0000 0.50447  0.95877  0.79455  Biso   1.000  C
  N451     1.0000 0.44318  0.00069  0.86058  Biso   1.000  N
  H697     1.0000 0.34148  0.88506  0.83363  Biso   1.000  H
  O225     1.0000 0.44833  0.09680  0.90127  Biso   1.000  O
  N452     1.0000 0.93130  0.27408  0.86083  Biso   1.000  N
  O226     1.0000 0.90322  0.35152  0.90127  Biso   1.000  O
  C678     1.0000 0.87689  0.17332  0.79423  Biso   1.000  C
  H698     1.0000 0.04090  0.28246  0.83254  Biso   1.000  H
  N453     1.0000 0.60743  0.00945  0.80583  Biso   1.000  N
  H699     1.0000 0.47170  0.88544  0.79953  Biso   1.000  H
  H700     1.0000 0.50684  0.96471  0.77254  Biso   1.000  H
  C679     1.0000 0.50664  0.96311  0.87242  Biso   1.000  C
  C680     1.0000 0.87902  0.17111  0.87213  Biso   1.000  C
  N454     1.0000 0.77577  0.10983  0.80610  Biso   1.000  N
  H701     1.0000 0.91858  0.14146  0.79873  Biso   1.000  H
  H702     1.0000 0.87237  0.17683  0.77222  Biso   1.000  H
  C681     1.0000 0.68857  0.08155  0.78994  Biso   1.000  C
  C682     1.0000 0.63784  0.98247  0.83350  Biso   1.000  C
  N455     1.0000 0.60903  0.01501  0.86042  Biso   1.000  N
  H703     1.0000 0.47481  0.88956  0.86793  Biso   1.000  H
  H704     1.0000 0.51018  0.97111  0.89444  Biso   1.000  H
  N456     1.0000 0.77737  0.10907  0.86058  Biso   1.000  N
  H705     1.0000 0.91960  0.13834  0.86713  Biso   1.000  H
  H706     1.0000 0.87549  0.17355  0.89412  Biso   1.000  H
  C683     1.0000 0.75556  0.05000  0.83327  Biso   1.000  C
  O227     1.0000 0.68490  0.11501  0.76539  Biso   1.000  O
  H707     1.0000 0.61577  0.90823  0.83412  Biso   1.000  H
  C684     1.0000 0.69057  0.08582  0.87622  Biso   1.000  C
  H708     1.0000 0.78975  0.00816  0.83303  Biso   1.000  H
  O228     1.0000 0.68757  0.12233  0.90031  Biso   1.000  O
