data_image0
_cell_length_a       11.133
_cell_length_b       16.788
_cell_length_c       15.306
_cell_angle_alpha    90
_cell_angle_beta     93.64
_cell_angle_gamma    90

_symmetry_space_group_name_H-M    "P 1"
_symmetry_int_tables_number       1

loop_
  _symmetry_equiv_pos_as_xyz
  'x, y, z'

loop_
  _atom_site_label
  _atom_site_occupancy
  _atom_site_fract_x
  _atom_site_fract_y
  _atom_site_fract_z
  _atom_site_thermal_displace_type
  _atom_site_B_iso_or_equiv
  _atom_site_type_symbol
  C1       1.0000 0.75254  0.17387  0.86441  Biso   1.000  C
  N1       1.0000 0.82505  0.16559  0.79580  Biso   1.000  N
  N2       1.0000 0.82514  0.16559  0.79580  Biso   1.000  N
  O1       1.0000 0.65985  0.13700  0.87489  Biso   1.000  O
  N3       1.0000 0.79714  0.23541  0.91750  Biso   1.000  N
  N4       1.0000 0.79723  0.23541  0.91750  Biso   1.000  N
  C2       1.0000 0.79495  0.11163  0.72471  Biso   1.000  C
  C3       1.0000 0.79504  0.11163  0.72471  Biso   1.000  C
  C4       1.0000 0.91261  0.22897  0.79351  Biso   1.000  C
  C5       1.0000 0.75245  0.17387  0.86441  Biso   1.000  C
  C6       1.0000 0.89203  0.27841  0.87777  Biso   1.000  C
  C7       1.0000 0.89212  0.27841  0.87783  Biso   1.000  C
  C8       1.0000 0.73238  0.26602  0.99056  Biso   1.000  C
  C9       1.0000 0.73238  0.26602  0.99063  Biso   1.000  C
  N5       1.0000 0.87248  0.04330  0.72379  Biso   1.000  N
  H1       1.0000 0.71096  0.09328  0.72870  Biso   1.000  H
  H2       1.0000 0.79931  0.14070  0.66867  Biso   1.000  H
  H3       1.0000 0.89786  0.26227  0.73976  Biso   1.000  H
  H4       1.0000 0.89786  0.26227  0.73983  Biso   1.000  H
  N6       1.0000 0.03834  0.20640  0.80562  Biso   1.000  N
  N7       1.0000 0.03843  0.20640  0.80562  Biso   1.000  N
  H5       1.0000 0.86749  0.33429  0.86317  Biso   1.000  H
  N8       1.0000 0.00886  0.27579  0.92582  Biso   1.000  N
  H6       1.0000 0.64806  0.24690  0.98467  Biso   1.000  H
  H7       1.0000 0.73080  0.32487  0.98788  Biso   1.000  H
  N9       1.0000 0.78586  0.24160  0.07430  Biso   1.000  N
  C10      1.0000 0.98818  0.04438  0.68471  Biso   1.000  C
  C11      1.0000 0.83435  0.96623  0.73970  Biso   1.000  C
  C12      1.0000 0.83444  0.96623  0.73970  Biso   1.000  C
  C13      1.0000 0.10474  0.16500  0.74101  Biso   1.000  C
  C14      1.0000 0.10483  0.16500  0.74101  Biso   1.000  C
  C15      1.0000 0.09355  0.23761  0.88242  Biso   1.000  C
  C16      1.0000 0.09364  0.23761  0.88242  Biso   1.000  C
  C17      1.0000 0.03641  0.31773  0.00680  Biso   1.000  C
  C18      1.0000 0.73936  0.18198  0.12307  Biso   1.000  C
  C19      1.0000 0.88599  0.28270  0.12038  Biso   1.000  C
  H8       1.0000 0.98145  0.06928  0.62520  Biso   1.000  H
  H9       1.0000 0.98154  0.06928  0.62520  Biso   1.000  H
  C20      1.0000 0.02331  0.95568  0.67967  Biso   1.000  C
  C21      1.0000 0.02331  0.95568  0.67973  Biso   1.000  C
  N10      1.0000 0.08424  0.08059  0.73970  Biso   1.000  N
  N11      1.0000 0.08433  0.08059  0.73970  Biso   1.000  N
  O2       1.0000 0.73685  0.94770  0.76602  Biso   1.000  O
  N12      1.0000 0.92480  0.91577  0.71810  Biso   1.000  N
  O3       1.0000 0.73694  0.94770  0.76602  Biso   1.000  O
  H10      1.0000 0.08157  0.18710  0.68242  Biso   1.000  H
  H11      1.0000 0.19178  0.17513  0.75338  Biso   1.000  H
  O4       1.0000 0.20163  0.23249  0.90127  Biso   1.000  O
  O5       1.0000 0.20172  0.23249  0.90127  Biso   1.000  O
  H12      1.0000 0.99434  0.36973  0.00438  Biso   1.000  H
  H13      1.0000 0.99443  0.36973  0.00438  Biso   1.000  H
  N13      1.0000 0.00178  0.27430  0.08340  Biso   1.000  N
  H14      1.0000 0.12398  0.32833  0.01289  Biso   1.000  H
  O6       1.0000 0.64813  0.14421  0.10389  Biso   1.000  O
  N14      1.0000 0.81140  0.17459  0.19920  Biso   1.000  N
  O7       1.0000 0.64822  0.14421  0.10389  Biso   1.000  O
  H15      1.0000 0.86642  0.33989  0.13079  Biso   1.000  H
  C22      1.0000 0.90289  0.23523  0.20909  Biso   1.000  C
  N15      1.0000 0.13696  0.95229  0.73250  Biso   1.000  N
  H16      1.0000 0.03248  0.93811  0.61806  Biso   1.000  H
  H17      1.0000 0.03249  0.93811  0.61813  Biso   1.000  H
  C23      1.0000 0.17603  0.02722  0.75816  Biso   1.000  C
  C24      1.0000 0.17612  0.02722  0.75823  Biso   1.000  C
  C25      1.0000 0.90945  0.83071  0.71816  Biso   1.000  C
  C26      1.0000 0.90954  0.83071  0.71823  Biso   1.000  C
  C27      1.0000 0.08239  0.23541  0.13839  Biso   1.000  C
  C28      1.0000 0.78627  0.11609  0.26631  Biso   1.000  C
  N16      1.0000 0.02667  0.20890  0.20909  Biso   1.000  N
  H18      1.0000 0.89004  0.27031  0.26042  Biso   1.000  H
  H19      1.0000 0.89013  0.27031  0.26042  Biso   1.000  H
  C29      1.0000 0.21368  0.88391  0.73368  Biso   1.000  C
  O8       1.0000 0.27399  0.04462  0.79377  Biso   1.000  O
  N17      1.0000 0.97328  0.79110  0.79089  Biso   1.000  N
  H20      1.0000 0.93750  0.80897  0.66291  Biso   1.000  H
  H21      1.0000 0.82253  0.81850  0.71960  Biso   1.000  H
  H22      1.0000 0.82262  0.81850  0.71960  Biso   1.000  H
  O9       1.0000 0.19184  0.22790  0.12759  Biso   1.000  O
  O10      1.0000 0.19193  0.22790  0.12759  Biso   1.000  O
  N18      1.0000 0.86299  0.04771  0.26749  Biso   1.000  N
  H23      1.0000 0.70171  0.09822  0.25668  Biso   1.000  H
  H24      1.0000 0.79474  0.14218  0.32431  Biso   1.000  H
  H25      1.0000 0.79483  0.14218  0.32431  Biso   1.000  H
  C30      1.0000 0.09051  0.16929  0.28182  Biso   1.000  C
  N19      1.0000 0.18855  0.82541  0.80078  Biso   1.000  N
  H26      1.0000 0.29824  0.90178  0.74330  Biso   1.000  H
  H27      1.0000 0.20521  0.85782  0.67567  Biso   1.000  H
  N20      1.0000 0.18864  0.82541  0.80078  Biso   1.000  N
  H28      1.0000 0.29833  0.90178  0.74330  Biso   1.000  H
  C31      1.0000 0.91756  0.76459  0.86160  Biso   1.000  C
  C32      1.0000 0.09706  0.76477  0.79089  Biso   1.000  C
  C33      1.0000 0.82392  0.97278  0.24182  Biso   1.000  C
  C34      1.0000 0.97665  0.04432  0.32032  Biso   1.000  C
  C35      1.0000 0.97674  0.04432  0.32032  Biso   1.000  C
  N21      1.0000 0.07515  0.08423  0.28189  Biso   1.000  N
  H29      1.0000 0.06245  0.19103  0.33708  Biso   1.000  H
  H30      1.0000 0.17742  0.18150  0.28038  Biso   1.000  H
  N22      1.0000 0.07524  0.08423  0.28189  Biso   1.000  N
  H31      1.0000 0.06254  0.19103  0.33708  Biso   1.000  H
  C36      1.0000 0.26059  0.81802  0.87692  Biso   1.000  C
  O11      1.0000 0.80811  0.77210  0.87240  Biso   1.000  O
  N23      1.0000 0.99817  0.72570  0.91659  Biso   1.000  N
  C37      1.0000 0.11396  0.71730  0.87960  Biso   1.000  C
  H32      1.0000 0.10991  0.72969  0.73957  Biso   1.000  H
  O12      1.0000 0.72596  0.95538  0.20621  Biso   1.000  O
  N24      1.0000 0.91572  0.91941  0.26028  Biso   1.000  N
  H33      1.0000 0.96747  0.06189  0.38192  Biso   1.000  H
  C38      1.0000 0.01178  0.95562  0.31528  Biso   1.000  C
  C39      1.0000 0.16560  0.03377  0.26028  Biso   1.000  C
  O13      1.0000 0.35182  0.85579  0.89610  Biso   1.000  O
  N25      1.0000 0.21410  0.75840  0.92569  Biso   1.000  N
  C40      1.0000 0.96354  0.68227  0.99318  Biso   1.000  C
  C41      1.0000 0.96363  0.68227  0.99318  Biso   1.000  C
  H34      1.0000 0.13353  0.66011  0.86919  Biso   1.000  H
  H35      1.0000 0.13362  0.66011  0.86919  Biso   1.000  H
  C42      1.0000 0.89521  0.83500  0.25898  Biso   1.000  C
  N26      1.0000 0.12747  0.95670  0.27619  Biso   1.000  N
  H36      1.0000 0.01850  0.93072  0.37478  Biso   1.000  H
  O14      1.0000 0.26310  0.05230  0.23397  Biso   1.000  O
  O15      1.0000 0.26311  0.05230  0.23403  Biso   1.000  O
  C43      1.0000 0.26757  0.73398  0.00942  Biso   1.000  C
  H37      1.0000 0.87597  0.67167  0.98710  Biso   1.000  H
  N27      1.0000 0.99109  0.72421  0.07416  Biso   1.000  N
  N28      1.0000 0.99110  0.72421  0.07423  Biso   1.000  N
  H38      1.0000 0.00561  0.63027  0.99561  Biso   1.000  H
  N29      1.0000 0.96161  0.79360  0.19436  Biso   1.000  N
  N30      1.0000 0.96162  0.79360  0.19443  Biso   1.000  N
  H39      1.0000 0.91838  0.81290  0.31757  Biso   1.000  H
  H40      1.0000 0.80817  0.82487  0.24660  Biso   1.000  H
  H41      1.0000 0.91839  0.81290  0.31763  Biso   1.000  H
  C44      1.0000 0.20500  0.88837  0.27528  Biso   1.000  C
  N31      1.0000 0.20281  0.76459  0.08248  Biso   1.000  N
  H42      1.0000 0.35189  0.75310  0.01531  Biso   1.000  H
  H43      1.0000 0.26915  0.67513  0.01210  Biso   1.000  H
  H44      1.0000 0.26924  0.67513  0.01210  Biso   1.000  H
  C45      1.0000 0.90640  0.76239  0.11757  Biso   1.000  C
  C46      1.0000 0.10792  0.72159  0.12222  Biso   1.000  C
  C47      1.0000 0.08734  0.77103  0.20647  Biso   1.000  C
  C48      1.0000 0.08743  0.77103  0.20647  Biso   1.000  C
  N32      1.0000 0.17490  0.83441  0.20418  Biso   1.000  N
  H45      1.0000 0.28899  0.90672  0.27128  Biso   1.000  H
  H46      1.0000 0.20064  0.85930  0.33132  Biso   1.000  H
  H47      1.0000 0.20073  0.85930  0.33132  Biso   1.000  H
  C49      1.0000 0.24751  0.82613  0.13557  Biso   1.000  C
  O16      1.0000 0.79832  0.76751  0.09871  Biso   1.000  O
  H48      1.0000 0.13246  0.66571  0.13682  Biso   1.000  H
  H49      1.0000 0.10209  0.73773  0.26022  Biso   1.000  H
  O17      1.0000 0.34010  0.86300  0.12510  Biso   1.000  O
  C50      1.0000 0.75254  0.17387  0.86441  Biso   1.000  C
  N33      1.0000 0.82505  0.16559  0.79580  Biso   1.000  N
  N34      1.0000 0.82514  0.16559  0.79580  Biso   1.000  N
  O18      1.0000 0.65985  0.13700  0.87489  Biso   1.000  O
  N35      1.0000 0.79714  0.23541  0.91750  Biso   1.000  N
  N36      1.0000 0.79723  0.23541  0.91750  Biso   1.000  N
  C51      1.0000 0.79495  0.11163  0.72471  Biso   1.000  C
  C52      1.0000 0.79504  0.11163  0.72471  Biso   1.000  C
  C53      1.0000 0.91261  0.22897  0.79351  Biso   1.000  C
  C54      1.0000 0.75245  0.17387  0.86441  Biso   1.000  C
  C55      1.0000 0.89203  0.27841  0.87777  Biso   1.000  C
  C56      1.0000 0.89212  0.27841  0.87783  Biso   1.000  C
  C57      1.0000 0.73238  0.26602  0.99056  Biso   1.000  C
  C58      1.0000 0.73238  0.26602  0.99063  Biso   1.000  C
  N37      1.0000 0.87248  0.04330  0.72379  Biso   1.000  N
  H50      1.0000 0.71096  0.09328  0.72870  Biso   1.000  H
  H51      1.0000 0.79931  0.14070  0.66867  Biso   1.000  H
  H52      1.0000 0.89786  0.26227  0.73976  Biso   1.000  H
  H53      1.0000 0.89786  0.26227  0.73983  Biso   1.000  H
  N38      1.0000 0.03834  0.20640  0.80562  Biso   1.000  N
  N39      1.0000 0.03843  0.20640  0.80562  Biso   1.000  N
  H54      1.0000 0.86749  0.33429  0.86317  Biso   1.000  H
  N40      1.0000 0.00886  0.27579  0.92582  Biso   1.000  N
  H55      1.0000 0.64806  0.24690  0.98467  Biso   1.000  H
  H56      1.0000 0.73080  0.32487  0.98788  Biso   1.000  H
  N41      1.0000 0.78586  0.24160  0.07430  Biso   1.000  N
  C59      1.0000 0.98818  0.04438  0.68471  Biso   1.000  C
  C60      1.0000 0.83435  0.96623  0.73970  Biso   1.000  C
  C61      1.0000 0.83444  0.96623  0.73970  Biso   1.000  C
  C62      1.0000 0.10474  0.16500  0.74101  Biso   1.000  C
  C63      1.0000 0.10483  0.16500  0.74101  Biso   1.000  C
  C64      1.0000 0.09355  0.23761  0.88242  Biso   1.000  C
  C65      1.0000 0.09364  0.23761  0.88242  Biso   1.000  C
  C66      1.0000 0.03641  0.31773  0.00680  Biso   1.000  C
  C67      1.0000 0.73936  0.18198  0.12307  Biso   1.000  C
  C68      1.0000 0.88599  0.28270  0.12038  Biso   1.000  C
  H57      1.0000 0.98145  0.06928  0.62520  Biso   1.000  H
  H58      1.0000 0.98154  0.06928  0.62520  Biso   1.000  H
  C69      1.0000 0.02331  0.95568  0.67967  Biso   1.000  C
  C70      1.0000 0.02331  0.95568  0.67973  Biso   1.000  C
  N42      1.0000 0.08424  0.08059  0.73970  Biso   1.000  N
  N43      1.0000 0.08433  0.08059  0.73970  Biso   1.000  N
  O19      1.0000 0.73685  0.94770  0.76602  Biso   1.000  O
  N44      1.0000 0.92480  0.91577  0.71810  Biso   1.000  N
  O20      1.0000 0.73694  0.94770  0.76602  Biso   1.000  O
  H59      1.0000 0.08157  0.18710  0.68242  Biso   1.000  H
  H60      1.0000 0.19178  0.17513  0.75338  Biso   1.000  H
  O21      1.0000 0.20163  0.23249  0.90127  Biso   1.000  O
  O22      1.0000 0.20172  0.23249  0.90127  Biso   1.000  O
  H61      1.0000 0.99434  0.36973  0.00438  Biso   1.000  H
  H62      1.0000 0.99443  0.36973  0.00438  Biso   1.000  H
  N45      1.0000 0.00178  0.27430  0.08340  Biso   1.000  N
  H63      1.0000 0.12398  0.32833  0.01289  Biso   1.000  H
  O23      1.0000 0.64813  0.14421  0.10389  Biso   1.000  O
  N46      1.0000 0.81140  0.17459  0.19920  Biso   1.000  N
  O24      1.0000 0.64822  0.14421  0.10389  Biso   1.000  O
  H64      1.0000 0.86642  0.33989  0.13079  Biso   1.000  H
  C71      1.0000 0.90289  0.23523  0.20909  Biso   1.000  C
  N47      1.0000 0.13696  0.95229  0.73250  Biso   1.000  N
  H65      1.0000 0.03248  0.93811  0.61806  Biso   1.000  H
  H66      1.0000 0.03249  0.93811  0.61813  Biso   1.000  H
  C72      1.0000 0.17603  0.02722  0.75816  Biso   1.000  C
  C73      1.0000 0.17612  0.02722  0.75823  Biso   1.000  C
  C74      1.0000 0.90945  0.83071  0.71816  Biso   1.000  C
  C75      1.0000 0.90954  0.83071  0.71823  Biso   1.000  C
  C76      1.0000 0.08239  0.23541  0.13839  Biso   1.000  C
  C77      1.0000 0.78627  0.11609  0.26631  Biso   1.000  C
  N48      1.0000 0.02667  0.20890  0.20909  Biso   1.000  N
  H67      1.0000 0.89004  0.27031  0.26042  Biso   1.000  H
  H68      1.0000 0.89013  0.27031  0.26042  Biso   1.000  H
  C78      1.0000 0.21368  0.88391  0.73368  Biso   1.000  C
  O25      1.0000 0.27399  0.04462  0.79377  Biso   1.000  O
  N49      1.0000 0.97328  0.79110  0.79089  Biso   1.000  N
  H69      1.0000 0.93750  0.80897  0.66291  Biso   1.000  H
  H70      1.0000 0.82253  0.81850  0.71960  Biso   1.000  H
  H71      1.0000 0.82262  0.81850  0.71960  Biso   1.000  H
  O26      1.0000 0.19184  0.22790  0.12759  Biso   1.000  O
  O27      1.0000 0.19193  0.22790  0.12759  Biso   1.000  O
  N50      1.0000 0.86299  0.04771  0.26749  Biso   1.000  N
  H72      1.0000 0.70171  0.09822  0.25668  Biso   1.000  H
  H73      1.0000 0.79474  0.14218  0.32431  Biso   1.000  H
  H74      1.0000 0.79483  0.14218  0.32431  Biso   1.000  H
  C79      1.0000 0.09051  0.16929  0.28182  Biso   1.000  C
  N51      1.0000 0.18855  0.82541  0.80078  Biso   1.000  N
  H75      1.0000 0.29824  0.90178  0.74330  Biso   1.000  H
  H76      1.0000 0.20521  0.85782  0.67567  Biso   1.000  H
  N52      1.0000 0.18864  0.82541  0.80078  Biso   1.000  N
  H77      1.0000 0.29833  0.90178  0.74330  Biso   1.000  H
  C80      1.0000 0.91756  0.76459  0.86160  Biso   1.000  C
  C81      1.0000 0.09706  0.76477  0.79089  Biso   1.000  C
  C82      1.0000 0.82392  0.97278  0.24182  Biso   1.000  C
  C83      1.0000 0.97665  0.04432  0.32032  Biso   1.000  C
  C84      1.0000 0.97674  0.04432  0.32032  Biso   1.000  C
  N53      1.0000 0.07515  0.08423  0.28189  Biso   1.000  N
  H78      1.0000 0.06245  0.19103  0.33708  Biso   1.000  H
  H79      1.0000 0.17742  0.18150  0.28038  Biso   1.000  H
  N54      1.0000 0.07524  0.08423  0.28189  Biso   1.000  N
  H80      1.0000 0.06254  0.19103  0.33708  Biso   1.000  H
  C85      1.0000 0.26059  0.81802  0.87692  Biso   1.000  C
  O28      1.0000 0.80811  0.77210  0.87240  Biso   1.000  O
  N55      1.0000 0.99817  0.72570  0.91659  Biso   1.000  N
  C86      1.0000 0.11396  0.71730  0.87960  Biso   1.000  C
  H81      1.0000 0.10991  0.72969  0.73957  Biso   1.000  H
  O29      1.0000 0.72596  0.95538  0.20621  Biso   1.000  O
  N56      1.0000 0.91572  0.91941  0.26028  Biso   1.000  N
  H82      1.0000 0.96747  0.06189  0.38192  Biso   1.000  H
  C87      1.0000 0.01178  0.95562  0.31528  Biso   1.000  C
  C88      1.0000 0.16560  0.03377  0.26028  Biso   1.000  C
  O30      1.0000 0.35182  0.85579  0.89610  Biso   1.000  O
  N57      1.0000 0.21410  0.75840  0.92569  Biso   1.000  N
  C89      1.0000 0.96354  0.68227  0.99318  Biso   1.000  C
  C90      1.0000 0.96363  0.68227  0.99318  Biso   1.000  C
  H83      1.0000 0.13353  0.66011  0.86919  Biso   1.000  H
  H84      1.0000 0.13362  0.66011  0.86919  Biso   1.000  H
  C91      1.0000 0.89521  0.83500  0.25898  Biso   1.000  C
  N58      1.0000 0.12747  0.95670  0.27619  Biso   1.000  N
  H85      1.0000 0.01850  0.93072  0.37478  Biso   1.000  H
  O31      1.0000 0.26310  0.05230  0.23397  Biso   1.000  O
  O32      1.0000 0.26311  0.05230  0.23403  Biso   1.000  O
  C92      1.0000 0.26757  0.73398  0.00942  Biso   1.000  C
  H86      1.0000 0.87597  0.67167  0.98710  Biso   1.000  H
  N59      1.0000 0.99109  0.72421  0.07416  Biso   1.000  N
  N60      1.0000 0.99110  0.72421  0.07423  Biso   1.000  N
  H87      1.0000 0.00561  0.63027  0.99561  Biso   1.000  H
  N61      1.0000 0.96161  0.79360  0.19436  Biso   1.000  N
  N62      1.0000 0.96162  0.79360  0.19443  Biso   1.000  N
  H88      1.0000 0.91838  0.81290  0.31757  Biso   1.000  H
  H89      1.0000 0.80817  0.82487  0.24660  Biso   1.000  H
  H90      1.0000 0.91839  0.81290  0.31763  Biso   1.000  H
  C93      1.0000 0.20500  0.88837  0.27528  Biso   1.000  C
  N63      1.0000 0.20281  0.76459  0.08248  Biso   1.000  N
  H91      1.0000 0.35189  0.75310  0.01531  Biso   1.000  H
  H92      1.0000 0.26915  0.67513  0.01210  Biso   1.000  H
  H93      1.0000 0.26924  0.67513  0.01210  Biso   1.000  H
  C94      1.0000 0.90640  0.76239  0.11757  Biso   1.000  C
  C95      1.0000 0.10792  0.72159  0.12222  Biso   1.000  C
  C96      1.0000 0.08734  0.77103  0.20647  Biso   1.000  C
  C97      1.0000 0.08743  0.77103  0.20647  Biso   1.000  C
  N64      1.0000 0.17490  0.83441  0.20418  Biso   1.000  N
  H94      1.0000 0.28899  0.90672  0.27128  Biso   1.000  H
  H95      1.0000 0.20064  0.85930  0.33132  Biso   1.000  H
  H96      1.0000 0.20073  0.85930  0.33132  Biso   1.000  H
  C98      1.0000 0.24751  0.82613  0.13557  Biso   1.000  C
  O33      1.0000 0.79832  0.76751  0.09871  Biso   1.000  O
  H97      1.0000 0.13246  0.66571  0.13682  Biso   1.000  H
  H98      1.0000 0.10209  0.73773  0.26022  Biso   1.000  H
  O34      1.0000 0.34010  0.86300  0.12510  Biso   1.000  O
  C99      1.0000 0.75254  0.17387  0.86441  Biso   1.000  C
  N65      1.0000 0.82505  0.16559  0.79580  Biso   1.000  N
  N66      1.0000 0.82514  0.16559  0.79580  Biso   1.000  N
  O35      1.0000 0.65985  0.13700  0.87489  Biso   1.000  O
  N67      1.0000 0.79714  0.23541  0.91750  Biso   1.000  N
  N68      1.0000 0.79723  0.23541  0.91750  Biso   1.000  N
  C100     1.0000 0.79495  0.11163  0.72471  Biso   1.000  C
  C101     1.0000 0.79504  0.11163  0.72471  Biso   1.000  C
  C102     1.0000 0.91261  0.22897  0.79351  Biso   1.000  C
  C103     1.0000 0.75245  0.17387  0.86441  Biso   1.000  C
  C104     1.0000 0.89203  0.27841  0.87777  Biso   1.000  C
  C105     1.0000 0.89212  0.27841  0.87783  Biso   1.000  C
  C106     1.0000 0.73238  0.26602  0.99056  Biso   1.000  C
  C107     1.0000 0.73238  0.26602  0.99063  Biso   1.000  C
  N69      1.0000 0.87248  0.04330  0.72379  Biso   1.000  N
  H99      1.0000 0.71096  0.09328  0.72870  Biso   1.000  H
  H100     1.0000 0.79931  0.14070  0.66867  Biso   1.000  H
  H101     1.0000 0.89786  0.26227  0.73976  Biso   1.000  H
  H102     1.0000 0.89786  0.26227  0.73983  Biso   1.000  H
  N70      1.0000 0.03834  0.20640  0.80562  Biso   1.000  N
  N71      1.0000 0.03843  0.20640  0.80562  Biso   1.000  N
  H103     1.0000 0.86749  0.33429  0.86317  Biso   1.000  H
  N72      1.0000 0.00886  0.27579  0.92582  Biso   1.000  N
  H104     1.0000 0.64806  0.24690  0.98467  Biso   1.000  H
  H105     1.0000 0.73080  0.32487  0.98788  Biso   1.000  H
  N73      1.0000 0.78586  0.24160  0.07430  Biso   1.000  N
  C108     1.0000 0.98818  0.04438  0.68471  Biso   1.000  C
  C109     1.0000 0.83435  0.96623  0.73970  Biso   1.000  C
  C110     1.0000 0.83444  0.96623  0.73970  Biso   1.000  C
  C111     1.0000 0.10474  0.16500  0.74101  Biso   1.000  C
  C112     1.0000 0.10483  0.16500  0.74101  Biso   1.000  C
  C113     1.0000 0.09355  0.23761  0.88242  Biso   1.000  C
  C114     1.0000 0.09364  0.23761  0.88242  Biso   1.000  C
  C115     1.0000 0.03641  0.31773  0.00680  Biso   1.000  C
  C116     1.0000 0.73936  0.18198  0.12307  Biso   1.000  C
  C117     1.0000 0.88599  0.28270  0.12038  Biso   1.000  C
  H106     1.0000 0.98145  0.06928  0.62520  Biso   1.000  H
  H107     1.0000 0.98154  0.06928  0.62520  Biso   1.000  H
  C118     1.0000 0.02331  0.95568  0.67967  Biso   1.000  C
  C119     1.0000 0.02331  0.95568  0.67973  Biso   1.000  C
  N74      1.0000 0.08424  0.08059  0.73970  Biso   1.000  N
  N75      1.0000 0.08433  0.08059  0.73970  Biso   1.000  N
  O36      1.0000 0.73685  0.94770  0.76602  Biso   1.000  O
  N76      1.0000 0.92480  0.91577  0.71810  Biso   1.000  N
  O37      1.0000 0.73694  0.94770  0.76602  Biso   1.000  O
  H108     1.0000 0.08157  0.18710  0.68242  Biso   1.000  H
  H109     1.0000 0.19178  0.17513  0.75338  Biso   1.000  H
  O38      1.0000 0.20163  0.23249  0.90127  Biso   1.000  O
  O39      1.0000 0.20172  0.23249  0.90127  Biso   1.000  O
  H110     1.0000 0.99434  0.36973  0.00438  Biso   1.000  H
  H111     1.0000 0.99443  0.36973  0.00438  Biso   1.000  H
  N77      1.0000 0.00178  0.27430  0.08340  Biso   1.000  N
  H112     1.0000 0.12398  0.32833  0.01289  Biso   1.000  H
  O40      1.0000 0.64813  0.14421  0.10389  Biso   1.000  O
  N78      1.0000 0.81140  0.17459  0.19920  Biso   1.000  N
  O41      1.0000 0.64822  0.14421  0.10389  Biso   1.000  O
  H113     1.0000 0.86642  0.33989  0.13079  Biso   1.000  H
  C120     1.0000 0.90289  0.23523  0.20909  Biso   1.000  C
  N79      1.0000 0.13696  0.95229  0.73250  Biso   1.000  N
  H114     1.0000 0.03248  0.93811  0.61806  Biso   1.000  H
  H115     1.0000 0.03249  0.93811  0.61813  Biso   1.000  H
  C121     1.0000 0.17603  0.02722  0.75816  Biso   1.000  C
  C122     1.0000 0.17612  0.02722  0.75823  Biso   1.000  C
  C123     1.0000 0.90945  0.83071  0.71816  Biso   1.000  C
  C124     1.0000 0.90954  0.83071  0.71823  Biso   1.000  C
  C125     1.0000 0.08239  0.23541  0.13839  Biso   1.000  C
  C126     1.0000 0.78627  0.11609  0.26631  Biso   1.000  C
  N80      1.0000 0.02667  0.20890  0.20909  Biso   1.000  N
  H116     1.0000 0.89004  0.27031  0.26042  Biso   1.000  H
  H117     1.0000 0.89013  0.27031  0.26042  Biso   1.000  H
  C127     1.0000 0.21368  0.88391  0.73368  Biso   1.000  C
  O42      1.0000 0.27399  0.04462  0.79377  Biso   1.000  O
  N81      1.0000 0.97328  0.79110  0.79089  Biso   1.000  N
  H118     1.0000 0.93750  0.80897  0.66291  Biso   1.000  H
  H119     1.0000 0.82253  0.81850  0.71960  Biso   1.000  H
  H120     1.0000 0.82262  0.81850  0.71960  Biso   1.000  H
  O43      1.0000 0.19184  0.22790  0.12759  Biso   1.000  O
  O44      1.0000 0.19193  0.22790  0.12759  Biso   1.000  O
  N82      1.0000 0.86299  0.04771  0.26749  Biso   1.000  N
  H121     1.0000 0.70171  0.09822  0.25668  Biso   1.000  H
  H122     1.0000 0.79474  0.14218  0.32431  Biso   1.000  H
  H123     1.0000 0.79483  0.14218  0.32431  Biso   1.000  H
  C128     1.0000 0.09051  0.16929  0.28182  Biso   1.000  C
  N83      1.0000 0.18855  0.82541  0.80078  Biso   1.000  N
  H124     1.0000 0.29824  0.90178  0.74330  Biso   1.000  H
  H125     1.0000 0.20521  0.85782  0.67567  Biso   1.000  H
  N84      1.0000 0.18864  0.82541  0.80078  Biso   1.000  N
  H126     1.0000 0.29833  0.90178  0.74330  Biso   1.000  H
  C129     1.0000 0.91756  0.76459  0.86160  Biso   1.000  C
  C130     1.0000 0.09706  0.76477  0.79089  Biso   1.000  C
  C131     1.0000 0.82392  0.97278  0.24182  Biso   1.000  C
  C132     1.0000 0.97665  0.04432  0.32032  Biso   1.000  C
  C133     1.0000 0.97674  0.04432  0.32032  Biso   1.000  C
  N85      1.0000 0.07515  0.08423  0.28189  Biso   1.000  N
  H127     1.0000 0.06245  0.19103  0.33708  Biso   1.000  H
  H128     1.0000 0.17742  0.18150  0.28038  Biso   1.000  H
  N86      1.0000 0.07524  0.08423  0.28189  Biso   1.000  N
  H129     1.0000 0.06254  0.19103  0.33708  Biso   1.000  H
  C134     1.0000 0.26059  0.81802  0.87692  Biso   1.000  C
  O45      1.0000 0.80811  0.77210  0.87240  Biso   1.000  O
  N87      1.0000 0.99817  0.72570  0.91659  Biso   1.000  N
  C135     1.0000 0.11396  0.71730  0.87960  Biso   1.000  C
  H130     1.0000 0.10991  0.72969  0.73957  Biso   1.000  H
  O46      1.0000 0.72596  0.95538  0.20621  Biso   1.000  O
  N88      1.0000 0.91572  0.91941  0.26028  Biso   1.000  N
  H131     1.0000 0.96747  0.06189  0.38192  Biso   1.000  H
  C136     1.0000 0.01178  0.95562  0.31528  Biso   1.000  C
  C137     1.0000 0.16560  0.03377  0.26028  Biso   1.000  C
  O47      1.0000 0.35182  0.85579  0.89610  Biso   1.000  O
  N89      1.0000 0.21410  0.75840  0.92569  Biso   1.000  N
  C138     1.0000 0.96354  0.68227  0.99318  Biso   1.000  C
  C139     1.0000 0.96363  0.68227  0.99318  Biso   1.000  C
  H132     1.0000 0.13353  0.66011  0.86919  Biso   1.000  H
  H133     1.0000 0.13362  0.66011  0.86919  Biso   1.000  H
  C140     1.0000 0.89521  0.83500  0.25898  Biso   1.000  C
  N90      1.0000 0.12747  0.95670  0.27619  Biso   1.000  N
  H134     1.0000 0.01850  0.93072  0.37478  Biso   1.000  H
  O48      1.0000 0.26310  0.05230  0.23397  Biso   1.000  O
  O49      1.0000 0.26311  0.05230  0.23403  Biso   1.000  O
  C141     1.0000 0.26757  0.73398  0.00942  Biso   1.000  C
  H135     1.0000 0.87597  0.67167  0.98710  Biso   1.000  H
  N91      1.0000 0.99109  0.72421  0.07416  Biso   1.000  N
  N92      1.0000 0.99110  0.72421  0.07423  Biso   1.000  N
  H136     1.0000 0.00561  0.63027  0.99561  Biso   1.000  H
  N93      1.0000 0.96161  0.79360  0.19436  Biso   1.000  N
  N94      1.0000 0.96162  0.79360  0.19443  Biso   1.000  N
  H137     1.0000 0.91838  0.81290  0.31757  Biso   1.000  H
  H138     1.0000 0.80817  0.82487  0.24660  Biso   1.000  H
  H139     1.0000 0.91839  0.81290  0.31763  Biso   1.000  H
  C142     1.0000 0.20500  0.88837  0.27528  Biso   1.000  C
  N95      1.0000 0.20281  0.76459  0.08248  Biso   1.000  N
  H140     1.0000 0.35189  0.75310  0.01531  Biso   1.000  H
  H141     1.0000 0.26915  0.67513  0.01210  Biso   1.000  H
  H142     1.0000 0.26924  0.67513  0.01210  Biso   1.000  H
  C143     1.0000 0.90640  0.76239  0.11757  Biso   1.000  C
  C144     1.0000 0.10792  0.72159  0.12222  Biso   1.000  C
  C145     1.0000 0.08734  0.77103  0.20647  Biso   1.000  C
  C146     1.0000 0.08743  0.77103  0.20647  Biso   1.000  C
  N96      1.0000 0.17490  0.83441  0.20418  Biso   1.000  N
  H143     1.0000 0.28899  0.90672  0.27128  Biso   1.000  H
  H144     1.0000 0.20064  0.85930  0.33132  Biso   1.000  H
  H145     1.0000 0.20073  0.85930  0.33132  Biso   1.000  H
  C147     1.0000 0.24751  0.82613  0.13557  Biso   1.000  C
  O50      1.0000 0.79832  0.76751  0.09871  Biso   1.000  O
  H146     1.0000 0.13246  0.66571  0.13682  Biso   1.000  H
  H147     1.0000 0.10209  0.73773  0.26022  Biso   1.000  H
  O51      1.0000 0.34010  0.86300  0.12510  Biso   1.000  O
  C148     1.0000 0.75254  0.17387  0.86441  Biso   1.000  C
  N97      1.0000 0.82505  0.16559  0.79580  Biso   1.000  N
  N98      1.0000 0.82514  0.16559  0.79580  Biso   1.000  N
  O52      1.0000 0.65985  0.13700  0.87489  Biso   1.000  O
  N99      1.0000 0.79714  0.23541  0.91750  Biso   1.000  N
  N100     1.0000 0.79723  0.23541  0.91750  Biso   1.000  N
  C149     1.0000 0.79495  0.11163  0.72471  Biso   1.000  C
  C150     1.0000 0.79504  0.11163  0.72471  Biso   1.000  C
  C151     1.0000 0.91261  0.22897  0.79351  Biso   1.000  C
  C152     1.0000 0.75245  0.17387  0.86441  Biso   1.000  C
  C153     1.0000 0.89203  0.27841  0.87777  Biso   1.000  C
  C154     1.0000 0.89212  0.27841  0.87783  Biso   1.000  C
  C155     1.0000 0.73238  0.26602  0.99056  Biso   1.000  C
  C156     1.0000 0.73238  0.26602  0.99063  Biso   1.000  C
  N101     1.0000 0.87248  0.04330  0.72379  Biso   1.000  N
  H148     1.0000 0.71096  0.09328  0.72870  Biso   1.000  H
  H149     1.0000 0.79931  0.14070  0.66867  Biso   1.000  H
  H150     1.0000 0.89786  0.26227  0.73976  Biso   1.000  H
  H151     1.0000 0.89786  0.26227  0.73983  Biso   1.000  H
  N102     1.0000 0.03834  0.20640  0.80562  Biso   1.000  N
  N103     1.0000 0.03843  0.20640  0.80562  Biso   1.000  N
  H152     1.0000 0.86749  0.33429  0.86317  Biso   1.000  H
  N104     1.0000 0.00886  0.27579  0.92582  Biso   1.000  N
  H153     1.0000 0.64806  0.24690  0.98467  Biso   1.000  H
  H154     1.0000 0.73080  0.32487  0.98788  Biso   1.000  H
  N105     1.0000 0.78586  0.24160  0.07430  Biso   1.000  N
  C157     1.0000 0.98818  0.04438  0.68471  Biso   1.000  C
  C158     1.0000 0.83435  0.96623  0.73970  Biso   1.000  C
  C159     1.0000 0.83444  0.96623  0.73970  Biso   1.000  C
  C160     1.0000 0.10474  0.16500  0.74101  Biso   1.000  C
  C161     1.0000 0.10483  0.16500  0.74101  Biso   1.000  C
  C162     1.0000 0.09355  0.23761  0.88242  Biso   1.000  C
  C163     1.0000 0.09364  0.23761  0.88242  Biso   1.000  C
  C164     1.0000 0.03641  0.31773  0.00680  Biso   1.000  C
  C165     1.0000 0.73936  0.18198  0.12307  Biso   1.000  C
  C166     1.0000 0.88599  0.28270  0.12038  Biso   1.000  C
  H155     1.0000 0.98145  0.06928  0.62520  Biso   1.000  H
  H156     1.0000 0.98154  0.06928  0.62520  Biso   1.000  H
  C167     1.0000 0.02331  0.95568  0.67967  Biso   1.000  C
  C168     1.0000 0.02331  0.95568  0.67973  Biso   1.000  C
  N106     1.0000 0.08424  0.08059  0.73970  Biso   1.000  N
  N107     1.0000 0.08433  0.08059  0.73970  Biso   1.000  N
  O53      1.0000 0.73685  0.94770  0.76602  Biso   1.000  O
  N108     1.0000 0.92480  0.91577  0.71810  Biso   1.000  N
  O54      1.0000 0.73694  0.94770  0.76602  Biso   1.000  O
  H157     1.0000 0.08157  0.18710  0.68242  Biso   1.000  H
  H158     1.0000 0.19178  0.17513  0.75338  Biso   1.000  H
  O55      1.0000 0.20163  0.23249  0.90127  Biso   1.000  O
  O56      1.0000 0.20172  0.23249  0.90127  Biso   1.000  O
  H159     1.0000 0.99434  0.36973  0.00438  Biso   1.000  H
  H160     1.0000 0.99443  0.36973  0.00438  Biso   1.000  H
  N109     1.0000 0.00178  0.27430  0.08340  Biso   1.000  N
  H161     1.0000 0.12398  0.32833  0.01289  Biso   1.000  H
  O57      1.0000 0.64813  0.14421  0.10389  Biso   1.000  O
  N110     1.0000 0.81140  0.17459  0.19920  Biso   1.000  N
  O58      1.0000 0.64822  0.14421  0.10389  Biso   1.000  O
  H162     1.0000 0.86642  0.33989  0.13079  Biso   1.000  H
  C169     1.0000 0.90289  0.23523  0.20909  Biso   1.000  C
  N111     1.0000 0.13696  0.95229  0.73250  Biso   1.000  N
  H163     1.0000 0.03248  0.93811  0.61806  Biso   1.000  H
  H164     1.0000 0.03249  0.93811  0.61813  Biso   1.000  H
  C170     1.0000 0.17603  0.02722  0.75816  Biso   1.000  C
  C171     1.0000 0.17612  0.02722  0.75823  Biso   1.000  C
  C172     1.0000 0.90945  0.83071  0.71816  Biso   1.000  C
  C173     1.0000 0.90954  0.83071  0.71823  Biso   1.000  C
  C174     1.0000 0.08239  0.23541  0.13839  Biso   1.000  C
  C175     1.0000 0.78627  0.11609  0.26631  Biso   1.000  C
  N112     1.0000 0.02667  0.20890  0.20909  Biso   1.000  N
  H165     1.0000 0.89004  0.27031  0.26042  Biso   1.000  H
  H166     1.0000 0.89013  0.27031  0.26042  Biso   1.000  H
  C176     1.0000 0.21368  0.88391  0.73368  Biso   1.000  C
  O59      1.0000 0.27399  0.04462  0.79377  Biso   1.000  O
  N113     1.0000 0.97328  0.79110  0.79089  Biso   1.000  N
  H167     1.0000 0.93750  0.80897  0.66291  Biso   1.000  H
  H168     1.0000 0.82253  0.81850  0.71960  Biso   1.000  H
  H169     1.0000 0.82262  0.81850  0.71960  Biso   1.000  H
  O60      1.0000 0.19184  0.22790  0.12759  Biso   1.000  O
  O61      1.0000 0.19193  0.22790  0.12759  Biso   1.000  O
  N114     1.0000 0.86299  0.04771  0.26749  Biso   1.000  N
  H170     1.0000 0.70171  0.09822  0.25668  Biso   1.000  H
  H171     1.0000 0.79474  0.14218  0.32431  Biso   1.000  H
  H172     1.0000 0.79483  0.14218  0.32431  Biso   1.000  H
  C177     1.0000 0.09051  0.16929  0.28182  Biso   1.000  C
  N115     1.0000 0.18855  0.82541  0.80078  Biso   1.000  N
  H173     1.0000 0.29824  0.90178  0.74330  Biso   1.000  H
  H174     1.0000 0.20521  0.85782  0.67567  Biso   1.000  H
  N116     1.0000 0.18864  0.82541  0.80078  Biso   1.000  N
  H175     1.0000 0.29833  0.90178  0.74330  Biso   1.000  H
  C178     1.0000 0.91756  0.76459  0.86160  Biso   1.000  C
  C179     1.0000 0.09706  0.76477  0.79089  Biso   1.000  C
  C180     1.0000 0.82392  0.97278  0.24182  Biso   1.000  C
  C181     1.0000 0.97665  0.04432  0.32032  Biso   1.000  C
  C182     1.0000 0.97674  0.04432  0.32032  Biso   1.000  C
  N117     1.0000 0.07515  0.08423  0.28189  Biso   1.000  N
  H176     1.0000 0.06245  0.19103  0.33708  Biso   1.000  H
  H177     1.0000 0.17742  0.18150  0.28038  Biso   1.000  H
  N118     1.0000 0.07524  0.08423  0.28189  Biso   1.000  N
  H178     1.0000 0.06254  0.19103  0.33708  Biso   1.000  H
  C183     1.0000 0.26059  0.81802  0.87692  Biso   1.000  C
  O62      1.0000 0.80811  0.77210  0.87240  Biso   1.000  O
  N119     1.0000 0.99817  0.72570  0.91659  Biso   1.000  N
  C184     1.0000 0.11396  0.71730  0.87960  Biso   1.000  C
  H179     1.0000 0.10991  0.72969  0.73957  Biso   1.000  H
  O63      1.0000 0.72596  0.95538  0.20621  Biso   1.000  O
  N120     1.0000 0.91572  0.91941  0.26028  Biso   1.000  N
  H180     1.0000 0.96747  0.06189  0.38192  Biso   1.000  H
  C185     1.0000 0.01178  0.95562  0.31528  Biso   1.000  C
  C186     1.0000 0.16560  0.03377  0.26028  Biso   1.000  C
  O64      1.0000 0.35182  0.85579  0.89610  Biso   1.000  O
  N121     1.0000 0.21410  0.75840  0.92569  Biso   1.000  N
  C187     1.0000 0.96354  0.68227  0.99318  Biso   1.000  C
  C188     1.0000 0.96363  0.68227  0.99318  Biso   1.000  C
  H181     1.0000 0.13353  0.66011  0.86919  Biso   1.000  H
  H182     1.0000 0.13362  0.66011  0.86919  Biso   1.000  H
  C189     1.0000 0.89521  0.83500  0.25898  Biso   1.000  C
  N122     1.0000 0.12747  0.95670  0.27619  Biso   1.000  N
  H183     1.0000 0.01850  0.93072  0.37478  Biso   1.000  H
  O65      1.0000 0.26310  0.05230  0.23397  Biso   1.000  O
  O66      1.0000 0.26311  0.05230  0.23403  Biso   1.000  O
  C190     1.0000 0.26757  0.73398  0.00942  Biso   1.000  C
  H184     1.0000 0.87597  0.67167  0.98710  Biso   1.000  H
  N123     1.0000 0.99109  0.72421  0.07416  Biso   1.000  N
  N124     1.0000 0.99110  0.72421  0.07423  Biso   1.000  N
  H185     1.0000 0.00561  0.63027  0.99561  Biso   1.000  H
  N125     1.0000 0.96161  0.79360  0.19436  Biso   1.000  N
  N126     1.0000 0.96162  0.79360  0.19443  Biso   1.000  N
  H186     1.0000 0.91838  0.81290  0.31757  Biso   1.000  H
  H187     1.0000 0.80817  0.82487  0.24660  Biso   1.000  H
  H188     1.0000 0.91839  0.81290  0.31763  Biso   1.000  H
  C191     1.0000 0.20500  0.88837  0.27528  Biso   1.000  C
  N127     1.0000 0.20281  0.76459  0.08248  Biso   1.000  N
  H189     1.0000 0.35189  0.75310  0.01531  Biso   1.000  H
  H190     1.0000 0.26915  0.67513  0.01210  Biso   1.000  H
  H191     1.0000 0.26924  0.67513  0.01210  Biso   1.000  H
  C192     1.0000 0.90640  0.76239  0.11757  Biso   1.000  C
  C193     1.0000 0.10792  0.72159  0.12222  Biso   1.000  C
  C194     1.0000 0.08734  0.77103  0.20647  Biso   1.000  C
  C195     1.0000 0.08743  0.77103  0.20647  Biso   1.000  C
  N128     1.0000 0.17490  0.83441  0.20418  Biso   1.000  N
  H192     1.0000 0.28899  0.90672  0.27128  Biso   1.000  H
  H193     1.0000 0.20064  0.85930  0.33132  Biso   1.000  H
  H194     1.0000 0.20073  0.85930  0.33132  Biso   1.000  H
  C196     1.0000 0.24751  0.82613  0.13557  Biso   1.000  C
  O67      1.0000 0.79832  0.76751  0.09871  Biso   1.000  O
  H195     1.0000 0.13246  0.66571  0.13682  Biso   1.000  H
  H196     1.0000 0.10209  0.73773  0.26022  Biso   1.000  H
  O68      1.0000 0.34010  0.86300  0.12510  Biso   1.000  O
  C197     1.0000 0.75254  0.17387  0.86441  Biso   1.000  C
  N129     1.0000 0.82505  0.16559  0.79580  Biso   1.000  N
  N130     1.0000 0.82514  0.16559  0.79580  Biso   1.000  N
  O69      1.0000 0.65985  0.13700  0.87489  Biso   1.000  O
  N131     1.0000 0.79714  0.23541  0.91750  Biso   1.000  N
  N132     1.0000 0.79723  0.23541  0.91750  Biso   1.000  N
  C198     1.0000 0.79495  0.11163  0.72471  Biso   1.000  C
  C199     1.0000 0.79504  0.11163  0.72471  Biso   1.000  C
  C200     1.0000 0.91261  0.22897  0.79351  Biso   1.000  C
  C201     1.0000 0.75245  0.17387  0.86441  Biso   1.000  C
  C202     1.0000 0.89203  0.27841  0.87777  Biso   1.000  C
  C203     1.0000 0.89212  0.27841  0.87783  Biso   1.000  C
  C204     1.0000 0.73238  0.26602  0.99056  Biso   1.000  C
  C205     1.0000 0.73238  0.26602  0.99063  Biso   1.000  C
  N133     1.0000 0.87248  0.04330  0.72379  Biso   1.000  N
  H197     1.0000 0.71096  0.09328  0.72870  Biso   1.000  H
  H198     1.0000 0.79931  0.14070  0.66867  Biso   1.000  H
  N134     1.0000 0.03834  0.20640  0.80562  Biso   1.000  N
  N135     1.0000 0.03843  0.20640  0.80562  Biso   1.000  N
  H199     1.0000 0.89786  0.26227  0.73976  Biso   1.000  H
  H200     1.0000 0.89786  0.26227  0.73983  Biso   1.000  H
  H201     1.0000 0.86749  0.33429  0.86317  Biso   1.000  H
  N136     1.0000 0.00886  0.27579  0.92582  Biso   1.000  N
  H202     1.0000 0.64806  0.24690  0.98467  Biso   1.000  H
  H203     1.0000 0.73080  0.32487  0.98788  Biso   1.000  H
  N137     1.0000 0.78586  0.24160  0.07430  Biso   1.000  N
  C206     1.0000 0.98818  0.04438  0.68471  Biso   1.000  C
  C207     1.0000 0.83435  0.96623  0.73970  Biso   1.000  C
  C208     1.0000 0.83444  0.96623  0.73970  Biso   1.000  C
  C209     1.0000 0.10474  0.16500  0.74101  Biso   1.000  C
  C210     1.0000 0.10483  0.16500  0.74101  Biso   1.000  C
  C211     1.0000 0.09355  0.23761  0.88242  Biso   1.000  C
  C212     1.0000 0.09364  0.23761  0.88242  Biso   1.000  C
  C213     1.0000 0.03641  0.31773  0.00680  Biso   1.000  C
  C214     1.0000 0.73936  0.18198  0.12307  Biso   1.000  C
  C215     1.0000 0.88599  0.28270  0.12038  Biso   1.000  C
  H204     1.0000 0.98145  0.06928  0.62520  Biso   1.000  H
  H205     1.0000 0.98154  0.06928  0.62520  Biso   1.000  H
  C216     1.0000 0.02331  0.95568  0.67967  Biso   1.000  C
  C217     1.0000 0.02331  0.95568  0.67973  Biso   1.000  C
  N138     1.0000 0.08424  0.08059  0.73970  Biso   1.000  N
  N139     1.0000 0.08433  0.08059  0.73970  Biso   1.000  N
  O70      1.0000 0.73685  0.94770  0.76602  Biso   1.000  O
  N140     1.0000 0.92480  0.91577  0.71810  Biso   1.000  N
  O71      1.0000 0.73694  0.94770  0.76602  Biso   1.000  O
  H206     1.0000 0.08157  0.18710  0.68242  Biso   1.000  H
  H207     1.0000 0.19178  0.17513  0.75338  Biso   1.000  H
  O72      1.0000 0.20163  0.23249  0.90127  Biso   1.000  O
  O73      1.0000 0.20172  0.23249  0.90127  Biso   1.000  O
  H208     1.0000 0.99434  0.36973  0.00438  Biso   1.000  H
  H209     1.0000 0.99443  0.36973  0.00438  Biso   1.000  H
  N141     1.0000 0.00178  0.27430  0.08340  Biso   1.000  N
  H210     1.0000 0.12398  0.32833  0.01289  Biso   1.000  H
  O74      1.0000 0.64813  0.14421  0.10389  Biso   1.000  O
  N142     1.0000 0.81140  0.17459  0.19920  Biso   1.000  N
  O75      1.0000 0.64822  0.14421  0.10389  Biso   1.000  O
  H211     1.0000 0.86642  0.33989  0.13079  Biso   1.000  H
  C218     1.0000 0.90289  0.23523  0.20909  Biso   1.000  C
  N143     1.0000 0.13696  0.95229  0.73250  Biso   1.000  N
  H212     1.0000 0.03248  0.93811  0.61806  Biso   1.000  H
  H213     1.0000 0.03249  0.93811  0.61813  Biso   1.000  H
  C219     1.0000 0.17603  0.02722  0.75816  Biso   1.000  C
  C220     1.0000 0.17612  0.02722  0.75823  Biso   1.000  C
  C221     1.0000 0.90945  0.83071  0.71816  Biso   1.000  C
  C222     1.0000 0.90954  0.83071  0.71823  Biso   1.000  C
  C223     1.0000 0.08239  0.23541  0.13839  Biso   1.000  C
  C224     1.0000 0.78627  0.11609  0.26631  Biso   1.000  C
  N144     1.0000 0.02667  0.20890  0.20909  Biso   1.000  N
  H214     1.0000 0.89004  0.27031  0.26042  Biso   1.000  H
  H215     1.0000 0.89013  0.27031  0.26042  Biso   1.000  H
  C225     1.0000 0.21368  0.88391  0.73368  Biso   1.000  C
  O76      1.0000 0.27399  0.04462  0.79377  Biso   1.000  O
  N145     1.0000 0.97328  0.79110  0.79089  Biso   1.000  N
  H216     1.0000 0.93750  0.80897  0.66291  Biso   1.000  H
  H217     1.0000 0.82253  0.81850  0.71960  Biso   1.000  H
  H218     1.0000 0.82262  0.81850  0.71960  Biso   1.000  H
  O77      1.0000 0.19184  0.22790  0.12759  Biso   1.000  O
  O78      1.0000 0.19193  0.22790  0.12759  Biso   1.000  O
  N146     1.0000 0.86299  0.04771  0.26749  Biso   1.000  N
  H219     1.0000 0.70171  0.09822  0.25668  Biso   1.000  H
  H220     1.0000 0.79474  0.14218  0.32431  Biso   1.000  H
  H221     1.0000 0.79483  0.14218  0.32431  Biso   1.000  H
  C226     1.0000 0.09051  0.16929  0.28182  Biso   1.000  C
  N147     1.0000 0.18855  0.82541  0.80078  Biso   1.000  N
  H222     1.0000 0.29824  0.90178  0.74330  Biso   1.000  H
  H223     1.0000 0.20521  0.85782  0.67567  Biso   1.000  H
  N148     1.0000 0.18864  0.82541  0.80078  Biso   1.000  N
  H224     1.0000 0.29833  0.90178  0.74330  Biso   1.000  H
  C227     1.0000 0.91756  0.76459  0.86160  Biso   1.000  C
  C228     1.0000 0.09706  0.76477  0.79089  Biso   1.000  C
  C229     1.0000 0.82392  0.97278  0.24182  Biso   1.000  C
  C230     1.0000 0.97665  0.04432  0.32032  Biso   1.000  C
  C231     1.0000 0.97674  0.04432  0.32032  Biso   1.000  C
  N149     1.0000 0.07515  0.08423  0.28189  Biso   1.000  N
  H225     1.0000 0.06245  0.19103  0.33708  Biso   1.000  H
  H226     1.0000 0.17742  0.18150  0.28038  Biso   1.000  H
  N150     1.0000 0.07524  0.08423  0.28189  Biso   1.000  N
  H227     1.0000 0.06254  0.19103  0.33708  Biso   1.000  H
  C232     1.0000 0.26059  0.81802  0.87692  Biso   1.000  C
  O79      1.0000 0.80811  0.77210  0.87240  Biso   1.000  O
  N151     1.0000 0.99817  0.72570  0.91659  Biso   1.000  N
  C233     1.0000 0.11396  0.71730  0.87960  Biso   1.000  C
  H228     1.0000 0.10991  0.72969  0.73957  Biso   1.000  H
  N152     1.0000 0.91572  0.91941  0.26028  Biso   1.000  N
  O80      1.0000 0.72596  0.95538  0.20621  Biso   1.000  O
  H229     1.0000 0.96747  0.06189  0.38192  Biso   1.000  H
  C234     1.0000 0.01178  0.95562  0.31528  Biso   1.000  C
  C235     1.0000 0.16560  0.03377  0.26028  Biso   1.000  C
  O81      1.0000 0.35182  0.85579  0.89610  Biso   1.000  O
  N153     1.0000 0.21410  0.75840  0.92569  Biso   1.000  N
  C236     1.0000 0.96354  0.68227  0.99318  Biso   1.000  C
  C237     1.0000 0.96363  0.68227  0.99318  Biso   1.000  C
  H230     1.0000 0.13353  0.66011  0.86919  Biso   1.000  H
  H231     1.0000 0.13362  0.66011  0.86919  Biso   1.000  H
  C238     1.0000 0.89521  0.83500  0.25898  Biso   1.000  C
  N154     1.0000 0.12747  0.95670  0.27619  Biso   1.000  N
  H232     1.0000 0.01850  0.93072  0.37478  Biso   1.000  H
  O82      1.0000 0.26310  0.05230  0.23397  Biso   1.000  O
  O83      1.0000 0.26311  0.05230  0.23403  Biso   1.000  O
  C239     1.0000 0.26757  0.73398  0.00942  Biso   1.000  C
  H233     1.0000 0.87597  0.67167  0.98710  Biso   1.000  H
  N155     1.0000 0.99109  0.72421  0.07416  Biso   1.000  N
  N156     1.0000 0.99110  0.72421  0.07423  Biso   1.000  N
  H234     1.0000 0.00561  0.63027  0.99561  Biso   1.000  H
  N157     1.0000 0.96161  0.79360  0.19436  Biso   1.000  N
  N158     1.0000 0.96162  0.79360  0.19443  Biso   1.000  N
  H235     1.0000 0.91838  0.81290  0.31757  Biso   1.000  H
  H236     1.0000 0.80817  0.82487  0.24660  Biso   1.000  H
  H237     1.0000 0.91839  0.81290  0.31763  Biso   1.000  H
  C240     1.0000 0.20500  0.88837  0.27528  Biso   1.000  C
  N159     1.0000 0.20281  0.76459  0.08248  Biso   1.000  N
  H238     1.0000 0.35189  0.75310  0.01531  Biso   1.000  H
  H239     1.0000 0.26915  0.67513  0.01210  Biso   1.000  H
  H240     1.0000 0.26924  0.67513  0.01210  Biso   1.000  H
  C241     1.0000 0.90640  0.76239  0.11757  Biso   1.000  C
  C242     1.0000 0.10792  0.72159  0.12222  Biso   1.000  C
  C243     1.0000 0.08734  0.77103  0.20647  Biso   1.000  C
  C244     1.0000 0.08743  0.77103  0.20647  Biso   1.000  C
  N160     1.0000 0.17490  0.83441  0.20418  Biso   1.000  N
  H241     1.0000 0.28899  0.90672  0.27128  Biso   1.000  H
  H242     1.0000 0.20064  0.85930  0.33132  Biso   1.000  H
  H243     1.0000 0.20073  0.85930  0.33132  Biso   1.000  H
  C245     1.0000 0.24751  0.82613  0.13557  Biso   1.000  C
  O84      1.0000 0.79832  0.76751  0.09871  Biso   1.000  O
  H244     1.0000 0.13246  0.66571  0.13682  Biso   1.000  H
  H245     1.0000 0.10209  0.73773  0.26022  Biso   1.000  H
  O85      1.0000 0.34010  0.86300  0.12510  Biso   1.000  O
  C246     1.0000 0.75254  0.17387  0.86441  Biso   1.000  C
  N161     1.0000 0.82505  0.16559  0.79580  Biso   1.000  N
  N162     1.0000 0.82514  0.16559  0.79580  Biso   1.000  N
  O86      1.0000 0.65985  0.13700  0.87489  Biso   1.000  O
  N163     1.0000 0.79714  0.23541  0.91750  Biso   1.000  N
  N164     1.0000 0.79723  0.23541  0.91750  Biso   1.000  N
  C247     1.0000 0.79495  0.11163  0.72471  Biso   1.000  C
  C248     1.0000 0.79504  0.11163  0.72471  Biso   1.000  C
  C249     1.0000 0.91261  0.22897  0.79351  Biso   1.000  C
  C250     1.0000 0.75245  0.17387  0.86441  Biso   1.000  C
  C251     1.0000 0.89203  0.27841  0.87777  Biso   1.000  C
  C252     1.0000 0.89212  0.27841  0.87783  Biso   1.000  C
  C253     1.0000 0.73238  0.26602  0.99056  Biso   1.000  C
  C254     1.0000 0.73238  0.26602  0.99063  Biso   1.000  C
  N165     1.0000 0.87248  0.04330  0.72379  Biso   1.000  N
  H246     1.0000 0.71096  0.09328  0.72870  Biso   1.000  H
  H247     1.0000 0.79931  0.14070  0.66867  Biso   1.000  H
  N166     1.0000 0.03834  0.20640  0.80562  Biso   1.000  N
  N167     1.0000 0.03843  0.20640  0.80562  Biso   1.000  N
  H248     1.0000 0.89786  0.26227  0.73976  Biso   1.000  H
  H249     1.0000 0.89786  0.26227  0.73983  Biso   1.000  H
  H250     1.0000 0.86749  0.33429  0.86317  Biso   1.000  H
  N168     1.0000 0.00886  0.27579  0.92582  Biso   1.000  N
  H251     1.0000 0.64806  0.24690  0.98467  Biso   1.000  H
  H252     1.0000 0.73080  0.32487  0.98788  Biso   1.000  H
  N169     1.0000 0.78586  0.24160  0.07430  Biso   1.000  N
  C255     1.0000 0.98818  0.04438  0.68471  Biso   1.000  C
  C256     1.0000 0.83435  0.96623  0.73970  Biso   1.000  C
  C257     1.0000 0.83444  0.96623  0.73970  Biso   1.000  C
  C258     1.0000 0.10474  0.16500  0.74101  Biso   1.000  C
  C259     1.0000 0.10483  0.16500  0.74101  Biso   1.000  C
  C260     1.0000 0.09355  0.23761  0.88242  Biso   1.000  C
  C261     1.0000 0.09364  0.23761  0.88242  Biso   1.000  C
  C262     1.0000 0.03641  0.31773  0.00680  Biso   1.000  C
  C263     1.0000 0.73936  0.18198  0.12307  Biso   1.000  C
  C264     1.0000 0.88599  0.28270  0.12038  Biso   1.000  C
  H253     1.0000 0.98145  0.06928  0.62520  Biso   1.000  H
  H254     1.0000 0.98154  0.06928  0.62520  Biso   1.000  H
  C265     1.0000 0.02331  0.95568  0.67967  Biso   1.000  C
  C266     1.0000 0.02331  0.95568  0.67973  Biso   1.000  C
  N170     1.0000 0.08424  0.08059  0.73970  Biso   1.000  N
  N171     1.0000 0.08433  0.08059  0.73970  Biso   1.000  N
  O87      1.0000 0.73685  0.94770  0.76602  Biso   1.000  O
  N172     1.0000 0.92480  0.91577  0.71810  Biso   1.000  N
  O88      1.0000 0.73694  0.94770  0.76602  Biso   1.000  O
  H255     1.0000 0.08157  0.18710  0.68242  Biso   1.000  H
  H256     1.0000 0.19178  0.17513  0.75338  Biso   1.000  H
  O89      1.0000 0.20163  0.23249  0.90127  Biso   1.000  O
  O90      1.0000 0.20172  0.23249  0.90127  Biso   1.000  O
  H257     1.0000 0.99434  0.36973  0.00438  Biso   1.000  H
  H258     1.0000 0.99443  0.36973  0.00438  Biso   1.000  H
  N173     1.0000 0.00178  0.27430  0.08340  Biso   1.000  N
  H259     1.0000 0.12398  0.32833  0.01289  Biso   1.000  H
  O91      1.0000 0.64813  0.14421  0.10389  Biso   1.000  O
  N174     1.0000 0.81140  0.17459  0.19920  Biso   1.000  N
  O92      1.0000 0.64822  0.14421  0.10389  Biso   1.000  O
  H260     1.0000 0.86642  0.33989  0.13079  Biso   1.000  H
  C267     1.0000 0.90289  0.23523  0.20909  Biso   1.000  C
  N175     1.0000 0.13696  0.95229  0.73250  Biso   1.000  N
  H261     1.0000 0.03248  0.93811  0.61806  Biso   1.000  H
  H262     1.0000 0.03249  0.93811  0.61813  Biso   1.000  H
  C268     1.0000 0.17603  0.02722  0.75816  Biso   1.000  C
  C269     1.0000 0.17612  0.02722  0.75823  Biso   1.000  C
  C270     1.0000 0.90945  0.83071  0.71816  Biso   1.000  C
  C271     1.0000 0.90954  0.83071  0.71823  Biso   1.000  C
  C272     1.0000 0.08239  0.23541  0.13839  Biso   1.000  C
  C273     1.0000 0.78627  0.11609  0.26631  Biso   1.000  C
  N176     1.0000 0.02667  0.20890  0.20909  Biso   1.000  N
  H263     1.0000 0.89004  0.27031  0.26042  Biso   1.000  H
  H264     1.0000 0.89013  0.27031  0.26042  Biso   1.000  H
  C274     1.0000 0.21368  0.88391  0.73368  Biso   1.000  C
  O93      1.0000 0.27399  0.04462  0.79377  Biso   1.000  O
  N177     1.0000 0.97328  0.79110  0.79089  Biso   1.000  N
  H265     1.0000 0.93750  0.80897  0.66291  Biso   1.000  H
  H266     1.0000 0.82253  0.81850  0.71960  Biso   1.000  H
  H267     1.0000 0.82262  0.81850  0.71960  Biso   1.000  H
  O94      1.0000 0.19184  0.22790  0.12759  Biso   1.000  O
  O95      1.0000 0.19193  0.22790  0.12759  Biso   1.000  O
  N178     1.0000 0.86299  0.04771  0.26749  Biso   1.000  N
  H268     1.0000 0.70171  0.09822  0.25668  Biso   1.000  H
  H269     1.0000 0.79474  0.14218  0.32431  Biso   1.000  H
  H270     1.0000 0.79483  0.14218  0.32431  Biso   1.000  H
  C275     1.0000 0.09051  0.16929  0.28182  Biso   1.000  C
  N179     1.0000 0.18855  0.82541  0.80078  Biso   1.000  N
  H271     1.0000 0.29824  0.90178  0.74330  Biso   1.000  H
  H272     1.0000 0.20521  0.85782  0.67567  Biso   1.000  H
  N180     1.0000 0.18864  0.82541  0.80078  Biso   1.000  N
  H273     1.0000 0.29833  0.90178  0.74330  Biso   1.000  H
  C276     1.0000 0.91756  0.76459  0.86160  Biso   1.000  C
  C277     1.0000 0.09706  0.76477  0.79089  Biso   1.000  C
  C278     1.0000 0.82392  0.97278  0.24182  Biso   1.000  C
  C279     1.0000 0.97665  0.04432  0.32032  Biso   1.000  C
  C280     1.0000 0.97674  0.04432  0.32032  Biso   1.000  C
  N181     1.0000 0.07515  0.08423  0.28189  Biso   1.000  N
  H274     1.0000 0.06245  0.19103  0.33708  Biso   1.000  H
  H275     1.0000 0.17742  0.18150  0.28038  Biso   1.000  H
  N182     1.0000 0.07524  0.08423  0.28189  Biso   1.000  N
  H276     1.0000 0.06254  0.19103  0.33708  Biso   1.000  H
  C281     1.0000 0.26059  0.81802  0.87692  Biso   1.000  C
  O96      1.0000 0.80811  0.77210  0.87240  Biso   1.000  O
  N183     1.0000 0.99817  0.72570  0.91659  Biso   1.000  N
  C282     1.0000 0.11396  0.71730  0.87960  Biso   1.000  C
  H277     1.0000 0.10991  0.72969  0.73957  Biso   1.000  H
  N184     1.0000 0.91572  0.91941  0.26028  Biso   1.000  N
  O97      1.0000 0.72596  0.95538  0.20621  Biso   1.000  O
  H278     1.0000 0.96747  0.06189  0.38192  Biso   1.000  H
  C283     1.0000 0.01178  0.95562  0.31528  Biso   1.000  C
  C284     1.0000 0.16560  0.03377  0.26028  Biso   1.000  C
  O98      1.0000 0.35182  0.85579  0.89610  Biso   1.000  O
  N185     1.0000 0.21410  0.75840  0.92569  Biso   1.000  N
  C285     1.0000 0.96354  0.68227  0.99318  Biso   1.000  C
  C286     1.0000 0.96363  0.68227  0.99318  Biso   1.000  C
  H279     1.0000 0.13353  0.66011  0.86919  Biso   1.000  H
  H280     1.0000 0.13362  0.66011  0.86919  Biso   1.000  H
  C287     1.0000 0.89521  0.83500  0.25898  Biso   1.000  C
  N186     1.0000 0.12747  0.95670  0.27619  Biso   1.000  N
  H281     1.0000 0.01850  0.93072  0.37478  Biso   1.000  H
  O99      1.0000 0.26310  0.05230  0.23397  Biso   1.000  O
  O100     1.0000 0.26311  0.05230  0.23403  Biso   1.000  O
  C288     1.0000 0.26757  0.73398  0.00942  Biso   1.000  C
  H282     1.0000 0.87597  0.67167  0.98710  Biso   1.000  H
  N187     1.0000 0.99109  0.72421  0.07416  Biso   1.000  N
  N188     1.0000 0.99110  0.72421  0.07423  Biso   1.000  N
  H283     1.0000 0.00561  0.63027  0.99561  Biso   1.000  H
  N189     1.0000 0.96161  0.79360  0.19436  Biso   1.000  N
  N190     1.0000 0.96162  0.79360  0.19443  Biso   1.000  N
  H284     1.0000 0.91838  0.81290  0.31757  Biso   1.000  H
  H285     1.0000 0.80817  0.82487  0.24660  Biso   1.000  H
  H286     1.0000 0.91839  0.81290  0.31763  Biso   1.000  H
  C289     1.0000 0.20500  0.88837  0.27528  Biso   1.000  C
  N191     1.0000 0.20281  0.76459  0.08248  Biso   1.000  N
  H287     1.0000 0.35189  0.75310  0.01531  Biso   1.000  H
  H288     1.0000 0.26915  0.67513  0.01210  Biso   1.000  H
  H289     1.0000 0.26924  0.67513  0.01210  Biso   1.000  H
  C290     1.0000 0.90640  0.76239  0.11757  Biso   1.000  C
  C291     1.0000 0.10792  0.72159  0.12222  Biso   1.000  C
  C292     1.0000 0.08734  0.77103  0.20647  Biso   1.000  C
  C293     1.0000 0.08743  0.77103  0.20647  Biso   1.000  C
  N192     1.0000 0.17490  0.83441  0.20418  Biso   1.000  N
  H290     1.0000 0.28899  0.90672  0.27128  Biso   1.000  H
  H291     1.0000 0.20064  0.85930  0.33132  Biso   1.000  H
  H292     1.0000 0.20073  0.85930  0.33132  Biso   1.000  H
  C294     1.0000 0.24751  0.82613  0.13557  Biso   1.000  C
  O101     1.0000 0.79832  0.76751  0.09871  Biso   1.000  O
  H293     1.0000 0.13246  0.66571  0.13682  Biso   1.000  H
  H294     1.0000 0.10209  0.73773  0.26022  Biso   1.000  H
  O102     1.0000 0.34010  0.86300  0.12510  Biso   1.000  O
  C295     1.0000 0.75254  0.17387  0.86441  Biso   1.000  C
  N193     1.0000 0.82505  0.16559  0.79580  Biso   1.000  N
  N194     1.0000 0.82514  0.16559  0.79580  Biso   1.000  N
  O103     1.0000 0.65985  0.13700  0.87489  Biso   1.000  O
  N195     1.0000 0.79714  0.23541  0.91750  Biso   1.000  N
  N196     1.0000 0.79723  0.23541  0.91750  Biso   1.000  N
  C296     1.0000 0.79495  0.11163  0.72471  Biso   1.000  C
  C297     1.0000 0.79504  0.11163  0.72471  Biso   1.000  C
  C298     1.0000 0.91261  0.22897  0.79351  Biso   1.000  C
  C299     1.0000 0.75245  0.17387  0.86441  Biso   1.000  C
  C300     1.0000 0.89203  0.27841  0.87777  Biso   1.000  C
  C301     1.0000 0.89212  0.27841  0.87783  Biso   1.000  C
  C302     1.0000 0.73238  0.26602  0.99056  Biso   1.000  C
  C303     1.0000 0.73238  0.26602  0.99063  Biso   1.000  C
  N197     1.0000 0.87248  0.04330  0.72379  Biso   1.000  N
  H295     1.0000 0.71096  0.09328  0.72870  Biso   1.000  H
  H296     1.0000 0.79931  0.14070  0.66867  Biso   1.000  H
  N198     1.0000 0.03834  0.20640  0.80562  Biso   1.000  N
  N199     1.0000 0.03843  0.20640  0.80562  Biso   1.000  N
  H297     1.0000 0.89786  0.26227  0.73976  Biso   1.000  H
  H298     1.0000 0.89786  0.26227  0.73983  Biso   1.000  H
  H299     1.0000 0.86749  0.33429  0.86317  Biso   1.000  H
  N200     1.0000 0.00886  0.27579  0.92582  Biso   1.000  N
  H300     1.0000 0.64806  0.24690  0.98467  Biso   1.000  H
  H301     1.0000 0.73080  0.32487  0.98788  Biso   1.000  H
  N201     1.0000 0.78586  0.24160  0.07430  Biso   1.000  N
  C304     1.0000 0.98818  0.04438  0.68471  Biso   1.000  C
  C305     1.0000 0.83435  0.96623  0.73970  Biso   1.000  C
  C306     1.0000 0.83444  0.96623  0.73970  Biso   1.000  C
  C307     1.0000 0.10474  0.16500  0.74101  Biso   1.000  C
  C308     1.0000 0.10483  0.16500  0.74101  Biso   1.000  C
  C309     1.0000 0.09355  0.23761  0.88242  Biso   1.000  C
  C310     1.0000 0.09364  0.23761  0.88242  Biso   1.000  C
  C311     1.0000 0.03641  0.31773  0.00680  Biso   1.000  C
  C312     1.0000 0.73936  0.18198  0.12307  Biso   1.000  C
  C313     1.0000 0.88599  0.28270  0.12038  Biso   1.000  C
  H302     1.0000 0.98145  0.06928  0.62520  Biso   1.000  H
  H303     1.0000 0.98154  0.06928  0.62520  Biso   1.000  H
  C314     1.0000 0.02331  0.95568  0.67967  Biso   1.000  C
  C315     1.0000 0.02331  0.95568  0.67973  Biso   1.000  C
  N202     1.0000 0.08424  0.08059  0.73970  Biso   1.000  N
  N203     1.0000 0.08433  0.08059  0.73970  Biso   1.000  N
  O104     1.0000 0.73685  0.94770  0.76602  Biso   1.000  O
  N204     1.0000 0.92480  0.91577  0.71810  Biso   1.000  N
  O105     1.0000 0.73694  0.94770  0.76602  Biso   1.000  O
  H304     1.0000 0.08157  0.18710  0.68242  Biso   1.000  H
  H305     1.0000 0.19178  0.17513  0.75338  Biso   1.000  H
  O106     1.0000 0.20163  0.23249  0.90127  Biso   1.000  O
  O107     1.0000 0.20172  0.23249  0.90127  Biso   1.000  O
  H306     1.0000 0.99434  0.36973  0.00438  Biso   1.000  H
  H307     1.0000 0.99443  0.36973  0.00438  Biso   1.000  H
  N205     1.0000 0.00178  0.27430  0.08340  Biso   1.000  N
  H308     1.0000 0.12398  0.32833  0.01289  Biso   1.000  H
  O108     1.0000 0.64813  0.14421  0.10389  Biso   1.000  O
  N206     1.0000 0.81140  0.17459  0.19920  Biso   1.000  N
  O109     1.0000 0.64822  0.14421  0.10389  Biso   1.000  O
  H309     1.0000 0.86642  0.33989  0.13079  Biso   1.000  H
  C316     1.0000 0.90289  0.23523  0.20909  Biso   1.000  C
  N207     1.0000 0.13696  0.95229  0.73250  Biso   1.000  N
  H310     1.0000 0.03248  0.93811  0.61806  Biso   1.000  H
  H311     1.0000 0.03249  0.93811  0.61813  Biso   1.000  H
  C317     1.0000 0.17603  0.02722  0.75816  Biso   1.000  C
  C318     1.0000 0.17612  0.02722  0.75823  Biso   1.000  C
  C319     1.0000 0.90945  0.83071  0.71816  Biso   1.000  C
  C320     1.0000 0.90954  0.83071  0.71823  Biso   1.000  C
  C321     1.0000 0.08239  0.23541  0.13839  Biso   1.000  C
  C322     1.0000 0.78627  0.11609  0.26631  Biso   1.000  C
  N208     1.0000 0.02667  0.20890  0.20909  Biso   1.000  N
  H312     1.0000 0.89004  0.27031  0.26042  Biso   1.000  H
  H313     1.0000 0.89013  0.27031  0.26042  Biso   1.000  H
  C323     1.0000 0.21368  0.88391  0.73368  Biso   1.000  C
  O110     1.0000 0.27399  0.04462  0.79377  Biso   1.000  O
  N209     1.0000 0.97328  0.79110  0.79089  Biso   1.000  N
  H314     1.0000 0.93750  0.80897  0.66291  Biso   1.000  H
  H315     1.0000 0.82253  0.81850  0.71960  Biso   1.000  H
  H316     1.0000 0.82262  0.81850  0.71960  Biso   1.000  H
  O111     1.0000 0.19184  0.22790  0.12759  Biso   1.000  O
  O112     1.0000 0.19193  0.22790  0.12759  Biso   1.000  O
  N210     1.0000 0.86299  0.04771  0.26749  Biso   1.000  N
  H317     1.0000 0.70171  0.09822  0.25668  Biso   1.000  H
  H318     1.0000 0.79474  0.14218  0.32431  Biso   1.000  H
  H319     1.0000 0.79483  0.14218  0.32431  Biso   1.000  H
  C324     1.0000 0.09051  0.16929  0.28182  Biso   1.000  C
  N211     1.0000 0.18855  0.82541  0.80078  Biso   1.000  N
  H320     1.0000 0.29824  0.90178  0.74330  Biso   1.000  H
  H321     1.0000 0.20521  0.85782  0.67567  Biso   1.000  H
  N212     1.0000 0.18864  0.82541  0.80078  Biso   1.000  N
  H322     1.0000 0.29833  0.90178  0.74330  Biso   1.000  H
  C325     1.0000 0.91756  0.76459  0.86160  Biso   1.000  C
  C326     1.0000 0.09706  0.76477  0.79089  Biso   1.000  C
  C327     1.0000 0.82392  0.97278  0.24182  Biso   1.000  C
  C328     1.0000 0.97665  0.04432  0.32032  Biso   1.000  C
  C329     1.0000 0.97674  0.04432  0.32032  Biso   1.000  C
  N213     1.0000 0.07515  0.08423  0.28189  Biso   1.000  N
  H323     1.0000 0.06245  0.19103  0.33708  Biso   1.000  H
  H324     1.0000 0.17742  0.18150  0.28038  Biso   1.000  H
  N214     1.0000 0.07524  0.08423  0.28189  Biso   1.000  N
  H325     1.0000 0.06254  0.19103  0.33708  Biso   1.000  H
  C330     1.0000 0.26059  0.81802  0.87692  Biso   1.000  C
  O113     1.0000 0.80811  0.77210  0.87240  Biso   1.000  O
  N215     1.0000 0.99817  0.72570  0.91659  Biso   1.000  N
  C331     1.0000 0.11396  0.71730  0.87960  Biso   1.000  C
  H326     1.0000 0.10991  0.72969  0.73957  Biso   1.000  H
  N216     1.0000 0.91572  0.91941  0.26028  Biso   1.000  N
  O114     1.0000 0.72596  0.95538  0.20621  Biso   1.000  O
  H327     1.0000 0.96747  0.06189  0.38192  Biso   1.000  H
  C332     1.0000 0.01178  0.95562  0.31528  Biso   1.000  C
  C333     1.0000 0.16560  0.03377  0.26028  Biso   1.000  C
  O115     1.0000 0.35182  0.85579  0.89610  Biso   1.000  O
  N217     1.0000 0.21410  0.75840  0.92569  Biso   1.000  N
  C334     1.0000 0.96354  0.68227  0.99318  Biso   1.000  C
  C335     1.0000 0.96363  0.68227  0.99318  Biso   1.000  C
  H328     1.0000 0.13353  0.66011  0.86919  Biso   1.000  H
  H329     1.0000 0.13362  0.66011  0.86919  Biso   1.000  H
  C336     1.0000 0.89521  0.83500  0.25898  Biso   1.000  C
  N218     1.0000 0.12747  0.95670  0.27619  Biso   1.000  N
  H330     1.0000 0.01850  0.93072  0.37478  Biso   1.000  H
  O116     1.0000 0.26310  0.05230  0.23397  Biso   1.000  O
  O117     1.0000 0.26311  0.05230  0.23403  Biso   1.000  O
  C337     1.0000 0.26757  0.73398  0.00942  Biso   1.000  C
  H331     1.0000 0.87597  0.67167  0.98710  Biso   1.000  H
  N219     1.0000 0.99109  0.72421  0.07416  Biso   1.000  N
  N220     1.0000 0.99110  0.72421  0.07423  Biso   1.000  N
  H332     1.0000 0.00561  0.63027  0.99561  Biso   1.000  H
  N221     1.0000 0.96161  0.79360  0.19436  Biso   1.000  N
  N222     1.0000 0.96162  0.79360  0.19443  Biso   1.000  N
  H333     1.0000 0.91838  0.81290  0.31757  Biso   1.000  H
  H334     1.0000 0.80817  0.82487  0.24660  Biso   1.000  H
  H335     1.0000 0.91839  0.81290  0.31763  Biso   1.000  H
  C338     1.0000 0.20500  0.88837  0.27528  Biso   1.000  C
  N223     1.0000 0.20281  0.76459  0.08248  Biso   1.000  N
  H336     1.0000 0.35189  0.75310  0.01531  Biso   1.000  H
  H337     1.0000 0.26915  0.67513  0.01210  Biso   1.000  H
  H338     1.0000 0.26924  0.67513  0.01210  Biso   1.000  H
  C339     1.0000 0.90640  0.76239  0.11757  Biso   1.000  C
  C340     1.0000 0.10792  0.72159  0.12222  Biso   1.000  C
  C341     1.0000 0.08734  0.77103  0.20647  Biso   1.000  C
  C342     1.0000 0.08743  0.77103  0.20647  Biso   1.000  C
  N224     1.0000 0.17490  0.83441  0.20418  Biso   1.000  N
  H339     1.0000 0.28899  0.90672  0.27128  Biso   1.000  H
  H340     1.0000 0.20064  0.85930  0.33132  Biso   1.000  H
  H341     1.0000 0.20073  0.85930  0.33132  Biso   1.000  H
  C343     1.0000 0.24751  0.82613  0.13557  Biso   1.000  C
  O118     1.0000 0.79832  0.76751  0.09871  Biso   1.000  O
  H342     1.0000 0.13246  0.66571  0.13682  Biso   1.000  H
  H343     1.0000 0.10209  0.73773  0.26022  Biso   1.000  H
  O119     1.0000 0.34010  0.86300  0.12510  Biso   1.000  O
  C344     1.0000 0.75254  0.17387  0.86441  Biso   1.000  C
  N225     1.0000 0.82505  0.16559  0.79580  Biso   1.000  N
  N226     1.0000 0.82514  0.16559  0.79580  Biso   1.000  N
  O120     1.0000 0.65985  0.13700  0.87489  Biso   1.000  O
  N227     1.0000 0.79714  0.23541  0.91750  Biso   1.000  N
  N228     1.0000 0.79723  0.23541  0.91750  Biso   1.000  N
  C345     1.0000 0.79495  0.11163  0.72471  Biso   1.000  C
  C346     1.0000 0.79504  0.11163  0.72471  Biso   1.000  C
  C347     1.0000 0.91261  0.22897  0.79351  Biso   1.000  C
  C348     1.0000 0.75245  0.17387  0.86441  Biso   1.000  C
  C349     1.0000 0.89203  0.27841  0.87777  Biso   1.000  C
  C350     1.0000 0.89212  0.27841  0.87783  Biso   1.000  C
  C351     1.0000 0.73238  0.26602  0.99056  Biso   1.000  C
  C352     1.0000 0.73238  0.26602  0.99063  Biso   1.000  C
  N229     1.0000 0.87248  0.04330  0.72379  Biso   1.000  N
  H344     1.0000 0.71096  0.09328  0.72870  Biso   1.000  H
  H345     1.0000 0.79931  0.14070  0.66867  Biso   1.000  H
  N230     1.0000 0.03834  0.20640  0.80562  Biso   1.000  N
  N231     1.0000 0.03843  0.20640  0.80562  Biso   1.000  N
  H346     1.0000 0.89786  0.26227  0.73976  Biso   1.000  H
  H347     1.0000 0.89786  0.26227  0.73983  Biso   1.000  H
  H348     1.0000 0.86749  0.33429  0.86317  Biso   1.000  H
  N232     1.0000 0.00886  0.27579  0.92582  Biso   1.000  N
  H349     1.0000 0.64806  0.24690  0.98467  Biso   1.000  H
  H350     1.0000 0.73080  0.32487  0.98788  Biso   1.000  H
  N233     1.0000 0.78586  0.24160  0.07430  Biso   1.000  N
  C353     1.0000 0.98818  0.04438  0.68471  Biso   1.000  C
  C354     1.0000 0.83435  0.96623  0.73970  Biso   1.000  C
  C355     1.0000 0.83444  0.96623  0.73970  Biso   1.000  C
  C356     1.0000 0.10474  0.16500  0.74101  Biso   1.000  C
  C357     1.0000 0.10483  0.16500  0.74101  Biso   1.000  C
  C358     1.0000 0.09355  0.23761  0.88242  Biso   1.000  C
  C359     1.0000 0.09364  0.23761  0.88242  Biso   1.000  C
  C360     1.0000 0.03641  0.31773  0.00680  Biso   1.000  C
  C361     1.0000 0.73936  0.18198  0.12307  Biso   1.000  C
  C362     1.0000 0.88599  0.28270  0.12038  Biso   1.000  C
  H351     1.0000 0.98145  0.06928  0.62520  Biso   1.000  H
  H352     1.0000 0.98154  0.06928  0.62520  Biso   1.000  H
  C363     1.0000 0.02331  0.95568  0.67967  Biso   1.000  C
  C364     1.0000 0.02331  0.95568  0.67973  Biso   1.000  C
  N234     1.0000 0.08424  0.08059  0.73970  Biso   1.000  N
  N235     1.0000 0.08433  0.08059  0.73970  Biso   1.000  N
  O121     1.0000 0.73685  0.94770  0.76602  Biso   1.000  O
  N236     1.0000 0.92480  0.91577  0.71810  Biso   1.000  N
  O122     1.0000 0.73694  0.94770  0.76602  Biso   1.000  O
  H353     1.0000 0.08157  0.18710  0.68242  Biso   1.000  H
  H354     1.0000 0.19178  0.17513  0.75338  Biso   1.000  H
  O123     1.0000 0.20163  0.23249  0.90127  Biso   1.000  O
  O124     1.0000 0.20172  0.23249  0.90127  Biso   1.000  O
  H355     1.0000 0.99434  0.36973  0.00438  Biso   1.000  H
  H356     1.0000 0.99443  0.36973  0.00438  Biso   1.000  H
  N237     1.0000 0.00178  0.27430  0.08340  Biso   1.000  N
  H357     1.0000 0.12398  0.32833  0.01289  Biso   1.000  H
  O125     1.0000 0.64813  0.14421  0.10389  Biso   1.000  O
  N238     1.0000 0.81140  0.17459  0.19920  Biso   1.000  N
  O126     1.0000 0.64822  0.14421  0.10389  Biso   1.000  O
  H358     1.0000 0.86642  0.33989  0.13079  Biso   1.000  H
  C365     1.0000 0.90289  0.23523  0.20909  Biso   1.000  C
  N239     1.0000 0.13696  0.95229  0.73250  Biso   1.000  N
  H359     1.0000 0.03248  0.93811  0.61806  Biso   1.000  H
  H360     1.0000 0.03249  0.93811  0.61813  Biso   1.000  H
  C366     1.0000 0.17603  0.02722  0.75816  Biso   1.000  C
  C367     1.0000 0.17612  0.02722  0.75823  Biso   1.000  C
  C368     1.0000 0.90945  0.83071  0.71816  Biso   1.000  C
  C369     1.0000 0.90954  0.83071  0.71823  Biso   1.000  C
  C370     1.0000 0.08239  0.23541  0.13839  Biso   1.000  C
  C371     1.0000 0.78627  0.11609  0.26631  Biso   1.000  C
  N240     1.0000 0.02667  0.20890  0.20909  Biso   1.000  N
  H361     1.0000 0.89004  0.27031  0.26042  Biso   1.000  H
  H362     1.0000 0.89013  0.27031  0.26042  Biso   1.000  H
  C372     1.0000 0.21368  0.88391  0.73368  Biso   1.000  C
  O127     1.0000 0.27399  0.04462  0.79377  Biso   1.000  O
  N241     1.0000 0.97328  0.79110  0.79089  Biso   1.000  N
  H363     1.0000 0.93750  0.80897  0.66291  Biso   1.000  H
  H364     1.0000 0.82253  0.81850  0.71960  Biso   1.000  H
  H365     1.0000 0.82262  0.81850  0.71960  Biso   1.000  H
  O128     1.0000 0.19184  0.22790  0.12759  Biso   1.000  O
  O129     1.0000 0.19193  0.22790  0.12759  Biso   1.000  O
  N242     1.0000 0.86299  0.04771  0.26749  Biso   1.000  N
  H366     1.0000 0.70171  0.09822  0.25668  Biso   1.000  H
  H367     1.0000 0.79474  0.14218  0.32431  Biso   1.000  H
  H368     1.0000 0.79483  0.14218  0.32431  Biso   1.000  H
  C373     1.0000 0.09051  0.16929  0.28182  Biso   1.000  C
  N243     1.0000 0.18855  0.82541  0.80078  Biso   1.000  N
  H369     1.0000 0.29824  0.90178  0.74330  Biso   1.000  H
  H370     1.0000 0.20521  0.85782  0.67567  Biso   1.000  H
  N244     1.0000 0.18864  0.82541  0.80078  Biso   1.000  N
  H371     1.0000 0.29833  0.90178  0.74330  Biso   1.000  H
  C374     1.0000 0.91756  0.76459  0.86160  Biso   1.000  C
  C375     1.0000 0.09706  0.76477  0.79089  Biso   1.000  C
  C376     1.0000 0.82392  0.97278  0.24182  Biso   1.000  C
  C377     1.0000 0.97665  0.04432  0.32032  Biso   1.000  C
  C378     1.0000 0.97674  0.04432  0.32032  Biso   1.000  C
  N245     1.0000 0.07515  0.08423  0.28189  Biso   1.000  N
  H372     1.0000 0.06245  0.19103  0.33708  Biso   1.000  H
  H373     1.0000 0.17742  0.18150  0.28038  Biso   1.000  H
  N246     1.0000 0.07524  0.08423  0.28189  Biso   1.000  N
  H374     1.0000 0.06254  0.19103  0.33708  Biso   1.000  H
  C379     1.0000 0.26059  0.81802  0.87692  Biso   1.000  C
  O130     1.0000 0.80811  0.77210  0.87240  Biso   1.000  O
  N247     1.0000 0.99817  0.72570  0.91659  Biso   1.000  N
  C380     1.0000 0.11396  0.71730  0.87960  Biso   1.000  C
  H375     1.0000 0.10991  0.72969  0.73957  Biso   1.000  H
  N248     1.0000 0.91572  0.91941  0.26028  Biso   1.000  N
  O131     1.0000 0.72596  0.95538  0.20621  Biso   1.000  O
  H376     1.0000 0.96747  0.06189  0.38192  Biso   1.000  H
  C381     1.0000 0.01178  0.95562  0.31528  Biso   1.000  C
  C382     1.0000 0.16560  0.03377  0.26028  Biso   1.000  C
  O132     1.0000 0.35182  0.85579  0.89610  Biso   1.000  O
  N249     1.0000 0.21410  0.75840  0.92569  Biso   1.000  N
  C383     1.0000 0.96354  0.68227  0.99318  Biso   1.000  C
  C384     1.0000 0.96363  0.68227  0.99318  Biso   1.000  C
  H377     1.0000 0.13353  0.66011  0.86919  Biso   1.000  H
  H378     1.0000 0.13362  0.66011  0.86919  Biso   1.000  H
  C385     1.0000 0.89521  0.83500  0.25898  Biso   1.000  C
  N250     1.0000 0.12747  0.95670  0.27619  Biso   1.000  N
  H379     1.0000 0.01850  0.93072  0.37478  Biso   1.000  H
  O133     1.0000 0.26310  0.05230  0.23397  Biso   1.000  O
  O134     1.0000 0.26311  0.05230  0.23403  Biso   1.000  O
  C386     1.0000 0.26757  0.73398  0.00942  Biso   1.000  C
  H380     1.0000 0.87597  0.67167  0.98710  Biso   1.000  H
  N251     1.0000 0.99109  0.72421  0.07416  Biso   1.000  N
  N252     1.0000 0.99110  0.72421  0.07423  Biso   1.000  N
  H381     1.0000 0.00561  0.63027  0.99561  Biso   1.000  H
  N253     1.0000 0.96161  0.79360  0.19436  Biso   1.000  N
  N254     1.0000 0.96162  0.79360  0.19443  Biso   1.000  N
  H382     1.0000 0.91838  0.81290  0.31757  Biso   1.000  H
  H383     1.0000 0.80817  0.82487  0.24660  Biso   1.000  H
  H384     1.0000 0.91839  0.81290  0.31763  Biso   1.000  H
  C387     1.0000 0.20500  0.88837  0.27528  Biso   1.000  C
  N255     1.0000 0.20281  0.76459  0.08248  Biso   1.000  N
  H385     1.0000 0.35189  0.75310  0.01531  Biso   1.000  H
  H386     1.0000 0.26915  0.67513  0.01210  Biso   1.000  H
  H387     1.0000 0.26924  0.67513  0.01210  Biso   1.000  H
  C388     1.0000 0.90640  0.76239  0.11757  Biso   1.000  C
  C389     1.0000 0.10792  0.72159  0.12222  Biso   1.000  C
  C390     1.0000 0.08734  0.77103  0.20647  Biso   1.000  C
  C391     1.0000 0.08743  0.77103  0.20647  Biso   1.000  C
  N256     1.0000 0.17490  0.83441  0.20418  Biso   1.000  N
  H388     1.0000 0.28899  0.90672  0.27128  Biso   1.000  H
  H389     1.0000 0.20064  0.85930  0.33132  Biso   1.000  H
  H390     1.0000 0.20073  0.85930  0.33132  Biso   1.000  H
  C392     1.0000 0.24751  0.82613  0.13557  Biso   1.000  C
  O135     1.0000 0.79832  0.76751  0.09871  Biso   1.000  O
  H391     1.0000 0.13246  0.66571  0.13682  Biso   1.000  H
  H392     1.0000 0.10209  0.73773  0.26022  Biso   1.000  H
  O136     1.0000 0.34010  0.86300  0.12510  Biso   1.000  O
  C393     1.0000 0.59047  0.33071  0.78179  Biso   1.000  C
  N257     1.0000 0.52673  0.29110  0.70913  Biso   1.000  N
  N258     1.0000 0.57521  0.41577  0.78192  Biso   1.000  N
  H393     1.0000 0.56251  0.30897  0.83711  Biso   1.000  H
  H394     1.0000 0.67739  0.31850  0.78042  Biso   1.000  H
  C394     1.0000 0.40286  0.26477  0.70913  Biso   1.000  C
  C395     1.0000 0.58245  0.26459  0.63842  Biso   1.000  C
  C396     1.0000 0.47670  0.45568  0.82029  Biso   1.000  C
  C397     1.0000 0.66557  0.46623  0.76032  Biso   1.000  C
  C398     1.0000 0.38596  0.21730  0.62042  Biso   1.000  C
  N259     1.0000 0.31136  0.32541  0.69918  Biso   1.000  N
  H395     1.0000 0.39009  0.22969  0.76039  Biso   1.000  H
  N260     1.0000 0.50184  0.22570  0.58343  Biso   1.000  N
  O137     1.0000 0.69190  0.27210  0.62762  Biso   1.000  O
  N261     1.0000 0.36296  0.45229  0.76752  Biso   1.000  N
  H396     1.0000 0.46753  0.43811  0.88189  Biso   1.000  H
  C399     1.0000 0.51184  0.54438  0.81531  Biso   1.000  C
  N262     1.0000 0.62753  0.54330  0.77623  Biso   1.000  N
  O138     1.0000 0.76307  0.44770  0.73400  Biso   1.000  O
  N263     1.0000 0.28592  0.25840  0.57433  Biso   1.000  N
  H397     1.0000 0.36639  0.16011  0.63083  Biso   1.000  H
  C400     1.0000 0.23942  0.31802  0.62310  Biso   1.000  C
  C401     1.0000 0.28632  0.38391  0.76628  Biso   1.000  C
  C402     1.0000 0.53637  0.18227  0.50677  Biso   1.000  C
  C403     1.0000 0.32389  0.52722  0.74179  Biso   1.000  C
  N264     1.0000 0.41569  0.58059  0.76032  Biso   1.000  N
  H398     1.0000 0.51847  0.56928  0.87482  Biso   1.000  H
  C404     1.0000 0.70497  0.61163  0.77531  Biso   1.000  C
  C405     1.0000 0.23244  0.23398  0.49060  Biso   1.000  C
  O139     1.0000 0.14819  0.35579  0.60392  Biso   1.000  O
  H399     1.0000 0.20168  0.40178  0.75672  Biso   1.000  H
  H400     1.0000 0.29480  0.35782  0.82428  Biso   1.000  H
  N265     1.0000 0.50892  0.22421  0.42579  Biso   1.000  N
  H401     1.0000 0.62404  0.17167  0.51293  Biso   1.000  H
  H402     1.0000 0.49440  0.13027  0.50441  Biso   1.000  H
  O140     1.0000 0.22601  0.54462  0.70618  Biso   1.000  O
  C406     1.0000 0.39518  0.66500  0.75901  Biso   1.000  C
  N266     1.0000 0.67487  0.66559  0.70422  Biso   1.000  N
  H403     1.0000 0.78896  0.59328  0.77132  Biso   1.000  H
  H404     1.0000 0.70069  0.64070  0.83129  Biso   1.000  H
  N267     1.0000 0.29720  0.26459  0.41748  Biso   1.000  N
  H405     1.0000 0.14812  0.25310  0.48471  Biso   1.000  H
  H406     1.0000 0.23077  0.17513  0.48792  Biso   1.000  H
  C407     1.0000 0.39209  0.22159  0.37780  Biso   1.000  C
  C408     1.0000 0.59360  0.26239  0.38239  Biso   1.000  C
  N268     1.0000 0.46158  0.70640  0.69440  Biso   1.000  N
  H407     1.0000 0.41844  0.68710  0.81760  Biso   1.000  H
  H408     1.0000 0.30823  0.67513  0.74657  Biso   1.000  H
  C409     1.0000 0.74748  0.67387  0.63561  Biso   1.000  C
  C410     1.0000 0.58740  0.72897  0.70651  Biso   1.000  C
  C411     1.0000 0.25250  0.32613  0.36438  Biso   1.000  C
  C412     1.0000 0.41257  0.27103  0.29348  Biso   1.000  C
  H409     1.0000 0.36746  0.16571  0.36320  Biso   1.000  H
  N269     1.0000 0.53840  0.29360  0.30559  Biso   1.000  N
  O141     1.0000 0.70169  0.26751  0.40131  Biso   1.000  O
  C413     1.0000 0.40637  0.73761  0.61761  Biso   1.000  C
  N270     1.0000 0.70278  0.73541  0.58252  Biso   1.000  N
  O142     1.0000 0.84006  0.63700  0.62507  Biso   1.000  O
  C414     1.0000 0.60789  0.77841  0.62219  Biso   1.000  C
  H410     1.0000 0.60206  0.76227  0.76019  Biso   1.000  H
  N271     1.0000 0.32511  0.33441  0.29578  Biso   1.000  N
  O143     1.0000 0.15991  0.36300  0.37492  Biso   1.000  O
  H411     1.0000 0.39792  0.23773  0.23980  Biso   1.000  H
  C415     1.0000 0.60479  0.33500  0.24098  Biso   1.000  C
  N272     1.0000 0.49106  0.77579  0.57420  Biso   1.000  N
  O144     1.0000 0.29828  0.73249  0.59869  Biso   1.000  O
  C416     1.0000 0.76763  0.76602  0.50939  Biso   1.000  C
  H412     1.0000 0.63251  0.83429  0.63679  Biso   1.000  H
  C417     1.0000 0.29501  0.38837  0.22468  Biso   1.000  C
  N273     1.0000 0.58429  0.41941  0.23967  Biso   1.000  N
  H413     1.0000 0.58163  0.31290  0.18239  Biso   1.000  H
  H414     1.0000 0.69184  0.32487  0.25342  Biso   1.000  H
  C418     1.0000 0.46360  0.81773  0.49322  Biso   1.000  C
  N274     1.0000 0.71407  0.74160  0.42572  Biso   1.000  N
  H415     1.0000 0.85186  0.74690  0.51528  Biso   1.000  H
  H416     1.0000 0.76921  0.82487  0.51207  Biso   1.000  H
  N275     1.0000 0.37254  0.45670  0.22383  Biso   1.000  N
  H417     1.0000 0.21101  0.40672  0.22867  Biso   1.000  H
  H418     1.0000 0.29928  0.35930  0.16871  Biso   1.000  H
  C419     1.0000 0.48823  0.45562  0.18468  Biso   1.000  C
  C420     1.0000 0.67609  0.47278  0.25820  Biso   1.000  C
  N276     1.0000 0.49823  0.77430  0.41663  Biso   1.000  N
  H419     1.0000 0.37603  0.82833  0.48713  Biso   1.000  H
  H420     1.0000 0.50558  0.86973  0.49558  Biso   1.000  H
  C421     1.0000 0.76064  0.68198  0.37689  Biso   1.000  C
  C422     1.0000 0.61402  0.78270  0.37957  Biso   1.000  C
  C423     1.0000 0.33440  0.53377  0.23967  Biso   1.000  C
  C424     1.0000 0.52328  0.54432  0.17970  Biso   1.000  C
  H421     1.0000 0.48151  0.43072  0.12517  Biso   1.000  H
  N277     1.0000 0.63702  0.54771  0.23247  Biso   1.000  N
  O145     1.0000 0.77396  0.45538  0.29381  Biso   1.000  O
  C425     1.0000 0.41762  0.73541  0.36157  Biso   1.000  C
  N278     1.0000 0.68861  0.67459  0.30082  Biso   1.000  N
  O146     1.0000 0.85178  0.64421  0.39607  Biso   1.000  O
  C426     1.0000 0.59712  0.73523  0.29093  Biso   1.000  C
  H422     1.0000 0.63359  0.83989  0.36923  Biso   1.000  H
  O147     1.0000 0.23691  0.55230  0.26599  Biso   1.000  O
  N279     1.0000 0.42477  0.58423  0.21813  Biso   1.000  N
  H423     1.0000 0.53254  0.56189  0.11810  Biso   1.000  H
  C427     1.0000 0.71374  0.61609  0.23371  Biso   1.000  C
  N280     1.0000 0.47334  0.70890  0.29093  Biso   1.000  N
  O148     1.0000 0.30808  0.72790  0.37237  Biso   1.000  O
  H424     1.0000 0.60988  0.77031  0.23961  Biso   1.000  H
  C428     1.0000 0.40951  0.66929  0.21820  Biso   1.000  C
  H425     1.0000 0.79829  0.59822  0.24327  Biso   1.000  H
  H426     1.0000 0.70518  0.64218  0.17571  Biso   1.000  H
  H427     1.0000 0.43746  0.69103  0.16288  Biso   1.000  H
  H428     1.0000 0.32259  0.68150  0.21957  Biso   1.000  H
