data_image0
_cell_length_a       12.075
_cell_length_b       12.319
_cell_length_c       12.32
_cell_angle_alpha    106.54
_cell_angle_beta     97.09
_cell_angle_gamma    107.69

_symmetry_space_group_name_H-M    "P 1"
_symmetry_int_tables_number       1

loop_
  _symmetry_equiv_pos_as_xyz
  'x, y, z'

loop_
  _atom_site_label
  _atom_site_occupancy
  _atom_site_fract_x
  _atom_site_fract_y
  _atom_site_fract_z
  _atom_site_thermal_displace_type
  _atom_site_B_iso_or_equiv
  _atom_site_type_symbol
  O1       1.0000 0.92904  0.63850  0.66096  Biso   1.000  O
  C1       1.0000 0.83690  0.65212  0.68227  Biso   1.000  C
  C2       1.0000 0.83682  0.65212  0.68227  Biso   1.000  C
  N1       1.0000 0.78178  0.72117  0.64277  Biso   1.000  N
  N2       1.0000 0.78184  0.72109  0.64277  Biso   1.000  N
  N3       1.0000 0.78176  0.72109  0.64277  Biso   1.000  N
  N4       1.0000 0.78186  0.72117  0.64277  Biso   1.000  N
  N5       1.0000 0.77018  0.60241  0.74961  Biso   1.000  N
  N6       1.0000 0.77026  0.60241  0.74961  Biso   1.000  N
  O2       1.0000 0.92910  0.63842  0.66096  Biso   1.000  O
  O3       1.0000 0.92913  0.63850  0.66096  Biso   1.000  O
  O4       1.0000 0.92902  0.63842  0.66096  Biso   1.000  O
  C3       1.0000 0.65914  0.68948  0.65574  Biso   1.000  C
  C4       1.0000 0.81974  0.76977  0.55429  Biso   1.000  C
  C5       1.0000 0.65916  0.68956  0.65574  Biso   1.000  C
  C6       1.0000 0.81980  0.76968  0.55429  Biso   1.000  C
  C7       1.0000 0.65922  0.68948  0.65574  Biso   1.000  C
  C8       1.0000 0.81972  0.76968  0.55429  Biso   1.000  C
  C9       1.0000 0.65925  0.68956  0.65574  Biso   1.000  C
  C10      1.0000 0.81982  0.76977  0.55429  Biso   1.000  C
  C11      1.0000 0.65330  0.61306  0.73569  Biso   1.000  C
  C12      1.0000 0.65327  0.61298  0.73569  Biso   1.000  C
  C13      1.0000 0.65319  0.61298  0.73569  Biso   1.000  C
  C14      1.0000 0.80274  0.52378  0.80581  Biso   1.000  C
  C15      1.0000 0.80271  0.52369  0.80581  Biso   1.000  C
  C16      1.0000 0.80265  0.52378  0.80581  Biso   1.000  C
  C17      1.0000 0.80263  0.52369  0.80581  Biso   1.000  C
  N7       1.0000 0.62916  0.79077  0.72073  Biso   1.000  N
  H1       1.0000 0.60224  0.64339  0.58039  Biso   1.000  H
  N8       1.0000 0.62924  0.79077  0.72073  Biso   1.000  N
  H2       1.0000 0.60229  0.64330  0.58039  Biso   1.000  H
  N9       1.0000 0.62913  0.79068  0.72073  Biso   1.000  N
  H3       1.0000 0.60221  0.64330  0.58039  Biso   1.000  H
  H4       1.0000 0.60232  0.64339  0.58039  Biso   1.000  H
  N10      1.0000 0.86862  0.90125  0.59440  Biso   1.000  N
  H5       1.0000 0.75191  0.74124  0.48904  Biso   1.000  H
  H6       1.0000 0.87981  0.73890  0.52662  Biso   1.000  H
  N11      1.0000 0.86859  0.90116  0.59440  Biso   1.000  N
  H7       1.0000 0.75200  0.74124  0.48904  Biso   1.000  H
  H8       1.0000 0.87979  0.73882  0.52662  Biso   1.000  H
  N12      1.0000 0.86851  0.90116  0.59440  Biso   1.000  N
  H9       1.0000 0.87971  0.73882  0.52662  Biso   1.000  H
  N13      1.0000 0.62974  0.68540  0.84009  Biso   1.000  N
  H10      1.0000 0.58961  0.53351  0.70002  Biso   1.000  H
  H11      1.0000 0.58959  0.53343  0.70002  Biso   1.000  H
  N14      1.0000 0.62972  0.68531  0.84009  Biso   1.000  N
  N15      1.0000 0.62983  0.68540  0.84009  Biso   1.000  N
  H12      1.0000 0.58950  0.53343  0.70002  Biso   1.000  H
  N16      1.0000 0.84768  0.58112  0.93014  Biso   1.000  N
  H13      1.0000 0.86311  0.49845  0.77214  Biso   1.000  H
  H14      1.0000 0.73309  0.45165  0.79007  Biso   1.000  H
  N17      1.0000 0.84765  0.58104  0.93014  Biso   1.000  N
  H15      1.0000 0.73306  0.45156  0.79007  Biso   1.000  H
  N18      1.0000 0.84774  0.58104  0.93014  Biso   1.000  N
  H16      1.0000 0.86302  0.49845  0.77214  Biso   1.000  H
  C18      1.0000 0.61647  0.88419  0.67740  Biso   1.000  C
  C19      1.0000 0.61219  0.78645  0.82809  Biso   1.000  C
  C20      1.0000 0.61645  0.88411  0.67740  Biso   1.000  C
  C21      1.0000 0.61216  0.78636  0.82809  Biso   1.000  C
  C22      1.0000 0.61653  0.88411  0.67740  Biso   1.000  C
  C23      1.0000 0.61210  0.78645  0.82809  Biso   1.000  C
  C24      1.0000 0.61208  0.78636  0.82809  Biso   1.000  C
  C25      1.0000 0.98784  0.96676  0.62294  Biso   1.000  C
  C26      1.0000 0.79637  0.97668  0.60119  Biso   1.000  C
  C27      1.0000 0.98790  0.96668  0.62294  Biso   1.000  C
  C28      1.0000 0.79635  0.97659  0.60119  Biso   1.000  C
  C29      1.0000 0.98781  0.96668  0.62294  Biso   1.000  C
  C30      1.0000 0.79626  0.97659  0.60119  Biso   1.000  C
  C31      1.0000 0.98792  0.96676  0.62294  Biso   1.000  C
  C32      1.0000 0.60201  0.64277  0.93458  Biso   1.000  C
  C33      1.0000 0.60198  0.64268  0.93458  Biso   1.000  C
  C34      1.0000 0.60190  0.64268  0.93458  Biso   1.000  C
  C35      1.0000 0.96743  0.61988  0.98269  Biso   1.000  C
  C36      1.0000 0.96741  0.61980  0.98269  Biso   1.000  C
  C37      1.0000 0.96732  0.61980  0.98269  Biso   1.000  C
  C38      1.0000 0.77234  0.58234  0.01349  Biso   1.000  C
  C39      1.0000 0.77226  0.58234  0.01349  Biso   1.000  C
  N19      1.0000 0.72838  0.97845  0.69019  Biso   1.000  N
  H17      1.0000 0.56597  0.92052  0.71829  Biso   1.000  H
  H18      1.0000 0.57636  0.84732  0.59562  Biso   1.000  H
  N20      1.0000 0.72844  0.97837  0.69019  Biso   1.000  N
  N21      1.0000 0.72835  0.97837  0.69019  Biso   1.000  N
  H19      1.0000 0.57628  0.84732  0.59562  Biso   1.000  H
  N22      1.0000 0.72846  0.97845  0.69019  Biso   1.000  N
  H20      1.0000 0.56589  0.92052  0.71829  Biso   1.000  H
  O5       1.0000 0.58458  0.85958  0.89969  Biso   1.000  O
  O6       1.0000 0.58466  0.85953  0.89978  Biso   1.000  O
  O7       1.0000 0.58455  0.85950  0.89969  Biso   1.000  O
  O8       1.0000 0.58466  0.85958  0.89969  Biso   1.000  O
  O9       1.0000 0.58457  0.85953  0.89978  Biso   1.000  O
  O10      1.0000 0.06850  0.92566  0.61493  Biso   1.000  O
  O11      1.0000 0.06842  0.92566  0.61493  Biso   1.000  O
  O12      1.0000 0.06839  0.92558  0.61493  Biso   1.000  O
  N23      1.0000 0.00291  0.08798  0.65791  Biso   1.000  N
  N24      1.0000 0.00299  0.08798  0.65791  Biso   1.000  N
  N25      1.0000 0.00302  0.08807  0.65791  Biso   1.000  N
  N26      1.0000 0.00294  0.08807  0.65791  Biso   1.000  N
  H21      1.0000 0.74556  0.95831  0.52497  Biso   1.000  H
  H22      1.0000 0.74553  0.95823  0.52497  Biso   1.000  H
  H23      1.0000 0.74545  0.95823  0.52497  Biso   1.000  H
  C40      1.0000 0.89064  0.10749  0.64564  Biso   1.000  C
  C41      1.0000 0.89056  0.10749  0.64564  Biso   1.000  C
  H24      1.0000 0.55584  0.55661  0.90308  Biso   1.000  H
  H25      1.0000 0.55274  0.68331  0.97295  Biso   1.000  H
  H26      1.0000 0.55582  0.55652  0.90308  Biso   1.000  H
  H27      1.0000 0.55272  0.68323  0.97295  Biso   1.000  H
  H28      1.0000 0.55574  0.55652  0.90308  Biso   1.000  H
  H29      1.0000 0.55263  0.68323  0.97295  Biso   1.000  H
  N27      1.0000 0.70611  0.66334  0.01940  Biso   1.000  N
  N28      1.0000 0.70613  0.66342  0.01940  Biso   1.000  N
  N29      1.0000 0.70605  0.66342  0.01940  Biso   1.000  N
  N30      1.0000 0.97807  0.66473  0.10014  Biso   1.000  N
  N31      1.0000 0.97816  0.66473  0.10014  Biso   1.000  N
  N32      1.0000 0.97810  0.66482  0.10014  Biso   1.000  N
  O13      1.0000 0.04768  0.61325  0.93327  Biso   1.000  O
  O14      1.0000 0.04757  0.61316  0.93327  Biso   1.000  O
  O15      1.0000 0.04760  0.61325  0.93327  Biso   1.000  O
  O16      1.0000 0.04766  0.61316  0.93327  Biso   1.000  O
  C42      1.0000 0.86427  0.64174  0.13233  Biso   1.000  C
  H30      1.0000 0.71998  0.50018  0.00383  Biso   1.000  H
  C43      1.0000 0.86419  0.64174  0.13233  Biso   1.000  C
  H31      1.0000 0.72001  0.50027  0.00383  Biso   1.000  H
  C44      1.0000 0.76322  0.09141  0.77293  Biso   1.000  C
  C45      1.0000 0.76330  0.09141  0.77293  Biso   1.000  C
  C46      1.0000 0.11714  0.18374  0.68810  Biso   1.000  C
  C47      1.0000 0.11717  0.18382  0.68810  Biso   1.000  C
  C48      1.0000 0.11725  0.18382  0.68810  Biso   1.000  C
  N33      1.0000 0.86358  0.16469  0.75422  Biso   1.000  N
  N34      1.0000 0.86371  0.16481  0.75431  Biso   1.000  N
  N35      1.0000 0.86363  0.16481  0.75431  Biso   1.000  N
  H32      1.0000 0.88322  0.14964  0.59014  Biso   1.000  H
  H33      1.0000 0.88325  0.14973  0.59014  Biso   1.000  H
  H34      1.0000 0.88316  0.14973  0.59014  Biso   1.000  H
  H35      1.0000 0.88314  0.14964  0.59014  Biso   1.000  H
  C49      1.0000 0.74174  0.75508  0.12520  Biso   1.000  C
  C50      1.0000 0.74169  0.75517  0.12520  Biso   1.000  C
  C51      1.0000 0.74166  0.75508  0.12520  Biso   1.000  C
  C52      1.0000 0.74177  0.75517  0.12520  Biso   1.000  C
  C53      1.0000 0.08858  0.70509  0.18453  Biso   1.000  C
  C54      1.0000 0.08861  0.70517  0.18453  Biso   1.000  C
  N36      1.0000 0.83945  0.74931  0.18862  Biso   1.000  N
  N37      1.0000 0.83940  0.74940  0.18862  Biso   1.000  N
  N38      1.0000 0.83948  0.74940  0.18862  Biso   1.000  N
  N39      1.0000 0.83937  0.74931  0.18862  Biso   1.000  N
  H36      1.0000 0.85396  0.58729  0.17792  Biso   1.000  H
  H37      1.0000 0.85391  0.58737  0.17792  Biso   1.000  H
  H38      1.0000 0.85399  0.58737  0.17792  Biso   1.000  H
  H39      1.0000 0.85388  0.58729  0.17792  Biso   1.000  H
  O17      1.0000 0.71107  0.11995  0.84949  Biso   1.000  O
  O18      1.0000 0.71101  0.12004  0.84949  Biso   1.000  O
  O19      1.0000 0.71098  0.11995  0.84949  Biso   1.000  O
  O20      1.0000 0.71109  0.12004  0.84949  Biso   1.000  O
  N40      1.0000 0.16062  0.25068  0.81138  Biso   1.000  N
  H40      1.0000 0.11114  0.23976  0.64791  Biso   1.000  H
  H41      1.0000 0.17504  0.14927  0.66061  Biso   1.000  H
  N41      1.0000 0.16071  0.25068  0.81138  Biso   1.000  N
  H42      1.0000 0.11117  0.23985  0.64791  Biso   1.000  H
  H43      1.0000 0.17515  0.14935  0.66061  Biso   1.000  H
  H44      1.0000 0.17512  0.14927  0.66061  Biso   1.000  H
  H45      1.0000 0.17507  0.14935  0.66061  Biso   1.000  H
  C55      1.0000 0.91149  0.29490  0.81547  Biso   1.000  C
  C56      1.0000 0.91158  0.29490  0.81547  Biso   1.000  C
  O21      1.0000 0.69285  0.82890  0.15696  Biso   1.000  O
  O22      1.0000 0.69293  0.82890  0.15696  Biso   1.000  O
  N42      1.0000 0.13649  0.83529  0.24578  Biso   1.000  N
  H46      1.0000 0.07594  0.66415  0.24083  Biso   1.000  H
  H47      1.0000 0.14708  0.68213  0.14530  Biso   1.000  H
  H48      1.0000 0.07602  0.66415  0.24083  Biso   1.000  H
  H49      1.0000 0.14700  0.68213  0.14530  Biso   1.000  H
  C57      1.0000 0.88293  0.81625  0.31191  Biso   1.000  C
  C58      1.0000 0.13580  0.35825  0.86767  Biso   1.000  C
  C59      1.0000 0.25833  0.24490  0.87481  Biso   1.000  C
  C60      1.0000 0.13591  0.35833  0.86767  Biso   1.000  C
  C61      1.0000 0.25841  0.24490  0.87481  Biso   1.000  C
  C62      1.0000 0.13588  0.35825  0.86767  Biso   1.000  C
  C63      1.0000 0.13583  0.35833  0.86767  Biso   1.000  C
  H50      1.0000 0.92413  0.33584  0.75918  Biso   1.000  H
  H51      1.0000 0.85299  0.31786  0.85471  Biso   1.000  H
  H52      1.0000 0.92416  0.33592  0.75918  Biso   1.000  H
  H53      1.0000 0.85310  0.31795  0.85471  Biso   1.000  H
  H54      1.0000 0.92408  0.33592  0.75918  Biso   1.000  H
  H55      1.0000 0.85302  0.31795  0.85471  Biso   1.000  H
  H56      1.0000 0.92405  0.33584  0.75918  Biso   1.000  H
  N43      1.0000 0.02200  0.33525  0.89986  Biso   1.000  N
  N44      1.0000 0.02203  0.33534  0.89986  Biso   1.000  N
  N45      1.0000 0.02208  0.33525  0.89986  Biso   1.000  N
  C64      1.0000 0.23686  0.90858  0.22708  Biso   1.000  C
  C65      1.0000 0.10943  0.89250  0.35436  Biso   1.000  C
  C66      1.0000 0.23688  0.90866  0.22708  Biso   1.000  C
  C67      1.0000 0.10954  0.89253  0.35445  Biso   1.000  C
  C68      1.0000 0.10956  0.89262  0.35445  Biso   1.000  C
  C69      1.0000 0.10952  0.89250  0.35436  Biso   1.000  C
  C70      1.0000 0.10945  0.89253  0.35445  Biso   1.000  C
  C71      1.0000 0.10948  0.89262  0.35445  Biso   1.000  C
  N46      1.0000 0.99717  0.91200  0.34210  Biso   1.000  N
  H57      1.0000 0.88893  0.76023  0.35210  Biso   1.000  H
  H58      1.0000 0.82503  0.85072  0.33940  Biso   1.000  H
  N47      1.0000 0.99708  0.91200  0.34210  Biso   1.000  N
  H59      1.0000 0.82495  0.85072  0.33940  Biso   1.000  H
  H60      1.0000 0.14611  0.41270  0.82208  Biso   1.000  H
  C72      1.0000 0.22773  0.41765  0.98652  Biso   1.000  C
  H61      1.0000 0.14619  0.41270  0.82208  Biso   1.000  H
  C73      1.0000 0.22784  0.41773  0.98652  Biso   1.000  C
  C74      1.0000 0.22776  0.41773  0.98652  Biso   1.000  C
  C75      1.0000 0.22782  0.41765  0.98652  Biso   1.000  C
  O23      1.0000 0.30723  0.17109  0.84305  Biso   1.000  O
  N48      1.0000 0.29397  0.33665  0.98060  Biso   1.000  N
  O24      1.0000 0.30725  0.17118  0.84305  Biso   1.000  O
  N49      1.0000 0.29405  0.33665  0.98060  Biso   1.000  N
  O25      1.0000 0.30717  0.17118  0.84305  Biso   1.000  O
  C76      1.0000 0.03267  0.38019  0.01732  Biso   1.000  C
  C77      1.0000 0.03275  0.38019  0.01732  Biso   1.000  C
  O26      1.0000 0.28901  0.88003  0.15052  Biso   1.000  O
  O27      1.0000 0.28909  0.88003  0.15052  Biso   1.000  O
  N50      1.0000 0.27172  0.02162  0.30982  Biso   1.000  N
  N51      1.0000 0.27175  0.02170  0.30982  Biso   1.000  N
  N52      1.0000 0.27164  0.02162  0.30982  Biso   1.000  N
  N53      1.0000 0.27166  0.02170  0.30982  Biso   1.000  N
  H62      1.0000 0.11686  0.85035  0.40987  Biso   1.000  H
  H63      1.0000 0.11694  0.85035  0.40987  Biso   1.000  H
  C78      1.0000 0.20373  0.02339  0.39882  Biso   1.000  C
  C79      1.0000 0.20384  0.02348  0.39882  Biso   1.000  C
  C80      1.0000 0.20375  0.02348  0.39882  Biso   1.000  C
  C81      1.0000 0.20381  0.02339  0.39882  Biso   1.000  C
  C82      1.0000 0.01226  0.03331  0.37707  Biso   1.000  C
  C83      1.0000 0.01218  0.03331  0.37707  Biso   1.000  C
  N54      1.0000 0.15242  0.41895  0.06987  Biso   1.000  N
  N55      1.0000 0.15250  0.41895  0.06987  Biso   1.000  N
  H64      1.0000 0.28009  0.49981  0.99618  Biso   1.000  H
  H65      1.0000 0.28017  0.49981  0.99618  Biso   1.000  H
  C84      1.0000 0.39809  0.35731  0.06543  Biso   1.000  C
  C85      1.0000 0.39818  0.35731  0.06543  Biso   1.000  C
  C86      1.0000 0.39807  0.35722  0.06543  Biso   1.000  C
  O28      1.0000 0.95250  0.38682  0.06673  Biso   1.000  O
  O29      1.0000 0.95242  0.38682  0.06673  Biso   1.000  O
  C87      1.0000 0.38363  0.11588  0.32261  Biso   1.000  C
  C88      1.0000 0.38374  0.11596  0.32261  Biso   1.000  C
  C89      1.0000 0.38365  0.11596  0.32261  Biso   1.000  C
  C90      1.0000 0.38371  0.11588  0.32261  Biso   1.000  C
  N56      1.0000 0.13148  0.09882  0.40561  Biso   1.000  N
  N57      1.0000 0.13157  0.09882  0.40561  Biso   1.000  N
  H66      1.0000 0.25455  0.04176  0.47504  Biso   1.000  H
  H67      1.0000 0.25463  0.04176  0.47504  Biso   1.000  H
  H68      1.0000 0.25452  0.04167  0.47504  Biso   1.000  H
  O30      1.0000 0.93168  0.07441  0.38507  Biso   1.000  O
  O31      1.0000 0.93160  0.07441  0.38507  Biso   1.000  O
  O32      1.0000 0.93166  0.07432  0.38507  Biso   1.000  O
  O33      1.0000 0.93157  0.07432  0.38507  Biso   1.000  O
  C91      1.0000 0.19737  0.47629  0.19419  Biso   1.000  C
  C92      1.0000 0.19745  0.47629  0.19419  Biso   1.000  C
  N58      1.0000 0.37036  0.31467  0.15991  Biso   1.000  N
  H69      1.0000 0.44426  0.44347  0.09692  Biso   1.000  H
  H70      1.0000 0.44736  0.31676  0.02706  Biso   1.000  H
  N59      1.0000 0.37038  0.31470  0.16000  Biso   1.000  N
  H71      1.0000 0.44437  0.44355  0.09692  Biso   1.000  H
  H72      1.0000 0.44746  0.31679  0.02715  Biso   1.000  H
  N60      1.0000 0.37035  0.31462  0.16000  Biso   1.000  N
  H73      1.0000 0.44738  0.31679  0.02715  Biso   1.000  H
  N61      1.0000 0.37044  0.31467  0.15991  Biso   1.000  N
  H74      1.0000 0.44434  0.44347  0.09692  Biso   1.000  H
  H75      1.0000 0.44744  0.31676  0.02706  Biso   1.000  H
  H76      1.0000 0.44428  0.44355  0.09692  Biso   1.000  H
  N62      1.0000 0.37094  0.20930  0.27928  Biso   1.000  N
  H77      1.0000 0.43413  0.07955  0.28172  Biso   1.000  H
  H78      1.0000 0.42374  0.15275  0.40439  Biso   1.000  H
  H79      1.0000 0.43421  0.07955  0.28172  Biso   1.000  H
  H80      1.0000 0.42383  0.15275  0.40439  Biso   1.000  H
  N63      1.0000 0.37083  0.20922  0.27928  Biso   1.000  N
  H81      1.0000 0.43411  0.07947  0.28172  Biso   1.000  H
  H82      1.0000 0.42372  0.15267  0.40439  Biso   1.000  H
  N64      1.0000 0.37086  0.20930  0.27928  Biso   1.000  N
  N65      1.0000 0.37092  0.20922  0.27928  Biso   1.000  N
  C93      1.0000 0.18036  0.23030  0.44572  Biso   1.000  C
  C94      1.0000 0.18039  0.23039  0.44572  Biso   1.000  C
  C95      1.0000 0.18028  0.23030  0.44572  Biso   1.000  C
  N66      1.0000 0.22992  0.39766  0.25040  Biso   1.000  N
  H83      1.0000 0.13699  0.50162  0.22786  Biso   1.000  H
  H84      1.0000 0.26701  0.54843  0.20994  Biso   1.000  H
  H85      1.0000 0.13710  0.50165  0.22795  Biso   1.000  H
  H86      1.0000 0.26709  0.54843  0.20994  Biso   1.000  H
  N67      1.0000 0.22981  0.39758  0.25040  Biso   1.000  N
  H87      1.0000 0.13699  0.50157  0.22795  Biso   1.000  H
  H88      1.0000 0.26698  0.54834  0.20994  Biso   1.000  H
  N68      1.0000 0.22984  0.39766  0.25040  Biso   1.000  N
  H89      1.0000 0.13701  0.50165  0.22795  Biso   1.000  H
  N69      1.0000 0.22990  0.39758  0.25040  Biso   1.000  N
  C96      1.0000 0.38791  0.21362  0.17192  Biso   1.000  C
  C97      1.0000 0.34680  0.38701  0.26432  Biso   1.000  C
  C98      1.0000 0.38800  0.21362  0.17192  Biso   1.000  C
  C99      1.0000 0.34688  0.38701  0.26432  Biso   1.000  C
  C100     1.0000 0.38789  0.21354  0.17192  Biso   1.000  C
  C101     1.0000 0.34677  0.38693  0.26432  Biso   1.000  C
  C102     1.0000 0.34094  0.31051  0.34427  Biso   1.000  C
  C103     1.0000 0.34083  0.31042  0.34427  Biso   1.000  C
  C104     1.0000 0.34085  0.31051  0.34427  Biso   1.000  C
  C105     1.0000 0.34091  0.31042  0.34427  Biso   1.000  C
  N70      1.0000 0.21832  0.27890  0.35723  Biso   1.000  N
  H90      1.0000 0.24819  0.25883  0.51097  Biso   1.000  H
  H91      1.0000 0.12029  0.26117  0.47338  Biso   1.000  H
  H92      1.0000 0.24821  0.25886  0.51105  Biso   1.000  H
  H93      1.0000 0.12040  0.26125  0.47338  Biso   1.000  H
  N71      1.0000 0.21824  0.27890  0.35723  Biso   1.000  N
  H94      1.0000 0.24810  0.25878  0.51105  Biso   1.000  H
  H95      1.0000 0.24813  0.25886  0.51105  Biso   1.000  H
  H96      1.0000 0.12031  0.26125  0.47338  Biso   1.000  H
  H97      1.0000 0.24810  0.25883  0.51097  Biso   1.000  H
  H98      1.0000 0.24818  0.25878  0.51105  Biso   1.000  H
  C106     1.0000 0.16320  0.34795  0.31774  Biso   1.000  C
  C107     1.0000 0.16328  0.34795  0.31774  Biso   1.000  C
  C108     1.0000 0.16317  0.34787  0.31774  Biso   1.000  C
  C109     1.0000 0.16326  0.34787  0.31774  Biso   1.000  C
  O34      1.0000 0.41552  0.14049  0.10032  Biso   1.000  O
  O35      1.0000 0.41544  0.14049  0.10032  Biso   1.000  O
  H99      1.0000 0.41049  0.46656  0.29999  Biso   1.000  H
  H100     1.0000 0.41060  0.46664  0.29999  Biso   1.000  H
  H101     1.0000 0.41051  0.46664  0.29999  Biso   1.000  H
  H102     1.0000 0.41057  0.46656  0.29999  Biso   1.000  H
  H103     1.0000 0.39787  0.35668  0.41961  Biso   1.000  H
  H104     1.0000 0.39789  0.35677  0.41961  Biso   1.000  H
  H105     1.0000 0.39778  0.35668  0.41961  Biso   1.000  H
  H106     1.0000 0.39781  0.35677  0.41961  Biso   1.000  H
  O36      1.0000 0.07106  0.36157  0.33905  Biso   1.000  O
  O37      1.0000 0.07097  0.36157  0.33905  Biso   1.000  O
  O38      1.0000 0.92904  0.63850  0.66096  Biso   1.000  O
  C110     1.0000 0.83690  0.65212  0.68227  Biso   1.000  C
  C111     1.0000 0.83682  0.65212  0.68227  Biso   1.000  C
  N72      1.0000 0.78176  0.72109  0.64277  Biso   1.000  N
  N73      1.0000 0.78178  0.72117  0.64277  Biso   1.000  N
  N74      1.0000 0.78184  0.72109  0.64277  Biso   1.000  N
  N75      1.0000 0.78186  0.72117  0.64277  Biso   1.000  N
  N76      1.0000 0.77018  0.60241  0.74961  Biso   1.000  N
  N77      1.0000 0.77026  0.60241  0.74961  Biso   1.000  N
  O39      1.0000 0.92910  0.63842  0.66096  Biso   1.000  O
  O40      1.0000 0.92902  0.63842  0.66096  Biso   1.000  O
  O41      1.0000 0.92913  0.63850  0.66096  Biso   1.000  O
  C112     1.0000 0.65914  0.68948  0.65574  Biso   1.000  C
  C113     1.0000 0.65925  0.68956  0.65574  Biso   1.000  C
  C114     1.0000 0.65916  0.68956  0.65574  Biso   1.000  C
  C115     1.0000 0.65922  0.68948  0.65574  Biso   1.000  C
  C116     1.0000 0.81980  0.76968  0.55429  Biso   1.000  C
  C117     1.0000 0.81972  0.76968  0.55429  Biso   1.000  C
  C118     1.0000 0.81974  0.76977  0.55429  Biso   1.000  C
  C119     1.0000 0.81982  0.76977  0.55429  Biso   1.000  C
  C120     1.0000 0.65327  0.61298  0.73569  Biso   1.000  C
  C121     1.0000 0.65330  0.61306  0.73569  Biso   1.000  C
  C122     1.0000 0.65319  0.61298  0.73569  Biso   1.000  C
  C123     1.0000 0.80271  0.52369  0.80581  Biso   1.000  C
  C124     1.0000 0.80274  0.52378  0.80581  Biso   1.000  C
  C125     1.0000 0.80265  0.52378  0.80581  Biso   1.000  C
  C126     1.0000 0.80263  0.52369  0.80581  Biso   1.000  C
  N78      1.0000 0.62916  0.79077  0.72073  Biso   1.000  N
  H107     1.0000 0.60229  0.64330  0.58039  Biso   1.000  H
  N79      1.0000 0.62924  0.79077  0.72073  Biso   1.000  N
  H108     1.0000 0.60221  0.64330  0.58039  Biso   1.000  H
  N80      1.0000 0.62913  0.79068  0.72073  Biso   1.000  N
  H109     1.0000 0.60224  0.64339  0.58039  Biso   1.000  H
  H110     1.0000 0.60232  0.64339  0.58039  Biso   1.000  H
  N81      1.0000 0.86859  0.90116  0.59440  Biso   1.000  N
  H111     1.0000 0.75200  0.74124  0.48904  Biso   1.000  H
  H112     1.0000 0.87979  0.73882  0.52662  Biso   1.000  H
  N82      1.0000 0.86862  0.90125  0.59440  Biso   1.000  N
  H113     1.0000 0.87981  0.73890  0.52662  Biso   1.000  H
  H114     1.0000 0.75191  0.74124  0.48904  Biso   1.000  H
  N83      1.0000 0.86851  0.90116  0.59440  Biso   1.000  N
  H115     1.0000 0.87971  0.73882  0.52662  Biso   1.000  H
  N84      1.0000 0.62974  0.68540  0.84009  Biso   1.000  N
  H116     1.0000 0.58959  0.53343  0.70002  Biso   1.000  H
  H117     1.0000 0.58961  0.53351  0.70002  Biso   1.000  H
  N85      1.0000 0.62972  0.68531  0.84009  Biso   1.000  N
  N86      1.0000 0.62983  0.68540  0.84009  Biso   1.000  N
  H118     1.0000 0.58950  0.53343  0.70002  Biso   1.000  H
  H119     1.0000 0.86311  0.49845  0.77214  Biso   1.000  H
  H120     1.0000 0.73309  0.45165  0.79007  Biso   1.000  H
  N87      1.0000 0.84765  0.58104  0.93014  Biso   1.000  N
  N88      1.0000 0.84768  0.58112  0.93014  Biso   1.000  N
  H121     1.0000 0.86302  0.49845  0.77214  Biso   1.000  H
  H122     1.0000 0.73306  0.45156  0.79007  Biso   1.000  H
  N89      1.0000 0.84774  0.58104  0.93014  Biso   1.000  N
  C127     1.0000 0.61219  0.78645  0.82809  Biso   1.000  C
  C128     1.0000 0.61645  0.88411  0.67740  Biso   1.000  C
  C129     1.0000 0.61647  0.88419  0.67740  Biso   1.000  C
  C130     1.0000 0.61216  0.78636  0.82809  Biso   1.000  C
  C131     1.0000 0.61653  0.88411  0.67740  Biso   1.000  C
  C132     1.0000 0.61210  0.78645  0.82809  Biso   1.000  C
  C133     1.0000 0.61208  0.78636  0.82809  Biso   1.000  C
  C134     1.0000 0.79635  0.97659  0.60119  Biso   1.000  C
  C135     1.0000 0.98790  0.96668  0.62294  Biso   1.000  C
  C136     1.0000 0.79637  0.97668  0.60119  Biso   1.000  C
  C137     1.0000 0.98781  0.96668  0.62294  Biso   1.000  C
  C138     1.0000 0.79626  0.97659  0.60119  Biso   1.000  C
  C139     1.0000 0.98784  0.96676  0.62294  Biso   1.000  C
  C140     1.0000 0.98792  0.96676  0.62294  Biso   1.000  C
  C141     1.0000 0.60198  0.64268  0.93458  Biso   1.000  C
  C142     1.0000 0.60201  0.64277  0.93458  Biso   1.000  C
  C143     1.0000 0.60190  0.64268  0.93458  Biso   1.000  C
  C144     1.0000 0.77234  0.58234  0.01349  Biso   1.000  C
  C145     1.0000 0.77226  0.58234  0.01349  Biso   1.000  C
  C146     1.0000 0.96741  0.61980  0.98269  Biso   1.000  C
  C147     1.0000 0.96743  0.61988  0.98269  Biso   1.000  C
  C148     1.0000 0.96732  0.61980  0.98269  Biso   1.000  C
  O42      1.0000 0.58466  0.85953  0.89978  Biso   1.000  O
  O43      1.0000 0.58455  0.85950  0.89969  Biso   1.000  O
  O44      1.0000 0.58457  0.85953  0.89978  Biso   1.000  O
  O45      1.0000 0.58458  0.85958  0.89969  Biso   1.000  O
  O46      1.0000 0.58466  0.85958  0.89969  Biso   1.000  O
  H123     1.0000 0.56597  0.92052  0.71829  Biso   1.000  H
  H124     1.0000 0.57636  0.84732  0.59562  Biso   1.000  H
  N90      1.0000 0.72844  0.97837  0.69019  Biso   1.000  N
  N91      1.0000 0.72835  0.97837  0.69019  Biso   1.000  N
  H125     1.0000 0.57628  0.84732  0.59562  Biso   1.000  H
  N92      1.0000 0.72838  0.97845  0.69019  Biso   1.000  N
  N93      1.0000 0.72846  0.97845  0.69019  Biso   1.000  N
  H126     1.0000 0.56589  0.92052  0.71829  Biso   1.000  H
  H127     1.0000 0.74556  0.95831  0.52497  Biso   1.000  H
  H128     1.0000 0.74553  0.95823  0.52497  Biso   1.000  H
  H129     1.0000 0.74545  0.95823  0.52497  Biso   1.000  H
  C149     1.0000 0.89064  0.10749  0.64564  Biso   1.000  C
  C150     1.0000 0.89056  0.10749  0.64564  Biso   1.000  C
  O47      1.0000 0.06850  0.92566  0.61493  Biso   1.000  O
  O48      1.0000 0.06842  0.92566  0.61493  Biso   1.000  O
  O49      1.0000 0.06839  0.92558  0.61493  Biso   1.000  O
  N94      1.0000 0.00291  0.08798  0.65791  Biso   1.000  N
  N95      1.0000 0.00299  0.08798  0.65791  Biso   1.000  N
  N96      1.0000 0.00302  0.08807  0.65791  Biso   1.000  N
  N97      1.0000 0.00294  0.08807  0.65791  Biso   1.000  N
  H130     1.0000 0.55582  0.55652  0.90308  Biso   1.000  H
  H131     1.0000 0.55272  0.68323  0.97295  Biso   1.000  H
  H132     1.0000 0.55584  0.55661  0.90308  Biso   1.000  H
  H133     1.0000 0.55274  0.68331  0.97295  Biso   1.000  H
  H134     1.0000 0.55574  0.55652  0.90308  Biso   1.000  H
  H135     1.0000 0.55263  0.68323  0.97295  Biso   1.000  H
  N98      1.0000 0.70611  0.66334  0.01940  Biso   1.000  N
  N99      1.0000 0.70613  0.66342  0.01940  Biso   1.000  N
  N100     1.0000 0.70605  0.66342  0.01940  Biso   1.000  N
  C151     1.0000 0.86427  0.64174  0.13233  Biso   1.000  C
  H136     1.0000 0.71998  0.50018  0.00383  Biso   1.000  H
  C152     1.0000 0.86419  0.64174  0.13233  Biso   1.000  C
  H137     1.0000 0.72001  0.50027  0.00383  Biso   1.000  H
  N101     1.0000 0.97807  0.66473  0.10014  Biso   1.000  N
  N102     1.0000 0.97816  0.66473  0.10014  Biso   1.000  N
  N103     1.0000 0.97810  0.66482  0.10014  Biso   1.000  N
  O50      1.0000 0.04768  0.61325  0.93327  Biso   1.000  O
  O51      1.0000 0.04757  0.61316  0.93327  Biso   1.000  O
  O52      1.0000 0.04760  0.61325  0.93327  Biso   1.000  O
  O53      1.0000 0.04766  0.61316  0.93327  Biso   1.000  O
  C153     1.0000 0.76322  0.09141  0.77293  Biso   1.000  C
  C154     1.0000 0.76330  0.09141  0.77293  Biso   1.000  C
  N104     1.0000 0.86358  0.16469  0.75422  Biso   1.000  N
  N105     1.0000 0.86371  0.16481  0.75431  Biso   1.000  N
  N106     1.0000 0.86363  0.16481  0.75431  Biso   1.000  N
  H138     1.0000 0.88322  0.14964  0.59014  Biso   1.000  H
  H139     1.0000 0.88325  0.14973  0.59014  Biso   1.000  H
  H140     1.0000 0.88316  0.14973  0.59014  Biso   1.000  H
  H141     1.0000 0.88314  0.14964  0.59014  Biso   1.000  H
  C155     1.0000 0.11714  0.18374  0.68810  Biso   1.000  C
  C156     1.0000 0.11717  0.18382  0.68810  Biso   1.000  C
  C157     1.0000 0.11725  0.18382  0.68810  Biso   1.000  C
  C158     1.0000 0.74174  0.75508  0.12520  Biso   1.000  C
  C159     1.0000 0.74169  0.75517  0.12520  Biso   1.000  C
  C160     1.0000 0.74166  0.75508  0.12520  Biso   1.000  C
  C161     1.0000 0.74177  0.75517  0.12520  Biso   1.000  C
  N107     1.0000 0.83945  0.74931  0.18862  Biso   1.000  N
  N108     1.0000 0.83940  0.74940  0.18862  Biso   1.000  N
  N109     1.0000 0.83948  0.74940  0.18862  Biso   1.000  N
  N110     1.0000 0.83937  0.74931  0.18862  Biso   1.000  N
  H142     1.0000 0.85396  0.58729  0.17792  Biso   1.000  H
  H143     1.0000 0.85391  0.58737  0.17792  Biso   1.000  H
  H144     1.0000 0.85399  0.58737  0.17792  Biso   1.000  H
  H145     1.0000 0.85388  0.58729  0.17792  Biso   1.000  H
  C162     1.0000 0.08858  0.70509  0.18453  Biso   1.000  C
  C163     1.0000 0.08861  0.70517  0.18453  Biso   1.000  C
  O54      1.0000 0.71107  0.11995  0.84949  Biso   1.000  O
  O55      1.0000 0.71101  0.12004  0.84949  Biso   1.000  O
  O56      1.0000 0.71098  0.11995  0.84949  Biso   1.000  O
  O57      1.0000 0.71109  0.12004  0.84949  Biso   1.000  O
  C164     1.0000 0.91149  0.29490  0.81547  Biso   1.000  C
  C165     1.0000 0.91158  0.29490  0.81547  Biso   1.000  C
  N111     1.0000 0.16062  0.25068  0.81138  Biso   1.000  N
  H146     1.0000 0.11114  0.23976  0.64791  Biso   1.000  H
  H147     1.0000 0.17504  0.14927  0.66061  Biso   1.000  H
  N112     1.0000 0.16071  0.25068  0.81138  Biso   1.000  N
  H148     1.0000 0.11117  0.23985  0.64791  Biso   1.000  H
  H149     1.0000 0.17515  0.14935  0.66061  Biso   1.000  H
  H150     1.0000 0.17512  0.14927  0.66061  Biso   1.000  H
  H151     1.0000 0.17507  0.14935  0.66061  Biso   1.000  H
  O58      1.0000 0.69285  0.82890  0.15696  Biso   1.000  O
  O59      1.0000 0.69293  0.82890  0.15696  Biso   1.000  O
  C166     1.0000 0.88293  0.81625  0.31191  Biso   1.000  C
  N113     1.0000 0.13649  0.83529  0.24578  Biso   1.000  N
  H152     1.0000 0.07594  0.66415  0.24083  Biso   1.000  H
  H153     1.0000 0.14708  0.68213  0.14530  Biso   1.000  H
  H154     1.0000 0.07602  0.66415  0.24083  Biso   1.000  H
  H155     1.0000 0.14700  0.68213  0.14530  Biso   1.000  H
  H156     1.0000 0.92413  0.33584  0.75918  Biso   1.000  H
  H157     1.0000 0.85299  0.31786  0.85471  Biso   1.000  H
  H158     1.0000 0.92416  0.33592  0.75918  Biso   1.000  H
  H159     1.0000 0.85310  0.31795  0.85471  Biso   1.000  H
  H160     1.0000 0.92408  0.33592  0.75918  Biso   1.000  H
  H161     1.0000 0.85302  0.31795  0.85471  Biso   1.000  H
  H162     1.0000 0.92405  0.33584  0.75918  Biso   1.000  H
  N114     1.0000 0.02200  0.33525  0.89986  Biso   1.000  N
  N115     1.0000 0.02203  0.33534  0.89986  Biso   1.000  N
  N116     1.0000 0.02208  0.33525  0.89986  Biso   1.000  N
  C167     1.0000 0.13580  0.35825  0.86767  Biso   1.000  C
  C168     1.0000 0.25833  0.24490  0.87481  Biso   1.000  C
  C169     1.0000 0.13591  0.35833  0.86767  Biso   1.000  C
  C170     1.0000 0.25841  0.24490  0.87481  Biso   1.000  C
  C171     1.0000 0.13588  0.35825  0.86767  Biso   1.000  C
  C172     1.0000 0.13583  0.35833  0.86767  Biso   1.000  C
  N117     1.0000 0.99717  0.91200  0.34210  Biso   1.000  N
  H163     1.0000 0.88893  0.76023  0.35210  Biso   1.000  H
  H164     1.0000 0.82503  0.85072  0.33940  Biso   1.000  H
  N118     1.0000 0.99708  0.91200  0.34210  Biso   1.000  N
  H165     1.0000 0.82495  0.85072  0.33940  Biso   1.000  H
  C173     1.0000 0.10943  0.89250  0.35436  Biso   1.000  C
  C174     1.0000 0.10954  0.89253  0.35445  Biso   1.000  C
  C175     1.0000 0.10956  0.89262  0.35445  Biso   1.000  C
  C176     1.0000 0.10952  0.89250  0.35436  Biso   1.000  C
  C177     1.0000 0.10945  0.89253  0.35445  Biso   1.000  C
  C178     1.0000 0.10948  0.89262  0.35445  Biso   1.000  C
  C179     1.0000 0.23686  0.90858  0.22708  Biso   1.000  C
  C180     1.0000 0.23688  0.90866  0.22708  Biso   1.000  C
  C181     1.0000 0.03267  0.38019  0.01732  Biso   1.000  C
  C182     1.0000 0.03275  0.38019  0.01732  Biso   1.000  C
  H166     1.0000 0.14611  0.41270  0.82208  Biso   1.000  H
  C183     1.0000 0.22773  0.41765  0.98652  Biso   1.000  C
  H167     1.0000 0.14619  0.41270  0.82208  Biso   1.000  H
  C184     1.0000 0.22784  0.41773  0.98652  Biso   1.000  C
  C185     1.0000 0.22776  0.41773  0.98652  Biso   1.000  C
  C186     1.0000 0.22782  0.41765  0.98652  Biso   1.000  C
  O60      1.0000 0.30723  0.17109  0.84305  Biso   1.000  O
  N119     1.0000 0.29397  0.33665  0.98060  Biso   1.000  N
  O61      1.0000 0.30725  0.17118  0.84305  Biso   1.000  O
  N120     1.0000 0.29405  0.33665  0.98060  Biso   1.000  N
  O62      1.0000 0.30717  0.17118  0.84305  Biso   1.000  O
  C187     1.0000 0.01226  0.03331  0.37707  Biso   1.000  C
  C188     1.0000 0.01218  0.03331  0.37707  Biso   1.000  C
  H168     1.0000 0.11686  0.85035  0.40987  Biso   1.000  H
  H169     1.0000 0.11694  0.85035  0.40987  Biso   1.000  H
  C189     1.0000 0.20373  0.02339  0.39882  Biso   1.000  C
  C190     1.0000 0.20384  0.02348  0.39882  Biso   1.000  C
  C191     1.0000 0.20375  0.02348  0.39882  Biso   1.000  C
  C192     1.0000 0.20381  0.02339  0.39882  Biso   1.000  C
  O63      1.0000 0.28901  0.88003  0.15052  Biso   1.000  O
  O64      1.0000 0.28909  0.88003  0.15052  Biso   1.000  O
  N121     1.0000 0.27172  0.02162  0.30982  Biso   1.000  N
  N122     1.0000 0.27175  0.02170  0.30982  Biso   1.000  N
  N123     1.0000 0.27164  0.02162  0.30982  Biso   1.000  N
  N124     1.0000 0.27166  0.02170  0.30982  Biso   1.000  N
  O65      1.0000 0.95250  0.38682  0.06673  Biso   1.000  O
  O66      1.0000 0.95242  0.38682  0.06673  Biso   1.000  O
  N125     1.0000 0.15242  0.41895  0.06987  Biso   1.000  N
  N126     1.0000 0.15250  0.41895  0.06987  Biso   1.000  N
  H170     1.0000 0.28009  0.49981  0.99618  Biso   1.000  H
  H171     1.0000 0.28017  0.49981  0.99618  Biso   1.000  H
  C193     1.0000 0.39809  0.35731  0.06543  Biso   1.000  C
  C194     1.0000 0.39818  0.35731  0.06543  Biso   1.000  C
  C195     1.0000 0.39807  0.35722  0.06543  Biso   1.000  C
  O67      1.0000 0.93168  0.07441  0.38507  Biso   1.000  O
  O68      1.0000 0.93160  0.07441  0.38507  Biso   1.000  O
  O69      1.0000 0.93166  0.07432  0.38507  Biso   1.000  O
  O70      1.0000 0.93157  0.07432  0.38507  Biso   1.000  O
  N127     1.0000 0.13148  0.09882  0.40561  Biso   1.000  N
  N128     1.0000 0.13157  0.09882  0.40561  Biso   1.000  N
  H172     1.0000 0.25455  0.04176  0.47504  Biso   1.000  H
  H173     1.0000 0.25463  0.04176  0.47504  Biso   1.000  H
  H174     1.0000 0.25452  0.04167  0.47504  Biso   1.000  H
  C196     1.0000 0.38363  0.11588  0.32261  Biso   1.000  C
  C197     1.0000 0.38374  0.11596  0.32261  Biso   1.000  C
  C198     1.0000 0.38365  0.11596  0.32261  Biso   1.000  C
  C199     1.0000 0.38371  0.11588  0.32261  Biso   1.000  C
  C200     1.0000 0.19737  0.47629  0.19419  Biso   1.000  C
  C201     1.0000 0.19745  0.47629  0.19419  Biso   1.000  C
  N129     1.0000 0.37036  0.31467  0.15991  Biso   1.000  N
  H175     1.0000 0.44426  0.44347  0.09692  Biso   1.000  H
  H176     1.0000 0.44736  0.31676  0.02706  Biso   1.000  H
  N130     1.0000 0.37038  0.31470  0.16000  Biso   1.000  N
  H177     1.0000 0.44437  0.44355  0.09692  Biso   1.000  H
  H178     1.0000 0.44746  0.31679  0.02715  Biso   1.000  H
  N131     1.0000 0.37035  0.31462  0.16000  Biso   1.000  N
  H179     1.0000 0.44738  0.31679  0.02715  Biso   1.000  H
  N132     1.0000 0.37044  0.31467  0.15991  Biso   1.000  N
  H180     1.0000 0.44434  0.44347  0.09692  Biso   1.000  H
  H181     1.0000 0.44744  0.31676  0.02706  Biso   1.000  H
  H182     1.0000 0.44428  0.44355  0.09692  Biso   1.000  H
  C202     1.0000 0.18036  0.23030  0.44572  Biso   1.000  C
  C203     1.0000 0.18039  0.23039  0.44572  Biso   1.000  C
  C204     1.0000 0.18028  0.23030  0.44572  Biso   1.000  C
  N133     1.0000 0.37094  0.20930  0.27928  Biso   1.000  N
  H183     1.0000 0.43413  0.07955  0.28172  Biso   1.000  H
  H184     1.0000 0.42374  0.15275  0.40439  Biso   1.000  H
  H185     1.0000 0.43421  0.07955  0.28172  Biso   1.000  H
  H186     1.0000 0.42383  0.15275  0.40439  Biso   1.000  H
  N134     1.0000 0.37083  0.20922  0.27928  Biso   1.000  N
  H187     1.0000 0.43411  0.07947  0.28172  Biso   1.000  H
  H188     1.0000 0.42372  0.15267  0.40439  Biso   1.000  H
  N135     1.0000 0.37086  0.20930  0.27928  Biso   1.000  N
  N136     1.0000 0.37092  0.20922  0.27928  Biso   1.000  N
  N137     1.0000 0.22992  0.39766  0.25040  Biso   1.000  N
  H189     1.0000 0.13699  0.50162  0.22786  Biso   1.000  H
  H190     1.0000 0.26701  0.54843  0.20994  Biso   1.000  H
  H191     1.0000 0.13710  0.50165  0.22795  Biso   1.000  H
  H192     1.0000 0.26709  0.54843  0.20994  Biso   1.000  H
  N138     1.0000 0.22981  0.39758  0.25040  Biso   1.000  N
  H193     1.0000 0.13699  0.50157  0.22795  Biso   1.000  H
  H194     1.0000 0.26698  0.54834  0.20994  Biso   1.000  H
  N139     1.0000 0.22984  0.39766  0.25040  Biso   1.000  N
  H195     1.0000 0.13701  0.50165  0.22795  Biso   1.000  H
  N140     1.0000 0.22990  0.39758  0.25040  Biso   1.000  N
  C205     1.0000 0.38791  0.21362  0.17192  Biso   1.000  C
  C206     1.0000 0.34680  0.38701  0.26432  Biso   1.000  C
  C207     1.0000 0.38800  0.21362  0.17192  Biso   1.000  C
  C208     1.0000 0.34688  0.38701  0.26432  Biso   1.000  C
  C209     1.0000 0.38789  0.21354  0.17192  Biso   1.000  C
  C210     1.0000 0.34677  0.38693  0.26432  Biso   1.000  C
  N141     1.0000 0.21832  0.27890  0.35723  Biso   1.000  N
  H196     1.0000 0.24819  0.25883  0.51097  Biso   1.000  H
  H197     1.0000 0.12029  0.26117  0.47338  Biso   1.000  H
  H198     1.0000 0.24821  0.25886  0.51105  Biso   1.000  H
  H199     1.0000 0.12040  0.26125  0.47338  Biso   1.000  H
  N142     1.0000 0.21824  0.27890  0.35723  Biso   1.000  N
  H200     1.0000 0.24810  0.25878  0.51105  Biso   1.000  H
  H201     1.0000 0.24813  0.25886  0.51105  Biso   1.000  H
  H202     1.0000 0.12031  0.26125  0.47338  Biso   1.000  H
  H203     1.0000 0.24810  0.25883  0.51097  Biso   1.000  H
  H204     1.0000 0.24818  0.25878  0.51105  Biso   1.000  H
  C211     1.0000 0.34094  0.31051  0.34427  Biso   1.000  C
  C212     1.0000 0.34083  0.31042  0.34427  Biso   1.000  C
  C213     1.0000 0.34085  0.31051  0.34427  Biso   1.000  C
  C214     1.0000 0.34091  0.31042  0.34427  Biso   1.000  C
  C215     1.0000 0.16320  0.34795  0.31774  Biso   1.000  C
  C216     1.0000 0.16328  0.34795  0.31774  Biso   1.000  C
  C217     1.0000 0.16317  0.34787  0.31774  Biso   1.000  C
  C218     1.0000 0.16326  0.34787  0.31774  Biso   1.000  C
  O71      1.0000 0.41552  0.14049  0.10032  Biso   1.000  O
  O72      1.0000 0.41544  0.14049  0.10032  Biso   1.000  O
  H205     1.0000 0.41049  0.46656  0.29999  Biso   1.000  H
  H206     1.0000 0.41060  0.46664  0.29999  Biso   1.000  H
  H207     1.0000 0.41051  0.46664  0.29999  Biso   1.000  H
  H208     1.0000 0.41057  0.46656  0.29999  Biso   1.000  H
  H209     1.0000 0.39787  0.35668  0.41961  Biso   1.000  H
  H210     1.0000 0.39789  0.35677  0.41961  Biso   1.000  H
  H211     1.0000 0.39778  0.35668  0.41961  Biso   1.000  H
  H212     1.0000 0.39781  0.35677  0.41961  Biso   1.000  H
  O73      1.0000 0.07106  0.36157  0.33905  Biso   1.000  O
  O74      1.0000 0.07097  0.36157  0.33905  Biso   1.000  O
  O75      1.0000 0.92904  0.63850  0.66096  Biso   1.000  O
  C219     1.0000 0.83690  0.65212  0.68227  Biso   1.000  C
  C220     1.0000 0.83682  0.65212  0.68227  Biso   1.000  C
  N143     1.0000 0.78176  0.72109  0.64277  Biso   1.000  N
  N144     1.0000 0.78178  0.72117  0.64277  Biso   1.000  N
  N145     1.0000 0.78184  0.72109  0.64277  Biso   1.000  N
  N146     1.0000 0.78186  0.72117  0.64277  Biso   1.000  N
  N147     1.0000 0.77018  0.60241  0.74961  Biso   1.000  N
  N148     1.0000 0.77026  0.60241  0.74961  Biso   1.000  N
  O76      1.0000 0.92910  0.63842  0.66096  Biso   1.000  O
  O77      1.0000 0.92913  0.63850  0.66096  Biso   1.000  O
  O78      1.0000 0.92902  0.63842  0.66096  Biso   1.000  O
  C221     1.0000 0.65914  0.68948  0.65574  Biso   1.000  C
  C222     1.0000 0.65916  0.68956  0.65574  Biso   1.000  C
  C223     1.0000 0.65922  0.68948  0.65574  Biso   1.000  C
  C224     1.0000 0.65925  0.68956  0.65574  Biso   1.000  C
  C225     1.0000 0.81972  0.76968  0.55429  Biso   1.000  C
  C226     1.0000 0.81974  0.76977  0.55429  Biso   1.000  C
  C227     1.0000 0.81980  0.76968  0.55429  Biso   1.000  C
  C228     1.0000 0.81982  0.76977  0.55429  Biso   1.000  C
  C229     1.0000 0.65330  0.61306  0.73569  Biso   1.000  C
  C230     1.0000 0.65327  0.61298  0.73569  Biso   1.000  C
  C231     1.0000 0.65319  0.61298  0.73569  Biso   1.000  C
  C232     1.0000 0.80271  0.52369  0.80581  Biso   1.000  C
  C233     1.0000 0.80274  0.52378  0.80581  Biso   1.000  C
  C234     1.0000 0.80265  0.52378  0.80581  Biso   1.000  C
  C235     1.0000 0.80263  0.52369  0.80581  Biso   1.000  C
  N149     1.0000 0.62916  0.79077  0.72073  Biso   1.000  N
  H213     1.0000 0.60221  0.64330  0.58039  Biso   1.000  H
  H214     1.0000 0.60224  0.64339  0.58039  Biso   1.000  H
  N150     1.0000 0.62924  0.79077  0.72073  Biso   1.000  N
  H215     1.0000 0.60229  0.64330  0.58039  Biso   1.000  H
  N151     1.0000 0.62913  0.79068  0.72073  Biso   1.000  N
  H216     1.0000 0.60232  0.64339  0.58039  Biso   1.000  H
  H217     1.0000 0.75200  0.74124  0.48904  Biso   1.000  H
  H218     1.0000 0.87979  0.73882  0.52662  Biso   1.000  H
  N152     1.0000 0.86859  0.90116  0.59440  Biso   1.000  N
  H219     1.0000 0.75191  0.74124  0.48904  Biso   1.000  H
  N153     1.0000 0.86862  0.90125  0.59440  Biso   1.000  N
  H220     1.0000 0.87981  0.73890  0.52662  Biso   1.000  H
  N154     1.0000 0.86851  0.90116  0.59440  Biso   1.000  N
  H221     1.0000 0.87971  0.73882  0.52662  Biso   1.000  H
  H222     1.0000 0.58959  0.53343  0.70002  Biso   1.000  H
  N155     1.0000 0.62974  0.68540  0.84009  Biso   1.000  N
  H223     1.0000 0.58961  0.53351  0.70002  Biso   1.000  H
  N156     1.0000 0.62972  0.68531  0.84009  Biso   1.000  N
  N157     1.0000 0.62983  0.68540  0.84009  Biso   1.000  N
  H224     1.0000 0.58950  0.53343  0.70002  Biso   1.000  H
  H225     1.0000 0.86311  0.49845  0.77214  Biso   1.000  H
  H226     1.0000 0.73309  0.45165  0.79007  Biso   1.000  H
  N158     1.0000 0.84765  0.58104  0.93014  Biso   1.000  N
  N159     1.0000 0.84768  0.58112  0.93014  Biso   1.000  N
  H227     1.0000 0.73306  0.45156  0.79007  Biso   1.000  H
  N160     1.0000 0.84774  0.58104  0.93014  Biso   1.000  N
  H228     1.0000 0.86302  0.49845  0.77214  Biso   1.000  H
  C236     1.0000 0.61219  0.78645  0.82809  Biso   1.000  C
  C237     1.0000 0.61645  0.88411  0.67740  Biso   1.000  C
  C238     1.0000 0.61647  0.88419  0.67740  Biso   1.000  C
  C239     1.0000 0.61216  0.78636  0.82809  Biso   1.000  C
  C240     1.0000 0.61653  0.88411  0.67740  Biso   1.000  C
  C241     1.0000 0.61210  0.78645  0.82809  Biso   1.000  C
  C242     1.0000 0.61208  0.78636  0.82809  Biso   1.000  C
  C243     1.0000 0.79635  0.97659  0.60119  Biso   1.000  C
  C244     1.0000 0.98781  0.96668  0.62294  Biso   1.000  C
  C245     1.0000 0.98784  0.96676  0.62294  Biso   1.000  C
  C246     1.0000 0.79637  0.97668  0.60119  Biso   1.000  C
  C247     1.0000 0.98790  0.96668  0.62294  Biso   1.000  C
  C248     1.0000 0.79626  0.97659  0.60119  Biso   1.000  C
  C249     1.0000 0.98792  0.96676  0.62294  Biso   1.000  C
  C250     1.0000 0.60201  0.64277  0.93458  Biso   1.000  C
  C251     1.0000 0.60198  0.64268  0.93458  Biso   1.000  C
  C252     1.0000 0.60190  0.64268  0.93458  Biso   1.000  C
  C253     1.0000 0.96741  0.61980  0.98269  Biso   1.000  C
  C254     1.0000 0.96743  0.61988  0.98269  Biso   1.000  C
  C255     1.0000 0.96732  0.61980  0.98269  Biso   1.000  C
  C256     1.0000 0.77234  0.58234  0.01349  Biso   1.000  C
  C257     1.0000 0.77226  0.58234  0.01349  Biso   1.000  C
  O79      1.0000 0.58458  0.85958  0.89969  Biso   1.000  O
  O80      1.0000 0.58466  0.85953  0.89978  Biso   1.000  O
  O81      1.0000 0.58455  0.85950  0.89969  Biso   1.000  O
  O82      1.0000 0.58466  0.85958  0.89969  Biso   1.000  O
  O83      1.0000 0.58457  0.85953  0.89978  Biso   1.000  O
  H229     1.0000 0.56597  0.92052  0.71829  Biso   1.000  H
  H230     1.0000 0.57636  0.84732  0.59562  Biso   1.000  H
  N161     1.0000 0.72835  0.97837  0.69019  Biso   1.000  N
  N162     1.0000 0.72844  0.97837  0.69019  Biso   1.000  N
  N163     1.0000 0.72838  0.97845  0.69019  Biso   1.000  N
  H231     1.0000 0.57628  0.84732  0.59562  Biso   1.000  H
  N164     1.0000 0.72846  0.97845  0.69019  Biso   1.000  N
  H232     1.0000 0.56589  0.92052  0.71829  Biso   1.000  H
  H233     1.0000 0.74556  0.95831  0.52497  Biso   1.000  H
  H234     1.0000 0.74553  0.95823  0.52497  Biso   1.000  H
  H235     1.0000 0.74545  0.95823  0.52497  Biso   1.000  H
  C258     1.0000 0.89064  0.10749  0.64564  Biso   1.000  C
  C259     1.0000 0.89056  0.10749  0.64564  Biso   1.000  C
  O84      1.0000 0.06850  0.92566  0.61493  Biso   1.000  O
  O85      1.0000 0.06842  0.92566  0.61493  Biso   1.000  O
  O86      1.0000 0.06839  0.92558  0.61493  Biso   1.000  O
  N165     1.0000 0.00291  0.08798  0.65791  Biso   1.000  N
  N166     1.0000 0.00299  0.08798  0.65791  Biso   1.000  N
  N167     1.0000 0.00302  0.08807  0.65791  Biso   1.000  N
  N168     1.0000 0.00294  0.08807  0.65791  Biso   1.000  N
  H236     1.0000 0.55582  0.55652  0.90308  Biso   1.000  H
  H237     1.0000 0.55272  0.68323  0.97295  Biso   1.000  H
  H238     1.0000 0.55584  0.55661  0.90308  Biso   1.000  H
  H239     1.0000 0.55274  0.68331  0.97295  Biso   1.000  H
  H240     1.0000 0.55574  0.55652  0.90308  Biso   1.000  H
  H241     1.0000 0.55263  0.68323  0.97295  Biso   1.000  H
  N169     1.0000 0.70611  0.66334  0.01940  Biso   1.000  N
  N170     1.0000 0.70613  0.66342  0.01940  Biso   1.000  N
  N171     1.0000 0.70605  0.66342  0.01940  Biso   1.000  N
  N172     1.0000 0.97807  0.66473  0.10014  Biso   1.000  N
  N173     1.0000 0.97816  0.66473  0.10014  Biso   1.000  N
  N174     1.0000 0.97810  0.66482  0.10014  Biso   1.000  N
  O87      1.0000 0.04768  0.61325  0.93327  Biso   1.000  O
  O88      1.0000 0.04757  0.61316  0.93327  Biso   1.000  O
  O89      1.0000 0.04760  0.61325  0.93327  Biso   1.000  O
  O90      1.0000 0.04766  0.61316  0.93327  Biso   1.000  O
  C260     1.0000 0.86427  0.64174  0.13233  Biso   1.000  C
  H242     1.0000 0.71998  0.50018  0.00383  Biso   1.000  H
  C261     1.0000 0.86419  0.64174  0.13233  Biso   1.000  C
  H243     1.0000 0.72001  0.50027  0.00383  Biso   1.000  H
  C262     1.0000 0.76322  0.09141  0.77293  Biso   1.000  C
  C263     1.0000 0.76330  0.09141  0.77293  Biso   1.000  C
  N175     1.0000 0.86358  0.16469  0.75422  Biso   1.000  N
  N176     1.0000 0.86371  0.16481  0.75431  Biso   1.000  N
  N177     1.0000 0.86363  0.16481  0.75431  Biso   1.000  N
  H244     1.0000 0.88322  0.14964  0.59014  Biso   1.000  H
  H245     1.0000 0.88325  0.14973  0.59014  Biso   1.000  H
  H246     1.0000 0.88316  0.14973  0.59014  Biso   1.000  H
  H247     1.0000 0.88314  0.14964  0.59014  Biso   1.000  H
  C264     1.0000 0.11714  0.18374  0.68810  Biso   1.000  C
  C265     1.0000 0.11717  0.18382  0.68810  Biso   1.000  C
  C266     1.0000 0.11725  0.18382  0.68810  Biso   1.000  C
  C267     1.0000 0.74174  0.75508  0.12520  Biso   1.000  C
  C268     1.0000 0.74169  0.75517  0.12520  Biso   1.000  C
  C269     1.0000 0.74166  0.75508  0.12520  Biso   1.000  C
  C270     1.0000 0.74177  0.75517  0.12520  Biso   1.000  C
  C271     1.0000 0.08858  0.70509  0.18453  Biso   1.000  C
  C272     1.0000 0.08861  0.70517  0.18453  Biso   1.000  C
  N178     1.0000 0.83945  0.74931  0.18862  Biso   1.000  N
  N179     1.0000 0.83940  0.74940  0.18862  Biso   1.000  N
  N180     1.0000 0.83948  0.74940  0.18862  Biso   1.000  N
  N181     1.0000 0.83937  0.74931  0.18862  Biso   1.000  N
  H248     1.0000 0.85396  0.58729  0.17792  Biso   1.000  H
  H249     1.0000 0.85391  0.58737  0.17792  Biso   1.000  H
  H250     1.0000 0.85399  0.58737  0.17792  Biso   1.000  H
  H251     1.0000 0.85388  0.58729  0.17792  Biso   1.000  H
  O91      1.0000 0.71107  0.11995  0.84949  Biso   1.000  O
  O92      1.0000 0.71101  0.12004  0.84949  Biso   1.000  O
  O93      1.0000 0.71098  0.11995  0.84949  Biso   1.000  O
  O94      1.0000 0.71109  0.12004  0.84949  Biso   1.000  O
  C273     1.0000 0.91149  0.29490  0.81547  Biso   1.000  C
  C274     1.0000 0.91158  0.29490  0.81547  Biso   1.000  C
  N182     1.0000 0.16062  0.25068  0.81138  Biso   1.000  N
  H252     1.0000 0.11114  0.23976  0.64791  Biso   1.000  H
  H253     1.0000 0.17504  0.14927  0.66061  Biso   1.000  H
  N183     1.0000 0.16071  0.25068  0.81138  Biso   1.000  N
  H254     1.0000 0.11117  0.23985  0.64791  Biso   1.000  H
  H255     1.0000 0.17515  0.14935  0.66061  Biso   1.000  H
  H256     1.0000 0.17512  0.14927  0.66061  Biso   1.000  H
  H257     1.0000 0.17507  0.14935  0.66061  Biso   1.000  H
  O95      1.0000 0.69285  0.82890  0.15696  Biso   1.000  O
  O96      1.0000 0.69293  0.82890  0.15696  Biso   1.000  O
  N184     1.0000 0.13649  0.83529  0.24578  Biso   1.000  N
  H258     1.0000 0.07594  0.66415  0.24083  Biso   1.000  H
  H259     1.0000 0.14708  0.68213  0.14530  Biso   1.000  H
  H260     1.0000 0.07602  0.66415  0.24083  Biso   1.000  H
  H261     1.0000 0.14700  0.68213  0.14530  Biso   1.000  H
  C275     1.0000 0.88293  0.81625  0.31191  Biso   1.000  C
  H262     1.0000 0.92413  0.33584  0.75918  Biso   1.000  H
  H263     1.0000 0.85299  0.31786  0.85471  Biso   1.000  H
  H264     1.0000 0.92416  0.33592  0.75918  Biso   1.000  H
  H265     1.0000 0.85310  0.31795  0.85471  Biso   1.000  H
  H266     1.0000 0.92408  0.33592  0.75918  Biso   1.000  H
  H267     1.0000 0.85302  0.31795  0.85471  Biso   1.000  H
  H268     1.0000 0.92405  0.33584  0.75918  Biso   1.000  H
  N185     1.0000 0.02200  0.33525  0.89986  Biso   1.000  N
  N186     1.0000 0.02203  0.33534  0.89986  Biso   1.000  N
  N187     1.0000 0.02208  0.33525  0.89986  Biso   1.000  N
  C276     1.0000 0.13580  0.35825  0.86767  Biso   1.000  C
  C277     1.0000 0.25833  0.24490  0.87481  Biso   1.000  C
  C278     1.0000 0.13591  0.35833  0.86767  Biso   1.000  C
  C279     1.0000 0.25841  0.24490  0.87481  Biso   1.000  C
  C280     1.0000 0.13588  0.35825  0.86767  Biso   1.000  C
  C281     1.0000 0.13583  0.35833  0.86767  Biso   1.000  C
  C282     1.0000 0.23686  0.90858  0.22708  Biso   1.000  C
  C283     1.0000 0.10943  0.89250  0.35436  Biso   1.000  C
  C284     1.0000 0.23688  0.90866  0.22708  Biso   1.000  C
  C285     1.0000 0.10954  0.89253  0.35445  Biso   1.000  C
  C286     1.0000 0.10956  0.89262  0.35445  Biso   1.000  C
  C287     1.0000 0.10952  0.89250  0.35436  Biso   1.000  C
  C288     1.0000 0.10945  0.89253  0.35445  Biso   1.000  C
  C289     1.0000 0.10948  0.89262  0.35445  Biso   1.000  C
  N188     1.0000 0.99717  0.91200  0.34210  Biso   1.000  N
  H269     1.0000 0.88893  0.76023  0.35210  Biso   1.000  H
  H270     1.0000 0.82503  0.85072  0.33940  Biso   1.000  H
  N189     1.0000 0.99708  0.91200  0.34210  Biso   1.000  N
  H271     1.0000 0.82495  0.85072  0.33940  Biso   1.000  H
  C290     1.0000 0.03267  0.38019  0.01732  Biso   1.000  C
  C291     1.0000 0.03275  0.38019  0.01732  Biso   1.000  C
  H272     1.0000 0.14611  0.41270  0.82208  Biso   1.000  H
  C292     1.0000 0.22773  0.41765  0.98652  Biso   1.000  C
  H273     1.0000 0.14619  0.41270  0.82208  Biso   1.000  H
  C293     1.0000 0.22784  0.41773  0.98652  Biso   1.000  C
  C294     1.0000 0.22776  0.41773  0.98652  Biso   1.000  C
  C295     1.0000 0.22782  0.41765  0.98652  Biso   1.000  C
  O97      1.0000 0.30723  0.17109  0.84305  Biso   1.000  O
  N190     1.0000 0.29397  0.33665  0.98060  Biso   1.000  N
  O98      1.0000 0.30725  0.17118  0.84305  Biso   1.000  O
  N191     1.0000 0.29405  0.33665  0.98060  Biso   1.000  N
  O99      1.0000 0.30717  0.17118  0.84305  Biso   1.000  O
  O100     1.0000 0.28901  0.88003  0.15052  Biso   1.000  O
  O101     1.0000 0.28909  0.88003  0.15052  Biso   1.000  O
  N192     1.0000 0.27172  0.02162  0.30982  Biso   1.000  N
  N193     1.0000 0.27175  0.02170  0.30982  Biso   1.000  N
  N194     1.0000 0.27164  0.02162  0.30982  Biso   1.000  N
  N195     1.0000 0.27166  0.02170  0.30982  Biso   1.000  N
  H274     1.0000 0.11686  0.85035  0.40987  Biso   1.000  H
  H275     1.0000 0.11694  0.85035  0.40987  Biso   1.000  H
  C296     1.0000 0.20373  0.02339  0.39882  Biso   1.000  C
  C297     1.0000 0.20384  0.02348  0.39882  Biso   1.000  C
  C298     1.0000 0.20375  0.02348  0.39882  Biso   1.000  C
  C299     1.0000 0.20381  0.02339  0.39882  Biso   1.000  C
  C300     1.0000 0.01226  0.03331  0.37707  Biso   1.000  C
  C301     1.0000 0.01218  0.03331  0.37707  Biso   1.000  C
  O102     1.0000 0.95250  0.38682  0.06673  Biso   1.000  O
  O103     1.0000 0.95242  0.38682  0.06673  Biso   1.000  O
  N196     1.0000 0.15242  0.41895  0.06987  Biso   1.000  N
  N197     1.0000 0.15250  0.41895  0.06987  Biso   1.000  N
  H276     1.0000 0.28009  0.49981  0.99618  Biso   1.000  H
  H277     1.0000 0.28017  0.49981  0.99618  Biso   1.000  H
  C302     1.0000 0.39809  0.35731  0.06543  Biso   1.000  C
  C303     1.0000 0.39818  0.35731  0.06543  Biso   1.000  C
  C304     1.0000 0.39807  0.35722  0.06543  Biso   1.000  C
  C305     1.0000 0.38363  0.11588  0.32261  Biso   1.000  C
  C306     1.0000 0.38374  0.11596  0.32261  Biso   1.000  C
  C307     1.0000 0.38365  0.11596  0.32261  Biso   1.000  C
  C308     1.0000 0.38371  0.11588  0.32261  Biso   1.000  C
  N198     1.0000 0.13148  0.09882  0.40561  Biso   1.000  N
  N199     1.0000 0.13157  0.09882  0.40561  Biso   1.000  N
  H278     1.0000 0.25455  0.04176  0.47504  Biso   1.000  H
  H279     1.0000 0.25463  0.04176  0.47504  Biso   1.000  H
  H280     1.0000 0.25452  0.04167  0.47504  Biso   1.000  H
  O104     1.0000 0.93168  0.07441  0.38507  Biso   1.000  O
  O105     1.0000 0.93160  0.07441  0.38507  Biso   1.000  O
  O106     1.0000 0.93166  0.07432  0.38507  Biso   1.000  O
  O107     1.0000 0.93157  0.07432  0.38507  Biso   1.000  O
  C309     1.0000 0.19737  0.47629  0.19419  Biso   1.000  C
  C310     1.0000 0.19745  0.47629  0.19419  Biso   1.000  C
  N200     1.0000 0.37036  0.31467  0.15991  Biso   1.000  N
  H281     1.0000 0.44426  0.44347  0.09692  Biso   1.000  H
  H282     1.0000 0.44736  0.31676  0.02706  Biso   1.000  H
  N201     1.0000 0.37038  0.31470  0.16000  Biso   1.000  N
  H283     1.0000 0.44437  0.44355  0.09692  Biso   1.000  H
  H284     1.0000 0.44746  0.31679  0.02715  Biso   1.000  H
  N202     1.0000 0.37035  0.31462  0.16000  Biso   1.000  N
  H285     1.0000 0.44738  0.31679  0.02715  Biso   1.000  H
  N203     1.0000 0.37044  0.31467  0.15991  Biso   1.000  N
  H286     1.0000 0.44434  0.44347  0.09692  Biso   1.000  H
  H287     1.0000 0.44744  0.31676  0.02706  Biso   1.000  H
  H288     1.0000 0.44428  0.44355  0.09692  Biso   1.000  H
  N204     1.0000 0.37094  0.20930  0.27928  Biso   1.000  N
  H289     1.0000 0.43413  0.07955  0.28172  Biso   1.000  H
  H290     1.0000 0.42374  0.15275  0.40439  Biso   1.000  H
  H291     1.0000 0.43421  0.07955  0.28172  Biso   1.000  H
  H292     1.0000 0.42383  0.15275  0.40439  Biso   1.000  H
  N205     1.0000 0.37083  0.20922  0.27928  Biso   1.000  N
  H293     1.0000 0.43411  0.07947  0.28172  Biso   1.000  H
  H294     1.0000 0.42372  0.15267  0.40439  Biso   1.000  H
  N206     1.0000 0.37086  0.20930  0.27928  Biso   1.000  N
  N207     1.0000 0.37092  0.20922  0.27928  Biso   1.000  N
  C311     1.0000 0.18036  0.23030  0.44572  Biso   1.000  C
  C312     1.0000 0.18039  0.23039  0.44572  Biso   1.000  C
  C313     1.0000 0.18028  0.23030  0.44572  Biso   1.000  C
  N208     1.0000 0.22992  0.39766  0.25040  Biso   1.000  N
  H295     1.0000 0.13699  0.50162  0.22786  Biso   1.000  H
  H296     1.0000 0.26701  0.54843  0.20994  Biso   1.000  H
  H297     1.0000 0.13710  0.50165  0.22795  Biso   1.000  H
  H298     1.0000 0.26709  0.54843  0.20994  Biso   1.000  H
  N209     1.0000 0.22981  0.39758  0.25040  Biso   1.000  N
  H299     1.0000 0.13699  0.50157  0.22795  Biso   1.000  H
  H300     1.0000 0.26698  0.54834  0.20994  Biso   1.000  H
  N210     1.0000 0.22984  0.39766  0.25040  Biso   1.000  N
  H301     1.0000 0.13701  0.50165  0.22795  Biso   1.000  H
  N211     1.0000 0.22990  0.39758  0.25040  Biso   1.000  N
  C314     1.0000 0.38791  0.21362  0.17192  Biso   1.000  C
  C315     1.0000 0.34680  0.38701  0.26432  Biso   1.000  C
  C316     1.0000 0.38800  0.21362  0.17192  Biso   1.000  C
  C317     1.0000 0.34688  0.38701  0.26432  Biso   1.000  C
  C318     1.0000 0.38789  0.21354  0.17192  Biso   1.000  C
  C319     1.0000 0.34677  0.38693  0.26432  Biso   1.000  C
  C320     1.0000 0.34094  0.31051  0.34427  Biso   1.000  C
  C321     1.0000 0.34083  0.31042  0.34427  Biso   1.000  C
  C322     1.0000 0.34085  0.31051  0.34427  Biso   1.000  C
  C323     1.0000 0.34091  0.31042  0.34427  Biso   1.000  C
  N212     1.0000 0.21832  0.27890  0.35723  Biso   1.000  N
  H302     1.0000 0.24819  0.25883  0.51097  Biso   1.000  H
  H303     1.0000 0.12029  0.26117  0.47338  Biso   1.000  H
  H304     1.0000 0.24821  0.25886  0.51105  Biso   1.000  H
  H305     1.0000 0.12040  0.26125  0.47338  Biso   1.000  H
  N213     1.0000 0.21824  0.27890  0.35723  Biso   1.000  N
  H306     1.0000 0.24810  0.25878  0.51105  Biso   1.000  H
  H307     1.0000 0.24813  0.25886  0.51105  Biso   1.000  H
  H308     1.0000 0.12031  0.26125  0.47338  Biso   1.000  H
  H309     1.0000 0.24810  0.25883  0.51097  Biso   1.000  H
  H310     1.0000 0.24818  0.25878  0.51105  Biso   1.000  H
  C324     1.0000 0.16320  0.34795  0.31774  Biso   1.000  C
  C325     1.0000 0.16328  0.34795  0.31774  Biso   1.000  C
  C326     1.0000 0.16317  0.34787  0.31774  Biso   1.000  C
  C327     1.0000 0.16326  0.34787  0.31774  Biso   1.000  C
  O108     1.0000 0.41552  0.14049  0.10032  Biso   1.000  O
  O109     1.0000 0.41544  0.14049  0.10032  Biso   1.000  O
  H311     1.0000 0.41049  0.46656  0.29999  Biso   1.000  H
  H312     1.0000 0.41060  0.46664  0.29999  Biso   1.000  H
  H313     1.0000 0.41051  0.46664  0.29999  Biso   1.000  H
  H314     1.0000 0.41057  0.46656  0.29999  Biso   1.000  H
  H315     1.0000 0.39787  0.35668  0.41961  Biso   1.000  H
  H316     1.0000 0.39789  0.35677  0.41961  Biso   1.000  H
  H317     1.0000 0.39778  0.35668  0.41961  Biso   1.000  H
  H318     1.0000 0.39781  0.35677  0.41961  Biso   1.000  H
  O110     1.0000 0.07106  0.36157  0.33905  Biso   1.000  O
  O111     1.0000 0.07097  0.36157  0.33905  Biso   1.000  O
  O112     1.0000 0.92904  0.63850  0.66096  Biso   1.000  O
  C328     1.0000 0.83690  0.65212  0.68227  Biso   1.000  C
  C329     1.0000 0.83682  0.65212  0.68227  Biso   1.000  C
  N214     1.0000 0.77018  0.60241  0.74961  Biso   1.000  N
  N215     1.0000 0.77026  0.60241  0.74961  Biso   1.000  N
  N216     1.0000 0.78176  0.72109  0.64277  Biso   1.000  N
  N217     1.0000 0.78178  0.72117  0.64277  Biso   1.000  N
  N218     1.0000 0.78184  0.72109  0.64277  Biso   1.000  N
  N219     1.0000 0.78186  0.72117  0.64277  Biso   1.000  N
  O113     1.0000 0.92910  0.63842  0.66096  Biso   1.000  O
  O114     1.0000 0.92913  0.63850  0.66096  Biso   1.000  O
  O115     1.0000 0.92902  0.63842  0.66096  Biso   1.000  O
  C330     1.0000 0.65330  0.61306  0.73569  Biso   1.000  C
  C331     1.0000 0.80274  0.52378  0.80581  Biso   1.000  C
  C332     1.0000 0.65327  0.61298  0.73569  Biso   1.000  C
  C333     1.0000 0.80271  0.52369  0.80581  Biso   1.000  C
  C334     1.0000 0.80265  0.52378  0.80581  Biso   1.000  C
  C335     1.0000 0.65319  0.61298  0.73569  Biso   1.000  C
  C336     1.0000 0.80263  0.52369  0.80581  Biso   1.000  C
  C337     1.0000 0.65916  0.68956  0.65574  Biso   1.000  C
  C338     1.0000 0.65922  0.68948  0.65574  Biso   1.000  C
  C339     1.0000 0.65914  0.68948  0.65574  Biso   1.000  C
  C340     1.0000 0.65925  0.68956  0.65574  Biso   1.000  C
  C341     1.0000 0.81972  0.76968  0.55429  Biso   1.000  C
  C342     1.0000 0.81974  0.76977  0.55429  Biso   1.000  C
  C343     1.0000 0.81980  0.76968  0.55429  Biso   1.000  C
  C344     1.0000 0.81982  0.76977  0.55429  Biso   1.000  C
  N220     1.0000 0.62974  0.68540  0.84009  Biso   1.000  N
  H319     1.0000 0.58959  0.53343  0.70002  Biso   1.000  H
  H320     1.0000 0.58961  0.53351  0.70002  Biso   1.000  H
  N221     1.0000 0.62972  0.68531  0.84009  Biso   1.000  N
  N222     1.0000 0.62983  0.68540  0.84009  Biso   1.000  N
  H321     1.0000 0.58950  0.53343  0.70002  Biso   1.000  H
  H322     1.0000 0.86311  0.49845  0.77214  Biso   1.000  H
  H323     1.0000 0.73309  0.45165  0.79007  Biso   1.000  H
  N223     1.0000 0.84765  0.58104  0.93014  Biso   1.000  N
  N224     1.0000 0.84768  0.58112  0.93014  Biso   1.000  N
  H324     1.0000 0.73306  0.45156  0.79007  Biso   1.000  H
  N225     1.0000 0.84774  0.58104  0.93014  Biso   1.000  N
  H325     1.0000 0.86302  0.49845  0.77214  Biso   1.000  H
  N226     1.0000 0.62916  0.79077  0.72073  Biso   1.000  N
  H326     1.0000 0.60221  0.64330  0.58039  Biso   1.000  H
  H327     1.0000 0.60224  0.64339  0.58039  Biso   1.000  H
  N227     1.0000 0.62924  0.79077  0.72073  Biso   1.000  N
  H328     1.0000 0.60229  0.64330  0.58039  Biso   1.000  H
  N228     1.0000 0.62913  0.79068  0.72073  Biso   1.000  N
  H329     1.0000 0.60232  0.64339  0.58039  Biso   1.000  H
  H330     1.0000 0.75200  0.74124  0.48904  Biso   1.000  H
  H331     1.0000 0.87979  0.73882  0.52662  Biso   1.000  H
  N229     1.0000 0.86859  0.90116  0.59440  Biso   1.000  N
  N230     1.0000 0.86862  0.90125  0.59440  Biso   1.000  N
  H332     1.0000 0.75191  0.74124  0.48904  Biso   1.000  H
  H333     1.0000 0.87981  0.73890  0.52662  Biso   1.000  H
  N231     1.0000 0.86851  0.90116  0.59440  Biso   1.000  N
  H334     1.0000 0.87971  0.73882  0.52662  Biso   1.000  H
  C345     1.0000 0.61219  0.78645  0.82809  Biso   1.000  C
  C346     1.0000 0.60201  0.64277  0.93458  Biso   1.000  C
  C347     1.0000 0.60198  0.64268  0.93458  Biso   1.000  C
  C348     1.0000 0.61216  0.78636  0.82809  Biso   1.000  C
  C349     1.0000 0.61210  0.78645  0.82809  Biso   1.000  C
  C350     1.0000 0.61208  0.78636  0.82809  Biso   1.000  C
  C351     1.0000 0.60190  0.64268  0.93458  Biso   1.000  C
  C352     1.0000 0.96741  0.61980  0.98269  Biso   1.000  C
  C353     1.0000 0.96743  0.61988  0.98269  Biso   1.000  C
  C354     1.0000 0.96732  0.61980  0.98269  Biso   1.000  C
  C355     1.0000 0.77234  0.58234  0.01349  Biso   1.000  C
  C356     1.0000 0.77226  0.58234  0.01349  Biso   1.000  C
  C357     1.0000 0.61645  0.88411  0.67740  Biso   1.000  C
  C358     1.0000 0.61647  0.88419  0.67740  Biso   1.000  C
  C359     1.0000 0.61653  0.88411  0.67740  Biso   1.000  C
  C360     1.0000 0.98781  0.96668  0.62294  Biso   1.000  C
  C361     1.0000 0.79635  0.97659  0.60119  Biso   1.000  C
  C362     1.0000 0.98784  0.96676  0.62294  Biso   1.000  C
  C363     1.0000 0.79637  0.97668  0.60119  Biso   1.000  C
  C364     1.0000 0.98790  0.96668  0.62294  Biso   1.000  C
  C365     1.0000 0.79626  0.97659  0.60119  Biso   1.000  C
  C366     1.0000 0.98792  0.96676  0.62294  Biso   1.000  C
  O116     1.0000 0.58458  0.85958  0.89969  Biso   1.000  O
  O117     1.0000 0.58466  0.85953  0.89978  Biso   1.000  O
  O118     1.0000 0.58455  0.85950  0.89969  Biso   1.000  O
  O119     1.0000 0.58466  0.85958  0.89969  Biso   1.000  O
  O120     1.0000 0.58457  0.85953  0.89978  Biso   1.000  O
  H335     1.0000 0.55272  0.68323  0.97295  Biso   1.000  H
  H336     1.0000 0.55582  0.55652  0.90308  Biso   1.000  H
  H337     1.0000 0.55584  0.55661  0.90308  Biso   1.000  H
  H338     1.0000 0.55274  0.68331  0.97295  Biso   1.000  H
  H339     1.0000 0.55574  0.55652  0.90308  Biso   1.000  H
  H340     1.0000 0.55263  0.68323  0.97295  Biso   1.000  H
  N232     1.0000 0.70611  0.66334  0.01940  Biso   1.000  N
  N233     1.0000 0.70613  0.66342  0.01940  Biso   1.000  N
  N234     1.0000 0.70605  0.66342  0.01940  Biso   1.000  N
  N235     1.0000 0.97807  0.66473  0.10014  Biso   1.000  N
  N236     1.0000 0.97816  0.66473  0.10014  Biso   1.000  N
  N237     1.0000 0.97810  0.66482  0.10014  Biso   1.000  N
  O121     1.0000 0.04768  0.61325  0.93327  Biso   1.000  O
  O122     1.0000 0.04757  0.61316  0.93327  Biso   1.000  O
  O123     1.0000 0.04760  0.61325  0.93327  Biso   1.000  O
  O124     1.0000 0.04766  0.61316  0.93327  Biso   1.000  O
  C367     1.0000 0.86427  0.64174  0.13233  Biso   1.000  C
  H341     1.0000 0.71998  0.50018  0.00383  Biso   1.000  H
  C368     1.0000 0.86419  0.64174  0.13233  Biso   1.000  C
  H342     1.0000 0.72001  0.50027  0.00383  Biso   1.000  H
  H343     1.0000 0.56597  0.92052  0.71829  Biso   1.000  H
  H344     1.0000 0.57636  0.84732  0.59562  Biso   1.000  H
  N238     1.0000 0.72838  0.97845  0.69019  Biso   1.000  N
  N239     1.0000 0.72844  0.97837  0.69019  Biso   1.000  N
  N240     1.0000 0.72835  0.97837  0.69019  Biso   1.000  N
  H345     1.0000 0.57628  0.84732  0.59562  Biso   1.000  H
  N241     1.0000 0.72846  0.97845  0.69019  Biso   1.000  N
  H346     1.0000 0.56589  0.92052  0.71829  Biso   1.000  H
  O125     1.0000 0.06850  0.92566  0.61493  Biso   1.000  O
  O126     1.0000 0.06842  0.92566  0.61493  Biso   1.000  O
  O127     1.0000 0.06839  0.92558  0.61493  Biso   1.000  O
  N242     1.0000 0.00291  0.08798  0.65791  Biso   1.000  N
  N243     1.0000 0.00299  0.08798  0.65791  Biso   1.000  N
  N244     1.0000 0.00302  0.08807  0.65791  Biso   1.000  N
  N245     1.0000 0.00294  0.08807  0.65791  Biso   1.000  N
  H347     1.0000 0.74556  0.95831  0.52497  Biso   1.000  H
  H348     1.0000 0.74553  0.95823  0.52497  Biso   1.000  H
  H349     1.0000 0.74545  0.95823  0.52497  Biso   1.000  H
  C369     1.0000 0.89064  0.10749  0.64564  Biso   1.000  C
  C370     1.0000 0.89056  0.10749  0.64564  Biso   1.000  C
  C371     1.0000 0.74174  0.75508  0.12520  Biso   1.000  C
  C372     1.0000 0.74169  0.75517  0.12520  Biso   1.000  C
  C373     1.0000 0.74166  0.75508  0.12520  Biso   1.000  C
  C374     1.0000 0.74177  0.75517  0.12520  Biso   1.000  C
  C375     1.0000 0.08858  0.70509  0.18453  Biso   1.000  C
  C376     1.0000 0.08861  0.70517  0.18453  Biso   1.000  C
  N246     1.0000 0.83945  0.74931  0.18862  Biso   1.000  N
  N247     1.0000 0.83940  0.74940  0.18862  Biso   1.000  N
  N248     1.0000 0.83948  0.74940  0.18862  Biso   1.000  N
  N249     1.0000 0.83937  0.74931  0.18862  Biso   1.000  N
  H350     1.0000 0.85396  0.58729  0.17792  Biso   1.000  H
  H351     1.0000 0.85391  0.58737  0.17792  Biso   1.000  H
  H352     1.0000 0.85399  0.58737  0.17792  Biso   1.000  H
  H353     1.0000 0.85388  0.58729  0.17792  Biso   1.000  H
  C377     1.0000 0.76322  0.09141  0.77293  Biso   1.000  C
  C378     1.0000 0.76330  0.09141  0.77293  Biso   1.000  C
  C379     1.0000 0.11714  0.18374  0.68810  Biso   1.000  C
  C380     1.0000 0.11717  0.18382  0.68810  Biso   1.000  C
  C381     1.0000 0.11725  0.18382  0.68810  Biso   1.000  C
  N250     1.0000 0.86358  0.16469  0.75422  Biso   1.000  N
  N251     1.0000 0.86371  0.16481  0.75431  Biso   1.000  N
  N252     1.0000 0.86363  0.16481  0.75431  Biso   1.000  N
  H354     1.0000 0.88322  0.14964  0.59014  Biso   1.000  H
  H355     1.0000 0.88325  0.14973  0.59014  Biso   1.000  H
  H356     1.0000 0.88316  0.14973  0.59014  Biso   1.000  H
  H357     1.0000 0.88314  0.14964  0.59014  Biso   1.000  H
  O128     1.0000 0.69285  0.82890  0.15696  Biso   1.000  O
  O129     1.0000 0.69293  0.82890  0.15696  Biso   1.000  O
  N253     1.0000 0.13649  0.83529  0.24578  Biso   1.000  N
  H358     1.0000 0.07594  0.66415  0.24083  Biso   1.000  H
  H359     1.0000 0.14708  0.68213  0.14530  Biso   1.000  H
  H360     1.0000 0.07602  0.66415  0.24083  Biso   1.000  H
  H361     1.0000 0.14700  0.68213  0.14530  Biso   1.000  H
  C382     1.0000 0.88293  0.81625  0.31191  Biso   1.000  C
  O130     1.0000 0.71107  0.11995  0.84949  Biso   1.000  O
  O131     1.0000 0.71101  0.12004  0.84949  Biso   1.000  O
  O132     1.0000 0.71098  0.11995  0.84949  Biso   1.000  O
  O133     1.0000 0.71109  0.12004  0.84949  Biso   1.000  O
  N254     1.0000 0.16062  0.25068  0.81138  Biso   1.000  N
  H362     1.0000 0.11114  0.23976  0.64791  Biso   1.000  H
  H363     1.0000 0.17504  0.14927  0.66061  Biso   1.000  H
  N255     1.0000 0.16071  0.25068  0.81138  Biso   1.000  N
  H364     1.0000 0.11117  0.23985  0.64791  Biso   1.000  H
  H365     1.0000 0.17515  0.14935  0.66061  Biso   1.000  H
  H366     1.0000 0.17512  0.14927  0.66061  Biso   1.000  H
  H367     1.0000 0.17507  0.14935  0.66061  Biso   1.000  H
  C383     1.0000 0.91149  0.29490  0.81547  Biso   1.000  C
  C384     1.0000 0.91158  0.29490  0.81547  Biso   1.000  C
  C385     1.0000 0.23686  0.90858  0.22708  Biso   1.000  C
  C386     1.0000 0.10943  0.89250  0.35436  Biso   1.000  C
  C387     1.0000 0.23688  0.90866  0.22708  Biso   1.000  C
  C388     1.0000 0.10954  0.89253  0.35445  Biso   1.000  C
  C389     1.0000 0.10956  0.89262  0.35445  Biso   1.000  C
  C390     1.0000 0.10952  0.89250  0.35436  Biso   1.000  C
  C391     1.0000 0.10945  0.89253  0.35445  Biso   1.000  C
  C392     1.0000 0.10948  0.89262  0.35445  Biso   1.000  C
  N256     1.0000 0.99717  0.91200  0.34210  Biso   1.000  N
  H368     1.0000 0.88893  0.76023  0.35210  Biso   1.000  H
  H369     1.0000 0.82503  0.85072  0.33940  Biso   1.000  H
  N257     1.0000 0.99708  0.91200  0.34210  Biso   1.000  N
  H370     1.0000 0.82495  0.85072  0.33940  Biso   1.000  H
  C393     1.0000 0.13580  0.35825  0.86767  Biso   1.000  C
  C394     1.0000 0.25833  0.24490  0.87481  Biso   1.000  C
  C395     1.0000 0.13591  0.35833  0.86767  Biso   1.000  C
  C396     1.0000 0.25841  0.24490  0.87481  Biso   1.000  C
  C397     1.0000 0.13588  0.35825  0.86767  Biso   1.000  C
  C398     1.0000 0.13583  0.35833  0.86767  Biso   1.000  C
  H371     1.0000 0.92413  0.33584  0.75918  Biso   1.000  H
  H372     1.0000 0.85299  0.31786  0.85471  Biso   1.000  H
  H373     1.0000 0.92416  0.33592  0.75918  Biso   1.000  H
  H374     1.0000 0.85310  0.31795  0.85471  Biso   1.000  H
  H375     1.0000 0.92408  0.33592  0.75918  Biso   1.000  H
  H376     1.0000 0.85302  0.31795  0.85471  Biso   1.000  H
  H377     1.0000 0.92405  0.33584  0.75918  Biso   1.000  H
  N258     1.0000 0.02200  0.33525  0.89986  Biso   1.000  N
  N259     1.0000 0.02203  0.33534  0.89986  Biso   1.000  N
  N260     1.0000 0.02208  0.33525  0.89986  Biso   1.000  N
  O134     1.0000 0.28901  0.88003  0.15052  Biso   1.000  O
  O135     1.0000 0.28909  0.88003  0.15052  Biso   1.000  O
  N261     1.0000 0.27172  0.02162  0.30982  Biso   1.000  N
  N262     1.0000 0.27175  0.02170  0.30982  Biso   1.000  N
  N263     1.0000 0.27164  0.02162  0.30982  Biso   1.000  N
  N264     1.0000 0.27166  0.02170  0.30982  Biso   1.000  N
  H378     1.0000 0.11686  0.85035  0.40987  Biso   1.000  H
  H379     1.0000 0.11694  0.85035  0.40987  Biso   1.000  H
  C399     1.0000 0.20373  0.02339  0.39882  Biso   1.000  C
  C400     1.0000 0.20384  0.02348  0.39882  Biso   1.000  C
  C401     1.0000 0.20375  0.02348  0.39882  Biso   1.000  C
  C402     1.0000 0.20381  0.02339  0.39882  Biso   1.000  C
  C403     1.0000 0.01226  0.03331  0.37707  Biso   1.000  C
  C404     1.0000 0.01218  0.03331  0.37707  Biso   1.000  C
  H380     1.0000 0.14611  0.41270  0.82208  Biso   1.000  H
  C405     1.0000 0.22773  0.41765  0.98652  Biso   1.000  C
  H381     1.0000 0.14619  0.41270  0.82208  Biso   1.000  H
  C406     1.0000 0.22784  0.41773  0.98652  Biso   1.000  C
  C407     1.0000 0.22776  0.41773  0.98652  Biso   1.000  C
  C408     1.0000 0.22782  0.41765  0.98652  Biso   1.000  C
  O136     1.0000 0.30723  0.17109  0.84305  Biso   1.000  O
  N265     1.0000 0.29397  0.33665  0.98060  Biso   1.000  N
  O137     1.0000 0.30725  0.17118  0.84305  Biso   1.000  O
  N266     1.0000 0.29405  0.33665  0.98060  Biso   1.000  N
  O138     1.0000 0.30717  0.17118  0.84305  Biso   1.000  O
  C409     1.0000 0.03267  0.38019  0.01732  Biso   1.000  C
  C410     1.0000 0.03275  0.38019  0.01732  Biso   1.000  C
  C411     1.0000 0.38363  0.11588  0.32261  Biso   1.000  C
  C412     1.0000 0.38374  0.11596  0.32261  Biso   1.000  C
  C413     1.0000 0.38365  0.11596  0.32261  Biso   1.000  C
  C414     1.0000 0.38371  0.11588  0.32261  Biso   1.000  C
  N267     1.0000 0.13148  0.09882  0.40561  Biso   1.000  N
  N268     1.0000 0.13157  0.09882  0.40561  Biso   1.000  N
  H382     1.0000 0.25455  0.04176  0.47504  Biso   1.000  H
  H383     1.0000 0.25463  0.04176  0.47504  Biso   1.000  H
  H384     1.0000 0.25452  0.04167  0.47504  Biso   1.000  H
  O139     1.0000 0.93168  0.07441  0.38507  Biso   1.000  O
  O140     1.0000 0.93160  0.07441  0.38507  Biso   1.000  O
  O141     1.0000 0.93166  0.07432  0.38507  Biso   1.000  O
  O142     1.0000 0.93157  0.07432  0.38507  Biso   1.000  O
  N269     1.0000 0.15242  0.41895  0.06987  Biso   1.000  N
  N270     1.0000 0.15250  0.41895  0.06987  Biso   1.000  N
  H385     1.0000 0.28009  0.49981  0.99618  Biso   1.000  H
  H386     1.0000 0.28017  0.49981  0.99618  Biso   1.000  H
  C415     1.0000 0.39809  0.35731  0.06543  Biso   1.000  C
  C416     1.0000 0.39818  0.35731  0.06543  Biso   1.000  C
  C417     1.0000 0.39807  0.35722  0.06543  Biso   1.000  C
  O143     1.0000 0.95250  0.38682  0.06673  Biso   1.000  O
  O144     1.0000 0.95242  0.38682  0.06673  Biso   1.000  O
  N271     1.0000 0.37094  0.20930  0.27928  Biso   1.000  N
  H387     1.0000 0.43413  0.07955  0.28172  Biso   1.000  H
  H388     1.0000 0.42374  0.15275  0.40439  Biso   1.000  H
  H389     1.0000 0.43421  0.07955  0.28172  Biso   1.000  H
  H390     1.0000 0.42383  0.15275  0.40439  Biso   1.000  H
  N272     1.0000 0.37083  0.20922  0.27928  Biso   1.000  N
  H391     1.0000 0.43411  0.07947  0.28172  Biso   1.000  H
  H392     1.0000 0.42372  0.15267  0.40439  Biso   1.000  H
  N273     1.0000 0.37086  0.20930  0.27928  Biso   1.000  N
  N274     1.0000 0.37092  0.20922  0.27928  Biso   1.000  N
  C418     1.0000 0.18036  0.23030  0.44572  Biso   1.000  C
  C419     1.0000 0.18039  0.23039  0.44572  Biso   1.000  C
  C420     1.0000 0.18028  0.23030  0.44572  Biso   1.000  C
  C421     1.0000 0.19737  0.47629  0.19419  Biso   1.000  C
  C422     1.0000 0.19745  0.47629  0.19419  Biso   1.000  C
  N275     1.0000 0.37036  0.31467  0.15991  Biso   1.000  N
  H393     1.0000 0.44426  0.44347  0.09692  Biso   1.000  H
  H394     1.0000 0.44736  0.31676  0.02706  Biso   1.000  H
  N276     1.0000 0.37038  0.31470  0.16000  Biso   1.000  N
  H395     1.0000 0.44437  0.44355  0.09692  Biso   1.000  H
  H396     1.0000 0.44746  0.31679  0.02715  Biso   1.000  H
  N277     1.0000 0.37035  0.31462  0.16000  Biso   1.000  N
  H397     1.0000 0.44738  0.31679  0.02715  Biso   1.000  H
  N278     1.0000 0.37044  0.31467  0.15991  Biso   1.000  N
  H398     1.0000 0.44434  0.44347  0.09692  Biso   1.000  H
  H399     1.0000 0.44744  0.31676  0.02706  Biso   1.000  H
  H400     1.0000 0.44428  0.44355  0.09692  Biso   1.000  H
  C423     1.0000 0.38791  0.21362  0.17192  Biso   1.000  C
  C424     1.0000 0.34094  0.31051  0.34427  Biso   1.000  C
  C425     1.0000 0.38800  0.21362  0.17192  Biso   1.000  C
  C426     1.0000 0.38789  0.21354  0.17192  Biso   1.000  C
  C427     1.0000 0.34083  0.31042  0.34427  Biso   1.000  C
  C428     1.0000 0.34085  0.31051  0.34427  Biso   1.000  C
  C429     1.0000 0.34091  0.31042  0.34427  Biso   1.000  C
  N279     1.0000 0.21832  0.27890  0.35723  Biso   1.000  N
  H401     1.0000 0.24819  0.25883  0.51097  Biso   1.000  H
  H402     1.0000 0.12029  0.26117  0.47338  Biso   1.000  H
  H403     1.0000 0.24821  0.25886  0.51105  Biso   1.000  H
  H404     1.0000 0.12040  0.26125  0.47338  Biso   1.000  H
  N280     1.0000 0.21824  0.27890  0.35723  Biso   1.000  N
  H405     1.0000 0.24810  0.25878  0.51105  Biso   1.000  H
  H406     1.0000 0.24813  0.25886  0.51105  Biso   1.000  H
  H407     1.0000 0.12031  0.26125  0.47338  Biso   1.000  H
  H408     1.0000 0.24810  0.25883  0.51097  Biso   1.000  H
  H409     1.0000 0.24818  0.25878  0.51105  Biso   1.000  H
  N281     1.0000 0.22992  0.39766  0.25040  Biso   1.000  N
  H410     1.0000 0.13699  0.50162  0.22786  Biso   1.000  H
  H411     1.0000 0.26701  0.54843  0.20994  Biso   1.000  H
  H412     1.0000 0.13710  0.50165  0.22795  Biso   1.000  H
  H413     1.0000 0.26709  0.54843  0.20994  Biso   1.000  H
  N282     1.0000 0.22981  0.39758  0.25040  Biso   1.000  N
  H414     1.0000 0.13699  0.50157  0.22795  Biso   1.000  H
  H415     1.0000 0.26698  0.54834  0.20994  Biso   1.000  H
  N283     1.0000 0.22984  0.39766  0.25040  Biso   1.000  N
  H416     1.0000 0.13701  0.50165  0.22795  Biso   1.000  H
  N284     1.0000 0.22990  0.39758  0.25040  Biso   1.000  N
  C430     1.0000 0.34680  0.38701  0.26432  Biso   1.000  C
  C431     1.0000 0.34688  0.38701  0.26432  Biso   1.000  C
  C432     1.0000 0.34677  0.38693  0.26432  Biso   1.000  C
  O145     1.0000 0.41552  0.14049  0.10032  Biso   1.000  O
  O146     1.0000 0.41544  0.14049  0.10032  Biso   1.000  O
  H417     1.0000 0.39787  0.35668  0.41961  Biso   1.000  H
  H418     1.0000 0.39789  0.35677  0.41961  Biso   1.000  H
  H419     1.0000 0.39778  0.35668  0.41961  Biso   1.000  H
  H420     1.0000 0.39781  0.35677  0.41961  Biso   1.000  H
  C433     1.0000 0.16320  0.34795  0.31774  Biso   1.000  C
  C434     1.0000 0.16328  0.34795  0.31774  Biso   1.000  C
  C435     1.0000 0.16317  0.34787  0.31774  Biso   1.000  C
  C436     1.0000 0.16326  0.34787  0.31774  Biso   1.000  C
  H421     1.0000 0.41049  0.46656  0.29999  Biso   1.000  H
  H422     1.0000 0.41060  0.46664  0.29999  Biso   1.000  H
  H423     1.0000 0.41051  0.46664  0.29999  Biso   1.000  H
  H424     1.0000 0.41057  0.46656  0.29999  Biso   1.000  H
  O147     1.0000 0.07106  0.36157  0.33905  Biso   1.000  O
  O148     1.0000 0.07097  0.36157  0.33905  Biso   1.000  O
  O149     1.0000 0.92904  0.63850  0.66096  Biso   1.000  O
  C437     1.0000 0.83690  0.65212  0.68227  Biso   1.000  C
  C438     1.0000 0.83682  0.65212  0.68227  Biso   1.000  C
  N285     1.0000 0.78176  0.72109  0.64277  Biso   1.000  N
  N286     1.0000 0.77018  0.60241  0.74961  Biso   1.000  N
  N287     1.0000 0.78178  0.72117  0.64277  Biso   1.000  N
  O150     1.0000 0.92910  0.63842  0.66096  Biso   1.000  O
  N288     1.0000 0.78184  0.72109  0.64277  Biso   1.000  N
  N289     1.0000 0.77026  0.60241  0.74961  Biso   1.000  N
  O151     1.0000 0.92913  0.63850  0.66096  Biso   1.000  O
  N290     1.0000 0.78186  0.72117  0.64277  Biso   1.000  N
  O152     1.0000 0.92902  0.63842  0.66096  Biso   1.000  O
  C439     1.0000 0.81974  0.76977  0.55429  Biso   1.000  C
  C440     1.0000 0.65916  0.68956  0.65574  Biso   1.000  C
  C441     1.0000 0.81980  0.76968  0.55429  Biso   1.000  C
  C442     1.0000 0.65922  0.68948  0.65574  Biso   1.000  C
  C443     1.0000 0.81972  0.76968  0.55429  Biso   1.000  C
  C444     1.0000 0.65914  0.68948  0.65574  Biso   1.000  C
  C445     1.0000 0.65925  0.68956  0.65574  Biso   1.000  C
  C446     1.0000 0.81982  0.76977  0.55429  Biso   1.000  C
  C447     1.0000 0.65330  0.61306  0.73569  Biso   1.000  C
  C448     1.0000 0.65327  0.61298  0.73569  Biso   1.000  C
  C449     1.0000 0.65319  0.61298  0.73569  Biso   1.000  C
  C450     1.0000 0.80274  0.52378  0.80581  Biso   1.000  C
  C451     1.0000 0.80271  0.52369  0.80581  Biso   1.000  C
  C452     1.0000 0.80265  0.52378  0.80581  Biso   1.000  C
  C453     1.0000 0.80263  0.52369  0.80581  Biso   1.000  C
  N291     1.0000 0.86859  0.90116  0.59440  Biso   1.000  N
  H425     1.0000 0.75200  0.74124  0.48904  Biso   1.000  H
  H426     1.0000 0.87979  0.73882  0.52662  Biso   1.000  H
  N292     1.0000 0.86862  0.90125  0.59440  Biso   1.000  N
  H427     1.0000 0.75191  0.74124  0.48904  Biso   1.000  H
  H428     1.0000 0.87981  0.73890  0.52662  Biso   1.000  H
  N293     1.0000 0.86851  0.90116  0.59440  Biso   1.000  N
  H429     1.0000 0.87971  0.73882  0.52662  Biso   1.000  H
  N294     1.0000 0.62916  0.79077  0.72073  Biso   1.000  N
  H430     1.0000 0.60224  0.64339  0.58039  Biso   1.000  H
  N295     1.0000 0.62924  0.79077  0.72073  Biso   1.000  N
  H431     1.0000 0.60229  0.64330  0.58039  Biso   1.000  H
  N296     1.0000 0.62913  0.79068  0.72073  Biso   1.000  N
  H432     1.0000 0.60221  0.64330  0.58039  Biso   1.000  H
  H433     1.0000 0.60232  0.64339  0.58039  Biso   1.000  H
  N297     1.0000 0.62974  0.68540  0.84009  Biso   1.000  N
  H434     1.0000 0.58959  0.53343  0.70002  Biso   1.000  H
  H435     1.0000 0.58961  0.53351  0.70002  Biso   1.000  H
  N298     1.0000 0.62972  0.68531  0.84009  Biso   1.000  N
  N299     1.0000 0.62983  0.68540  0.84009  Biso   1.000  N
  H436     1.0000 0.58950  0.53343  0.70002  Biso   1.000  H
  H437     1.0000 0.86311  0.49845  0.77214  Biso   1.000  H
  H438     1.0000 0.73309  0.45165  0.79007  Biso   1.000  H
  N300     1.0000 0.84765  0.58104  0.93014  Biso   1.000  N
  N301     1.0000 0.84768  0.58112  0.93014  Biso   1.000  N
  H439     1.0000 0.73306  0.45156  0.79007  Biso   1.000  H
  N302     1.0000 0.84774  0.58104  0.93014  Biso   1.000  N
  H440     1.0000 0.86302  0.49845  0.77214  Biso   1.000  H
  C454     1.0000 0.98784  0.96676  0.62294  Biso   1.000  C
  C455     1.0000 0.79637  0.97668  0.60119  Biso   1.000  C
  C456     1.0000 0.98790  0.96668  0.62294  Biso   1.000  C
  C457     1.0000 0.79635  0.97659  0.60119  Biso   1.000  C
  C458     1.0000 0.98781  0.96668  0.62294  Biso   1.000  C
  C459     1.0000 0.79626  0.97659  0.60119  Biso   1.000  C
  C460     1.0000 0.98792  0.96676  0.62294  Biso   1.000  C
  C461     1.0000 0.61645  0.88411  0.67740  Biso   1.000  C
  C462     1.0000 0.61219  0.78645  0.82809  Biso   1.000  C
  C463     1.0000 0.61647  0.88419  0.67740  Biso   1.000  C
  C464     1.0000 0.61216  0.78636  0.82809  Biso   1.000  C
  C465     1.0000 0.61653  0.88411  0.67740  Biso   1.000  C
  C466     1.0000 0.61210  0.78645  0.82809  Biso   1.000  C
  C467     1.0000 0.61208  0.78636  0.82809  Biso   1.000  C
  C468     1.0000 0.60201  0.64277  0.93458  Biso   1.000  C
  C469     1.0000 0.60198  0.64268  0.93458  Biso   1.000  C
  C470     1.0000 0.60190  0.64268  0.93458  Biso   1.000  C
  C471     1.0000 0.96741  0.61980  0.98269  Biso   1.000  C
  C472     1.0000 0.96743  0.61988  0.98269  Biso   1.000  C
  C473     1.0000 0.96732  0.61980  0.98269  Biso   1.000  C
  C474     1.0000 0.77234  0.58234  0.01349  Biso   1.000  C
  C475     1.0000 0.77226  0.58234  0.01349  Biso   1.000  C
  O153     1.0000 0.06850  0.92566  0.61493  Biso   1.000  O
  O154     1.0000 0.06842  0.92566  0.61493  Biso   1.000  O
  O155     1.0000 0.06839  0.92558  0.61493  Biso   1.000  O
  N303     1.0000 0.00291  0.08798  0.65791  Biso   1.000  N
  N304     1.0000 0.00299  0.08798  0.65791  Biso   1.000  N
  N305     1.0000 0.00302  0.08807  0.65791  Biso   1.000  N
  N306     1.0000 0.00294  0.08807  0.65791  Biso   1.000  N
  H441     1.0000 0.74556  0.95831  0.52497  Biso   1.000  H
  N307     1.0000 0.72838  0.97845  0.69019  Biso   1.000  N
  N308     1.0000 0.72844  0.97837  0.69019  Biso   1.000  N
  H442     1.0000 0.74553  0.95823  0.52497  Biso   1.000  H
  N309     1.0000 0.72835  0.97837  0.69019  Biso   1.000  N
  N310     1.0000 0.72846  0.97845  0.69019  Biso   1.000  N
  H443     1.0000 0.74545  0.95823  0.52497  Biso   1.000  H
  C476     1.0000 0.89064  0.10749  0.64564  Biso   1.000  C
  C477     1.0000 0.89056  0.10749  0.64564  Biso   1.000  C
  H444     1.0000 0.56597  0.92052  0.71829  Biso   1.000  H
  H445     1.0000 0.57636  0.84732  0.59562  Biso   1.000  H
  H446     1.0000 0.57628  0.84732  0.59562  Biso   1.000  H
  H447     1.0000 0.56589  0.92052  0.71829  Biso   1.000  H
  O156     1.0000 0.58458  0.85958  0.89969  Biso   1.000  O
  O157     1.0000 0.58466  0.85953  0.89978  Biso   1.000  O
  O158     1.0000 0.58455  0.85950  0.89969  Biso   1.000  O
  O159     1.0000 0.58466  0.85958  0.89969  Biso   1.000  O
  O160     1.0000 0.58457  0.85953  0.89978  Biso   1.000  O
  H448     1.0000 0.55272  0.68323  0.97295  Biso   1.000  H
  H449     1.0000 0.55584  0.55661  0.90308  Biso   1.000  H
  H450     1.0000 0.55274  0.68331  0.97295  Biso   1.000  H
  H451     1.0000 0.55582  0.55652  0.90308  Biso   1.000  H
  H452     1.0000 0.55574  0.55652  0.90308  Biso   1.000  H
  H453     1.0000 0.55263  0.68323  0.97295  Biso   1.000  H
  N311     1.0000 0.70611  0.66334  0.01940  Biso   1.000  N
  N312     1.0000 0.70613  0.66342  0.01940  Biso   1.000  N
  N313     1.0000 0.70605  0.66342  0.01940  Biso   1.000  N
  N314     1.0000 0.97807  0.66473  0.10014  Biso   1.000  N
  N315     1.0000 0.97816  0.66473  0.10014  Biso   1.000  N
  N316     1.0000 0.97810  0.66482  0.10014  Biso   1.000  N
  O161     1.0000 0.04768  0.61325  0.93327  Biso   1.000  O
  O162     1.0000 0.04757  0.61316  0.93327  Biso   1.000  O
  O163     1.0000 0.04760  0.61325  0.93327  Biso   1.000  O
  O164     1.0000 0.04766  0.61316  0.93327  Biso   1.000  O
  C478     1.0000 0.86427  0.64174  0.13233  Biso   1.000  C
  H454     1.0000 0.71998  0.50018  0.00383  Biso   1.000  H
  C479     1.0000 0.86419  0.64174  0.13233  Biso   1.000  C
  H455     1.0000 0.72001  0.50027  0.00383  Biso   1.000  H
  C480     1.0000 0.11714  0.18374  0.68810  Biso   1.000  C
  C481     1.0000 0.11717  0.18382  0.68810  Biso   1.000  C
  C482     1.0000 0.11725  0.18382  0.68810  Biso   1.000  C
  C483     1.0000 0.76322  0.09141  0.77293  Biso   1.000  C
  C484     1.0000 0.76330  0.09141  0.77293  Biso   1.000  C
  N317     1.0000 0.86358  0.16469  0.75422  Biso   1.000  N
  H456     1.0000 0.88322  0.14964  0.59014  Biso   1.000  H
  N318     1.0000 0.86371  0.16481  0.75431  Biso   1.000  N
  H457     1.0000 0.88325  0.14973  0.59014  Biso   1.000  H
  N319     1.0000 0.86363  0.16481  0.75431  Biso   1.000  N
  H458     1.0000 0.88316  0.14973  0.59014  Biso   1.000  H
  H459     1.0000 0.88314  0.14964  0.59014  Biso   1.000  H
  C485     1.0000 0.74174  0.75508  0.12520  Biso   1.000  C
  C486     1.0000 0.74169  0.75517  0.12520  Biso   1.000  C
  C487     1.0000 0.74166  0.75508  0.12520  Biso   1.000  C
  C488     1.0000 0.74177  0.75517  0.12520  Biso   1.000  C
  C489     1.0000 0.08858  0.70509  0.18453  Biso   1.000  C
  C490     1.0000 0.08861  0.70517  0.18453  Biso   1.000  C
  N320     1.0000 0.83945  0.74931  0.18862  Biso   1.000  N
  H460     1.0000 0.85396  0.58729  0.17792  Biso   1.000  H
  N321     1.0000 0.83940  0.74940  0.18862  Biso   1.000  N
  H461     1.0000 0.85391  0.58737  0.17792  Biso   1.000  H
  N322     1.0000 0.83948  0.74940  0.18862  Biso   1.000  N
  H462     1.0000 0.85399  0.58737  0.17792  Biso   1.000  H
  N323     1.0000 0.83937  0.74931  0.18862  Biso   1.000  N
  H463     1.0000 0.85388  0.58729  0.17792  Biso   1.000  H
  N324     1.0000 0.16062  0.25068  0.81138  Biso   1.000  N
  H464     1.0000 0.11114  0.23976  0.64791  Biso   1.000  H
  H465     1.0000 0.17504  0.14927  0.66061  Biso   1.000  H
  N325     1.0000 0.16071  0.25068  0.81138  Biso   1.000  N
  H466     1.0000 0.11117  0.23985  0.64791  Biso   1.000  H
  H467     1.0000 0.17515  0.14935  0.66061  Biso   1.000  H
  H468     1.0000 0.17512  0.14927  0.66061  Biso   1.000  H
  H469     1.0000 0.17507  0.14935  0.66061  Biso   1.000  H
  O165     1.0000 0.71107  0.11995  0.84949  Biso   1.000  O
  O166     1.0000 0.71101  0.12004  0.84949  Biso   1.000  O
  O167     1.0000 0.71098  0.11995  0.84949  Biso   1.000  O
  O168     1.0000 0.71109  0.12004  0.84949  Biso   1.000  O
  C491     1.0000 0.91149  0.29490  0.81547  Biso   1.000  C
  C492     1.0000 0.91158  0.29490  0.81547  Biso   1.000  C
  O169     1.0000 0.69285  0.82890  0.15696  Biso   1.000  O
  O170     1.0000 0.69293  0.82890  0.15696  Biso   1.000  O
  N326     1.0000 0.13649  0.83529  0.24578  Biso   1.000  N
  H470     1.0000 0.07594  0.66415  0.24083  Biso   1.000  H
  H471     1.0000 0.14708  0.68213  0.14530  Biso   1.000  H
  H472     1.0000 0.07602  0.66415  0.24083  Biso   1.000  H
  H473     1.0000 0.14700  0.68213  0.14530  Biso   1.000  H
  C493     1.0000 0.88293  0.81625  0.31191  Biso   1.000  C
  C494     1.0000 0.13580  0.35825  0.86767  Biso   1.000  C
  C495     1.0000 0.25833  0.24490  0.87481  Biso   1.000  C
  C496     1.0000 0.13591  0.35833  0.86767  Biso   1.000  C
  C497     1.0000 0.25841  0.24490  0.87481  Biso   1.000  C
  C498     1.0000 0.13588  0.35825  0.86767  Biso   1.000  C
  C499     1.0000 0.13583  0.35833  0.86767  Biso   1.000  C
  H474     1.0000 0.92413  0.33584  0.75918  Biso   1.000  H
  H475     1.0000 0.85299  0.31786  0.85471  Biso   1.000  H
  H476     1.0000 0.92416  0.33592  0.75918  Biso   1.000  H
  H477     1.0000 0.85310  0.31795  0.85471  Biso   1.000  H
  H478     1.0000 0.92408  0.33592  0.75918  Biso   1.000  H
  H479     1.0000 0.85302  0.31795  0.85471  Biso   1.000  H
  H480     1.0000 0.92405  0.33584  0.75918  Biso   1.000  H
  N327     1.0000 0.02200  0.33525  0.89986  Biso   1.000  N
  N328     1.0000 0.02203  0.33534  0.89986  Biso   1.000  N
  N329     1.0000 0.02208  0.33525  0.89986  Biso   1.000  N
  C500     1.0000 0.23686  0.90858  0.22708  Biso   1.000  C
  C501     1.0000 0.10943  0.89250  0.35436  Biso   1.000  C
  C502     1.0000 0.23688  0.90866  0.22708  Biso   1.000  C
  C503     1.0000 0.10954  0.89253  0.35445  Biso   1.000  C
  C504     1.0000 0.10956  0.89262  0.35445  Biso   1.000  C
  C505     1.0000 0.10952  0.89250  0.35436  Biso   1.000  C
  C506     1.0000 0.10945  0.89253  0.35445  Biso   1.000  C
  C507     1.0000 0.10948  0.89262  0.35445  Biso   1.000  C
  N330     1.0000 0.99717  0.91200  0.34210  Biso   1.000  N
  H481     1.0000 0.88893  0.76023  0.35210  Biso   1.000  H
  H482     1.0000 0.82503  0.85072  0.33940  Biso   1.000  H
  N331     1.0000 0.99708  0.91200  0.34210  Biso   1.000  N
  H483     1.0000 0.82495  0.85072  0.33940  Biso   1.000  H
  H484     1.0000 0.14611  0.41270  0.82208  Biso   1.000  H
  C508     1.0000 0.22773  0.41765  0.98652  Biso   1.000  C
  H485     1.0000 0.14619  0.41270  0.82208  Biso   1.000  H
  C509     1.0000 0.22784  0.41773  0.98652  Biso   1.000  C
  C510     1.0000 0.22776  0.41773  0.98652  Biso   1.000  C
  C511     1.0000 0.22782  0.41765  0.98652  Biso   1.000  C
  O171     1.0000 0.30723  0.17109  0.84305  Biso   1.000  O
  N332     1.0000 0.29397  0.33665  0.98060  Biso   1.000  N
  O172     1.0000 0.30725  0.17118  0.84305  Biso   1.000  O
  N333     1.0000 0.29405  0.33665  0.98060  Biso   1.000  N
  O173     1.0000 0.30717  0.17118  0.84305  Biso   1.000  O
  C512     1.0000 0.03267  0.38019  0.01732  Biso   1.000  C
  C513     1.0000 0.03275  0.38019  0.01732  Biso   1.000  C
  O174     1.0000 0.28901  0.88003  0.15052  Biso   1.000  O
  O175     1.0000 0.28909  0.88003  0.15052  Biso   1.000  O
  N334     1.0000 0.27172  0.02162  0.30982  Biso   1.000  N
  N335     1.0000 0.27175  0.02170  0.30982  Biso   1.000  N
  N336     1.0000 0.27164  0.02162  0.30982  Biso   1.000  N
  N337     1.0000 0.27166  0.02170  0.30982  Biso   1.000  N
  H486     1.0000 0.11686  0.85035  0.40987  Biso   1.000  H
  H487     1.0000 0.11694  0.85035  0.40987  Biso   1.000  H
  C514     1.0000 0.20373  0.02339  0.39882  Biso   1.000  C
  C515     1.0000 0.20384  0.02348  0.39882  Biso   1.000  C
  C516     1.0000 0.20375  0.02348  0.39882  Biso   1.000  C
  C517     1.0000 0.20381  0.02339  0.39882  Biso   1.000  C
  C518     1.0000 0.01226  0.03331  0.37707  Biso   1.000  C
  C519     1.0000 0.01218  0.03331  0.37707  Biso   1.000  C
  H488     1.0000 0.28009  0.49981  0.99618  Biso   1.000  H
  H489     1.0000 0.28017  0.49981  0.99618  Biso   1.000  H
  N338     1.0000 0.15242  0.41895  0.06987  Biso   1.000  N
  N339     1.0000 0.15250  0.41895  0.06987  Biso   1.000  N
  C520     1.0000 0.39809  0.35731  0.06543  Biso   1.000  C
  C521     1.0000 0.39818  0.35731  0.06543  Biso   1.000  C
  C522     1.0000 0.39807  0.35722  0.06543  Biso   1.000  C
  O176     1.0000 0.95250  0.38682  0.06673  Biso   1.000  O
  O177     1.0000 0.95242  0.38682  0.06673  Biso   1.000  O
  C523     1.0000 0.38363  0.11588  0.32261  Biso   1.000  C
  C524     1.0000 0.38374  0.11596  0.32261  Biso   1.000  C
  C525     1.0000 0.38365  0.11596  0.32261  Biso   1.000  C
  C526     1.0000 0.38371  0.11588  0.32261  Biso   1.000  C
  N340     1.0000 0.13148  0.09882  0.40561  Biso   1.000  N
  H490     1.0000 0.25455  0.04176  0.47504  Biso   1.000  H
  N341     1.0000 0.13157  0.09882  0.40561  Biso   1.000  N
  H491     1.0000 0.25463  0.04176  0.47504  Biso   1.000  H
  H492     1.0000 0.25452  0.04167  0.47504  Biso   1.000  H
  O178     1.0000 0.93168  0.07441  0.38507  Biso   1.000  O
  O179     1.0000 0.93160  0.07441  0.38507  Biso   1.000  O
  O180     1.0000 0.93166  0.07432  0.38507  Biso   1.000  O
  O181     1.0000 0.93157  0.07432  0.38507  Biso   1.000  O
  C527     1.0000 0.19737  0.47629  0.19419  Biso   1.000  C
  C528     1.0000 0.19745  0.47629  0.19419  Biso   1.000  C
  N342     1.0000 0.37036  0.31467  0.15991  Biso   1.000  N
  H493     1.0000 0.44426  0.44347  0.09692  Biso   1.000  H
  H494     1.0000 0.44736  0.31676  0.02706  Biso   1.000  H
  N343     1.0000 0.37038  0.31470  0.16000  Biso   1.000  N
  H495     1.0000 0.44437  0.44355  0.09692  Biso   1.000  H
  H496     1.0000 0.44746  0.31679  0.02715  Biso   1.000  H
  N344     1.0000 0.37035  0.31462  0.16000  Biso   1.000  N
  H497     1.0000 0.44738  0.31679  0.02715  Biso   1.000  H
  N345     1.0000 0.37044  0.31467  0.15991  Biso   1.000  N
  H498     1.0000 0.44434  0.44347  0.09692  Biso   1.000  H
  H499     1.0000 0.44744  0.31676  0.02706  Biso   1.000  H
  H500     1.0000 0.44428  0.44355  0.09692  Biso   1.000  H
  N346     1.0000 0.37094  0.20930  0.27928  Biso   1.000  N
  H501     1.0000 0.43413  0.07955  0.28172  Biso   1.000  H
  H502     1.0000 0.42374  0.15275  0.40439  Biso   1.000  H
  H503     1.0000 0.43421  0.07955  0.28172  Biso   1.000  H
  H504     1.0000 0.42383  0.15275  0.40439  Biso   1.000  H
  N347     1.0000 0.37083  0.20922  0.27928  Biso   1.000  N
  H505     1.0000 0.43411  0.07947  0.28172  Biso   1.000  H
  H506     1.0000 0.42372  0.15267  0.40439  Biso   1.000  H
  N348     1.0000 0.37086  0.20930  0.27928  Biso   1.000  N
  N349     1.0000 0.37092  0.20922  0.27928  Biso   1.000  N
  C529     1.0000 0.18036  0.23030  0.44572  Biso   1.000  C
  C530     1.0000 0.18039  0.23039  0.44572  Biso   1.000  C
  C531     1.0000 0.18028  0.23030  0.44572  Biso   1.000  C
  N350     1.0000 0.22992  0.39766  0.25040  Biso   1.000  N
  H507     1.0000 0.13699  0.50162  0.22786  Biso   1.000  H
  H508     1.0000 0.26701  0.54843  0.20994  Biso   1.000  H
  H509     1.0000 0.13710  0.50165  0.22795  Biso   1.000  H
  H510     1.0000 0.26709  0.54843  0.20994  Biso   1.000  H
  N351     1.0000 0.22981  0.39758  0.25040  Biso   1.000  N
  H511     1.0000 0.13699  0.50157  0.22795  Biso   1.000  H
  H512     1.0000 0.26698  0.54834  0.20994  Biso   1.000  H
  N352     1.0000 0.22984  0.39766  0.25040  Biso   1.000  N
  H513     1.0000 0.13701  0.50165  0.22795  Biso   1.000  H
  N353     1.0000 0.22990  0.39758  0.25040  Biso   1.000  N
  C532     1.0000 0.38791  0.21362  0.17192  Biso   1.000  C
  C533     1.0000 0.34680  0.38701  0.26432  Biso   1.000  C
  C534     1.0000 0.38800  0.21362  0.17192  Biso   1.000  C
  C535     1.0000 0.34688  0.38701  0.26432  Biso   1.000  C
  C536     1.0000 0.38789  0.21354  0.17192  Biso   1.000  C
  C537     1.0000 0.34677  0.38693  0.26432  Biso   1.000  C
  C538     1.0000 0.34094  0.31051  0.34427  Biso   1.000  C
  C539     1.0000 0.34083  0.31042  0.34427  Biso   1.000  C
  C540     1.0000 0.34085  0.31051  0.34427  Biso   1.000  C
  C541     1.0000 0.34091  0.31042  0.34427  Biso   1.000  C
  N354     1.0000 0.21832  0.27890  0.35723  Biso   1.000  N
  H514     1.0000 0.24819  0.25883  0.51097  Biso   1.000  H
  H515     1.0000 0.12029  0.26117  0.47338  Biso   1.000  H
  H516     1.0000 0.24821  0.25886  0.51105  Biso   1.000  H
  H517     1.0000 0.12040  0.26125  0.47338  Biso   1.000  H
  N355     1.0000 0.21824  0.27890  0.35723  Biso   1.000  N
  H518     1.0000 0.24810  0.25878  0.51105  Biso   1.000  H
  H519     1.0000 0.24813  0.25886  0.51105  Biso   1.000  H
  H520     1.0000 0.12031  0.26125  0.47338  Biso   1.000  H
  H521     1.0000 0.24810  0.25883  0.51097  Biso   1.000  H
  H522     1.0000 0.24818  0.25878  0.51105  Biso   1.000  H
  C542     1.0000 0.16320  0.34795  0.31774  Biso   1.000  C
  C543     1.0000 0.16328  0.34795  0.31774  Biso   1.000  C
  C544     1.0000 0.16317  0.34787  0.31774  Biso   1.000  C
  C545     1.0000 0.16326  0.34787  0.31774  Biso   1.000  C
  O182     1.0000 0.41552  0.14049  0.10032  Biso   1.000  O
  O183     1.0000 0.41544  0.14049  0.10032  Biso   1.000  O
  H523     1.0000 0.41049  0.46656  0.29999  Biso   1.000  H
  H524     1.0000 0.41060  0.46664  0.29999  Biso   1.000  H
  H525     1.0000 0.41051  0.46664  0.29999  Biso   1.000  H
  H526     1.0000 0.41057  0.46656  0.29999  Biso   1.000  H
  H527     1.0000 0.39787  0.35668  0.41961  Biso   1.000  H
  H528     1.0000 0.39789  0.35677  0.41961  Biso   1.000  H
  H529     1.0000 0.39778  0.35668  0.41961  Biso   1.000  H
  H530     1.0000 0.39781  0.35677  0.41961  Biso   1.000  H
  O184     1.0000 0.07106  0.36157  0.33905  Biso   1.000  O
  O185     1.0000 0.07097  0.36157  0.33905  Biso   1.000  O
  O186     1.0000 0.92904  0.63850  0.66096  Biso   1.000  O
  C546     1.0000 0.83690  0.65212  0.68227  Biso   1.000  C
  C547     1.0000 0.83682  0.65212  0.68227  Biso   1.000  C
  N356     1.0000 0.77018  0.60241  0.74961  Biso   1.000  N
  N357     1.0000 0.78178  0.72117  0.64277  Biso   1.000  N
  O187     1.0000 0.92910  0.63842  0.66096  Biso   1.000  O
  N358     1.0000 0.78184  0.72109  0.64277  Biso   1.000  N
  N359     1.0000 0.77026  0.60241  0.74961  Biso   1.000  N
  N360     1.0000 0.78176  0.72109  0.64277  Biso   1.000  N
  O188     1.0000 0.92913  0.63850  0.66096  Biso   1.000  O
  N361     1.0000 0.78186  0.72117  0.64277  Biso   1.000  N
  O189     1.0000 0.92902  0.63842  0.66096  Biso   1.000  O
  C548     1.0000 0.65330  0.61306  0.73569  Biso   1.000  C
  C549     1.0000 0.80274  0.52378  0.80581  Biso   1.000  C
  C550     1.0000 0.65327  0.61298  0.73569  Biso   1.000  C
  C551     1.0000 0.80271  0.52369  0.80581  Biso   1.000  C
  C552     1.0000 0.80265  0.52378  0.80581  Biso   1.000  C
  C553     1.0000 0.65319  0.61298  0.73569  Biso   1.000  C
  C554     1.0000 0.80263  0.52369  0.80581  Biso   1.000  C
  C555     1.0000 0.65916  0.68956  0.65574  Biso   1.000  C
  C556     1.0000 0.65922  0.68948  0.65574  Biso   1.000  C
  C557     1.0000 0.65914  0.68948  0.65574  Biso   1.000  C
  C558     1.0000 0.65925  0.68956  0.65574  Biso   1.000  C
  C559     1.0000 0.81974  0.76977  0.55429  Biso   1.000  C
  C560     1.0000 0.81980  0.76968  0.55429  Biso   1.000  C
  C561     1.0000 0.81972  0.76968  0.55429  Biso   1.000  C
  C562     1.0000 0.81982  0.76977  0.55429  Biso   1.000  C
  N362     1.0000 0.62974  0.68540  0.84009  Biso   1.000  N
  H531     1.0000 0.58961  0.53351  0.70002  Biso   1.000  H
  H532     1.0000 0.58959  0.53343  0.70002  Biso   1.000  H
  N363     1.0000 0.62972  0.68531  0.84009  Biso   1.000  N
  N364     1.0000 0.62983  0.68540  0.84009  Biso   1.000  N
  H533     1.0000 0.58950  0.53343  0.70002  Biso   1.000  H
  H534     1.0000 0.86311  0.49845  0.77214  Biso   1.000  H
  H535     1.0000 0.73309  0.45165  0.79007  Biso   1.000  H
  N365     1.0000 0.84768  0.58112  0.93014  Biso   1.000  N
  N366     1.0000 0.84765  0.58104  0.93014  Biso   1.000  N
  H536     1.0000 0.73306  0.45156  0.79007  Biso   1.000  H
  N367     1.0000 0.84774  0.58104  0.93014  Biso   1.000  N
  H537     1.0000 0.86302  0.49845  0.77214  Biso   1.000  H
  N368     1.0000 0.62916  0.79077  0.72073  Biso   1.000  N
  H538     1.0000 0.60224  0.64339  0.58039  Biso   1.000  H
  N369     1.0000 0.62924  0.79077  0.72073  Biso   1.000  N
  H539     1.0000 0.60229  0.64330  0.58039  Biso   1.000  H
  N370     1.0000 0.62913  0.79068  0.72073  Biso   1.000  N
  H540     1.0000 0.60221  0.64330  0.58039  Biso   1.000  H
  H541     1.0000 0.60232  0.64339  0.58039  Biso   1.000  H
  N371     1.0000 0.86862  0.90125  0.59440  Biso   1.000  N
  H542     1.0000 0.75191  0.74124  0.48904  Biso   1.000  H
  H543     1.0000 0.87981  0.73890  0.52662  Biso   1.000  H
  N372     1.0000 0.86859  0.90116  0.59440  Biso   1.000  N
  H544     1.0000 0.75200  0.74124  0.48904  Biso   1.000  H
  H545     1.0000 0.87979  0.73882  0.52662  Biso   1.000  H
  N373     1.0000 0.86851  0.90116  0.59440  Biso   1.000  N
  H546     1.0000 0.87971  0.73882  0.52662  Biso   1.000  H
  C563     1.0000 0.61219  0.78645  0.82809  Biso   1.000  C
  C564     1.0000 0.60201  0.64277  0.93458  Biso   1.000  C
  C565     1.0000 0.60198  0.64268  0.93458  Biso   1.000  C
  C566     1.0000 0.61216  0.78636  0.82809  Biso   1.000  C
  C567     1.0000 0.61210  0.78645  0.82809  Biso   1.000  C
  C568     1.0000 0.61208  0.78636  0.82809  Biso   1.000  C
  C569     1.0000 0.60190  0.64268  0.93458  Biso   1.000  C
  C570     1.0000 0.96743  0.61988  0.98269  Biso   1.000  C
  C571     1.0000 0.96741  0.61980  0.98269  Biso   1.000  C
  C572     1.0000 0.96732  0.61980  0.98269  Biso   1.000  C
  C573     1.0000 0.77234  0.58234  0.01349  Biso   1.000  C
  C574     1.0000 0.77226  0.58234  0.01349  Biso   1.000  C
  C575     1.0000 0.61647  0.88419  0.67740  Biso   1.000  C
  C576     1.0000 0.61645  0.88411  0.67740  Biso   1.000  C
  C577     1.0000 0.61653  0.88411  0.67740  Biso   1.000  C
  C578     1.0000 0.98784  0.96676  0.62294  Biso   1.000  C
  C579     1.0000 0.79637  0.97668  0.60119  Biso   1.000  C
  C580     1.0000 0.98790  0.96668  0.62294  Biso   1.000  C
  C581     1.0000 0.79635  0.97659  0.60119  Biso   1.000  C
  C582     1.0000 0.98781  0.96668  0.62294  Biso   1.000  C
  C583     1.0000 0.79626  0.97659  0.60119  Biso   1.000  C
  C584     1.0000 0.98792  0.96676  0.62294  Biso   1.000  C
  O190     1.0000 0.58458  0.85958  0.89969  Biso   1.000  O
  O191     1.0000 0.58466  0.85953  0.89978  Biso   1.000  O
  O192     1.0000 0.58455  0.85950  0.89969  Biso   1.000  O
  O193     1.0000 0.58466  0.85958  0.89969  Biso   1.000  O
  O194     1.0000 0.58457  0.85953  0.89978  Biso   1.000  O
  H547     1.0000 0.55584  0.55661  0.90308  Biso   1.000  H
  H548     1.0000 0.55274  0.68331  0.97295  Biso   1.000  H
  H549     1.0000 0.55582  0.55652  0.90308  Biso   1.000  H
  H550     1.0000 0.55272  0.68323  0.97295  Biso   1.000  H
  H551     1.0000 0.55574  0.55652  0.90308  Biso   1.000  H
  H552     1.0000 0.55263  0.68323  0.97295  Biso   1.000  H
  N374     1.0000 0.70611  0.66334  0.01940  Biso   1.000  N
  N375     1.0000 0.70613  0.66342  0.01940  Biso   1.000  N
  N376     1.0000 0.70605  0.66342  0.01940  Biso   1.000  N
  N377     1.0000 0.97807  0.66473  0.10014  Biso   1.000  N
  N378     1.0000 0.97816  0.66473  0.10014  Biso   1.000  N
  N379     1.0000 0.97810  0.66482  0.10014  Biso   1.000  N
  O195     1.0000 0.04768  0.61325  0.93327  Biso   1.000  O
  O196     1.0000 0.04757  0.61316  0.93327  Biso   1.000  O
  O197     1.0000 0.04760  0.61325  0.93327  Biso   1.000  O
  O198     1.0000 0.04766  0.61316  0.93327  Biso   1.000  O
  C585     1.0000 0.86427  0.64174  0.13233  Biso   1.000  C
  H553     1.0000 0.71998  0.50018  0.00383  Biso   1.000  H
  C586     1.0000 0.86419  0.64174  0.13233  Biso   1.000  C
  H554     1.0000 0.72001  0.50027  0.00383  Biso   1.000  H
  H555     1.0000 0.56597  0.92052  0.71829  Biso   1.000  H
  H556     1.0000 0.57636  0.84732  0.59562  Biso   1.000  H
  N380     1.0000 0.72838  0.97845  0.69019  Biso   1.000  N
  N381     1.0000 0.72844  0.97837  0.69019  Biso   1.000  N
  N382     1.0000 0.72835  0.97837  0.69019  Biso   1.000  N
  H557     1.0000 0.57628  0.84732  0.59562  Biso   1.000  H
  N383     1.0000 0.72846  0.97845  0.69019  Biso   1.000  N
  H558     1.0000 0.56589  0.92052  0.71829  Biso   1.000  H
  O199     1.0000 0.06850  0.92566  0.61493  Biso   1.000  O
  O200     1.0000 0.06842  0.92566  0.61493  Biso   1.000  O
  O201     1.0000 0.06839  0.92558  0.61493  Biso   1.000  O
  N384     1.0000 0.00291  0.08798  0.65791  Biso   1.000  N
  N385     1.0000 0.00299  0.08798  0.65791  Biso   1.000  N
  N386     1.0000 0.00302  0.08807  0.65791  Biso   1.000  N
  N387     1.0000 0.00294  0.08807  0.65791  Biso   1.000  N
  H559     1.0000 0.74556  0.95831  0.52497  Biso   1.000  H
  H560     1.0000 0.74553  0.95823  0.52497  Biso   1.000  H
  H561     1.0000 0.74545  0.95823  0.52497  Biso   1.000  H
  C587     1.0000 0.89064  0.10749  0.64564  Biso   1.000  C
  C588     1.0000 0.89056  0.10749  0.64564  Biso   1.000  C
  C589     1.0000 0.74174  0.75508  0.12520  Biso   1.000  C
  C590     1.0000 0.74169  0.75517  0.12520  Biso   1.000  C
  C591     1.0000 0.74166  0.75508  0.12520  Biso   1.000  C
  C592     1.0000 0.74177  0.75517  0.12520  Biso   1.000  C
  C593     1.0000 0.08858  0.70509  0.18453  Biso   1.000  C
  C594     1.0000 0.08861  0.70517  0.18453  Biso   1.000  C
  N388     1.0000 0.83945  0.74931  0.18862  Biso   1.000  N
  H562     1.0000 0.85396  0.58729  0.17792  Biso   1.000  H
  N389     1.0000 0.83940  0.74940  0.18862  Biso   1.000  N
  H563     1.0000 0.85391  0.58737  0.17792  Biso   1.000  H
  N390     1.0000 0.83948  0.74940  0.18862  Biso   1.000  N
  H564     1.0000 0.85399  0.58737  0.17792  Biso   1.000  H
  N391     1.0000 0.83937  0.74931  0.18862  Biso   1.000  N
  H565     1.0000 0.85388  0.58729  0.17792  Biso   1.000  H
  C595     1.0000 0.76322  0.09141  0.77293  Biso   1.000  C
  C596     1.0000 0.76330  0.09141  0.77293  Biso   1.000  C
  C597     1.0000 0.11714  0.18374  0.68810  Biso   1.000  C
  C598     1.0000 0.11717  0.18382  0.68810  Biso   1.000  C
  C599     1.0000 0.11725  0.18382  0.68810  Biso   1.000  C
  N392     1.0000 0.86358  0.16469  0.75422  Biso   1.000  N
  H566     1.0000 0.88322  0.14964  0.59014  Biso   1.000  H
  N393     1.0000 0.86371  0.16481  0.75431  Biso   1.000  N
  H567     1.0000 0.88325  0.14973  0.59014  Biso   1.000  H
  N394     1.0000 0.86363  0.16481  0.75431  Biso   1.000  N
  H568     1.0000 0.88316  0.14973  0.59014  Biso   1.000  H
  H569     1.0000 0.88314  0.14964  0.59014  Biso   1.000  H
  O202     1.0000 0.69285  0.82890  0.15696  Biso   1.000  O
  O203     1.0000 0.69293  0.82890  0.15696  Biso   1.000  O
  N395     1.0000 0.13649  0.83529  0.24578  Biso   1.000  N
  H570     1.0000 0.07594  0.66415  0.24083  Biso   1.000  H
  H571     1.0000 0.14708  0.68213  0.14530  Biso   1.000  H
  H572     1.0000 0.07602  0.66415  0.24083  Biso   1.000  H
  H573     1.0000 0.14700  0.68213  0.14530  Biso   1.000  H
  C600     1.0000 0.88293  0.81625  0.31191  Biso   1.000  C
  O204     1.0000 0.71107  0.11995  0.84949  Biso   1.000  O
  O205     1.0000 0.71101  0.12004  0.84949  Biso   1.000  O
  O206     1.0000 0.71098  0.11995  0.84949  Biso   1.000  O
  O207     1.0000 0.71109  0.12004  0.84949  Biso   1.000  O
  N396     1.0000 0.16062  0.25068  0.81138  Biso   1.000  N
  H574     1.0000 0.11114  0.23976  0.64791  Biso   1.000  H
  H575     1.0000 0.17504  0.14927  0.66061  Biso   1.000  H
  N397     1.0000 0.16071  0.25068  0.81138  Biso   1.000  N
  H576     1.0000 0.11117  0.23985  0.64791  Biso   1.000  H
  H577     1.0000 0.17515  0.14935  0.66061  Biso   1.000  H
  H578     1.0000 0.17512  0.14927  0.66061  Biso   1.000  H
  H579     1.0000 0.17507  0.14935  0.66061  Biso   1.000  H
  C601     1.0000 0.91149  0.29490  0.81547  Biso   1.000  C
  C602     1.0000 0.91158  0.29490  0.81547  Biso   1.000  C
  C603     1.0000 0.23686  0.90858  0.22708  Biso   1.000  C
  C604     1.0000 0.10943  0.89250  0.35436  Biso   1.000  C
  C605     1.0000 0.23688  0.90866  0.22708  Biso   1.000  C
  C606     1.0000 0.10954  0.89253  0.35445  Biso   1.000  C
  C607     1.0000 0.10956  0.89262  0.35445  Biso   1.000  C
  C608     1.0000 0.10952  0.89250  0.35436  Biso   1.000  C
  C609     1.0000 0.10945  0.89253  0.35445  Biso   1.000  C
  C610     1.0000 0.10948  0.89262  0.35445  Biso   1.000  C
  N398     1.0000 0.99717  0.91200  0.34210  Biso   1.000  N
  H580     1.0000 0.88893  0.76023  0.35210  Biso   1.000  H
  H581     1.0000 0.82503  0.85072  0.33940  Biso   1.000  H
  N399     1.0000 0.99708  0.91200  0.34210  Biso   1.000  N
  H582     1.0000 0.82495  0.85072  0.33940  Biso   1.000  H
  C611     1.0000 0.13580  0.35825  0.86767  Biso   1.000  C
  C612     1.0000 0.25833  0.24490  0.87481  Biso   1.000  C
  C613     1.0000 0.13591  0.35833  0.86767  Biso   1.000  C
  C614     1.0000 0.25841  0.24490  0.87481  Biso   1.000  C
  C615     1.0000 0.13588  0.35825  0.86767  Biso   1.000  C
  C616     1.0000 0.13583  0.35833  0.86767  Biso   1.000  C
  H583     1.0000 0.92413  0.33584  0.75918  Biso   1.000  H
  H584     1.0000 0.85299  0.31786  0.85471  Biso   1.000  H
  H585     1.0000 0.92416  0.33592  0.75918  Biso   1.000  H
  H586     1.0000 0.85310  0.31795  0.85471  Biso   1.000  H
  H587     1.0000 0.92408  0.33592  0.75918  Biso   1.000  H
  H588     1.0000 0.85302  0.31795  0.85471  Biso   1.000  H
  H589     1.0000 0.92405  0.33584  0.75918  Biso   1.000  H
  N400     1.0000 0.02200  0.33525  0.89986  Biso   1.000  N
  N401     1.0000 0.02203  0.33534  0.89986  Biso   1.000  N
  N402     1.0000 0.02208  0.33525  0.89986  Biso   1.000  N
  O208     1.0000 0.28901  0.88003  0.15052  Biso   1.000  O
  O209     1.0000 0.28909  0.88003  0.15052  Biso   1.000  O
  N403     1.0000 0.27172  0.02162  0.30982  Biso   1.000  N
  N404     1.0000 0.27175  0.02170  0.30982  Biso   1.000  N
  N405     1.0000 0.27164  0.02162  0.30982  Biso   1.000  N
  N406     1.0000 0.27166  0.02170  0.30982  Biso   1.000  N
  H590     1.0000 0.11686  0.85035  0.40987  Biso   1.000  H
  H591     1.0000 0.11694  0.85035  0.40987  Biso   1.000  H
  C617     1.0000 0.20373  0.02339  0.39882  Biso   1.000  C
  C618     1.0000 0.20384  0.02348  0.39882  Biso   1.000  C
  C619     1.0000 0.20375  0.02348  0.39882  Biso   1.000  C
  C620     1.0000 0.20381  0.02339  0.39882  Biso   1.000  C
  C621     1.0000 0.01226  0.03331  0.37707  Biso   1.000  C
  C622     1.0000 0.01218  0.03331  0.37707  Biso   1.000  C
  H592     1.0000 0.14611  0.41270  0.82208  Biso   1.000  H
  C623     1.0000 0.22773  0.41765  0.98652  Biso   1.000  C
  H593     1.0000 0.14619  0.41270  0.82208  Biso   1.000  H
  C624     1.0000 0.22784  0.41773  0.98652  Biso   1.000  C
  C625     1.0000 0.22776  0.41773  0.98652  Biso   1.000  C
  C626     1.0000 0.22782  0.41765  0.98652  Biso   1.000  C
  O210     1.0000 0.30723  0.17109  0.84305  Biso   1.000  O
  N407     1.0000 0.29397  0.33665  0.98060  Biso   1.000  N
  O211     1.0000 0.30725  0.17118  0.84305  Biso   1.000  O
  N408     1.0000 0.29405  0.33665  0.98060  Biso   1.000  N
  O212     1.0000 0.30717  0.17118  0.84305  Biso   1.000  O
  C627     1.0000 0.03267  0.38019  0.01732  Biso   1.000  C
  C628     1.0000 0.03275  0.38019  0.01732  Biso   1.000  C
  C629     1.0000 0.38363  0.11588  0.32261  Biso   1.000  C
  C630     1.0000 0.38374  0.11596  0.32261  Biso   1.000  C
  C631     1.0000 0.38365  0.11596  0.32261  Biso   1.000  C
  C632     1.0000 0.38371  0.11588  0.32261  Biso   1.000  C
  N409     1.0000 0.13148  0.09882  0.40561  Biso   1.000  N
  H594     1.0000 0.25455  0.04176  0.47504  Biso   1.000  H
  N410     1.0000 0.13157  0.09882  0.40561  Biso   1.000  N
  H595     1.0000 0.25463  0.04176  0.47504  Biso   1.000  H
  H596     1.0000 0.25452  0.04167  0.47504  Biso   1.000  H
  O213     1.0000 0.93168  0.07441  0.38507  Biso   1.000  O
  O214     1.0000 0.93160  0.07441  0.38507  Biso   1.000  O
  O215     1.0000 0.93166  0.07432  0.38507  Biso   1.000  O
  O216     1.0000 0.93157  0.07432  0.38507  Biso   1.000  O
  H597     1.0000 0.28009  0.49981  0.99618  Biso   1.000  H
  H598     1.0000 0.28017  0.49981  0.99618  Biso   1.000  H
  N411     1.0000 0.15242  0.41895  0.06987  Biso   1.000  N
  N412     1.0000 0.15250  0.41895  0.06987  Biso   1.000  N
  C633     1.0000 0.39809  0.35731  0.06543  Biso   1.000  C
  C634     1.0000 0.39818  0.35731  0.06543  Biso   1.000  C
  C635     1.0000 0.39807  0.35722  0.06543  Biso   1.000  C
  O217     1.0000 0.95250  0.38682  0.06673  Biso   1.000  O
  O218     1.0000 0.95242  0.38682  0.06673  Biso   1.000  O
  N413     1.0000 0.37094  0.20930  0.27928  Biso   1.000  N
  H599     1.0000 0.43413  0.07955  0.28172  Biso   1.000  H
  H600     1.0000 0.42374  0.15275  0.40439  Biso   1.000  H
  H601     1.0000 0.43421  0.07955  0.28172  Biso   1.000  H
  H602     1.0000 0.42383  0.15275  0.40439  Biso   1.000  H
  N414     1.0000 0.37083  0.20922  0.27928  Biso   1.000  N
  H603     1.0000 0.43411  0.07947  0.28172  Biso   1.000  H
  H604     1.0000 0.42372  0.15267  0.40439  Biso   1.000  H
  N415     1.0000 0.37086  0.20930  0.27928  Biso   1.000  N
  N416     1.0000 0.37092  0.20922  0.27928  Biso   1.000  N
  C636     1.0000 0.18036  0.23030  0.44572  Biso   1.000  C
  C637     1.0000 0.18039  0.23039  0.44572  Biso   1.000  C
  C638     1.0000 0.18028  0.23030  0.44572  Biso   1.000  C
  C639     1.0000 0.19737  0.47629  0.19419  Biso   1.000  C
  C640     1.0000 0.19745  0.47629  0.19419  Biso   1.000  C
  N417     1.0000 0.37036  0.31467  0.15991  Biso   1.000  N
  H605     1.0000 0.44426  0.44347  0.09692  Biso   1.000  H
  H606     1.0000 0.44736  0.31676  0.02706  Biso   1.000  H
  N418     1.0000 0.37038  0.31470  0.16000  Biso   1.000  N
  H607     1.0000 0.44437  0.44355  0.09692  Biso   1.000  H
  H608     1.0000 0.44746  0.31679  0.02715  Biso   1.000  H
  N419     1.0000 0.37035  0.31462  0.16000  Biso   1.000  N
  H609     1.0000 0.44738  0.31679  0.02715  Biso   1.000  H
  N420     1.0000 0.37044  0.31467  0.15991  Biso   1.000  N
  H610     1.0000 0.44434  0.44347  0.09692  Biso   1.000  H
  H611     1.0000 0.44744  0.31676  0.02706  Biso   1.000  H
  H612     1.0000 0.44428  0.44355  0.09692  Biso   1.000  H
  C641     1.0000 0.38791  0.21362  0.17192  Biso   1.000  C
  C642     1.0000 0.34094  0.31051  0.34427  Biso   1.000  C
  C643     1.0000 0.38800  0.21362  0.17192  Biso   1.000  C
  C644     1.0000 0.38789  0.21354  0.17192  Biso   1.000  C
  C645     1.0000 0.34083  0.31042  0.34427  Biso   1.000  C
  C646     1.0000 0.34085  0.31051  0.34427  Biso   1.000  C
  C647     1.0000 0.34091  0.31042  0.34427  Biso   1.000  C
  N421     1.0000 0.21832  0.27890  0.35723  Biso   1.000  N
  H613     1.0000 0.24819  0.25883  0.51097  Biso   1.000  H
  H614     1.0000 0.12029  0.26117  0.47338  Biso   1.000  H
  H615     1.0000 0.24821  0.25886  0.51105  Biso   1.000  H
  H616     1.0000 0.12040  0.26125  0.47338  Biso   1.000  H
  N422     1.0000 0.21824  0.27890  0.35723  Biso   1.000  N
  H617     1.0000 0.24810  0.25878  0.51105  Biso   1.000  H
  H618     1.0000 0.24813  0.25886  0.51105  Biso   1.000  H
  H619     1.0000 0.12031  0.26125  0.47338  Biso   1.000  H
  H620     1.0000 0.24810  0.25883  0.51097  Biso   1.000  H
  H621     1.0000 0.24818  0.25878  0.51105  Biso   1.000  H
  N423     1.0000 0.22992  0.39766  0.25040  Biso   1.000  N
  H622     1.0000 0.13699  0.50162  0.22786  Biso   1.000  H
  H623     1.0000 0.26701  0.54843  0.20994  Biso   1.000  H
  H624     1.0000 0.13710  0.50165  0.22795  Biso   1.000  H
  H625     1.0000 0.26709  0.54843  0.20994  Biso   1.000  H
  N424     1.0000 0.22981  0.39758  0.25040  Biso   1.000  N
  H626     1.0000 0.13699  0.50157  0.22795  Biso   1.000  H
  H627     1.0000 0.26698  0.54834  0.20994  Biso   1.000  H
  N425     1.0000 0.22984  0.39766  0.25040  Biso   1.000  N
  H628     1.0000 0.13701  0.50165  0.22795  Biso   1.000  H
  N426     1.0000 0.22990  0.39758  0.25040  Biso   1.000  N
  C648     1.0000 0.34680  0.38701  0.26432  Biso   1.000  C
  C649     1.0000 0.34688  0.38701  0.26432  Biso   1.000  C
  C650     1.0000 0.34677  0.38693  0.26432  Biso   1.000  C
  O219     1.0000 0.41552  0.14049  0.10032  Biso   1.000  O
  O220     1.0000 0.41544  0.14049  0.10032  Biso   1.000  O
  H629     1.0000 0.39787  0.35668  0.41961  Biso   1.000  H
  H630     1.0000 0.39789  0.35677  0.41961  Biso   1.000  H
  H631     1.0000 0.39778  0.35668  0.41961  Biso   1.000  H
  H632     1.0000 0.39781  0.35677  0.41961  Biso   1.000  H
  C651     1.0000 0.16320  0.34795  0.31774  Biso   1.000  C
  C652     1.0000 0.16328  0.34795  0.31774  Biso   1.000  C
  C653     1.0000 0.16317  0.34787  0.31774  Biso   1.000  C
  C654     1.0000 0.16326  0.34787  0.31774  Biso   1.000  C
  H633     1.0000 0.41049  0.46656  0.29999  Biso   1.000  H
  H634     1.0000 0.41060  0.46664  0.29999  Biso   1.000  H
  H635     1.0000 0.41051  0.46664  0.29999  Biso   1.000  H
  H636     1.0000 0.41057  0.46656  0.29999  Biso   1.000  H
  O221     1.0000 0.07106  0.36157  0.33905  Biso   1.000  O
  O222     1.0000 0.07097  0.36157  0.33905  Biso   1.000  O
  O223     1.0000 0.92904  0.63850  0.66096  Biso   1.000  O
  C655     1.0000 0.83690  0.65212  0.68227  Biso   1.000  C
  C656     1.0000 0.83682  0.65212  0.68227  Biso   1.000  C
  N427     1.0000 0.78178  0.72117  0.64277  Biso   1.000  N
  N428     1.0000 0.77018  0.60241  0.74961  Biso   1.000  N
  O224     1.0000 0.92910  0.63842  0.66096  Biso   1.000  O
  N429     1.0000 0.78184  0.72109  0.64277  Biso   1.000  N
  N430     1.0000 0.77026  0.60241  0.74961  Biso   1.000  N
  N431     1.0000 0.78176  0.72109  0.64277  Biso   1.000  N
  O225     1.0000 0.92913  0.63850  0.66096  Biso   1.000  O
  N432     1.0000 0.78186  0.72117  0.64277  Biso   1.000  N
  O226     1.0000 0.92902  0.63842  0.66096  Biso   1.000  O
  C657     1.0000 0.81974  0.76977  0.55429  Biso   1.000  C
  C658     1.0000 0.65916  0.68956  0.65574  Biso   1.000  C
  C659     1.0000 0.81980  0.76968  0.55429  Biso   1.000  C
  C660     1.0000 0.65922  0.68948  0.65574  Biso   1.000  C
  C661     1.0000 0.81972  0.76968  0.55429  Biso   1.000  C
  C662     1.0000 0.65914  0.68948  0.65574  Biso   1.000  C
  C663     1.0000 0.65925  0.68956  0.65574  Biso   1.000  C
  C664     1.0000 0.81982  0.76977  0.55429  Biso   1.000  C
  C665     1.0000 0.65330  0.61306  0.73569  Biso   1.000  C
  C666     1.0000 0.80274  0.52378  0.80581  Biso   1.000  C
  C667     1.0000 0.65327  0.61298  0.73569  Biso   1.000  C
  C668     1.0000 0.80271  0.52369  0.80581  Biso   1.000  C
  C669     1.0000 0.80265  0.52378  0.80581  Biso   1.000  C
  C670     1.0000 0.65319  0.61298  0.73569  Biso   1.000  C
  C671     1.0000 0.80263  0.52369  0.80581  Biso   1.000  C
  N433     1.0000 0.86862  0.90125  0.59440  Biso   1.000  N
  H637     1.0000 0.75191  0.74124  0.48904  Biso   1.000  H
  H638     1.0000 0.87981  0.73890  0.52662  Biso   1.000  H
  N434     1.0000 0.86859  0.90116  0.59440  Biso   1.000  N
  H639     1.0000 0.75200  0.74124  0.48904  Biso   1.000  H
  H640     1.0000 0.87979  0.73882  0.52662  Biso   1.000  H
  N435     1.0000 0.86851  0.90116  0.59440  Biso   1.000  N
  H641     1.0000 0.87971  0.73882  0.52662  Biso   1.000  H
  N436     1.0000 0.62916  0.79077  0.72073  Biso   1.000  N
  H642     1.0000 0.60224  0.64339  0.58039  Biso   1.000  H
  N437     1.0000 0.62924  0.79077  0.72073  Biso   1.000  N
  H643     1.0000 0.60229  0.64330  0.58039  Biso   1.000  H
  N438     1.0000 0.62913  0.79068  0.72073  Biso   1.000  N
  H644     1.0000 0.60221  0.64330  0.58039  Biso   1.000  H
  H645     1.0000 0.60232  0.64339  0.58039  Biso   1.000  H
  N439     1.0000 0.62974  0.68540  0.84009  Biso   1.000  N
  H646     1.0000 0.58961  0.53351  0.70002  Biso   1.000  H
  H647     1.0000 0.58959  0.53343  0.70002  Biso   1.000  H
  N440     1.0000 0.62972  0.68531  0.84009  Biso   1.000  N
  N441     1.0000 0.62983  0.68540  0.84009  Biso   1.000  N
  H648     1.0000 0.58950  0.53343  0.70002  Biso   1.000  H
  N442     1.0000 0.84768  0.58112  0.93014  Biso   1.000  N
  H649     1.0000 0.86311  0.49845  0.77214  Biso   1.000  H
  H650     1.0000 0.73309  0.45165  0.79007  Biso   1.000  H
  N443     1.0000 0.84765  0.58104  0.93014  Biso   1.000  N
  H651     1.0000 0.73306  0.45156  0.79007  Biso   1.000  H
  N444     1.0000 0.84774  0.58104  0.93014  Biso   1.000  N
  H652     1.0000 0.86302  0.49845  0.77214  Biso   1.000  H
  C672     1.0000 0.98784  0.96676  0.62294  Biso   1.000  C
  C673     1.0000 0.79637  0.97668  0.60119  Biso   1.000  C
  C674     1.0000 0.98790  0.96668  0.62294  Biso   1.000  C
  C675     1.0000 0.79635  0.97659  0.60119  Biso   1.000  C
  C676     1.0000 0.98781  0.96668  0.62294  Biso   1.000  C
  C677     1.0000 0.79626  0.97659  0.60119  Biso   1.000  C
  C678     1.0000 0.98792  0.96676  0.62294  Biso   1.000  C
  C679     1.0000 0.61647  0.88419  0.67740  Biso   1.000  C
  C680     1.0000 0.61219  0.78645  0.82809  Biso   1.000  C
  C681     1.0000 0.61645  0.88411  0.67740  Biso   1.000  C
  C682     1.0000 0.61216  0.78636  0.82809  Biso   1.000  C
  C683     1.0000 0.61653  0.88411  0.67740  Biso   1.000  C
  C684     1.0000 0.61210  0.78645  0.82809  Biso   1.000  C
  C685     1.0000 0.61208  0.78636  0.82809  Biso   1.000  C
  C686     1.0000 0.60201  0.64277  0.93458  Biso   1.000  C
  C687     1.0000 0.60198  0.64268  0.93458  Biso   1.000  C
  C688     1.0000 0.60190  0.64268  0.93458  Biso   1.000  C
  C689     1.0000 0.96743  0.61988  0.98269  Biso   1.000  C
  C690     1.0000 0.96741  0.61980  0.98269  Biso   1.000  C
  C691     1.0000 0.96732  0.61980  0.98269  Biso   1.000  C
  C692     1.0000 0.77234  0.58234  0.01349  Biso   1.000  C
  C693     1.0000 0.77226  0.58234  0.01349  Biso   1.000  C
  O227     1.0000 0.06850  0.92566  0.61493  Biso   1.000  O
  O228     1.0000 0.06842  0.92566  0.61493  Biso   1.000  O
  O229     1.0000 0.06839  0.92558  0.61493  Biso   1.000  O
  N445     1.0000 0.00291  0.08798  0.65791  Biso   1.000  N
  N446     1.0000 0.00299  0.08798  0.65791  Biso   1.000  N
  N447     1.0000 0.00302  0.08807  0.65791  Biso   1.000  N
  N448     1.0000 0.00294  0.08807  0.65791  Biso   1.000  N
  N449     1.0000 0.72838  0.97845  0.69019  Biso   1.000  N
  H653     1.0000 0.74556  0.95831  0.52497  Biso   1.000  H
  N450     1.0000 0.72844  0.97837  0.69019  Biso   1.000  N
  H654     1.0000 0.74553  0.95823  0.52497  Biso   1.000  H
  N451     1.0000 0.72835  0.97837  0.69019  Biso   1.000  N
  N452     1.0000 0.72846  0.97845  0.69019  Biso   1.000  N
  H655     1.0000 0.74545  0.95823  0.52497  Biso   1.000  H
  C694     1.0000 0.89064  0.10749  0.64564  Biso   1.000  C
  C695     1.0000 0.89056  0.10749  0.64564  Biso   1.000  C
  H656     1.0000 0.56597  0.92052  0.71829  Biso   1.000  H
  H657     1.0000 0.57636  0.84732  0.59562  Biso   1.000  H
  H658     1.0000 0.57628  0.84732  0.59562  Biso   1.000  H
  H659     1.0000 0.56589  0.92052  0.71829  Biso   1.000  H
  O230     1.0000 0.58458  0.85958  0.89969  Biso   1.000  O
  O231     1.0000 0.58466  0.85953  0.89978  Biso   1.000  O
  O232     1.0000 0.58455  0.85950  0.89969  Biso   1.000  O
  O233     1.0000 0.58466  0.85958  0.89969  Biso   1.000  O
  O234     1.0000 0.58457  0.85953  0.89978  Biso   1.000  O
  H660     1.0000 0.55584  0.55661  0.90308  Biso   1.000  H
  H661     1.0000 0.55274  0.68331  0.97295  Biso   1.000  H
  H662     1.0000 0.55582  0.55652  0.90308  Biso   1.000  H
  H663     1.0000 0.55272  0.68323  0.97295  Biso   1.000  H
  H664     1.0000 0.55574  0.55652  0.90308  Biso   1.000  H
  H665     1.0000 0.55263  0.68323  0.97295  Biso   1.000  H
  N453     1.0000 0.70611  0.66334  0.01940  Biso   1.000  N
  N454     1.0000 0.70613  0.66342  0.01940  Biso   1.000  N
  N455     1.0000 0.70605  0.66342  0.01940  Biso   1.000  N
  N456     1.0000 0.97807  0.66473  0.10014  Biso   1.000  N
  N457     1.0000 0.97816  0.66473  0.10014  Biso   1.000  N
  N458     1.0000 0.97810  0.66482  0.10014  Biso   1.000  N
  O235     1.0000 0.04768  0.61325  0.93327  Biso   1.000  O
  O236     1.0000 0.04757  0.61316  0.93327  Biso   1.000  O
  O237     1.0000 0.04760  0.61325  0.93327  Biso   1.000  O
  O238     1.0000 0.04766  0.61316  0.93327  Biso   1.000  O
  C696     1.0000 0.86427  0.64174  0.13233  Biso   1.000  C
  H666     1.0000 0.71998  0.50018  0.00383  Biso   1.000  H
  C697     1.0000 0.86419  0.64174  0.13233  Biso   1.000  C
  H667     1.0000 0.72001  0.50027  0.00383  Biso   1.000  H
  C698     1.0000 0.11714  0.18374  0.68810  Biso   1.000  C
  C699     1.0000 0.11717  0.18382  0.68810  Biso   1.000  C
  C700     1.0000 0.11725  0.18382  0.68810  Biso   1.000  C
  C701     1.0000 0.76322  0.09141  0.77293  Biso   1.000  C
  C702     1.0000 0.76330  0.09141  0.77293  Biso   1.000  C
  N459     1.0000 0.86358  0.16469  0.75422  Biso   1.000  N
  H668     1.0000 0.88322  0.14964  0.59014  Biso   1.000  H
  N460     1.0000 0.86371  0.16481  0.75431  Biso   1.000  N
  H669     1.0000 0.88325  0.14973  0.59014  Biso   1.000  H
  N461     1.0000 0.86363  0.16481  0.75431  Biso   1.000  N
  H670     1.0000 0.88316  0.14973  0.59014  Biso   1.000  H
  H671     1.0000 0.88314  0.14964  0.59014  Biso   1.000  H
  C703     1.0000 0.74174  0.75508  0.12520  Biso   1.000  C
  C704     1.0000 0.74169  0.75517  0.12520  Biso   1.000  C
  C705     1.0000 0.74166  0.75508  0.12520  Biso   1.000  C
  C706     1.0000 0.74177  0.75517  0.12520  Biso   1.000  C
  C707     1.0000 0.08858  0.70509  0.18453  Biso   1.000  C
  C708     1.0000 0.08861  0.70517  0.18453  Biso   1.000  C
  N462     1.0000 0.83945  0.74931  0.18862  Biso   1.000  N
  H672     1.0000 0.85396  0.58729  0.17792  Biso   1.000  H
  N463     1.0000 0.83940  0.74940  0.18862  Biso   1.000  N
  H673     1.0000 0.85391  0.58737  0.17792  Biso   1.000  H
  N464     1.0000 0.83948  0.74940  0.18862  Biso   1.000  N
  H674     1.0000 0.85399  0.58737  0.17792  Biso   1.000  H
  N465     1.0000 0.83937  0.74931  0.18862  Biso   1.000  N
  H675     1.0000 0.85388  0.58729  0.17792  Biso   1.000  H
  N466     1.0000 0.16062  0.25068  0.81138  Biso   1.000  N
  H676     1.0000 0.11114  0.23976  0.64791  Biso   1.000  H
  H677     1.0000 0.17504  0.14927  0.66061  Biso   1.000  H
  N467     1.0000 0.16071  0.25068  0.81138  Biso   1.000  N
  H678     1.0000 0.11117  0.23985  0.64791  Biso   1.000  H
  H679     1.0000 0.17515  0.14935  0.66061  Biso   1.000  H
  H680     1.0000 0.17512  0.14927  0.66061  Biso   1.000  H
  H681     1.0000 0.17507  0.14935  0.66061  Biso   1.000  H
  O239     1.0000 0.71107  0.11995  0.84949  Biso   1.000  O
  O240     1.0000 0.71101  0.12004  0.84949  Biso   1.000  O
  O241     1.0000 0.71098  0.11995  0.84949  Biso   1.000  O
  O242     1.0000 0.71109  0.12004  0.84949  Biso   1.000  O
  C709     1.0000 0.91149  0.29490  0.81547  Biso   1.000  C
  C710     1.0000 0.91158  0.29490  0.81547  Biso   1.000  C
  O243     1.0000 0.69285  0.82890  0.15696  Biso   1.000  O
  O244     1.0000 0.69293  0.82890  0.15696  Biso   1.000  O
  N468     1.0000 0.13649  0.83529  0.24578  Biso   1.000  N
  H682     1.0000 0.07594  0.66415  0.24083  Biso   1.000  H
  H683     1.0000 0.14708  0.68213  0.14530  Biso   1.000  H
  H684     1.0000 0.07602  0.66415  0.24083  Biso   1.000  H
  H685     1.0000 0.14700  0.68213  0.14530  Biso   1.000  H
  C711     1.0000 0.88293  0.81625  0.31191  Biso   1.000  C
  C712     1.0000 0.13580  0.35825  0.86767  Biso   1.000  C
  C713     1.0000 0.25833  0.24490  0.87481  Biso   1.000  C
  C714     1.0000 0.13591  0.35833  0.86767  Biso   1.000  C
  C715     1.0000 0.25841  0.24490  0.87481  Biso   1.000  C
  C716     1.0000 0.13588  0.35825  0.86767  Biso   1.000  C
  C717     1.0000 0.13583  0.35833  0.86767  Biso   1.000  C
  H686     1.0000 0.92413  0.33584  0.75918  Biso   1.000  H
  H687     1.0000 0.85299  0.31786  0.85471  Biso   1.000  H
  H688     1.0000 0.92416  0.33592  0.75918  Biso   1.000  H
  H689     1.0000 0.85310  0.31795  0.85471  Biso   1.000  H
  H690     1.0000 0.92408  0.33592  0.75918  Biso   1.000  H
  H691     1.0000 0.85302  0.31795  0.85471  Biso   1.000  H
  H692     1.0000 0.92405  0.33584  0.75918  Biso   1.000  H
  N469     1.0000 0.02200  0.33525  0.89986  Biso   1.000  N
  N470     1.0000 0.02203  0.33534  0.89986  Biso   1.000  N
  N471     1.0000 0.02208  0.33525  0.89986  Biso   1.000  N
  C718     1.0000 0.23686  0.90858  0.22708  Biso   1.000  C
  C719     1.0000 0.10943  0.89250  0.35436  Biso   1.000  C
  C720     1.0000 0.23688  0.90866  0.22708  Biso   1.000  C
  C721     1.0000 0.10954  0.89253  0.35445  Biso   1.000  C
  C722     1.0000 0.10956  0.89262  0.35445  Biso   1.000  C
  C723     1.0000 0.10952  0.89250  0.35436  Biso   1.000  C
  C724     1.0000 0.10945  0.89253  0.35445  Biso   1.000  C
  C725     1.0000 0.10948  0.89262  0.35445  Biso   1.000  C
  N472     1.0000 0.99717  0.91200  0.34210  Biso   1.000  N
  H693     1.0000 0.88893  0.76023  0.35210  Biso   1.000  H
  H694     1.0000 0.82503  0.85072  0.33940  Biso   1.000  H
  N473     1.0000 0.99708  0.91200  0.34210  Biso   1.000  N
  H695     1.0000 0.82495  0.85072  0.33940  Biso   1.000  H
  H696     1.0000 0.14611  0.41270  0.82208  Biso   1.000  H
  C726     1.0000 0.22773  0.41765  0.98652  Biso   1.000  C
  H697     1.0000 0.14619  0.41270  0.82208  Biso   1.000  H
  C727     1.0000 0.22784  0.41773  0.98652  Biso   1.000  C
  C728     1.0000 0.22776  0.41773  0.98652  Biso   1.000  C
  C729     1.0000 0.22782  0.41765  0.98652  Biso   1.000  C
  O245     1.0000 0.30723  0.17109  0.84305  Biso   1.000  O
  N474     1.0000 0.29397  0.33665  0.98060  Biso   1.000  N
  O246     1.0000 0.30725  0.17118  0.84305  Biso   1.000  O
  N475     1.0000 0.29405  0.33665  0.98060  Biso   1.000  N
  O247     1.0000 0.30717  0.17118  0.84305  Biso   1.000  O
  C730     1.0000 0.03267  0.38019  0.01732  Biso   1.000  C
  C731     1.0000 0.03275  0.38019  0.01732  Biso   1.000  C
  O248     1.0000 0.28901  0.88003  0.15052  Biso   1.000  O
  O249     1.0000 0.28909  0.88003  0.15052  Biso   1.000  O
  N476     1.0000 0.27172  0.02162  0.30982  Biso   1.000  N
  N477     1.0000 0.27175  0.02170  0.30982  Biso   1.000  N
  N478     1.0000 0.27164  0.02162  0.30982  Biso   1.000  N
  N479     1.0000 0.27166  0.02170  0.30982  Biso   1.000  N
  H698     1.0000 0.11686  0.85035  0.40987  Biso   1.000  H
  H699     1.0000 0.11694  0.85035  0.40987  Biso   1.000  H
  C732     1.0000 0.20373  0.02339  0.39882  Biso   1.000  C
  C733     1.0000 0.20384  0.02348  0.39882  Biso   1.000  C
  C734     1.0000 0.20375  0.02348  0.39882  Biso   1.000  C
  C735     1.0000 0.20381  0.02339  0.39882  Biso   1.000  C
  C736     1.0000 0.01226  0.03331  0.37707  Biso   1.000  C
  C737     1.0000 0.01218  0.03331  0.37707  Biso   1.000  C
  H700     1.0000 0.28009  0.49981  0.99618  Biso   1.000  H
  H701     1.0000 0.28017  0.49981  0.99618  Biso   1.000  H
  N480     1.0000 0.15242  0.41895  0.06987  Biso   1.000  N
  N481     1.0000 0.15250  0.41895  0.06987  Biso   1.000  N
  C738     1.0000 0.39809  0.35731  0.06543  Biso   1.000  C
  C739     1.0000 0.39818  0.35731  0.06543  Biso   1.000  C
  C740     1.0000 0.39807  0.35722  0.06543  Biso   1.000  C
  O250     1.0000 0.95250  0.38682  0.06673  Biso   1.000  O
  O251     1.0000 0.95242  0.38682  0.06673  Biso   1.000  O
  C741     1.0000 0.38363  0.11588  0.32261  Biso   1.000  C
  C742     1.0000 0.38374  0.11596  0.32261  Biso   1.000  C
  C743     1.0000 0.38365  0.11596  0.32261  Biso   1.000  C
  C744     1.0000 0.38371  0.11588  0.32261  Biso   1.000  C
  N482     1.0000 0.13148  0.09882  0.40561  Biso   1.000  N
  H702     1.0000 0.25455  0.04176  0.47504  Biso   1.000  H
  N483     1.0000 0.13157  0.09882  0.40561  Biso   1.000  N
  H703     1.0000 0.25463  0.04176  0.47504  Biso   1.000  H
  H704     1.0000 0.25452  0.04167  0.47504  Biso   1.000  H
  O252     1.0000 0.93168  0.07441  0.38507  Biso   1.000  O
  O253     1.0000 0.93160  0.07441  0.38507  Biso   1.000  O
  O254     1.0000 0.93166  0.07432  0.38507  Biso   1.000  O
  O255     1.0000 0.93157  0.07432  0.38507  Biso   1.000  O
  C745     1.0000 0.19737  0.47629  0.19419  Biso   1.000  C
  C746     1.0000 0.19745  0.47629  0.19419  Biso   1.000  C
  N484     1.0000 0.37036  0.31467  0.15991  Biso   1.000  N
  H705     1.0000 0.44426  0.44347  0.09692  Biso   1.000  H
  H706     1.0000 0.44736  0.31676  0.02706  Biso   1.000  H
  N485     1.0000 0.37038  0.31470  0.16000  Biso   1.000  N
  H707     1.0000 0.44437  0.44355  0.09692  Biso   1.000  H
  H708     1.0000 0.44746  0.31679  0.02715  Biso   1.000  H
  N486     1.0000 0.37035  0.31462  0.16000  Biso   1.000  N
  H709     1.0000 0.44738  0.31679  0.02715  Biso   1.000  H
  N487     1.0000 0.37044  0.31467  0.15991  Biso   1.000  N
  H710     1.0000 0.44434  0.44347  0.09692  Biso   1.000  H
  H711     1.0000 0.44744  0.31676  0.02706  Biso   1.000  H
  H712     1.0000 0.44428  0.44355  0.09692  Biso   1.000  H
  N488     1.0000 0.37094  0.20930  0.27928  Biso   1.000  N
  H713     1.0000 0.43413  0.07955  0.28172  Biso   1.000  H
  H714     1.0000 0.42374  0.15275  0.40439  Biso   1.000  H
  H715     1.0000 0.43421  0.07955  0.28172  Biso   1.000  H
  H716     1.0000 0.42383  0.15275  0.40439  Biso   1.000  H
  N489     1.0000 0.37083  0.20922  0.27928  Biso   1.000  N
  H717     1.0000 0.43411  0.07947  0.28172  Biso   1.000  H
  H718     1.0000 0.42372  0.15267  0.40439  Biso   1.000  H
  N490     1.0000 0.37086  0.20930  0.27928  Biso   1.000  N
  N491     1.0000 0.37092  0.20922  0.27928  Biso   1.000  N
  C747     1.0000 0.18036  0.23030  0.44572  Biso   1.000  C
  C748     1.0000 0.18039  0.23039  0.44572  Biso   1.000  C
  C749     1.0000 0.18028  0.23030  0.44572  Biso   1.000  C
  N492     1.0000 0.22992  0.39766  0.25040  Biso   1.000  N
  H719     1.0000 0.13699  0.50162  0.22786  Biso   1.000  H
  H720     1.0000 0.26701  0.54843  0.20994  Biso   1.000  H
  H721     1.0000 0.13710  0.50165  0.22795  Biso   1.000  H
  H722     1.0000 0.26709  0.54843  0.20994  Biso   1.000  H
  N493     1.0000 0.22981  0.39758  0.25040  Biso   1.000  N
  H723     1.0000 0.13699  0.50157  0.22795  Biso   1.000  H
  H724     1.0000 0.26698  0.54834  0.20994  Biso   1.000  H
  N494     1.0000 0.22984  0.39766  0.25040  Biso   1.000  N
  H725     1.0000 0.13701  0.50165  0.22795  Biso   1.000  H
  N495     1.0000 0.22990  0.39758  0.25040  Biso   1.000  N
  C750     1.0000 0.38791  0.21362  0.17192  Biso   1.000  C
  C751     1.0000 0.34680  0.38701  0.26432  Biso   1.000  C
  C752     1.0000 0.38800  0.21362  0.17192  Biso   1.000  C
  C753     1.0000 0.34688  0.38701  0.26432  Biso   1.000  C
  C754     1.0000 0.38789  0.21354  0.17192  Biso   1.000  C
  C755     1.0000 0.34677  0.38693  0.26432  Biso   1.000  C
  C756     1.0000 0.34094  0.31051  0.34427  Biso   1.000  C
  C757     1.0000 0.34083  0.31042  0.34427  Biso   1.000  C
  C758     1.0000 0.34085  0.31051  0.34427  Biso   1.000  C
  C759     1.0000 0.34091  0.31042  0.34427  Biso   1.000  C
  N496     1.0000 0.21832  0.27890  0.35723  Biso   1.000  N
  H726     1.0000 0.24819  0.25883  0.51097  Biso   1.000  H
  H727     1.0000 0.12029  0.26117  0.47338  Biso   1.000  H
  H728     1.0000 0.24821  0.25886  0.51105  Biso   1.000  H
  H729     1.0000 0.12040  0.26125  0.47338  Biso   1.000  H
  N497     1.0000 0.21824  0.27890  0.35723  Biso   1.000  N
  H730     1.0000 0.24810  0.25878  0.51105  Biso   1.000  H
  H731     1.0000 0.24813  0.25886  0.51105  Biso   1.000  H
  H732     1.0000 0.12031  0.26125  0.47338  Biso   1.000  H
  H733     1.0000 0.24810  0.25883  0.51097  Biso   1.000  H
  H734     1.0000 0.24818  0.25878  0.51105  Biso   1.000  H
  C760     1.0000 0.16320  0.34795  0.31774  Biso   1.000  C
  C761     1.0000 0.16328  0.34795  0.31774  Biso   1.000  C
  C762     1.0000 0.16317  0.34787  0.31774  Biso   1.000  C
  C763     1.0000 0.16326  0.34787  0.31774  Biso   1.000  C
  O256     1.0000 0.41552  0.14049  0.10032  Biso   1.000  O
  O257     1.0000 0.41544  0.14049  0.10032  Biso   1.000  O
  H735     1.0000 0.41049  0.46656  0.29999  Biso   1.000  H
  H736     1.0000 0.41060  0.46664  0.29999  Biso   1.000  H
  H737     1.0000 0.41051  0.46664  0.29999  Biso   1.000  H
  H738     1.0000 0.41057  0.46656  0.29999  Biso   1.000  H
  H739     1.0000 0.39787  0.35668  0.41961  Biso   1.000  H
  H740     1.0000 0.39789  0.35677  0.41961  Biso   1.000  H
  H741     1.0000 0.39778  0.35668  0.41961  Biso   1.000  H
  H742     1.0000 0.39781  0.35677  0.41961  Biso   1.000  H
  O258     1.0000 0.07106  0.36157  0.33905  Biso   1.000  O
  O259     1.0000 0.07097  0.36157  0.33905  Biso   1.000  O
