data_image0
_cell_length_a       12.587
_cell_length_b       16.138
_cell_length_c       17.863
_cell_angle_alpha    87.78
_cell_angle_beta     89.75
_cell_angle_gamma    67.89

_symmetry_space_group_name_H-M    "P 1"
_symmetry_int_tables_number       1

loop_
  _symmetry_equiv_pos_as_xyz
  'x, y, z'

loop_
  _atom_site_label
  _atom_site_occupancy
  _atom_site_fract_x
  _atom_site_fract_y
  _atom_site_fract_z
  _atom_site_thermal_displace_type
  _atom_site_B_iso_or_equiv
  _atom_site_type_symbol
  O1       1.0000 0.17292  0.95455  0.24932  Biso   1.000  O
  C1       1.0000 0.24820  0.96130  0.20332  Biso   1.000  C
  C2       1.0000 0.24812  0.96130  0.20327  Biso   1.000  C
  C3       1.0000 0.24812  0.96130  0.20332  Biso   1.000  C
  N1       1.0000 0.32251  0.88579  0.16959  Biso   1.000  N
  N2       1.0000 0.32243  0.88579  0.16959  Biso   1.000  N
  O2       1.0000 0.17297  0.95461  0.24932  Biso   1.000  O
  O3       1.0000 0.17289  0.95462  0.24926  Biso   1.000  O
  O4       1.0000 0.17300  0.95455  0.24932  Biso   1.000  O
  O5       1.0000 0.17300  0.95455  0.24926  Biso   1.000  O
  N3       1.0000 0.25374  0.03466  0.17408  Biso   1.000  N
  N4       1.0000 0.25366  0.03466  0.17408  Biso   1.000  N
  C4       1.0000 0.33801  0.79599  0.18730  Biso   1.000  C
  C5       1.0000 0.33793  0.79599  0.18730  Biso   1.000  C
  C6       1.0000 0.40390  0.91576  0.12472  Biso   1.000  C
  C7       1.0000 0.40382  0.91577  0.12466  Biso   1.000  C
  C8       1.0000 0.40382  0.91576  0.12472  Biso   1.000  C
  C9       1.0000 0.40389  0.91577  0.12466  Biso   1.000  C
  C10      1.0000 0.35309  0.01075  0.13138  Biso   1.000  C
  C11      1.0000 0.35314  0.01082  0.13138  Biso   1.000  C
  C12      1.0000 0.35306  0.01082  0.13138  Biso   1.000  C
  C13      1.0000 0.35317  0.01075  0.13138  Biso   1.000  C
  C14      1.0000 0.18783  0.12540  0.20540  Biso   1.000  C
  C15      1.0000 0.18775  0.12540  0.20540  Biso   1.000  C
  N5       1.0000 0.29365  0.76271  0.12791  Biso   1.000  N
  N6       1.0000 0.29357  0.76272  0.12785  Biso   1.000  N
  N7       1.0000 0.29369  0.76265  0.12791  Biso   1.000  N
  N8       1.0000 0.29365  0.76272  0.12785  Biso   1.000  N
  N9       1.0000 0.29361  0.76265  0.12791  Biso   1.000  N
  H1       1.0000 0.37198  0.76387  0.23089  Biso   1.000  H
  H2       1.0000 0.37190  0.76387  0.23089  Biso   1.000  H
  N10      1.0000 0.39910  0.89490  0.04902  Biso   1.000  N
  N11      1.0000 0.39902  0.89491  0.04897  Biso   1.000  N
  N12      1.0000 0.39902  0.89490  0.04902  Biso   1.000  N
  H3       1.0000 0.48204  0.89037  0.14522  Biso   1.000  H
  H4       1.0000 0.48204  0.89037  0.14517  Biso   1.000  H
  N13      1.0000 0.34108  0.04981  0.05323  Biso   1.000  N
  N14      1.0000 0.34108  0.04981  0.05317  Biso   1.000  N
  N15      1.0000 0.34111  0.04974  0.05323  Biso   1.000  N
  N16      1.0000 0.34119  0.04974  0.05323  Biso   1.000  N
  H5       1.0000 0.40807  0.02901  0.15800  Biso   1.000  H
  H6       1.0000 0.40810  0.02894  0.15800  Biso   1.000  H
  H7       1.0000 0.40818  0.02894  0.15800  Biso   1.000  H
  N17      1.0000 0.09823  0.17920  0.15452  Biso   1.000  N
  H8       1.0000 0.15469  0.11756  0.25307  Biso   1.000  H
  H9       1.0000 0.23982  0.15568  0.21419  Biso   1.000  H
  N18      1.0000 0.09823  0.17920  0.15447  Biso   1.000  N
  H10      1.0000 0.15477  0.11756  0.25307  Biso   1.000  H
  N19      1.0000 0.09815  0.17920  0.15452  Biso   1.000  N
  H11      1.0000 0.23974  0.15568  0.21419  Biso   1.000  H
  N20      1.0000 0.09815  0.17920  0.15447  Biso   1.000  N
  C16      1.0000 0.18678  0.74848  0.13609  Biso   1.000  C
  C17      1.0000 0.18671  0.74848  0.13609  Biso   1.000  C
  C18      1.0000 0.35256  0.71407  0.06393  Biso   1.000  C
  C19      1.0000 0.35248  0.71407  0.06387  Biso   1.000  C
  C20      1.0000 0.35256  0.71407  0.06387  Biso   1.000  C
  C21      1.0000 0.44608  0.81001  0.01451  Biso   1.000  C
  C22      1.0000 0.44600  0.81001  0.01445  Biso   1.000  C
  C23      1.0000 0.44600  0.81001  0.01451  Biso   1.000  C
  C24      1.0000 0.44608  0.81001  0.01445  Biso   1.000  C
  C25      1.0000 0.37148  0.98500  0.00291  Biso   1.000  C
  C26      1.0000 0.37140  0.98500  0.00286  Biso   1.000  C
  C27      1.0000 0.37140  0.98500  0.00291  Biso   1.000  C
  C28      1.0000 0.37148  0.98500  0.00286  Biso   1.000  C
  C29      1.0000 0.30951  0.14090  0.02958  Biso   1.000  C
  C30      1.0000 0.30943  0.14090  0.02958  Biso   1.000  C
  C31      1.0000 0.98641  0.20695  0.16578  Biso   1.000  C
  C32      1.0000 0.12357  0.23689  0.09771  Biso   1.000  C
  C33      1.0000 0.12365  0.23690  0.09766  Biso   1.000  C
  C34      1.0000 0.12357  0.23690  0.09766  Biso   1.000  C
  C35      1.0000 0.12365  0.23689  0.09771  Biso   1.000  C
  N21      1.0000 0.17361  0.70247  0.07580  Biso   1.000  N
  N22      1.0000 0.17353  0.70247  0.07580  Biso   1.000  N
  O6       1.0000 0.12167  0.77111  0.18870  Biso   1.000  O
  O7       1.0000 0.12159  0.77111  0.18870  Biso   1.000  O
  C36      1.0000 0.27225  0.67729  0.02891  Biso   1.000  C
  C37      1.0000 0.27217  0.67729  0.02885  Biso   1.000  C
  C38      1.0000 0.27225  0.67729  0.02885  Biso   1.000  C
  N23      1.0000 0.37034  0.77426  0.00672  Biso   1.000  N
  H12      1.0000 0.42521  0.66607  0.07889  Biso   1.000  H
  N24      1.0000 0.37034  0.77426  0.00667  Biso   1.000  N
  H13      1.0000 0.42513  0.66607  0.07889  Biso   1.000  H
  H14      1.0000 0.52187  0.78370  0.99950  Biso   1.000  H
  H15      1.0000 0.52179  0.78370  0.99950  Biso   1.000  H
  O8       1.0000 0.36809  0.98709  0.93809  Biso   1.000  O
  O9       1.0000 0.36801  0.98709  0.93809  Biso   1.000  O
  H16      1.0000 0.33580  0.14419  0.97888  Biso   1.000  H
  H17      1.0000 0.33588  0.14419  0.97888  Biso   1.000  H
  N25      1.0000 0.18073  0.19188  0.03199  Biso   1.000  N
  H18      1.0000 0.34714  0.16886  0.06169  Biso   1.000  H
  N26      1.0000 0.18065  0.19188  0.03199  Biso   1.000  N
  H19      1.0000 0.34706  0.16886  0.06169  Biso   1.000  H
  O10      1.0000 0.93844  0.17188  0.21380  Biso   1.000  O
  N27      1.0000 0.92513  0.26976  0.11110  Biso   1.000  N
  O11      1.0000 0.93836  0.17188  0.21380  Biso   1.000  O
  N28      1.0000 0.92505  0.26976  0.11110  Biso   1.000  N
  H20      1.0000 0.16242  0.27299  0.11911  Biso   1.000  H
  C39      1.0000 0.00161  0.29646  0.06342  Biso   1.000  C
  H21      1.0000 0.16242  0.27299  0.11906  Biso   1.000  H
  C40      1.0000 0.00161  0.29646  0.06337  Biso   1.000  C
  H22      1.0000 0.16234  0.27299  0.11911  Biso   1.000  H
  C41      1.0000 0.00169  0.29646  0.06342  Biso   1.000  C
  C42      1.0000 0.08395  0.68436  0.06981  Biso   1.000  C
  C43      1.0000 0.08392  0.68443  0.06975  Biso   1.000  C
  C44      1.0000 0.08395  0.68436  0.06975  Biso   1.000  C
  H23      1.0000 0.30824  0.61212  0.02661  Biso   1.000  H
  H24      1.0000 0.30816  0.61212  0.02656  Biso   1.000  H
  H25      1.0000 0.30827  0.61205  0.02661  Biso   1.000  H
  H26      1.0000 0.30824  0.61212  0.02656  Biso   1.000  H
  N29      1.0000 0.24685  0.71886  0.95411  Biso   1.000  N
  N30      1.0000 0.24690  0.71893  0.95406  Biso   1.000  N
  N31      1.0000 0.24685  0.71886  0.95406  Biso   1.000  N
  N32      1.0000 0.24682  0.71893  0.95406  Biso   1.000  N
  C45      1.0000 0.31703  0.76669  0.94268  Biso   1.000  C
  C46      1.0000 0.31711  0.76669  0.94268  Biso   1.000  C
  C47      1.0000 0.10984  0.21517  0.96599  Biso   1.000  C
  C48      1.0000 0.10976  0.21517  0.96599  Biso   1.000  C
  C49      1.0000 0.80300  0.30739  0.10740  Biso   1.000  C
  N33      1.0000 0.00740  0.26996  0.98678  Biso   1.000  N
  N34      1.0000 0.00748  0.26996  0.98678  Biso   1.000  N
  H27      1.0000 0.98620  0.36046  0.06628  Biso   1.000  H
  H28      1.0000 0.98627  0.36046  0.06628  Biso   1.000  H
  H29      1.0000 0.07534  0.64088  0.10219  Biso   1.000  H
  N35      1.0000 0.99260  0.73001  0.01322  Biso   1.000  N
  N36      1.0000 0.99260  0.73001  0.01317  Biso   1.000  N
  N37      1.0000 0.99268  0.73001  0.01317  Biso   1.000  N
  N38      1.0000 0.99268  0.73001  0.01322  Biso   1.000  N
  C50      1.0000 0.19708  0.69257  0.89260  Biso   1.000  C
  C51      1.0000 0.19700  0.69257  0.89260  Biso   1.000  C
  O12      1.0000 0.32845  0.80689  0.88122  Biso   1.000  O
  O13      1.0000 0.32844  0.80689  0.88117  Biso   1.000  O
  O14      1.0000 0.15120  0.20157  0.90218  Biso   1.000  O
  O15      1.0000 0.15128  0.20157  0.90218  Biso   1.000  O
  N39      1.0000 0.75322  0.28111  0.04589  Biso   1.000  N
  N40      1.0000 0.75318  0.28104  0.04589  Biso   1.000  N
  N41      1.0000 0.75326  0.28104  0.04589  Biso   1.000  N
  H30      1.0000 0.77825  0.37206  0.10488  Biso   1.000  H
  H31      1.0000 0.77357  0.29075  0.15340  Biso   1.000  H
  H32      1.0000 0.77354  0.29081  0.15340  Biso   1.000  H
  H33      1.0000 0.77817  0.37206  0.10488  Biso   1.000  H
  H34      1.0000 0.77349  0.29075  0.15340  Biso   1.000  H
  C52      1.0000 0.91613  0.31560  0.93019  Biso   1.000  C
  C53      1.0000 0.91616  0.31554  0.93019  Biso   1.000  C
  C54      1.0000 0.91605  0.31560  0.93019  Biso   1.000  C
  C55      1.0000 0.99847  0.70351  0.93658  Biso   1.000  C
  C56      1.0000 0.99839  0.70351  0.93658  Biso   1.000  C
  C57      1.0000 0.89016  0.78480  0.03401  Biso   1.000  C
  C58      1.0000 0.89024  0.78480  0.03395  Biso   1.000  C
  C59      1.0000 0.89024  0.78480  0.03401  Biso   1.000  C
  N42      1.0000 0.07494  0.73020  0.88890  Biso   1.000  N
  H35      1.0000 0.22183  0.62791  0.89512  Biso   1.000  H
  H36      1.0000 0.22651  0.70922  0.84660  Biso   1.000  H
  H37      1.0000 0.22183  0.62791  0.89506  Biso   1.000  H
  H38      1.0000 0.22659  0.70922  0.84660  Biso   1.000  H
  H39      1.0000 0.22654  0.70915  0.84660  Biso   1.000  H
  C60      1.0000 0.68304  0.23327  0.05732  Biso   1.000  C
  C61      1.0000 0.68304  0.23328  0.05726  Biso   1.000  C
  C62      1.0000 0.68296  0.23327  0.05732  Biso   1.000  C
  C63      1.0000 0.68296  0.23328  0.05726  Biso   1.000  C
  C64      1.0000 0.72783  0.32268  0.97109  Biso   1.000  C
  N43      1.0000 0.82647  0.29750  0.92420  Biso   1.000  N
  N44      1.0000 0.82655  0.29750  0.92420  Biso   1.000  N
  H40      1.0000 0.92474  0.35909  0.89781  Biso   1.000  H
  H41      1.0000 0.92474  0.35909  0.89775  Biso   1.000  H
  H42      1.0000 0.92466  0.35909  0.89775  Biso   1.000  H
  H43      1.0000 0.92466  0.35909  0.89781  Biso   1.000  H
  C65      1.0000 0.87651  0.76307  0.90229  Biso   1.000  C
  C66      1.0000 0.87643  0.76307  0.90229  Biso   1.000  C
  H44      1.0000 0.01388  0.63950  0.93372  Biso   1.000  H
  H45      1.0000 0.01388  0.63951  0.93366  Biso   1.000  H
  H46      1.0000 0.01380  0.63950  0.93372  Biso   1.000  H
  H47      1.0000 0.01380  0.63951  0.93366  Biso   1.000  H
  N45      1.0000 0.81934  0.80808  0.96801  Biso   1.000  N
  N46      1.0000 0.81934  0.80809  0.96795  Biso   1.000  N
  O16      1.0000 0.84880  0.79840  0.09782  Biso   1.000  O
  O17      1.0000 0.84880  0.79840  0.09777  Biso   1.000  O
  O18      1.0000 0.84888  0.79840  0.09777  Biso   1.000  O
  O19      1.0000 0.84888  0.79840  0.09782  Biso   1.000  O
  C67      1.0000 0.01367  0.79301  0.83422  Biso   1.000  C
  C68      1.0000 0.01367  0.79302  0.83416  Biso   1.000  C
  C69      1.0000 0.01362  0.79295  0.83422  Biso   1.000  C
  C70      1.0000 0.01359  0.79302  0.83416  Biso   1.000  C
  N47      1.0000 0.62973  0.22570  0.99328  Biso   1.000  N
  N48      1.0000 0.62977  0.22564  0.99328  Biso   1.000  N
  N49      1.0000 0.62965  0.22570  0.99328  Biso   1.000  N
  O20      1.0000 0.67163  0.19308  0.11878  Biso   1.000  O
  O21      1.0000 0.67155  0.19308  0.11878  Biso   1.000  O
  C71      1.0000 0.64752  0.28589  0.93607  Biso   1.000  C
  H48      1.0000 0.69184  0.38785  0.97339  Biso   1.000  H
  H49      1.0000 0.69180  0.38791  0.97339  Biso   1.000  H
  H50      1.0000 0.69192  0.38785  0.97339  Biso   1.000  H
  C72      1.0000 0.81329  0.25149  0.86391  Biso   1.000  C
  C73      1.0000 0.81329  0.25149  0.86385  Biso   1.000  C
  C74      1.0000 0.81337  0.25149  0.86391  Biso   1.000  C
  N50      1.0000 0.90185  0.82077  0.84548  Biso   1.000  N
  H51      1.0000 0.83765  0.72697  0.88089  Biso   1.000  H
  H52      1.0000 0.83757  0.72697  0.88089  Biso   1.000  H
  C75      1.0000 0.69057  0.85907  0.97042  Biso   1.000  C
  C76      1.0000 0.69049  0.85907  0.97036  Biso   1.000  C
  C77      1.0000 0.69057  0.85907  0.97036  Biso   1.000  C
  O22      1.0000 0.06163  0.82808  0.78620  Biso   1.000  O
  O23      1.0000 0.06171  0.82808  0.78620  Biso   1.000  O
  C78      1.0000 0.55400  0.18996  0.98549  Biso   1.000  C
  C79      1.0000 0.55408  0.18996  0.98549  Biso   1.000  C
  N51      1.0000 0.70642  0.23725  0.87209  Biso   1.000  N
  N52      1.0000 0.70650  0.23725  0.87209  Biso   1.000  N
  H53      1.0000 0.57487  0.33390  0.92111  Biso   1.000  H
  H54      1.0000 0.57495  0.33390  0.92106  Biso   1.000  H
  H55      1.0000 0.57495  0.33390  0.92111  Biso   1.000  H
  H56      1.0000 0.57487  0.33390  0.92106  Biso   1.000  H
  O24      1.0000 0.87841  0.22886  0.81130  Biso   1.000  O
  O25      1.0000 0.87848  0.22886  0.81130  Biso   1.000  O
  C80      1.0000 0.81225  0.87457  0.79460  Biso   1.000  C
  C81      1.0000 0.81233  0.87457  0.79460  Biso   1.000  C
  N53      1.0000 0.65900  0.95016  0.94677  Biso   1.000  N
  H57      1.0000 0.65294  0.83111  0.93831  Biso   1.000  H
  N54      1.0000 0.65892  0.95016  0.94677  Biso   1.000  N
  H58      1.0000 0.65294  0.83111  0.93826  Biso   1.000  H
  H59      1.0000 0.66420  0.85577  0.02112  Biso   1.000  H
  H60      1.0000 0.66420  0.85578  0.02107  Biso   1.000  H
  H61      1.0000 0.66428  0.85577  0.02112  Biso   1.000  H
  H62      1.0000 0.66428  0.85578  0.02107  Biso   1.000  H
  N55      1.0000 0.60098  0.10506  0.95098  Biso   1.000  N
  N56      1.0000 0.60106  0.10506  0.95098  Biso   1.000  N
  H63      1.0000 0.47821  0.21626  0.00050  Biso   1.000  H
  C82      1.0000 0.66207  0.20398  0.81270  Biso   1.000  C
  C83      1.0000 0.66215  0.20398  0.81270  Biso   1.000  C
  N57      1.0000 0.74634  0.96530  0.82592  Biso   1.000  N
  H64      1.0000 0.84539  0.88240  0.74693  Biso   1.000  H
  H65      1.0000 0.76026  0.84429  0.78581  Biso   1.000  H
  N58      1.0000 0.74634  0.96531  0.82587  Biso   1.000  N
  H66      1.0000 0.84531  0.88240  0.74687  Biso   1.000  H
  H67      1.0000 0.76018  0.84429  0.78575  Biso   1.000  H
  H68      1.0000 0.84531  0.88240  0.74693  Biso   1.000  H
  H69      1.0000 0.76026  0.84429  0.78575  Biso   1.000  H
  H70      1.0000 0.84539  0.88240  0.74687  Biso   1.000  H
  C84      1.0000 0.64699  0.98921  0.86862  Biso   1.000  C
  C85      1.0000 0.64691  0.98921  0.86856  Biso   1.000  C
  C86      1.0000 0.64694  0.98915  0.86862  Biso   1.000  C
  C87      1.0000 0.64699  0.98921  0.86856  Biso   1.000  C
  C88      1.0000 0.62860  0.01497  0.99709  Biso   1.000  C
  C89      1.0000 0.62868  0.01497  0.99709  Biso   1.000  C
  C90      1.0000 0.59618  0.08420  0.87528  Biso   1.000  C
  C91      1.0000 0.59626  0.08420  0.87528  Biso   1.000  C
  N59      1.0000 0.67757  0.11417  0.83041  Biso   1.000  N
  N60      1.0000 0.67765  0.11418  0.83035  Biso   1.000  N
  N61      1.0000 0.67765  0.11417  0.83041  Biso   1.000  N
  N62      1.0000 0.67757  0.11418  0.83035  Biso   1.000  N
  H71      1.0000 0.62809  0.23609  0.76911  Biso   1.000  H
  H72      1.0000 0.62809  0.23609  0.76906  Biso   1.000  H
  H73      1.0000 0.62817  0.23609  0.76911  Biso   1.000  H
  C92      1.0000 0.75187  0.03867  0.79668  Biso   1.000  C
  C93      1.0000 0.75195  0.03867  0.79668  Biso   1.000  C
  H74      1.0000 0.59201  0.97096  0.84200  Biso   1.000  H
  H75      1.0000 0.59190  0.97102  0.84200  Biso   1.000  H
  H76      1.0000 0.59193  0.97096  0.84200  Biso   1.000  H
  H77      1.0000 0.59198  0.97102  0.84200  Biso   1.000  H
  O26      1.0000 0.63199  0.01287  0.06191  Biso   1.000  O
  O27      1.0000 0.63199  0.01288  0.06185  Biso   1.000  O
  H78      1.0000 0.51803  0.10960  0.85478  Biso   1.000  H
  H79      1.0000 0.51796  0.10960  0.85478  Biso   1.000  H
  O28      1.0000 0.82711  0.04535  0.75068  Biso   1.000  O
  O29      1.0000 0.82708  0.04542  0.75068  Biso   1.000  O
  O30      1.0000 0.82719  0.04535  0.75068  Biso   1.000  O
  O31      1.0000 0.17292  0.95455  0.24932  Biso   1.000  O
  C94      1.0000 0.24812  0.96130  0.20327  Biso   1.000  C
  C95      1.0000 0.24820  0.96130  0.20332  Biso   1.000  C
  C96      1.0000 0.24812  0.96130  0.20332  Biso   1.000  C
  N63      1.0000 0.32243  0.88579  0.16959  Biso   1.000  N
  N64      1.0000 0.32251  0.88579  0.16959  Biso   1.000  N
  O32      1.0000 0.17297  0.95461  0.24932  Biso   1.000  O
  O33      1.0000 0.17289  0.95462  0.24926  Biso   1.000  O
  O34      1.0000 0.17300  0.95455  0.24926  Biso   1.000  O
  O35      1.0000 0.17300  0.95455  0.24932  Biso   1.000  O
  N65      1.0000 0.25374  0.03466  0.17408  Biso   1.000  N
  N66      1.0000 0.25366  0.03466  0.17408  Biso   1.000  N
  C97      1.0000 0.33793  0.79599  0.18730  Biso   1.000  C
  C98      1.0000 0.33801  0.79599  0.18730  Biso   1.000  C
  C99      1.0000 0.40390  0.91576  0.12472  Biso   1.000  C
  C100     1.0000 0.40382  0.91577  0.12466  Biso   1.000  C
  C101     1.0000 0.40382  0.91576  0.12472  Biso   1.000  C
  C102     1.0000 0.40389  0.91577  0.12466  Biso   1.000  C
  C103     1.0000 0.35309  0.01075  0.13138  Biso   1.000  C
  C104     1.0000 0.35314  0.01082  0.13138  Biso   1.000  C
  C105     1.0000 0.35306  0.01082  0.13138  Biso   1.000  C
  C106     1.0000 0.35317  0.01075  0.13138  Biso   1.000  C
  C107     1.0000 0.18783  0.12540  0.20540  Biso   1.000  C
  C108     1.0000 0.18775  0.12540  0.20540  Biso   1.000  C
  N67      1.0000 0.29365  0.76271  0.12791  Biso   1.000  N
  N68      1.0000 0.29357  0.76272  0.12785  Biso   1.000  N
  N69      1.0000 0.29365  0.76272  0.12785  Biso   1.000  N
  N70      1.0000 0.29369  0.76265  0.12791  Biso   1.000  N
  N71      1.0000 0.29361  0.76265  0.12791  Biso   1.000  N
  H80      1.0000 0.37190  0.76387  0.23089  Biso   1.000  H
  H81      1.0000 0.37198  0.76387  0.23089  Biso   1.000  H
  N72      1.0000 0.39902  0.89491  0.04897  Biso   1.000  N
  N73      1.0000 0.39902  0.89490  0.04902  Biso   1.000  N
  N74      1.0000 0.39910  0.89490  0.04902  Biso   1.000  N
  H82      1.0000 0.48204  0.89037  0.14522  Biso   1.000  H
  H83      1.0000 0.48204  0.89037  0.14517  Biso   1.000  H
  N75      1.0000 0.34108  0.04981  0.05323  Biso   1.000  N
  N76      1.0000 0.34108  0.04981  0.05317  Biso   1.000  N
  N77      1.0000 0.34111  0.04974  0.05323  Biso   1.000  N
  N78      1.0000 0.34119  0.04974  0.05323  Biso   1.000  N
  H84      1.0000 0.40807  0.02901  0.15800  Biso   1.000  H
  H85      1.0000 0.40810  0.02894  0.15800  Biso   1.000  H
  H86      1.0000 0.40818  0.02894  0.15800  Biso   1.000  H
  N79      1.0000 0.09823  0.17920  0.15452  Biso   1.000  N
  H87      1.0000 0.15469  0.11756  0.25307  Biso   1.000  H
  H88      1.0000 0.23982  0.15568  0.21419  Biso   1.000  H
  N80      1.0000 0.09823  0.17920  0.15447  Biso   1.000  N
  H89      1.0000 0.15477  0.11756  0.25307  Biso   1.000  H
  N81      1.0000 0.09815  0.17920  0.15452  Biso   1.000  N
  H90      1.0000 0.23974  0.15568  0.21419  Biso   1.000  H
  N82      1.0000 0.09815  0.17920  0.15447  Biso   1.000  N
  C109     1.0000 0.18671  0.74848  0.13609  Biso   1.000  C
  C110     1.0000 0.18678  0.74848  0.13609  Biso   1.000  C
  C111     1.0000 0.35256  0.71407  0.06393  Biso   1.000  C
  C112     1.0000 0.35248  0.71407  0.06387  Biso   1.000  C
  C113     1.0000 0.35256  0.71407  0.06387  Biso   1.000  C
  C114     1.0000 0.44608  0.81001  0.01451  Biso   1.000  C
  C115     1.0000 0.44600  0.81001  0.01445  Biso   1.000  C
  C116     1.0000 0.44600  0.81001  0.01451  Biso   1.000  C
  C117     1.0000 0.44608  0.81001  0.01445  Biso   1.000  C
  C118     1.0000 0.37148  0.98500  0.00291  Biso   1.000  C
  C119     1.0000 0.37140  0.98500  0.00286  Biso   1.000  C
  C120     1.0000 0.37140  0.98500  0.00291  Biso   1.000  C
  C121     1.0000 0.37148  0.98500  0.00286  Biso   1.000  C
  C122     1.0000 0.30951  0.14090  0.02958  Biso   1.000  C
  C123     1.0000 0.30943  0.14090  0.02958  Biso   1.000  C
  C124     1.0000 0.98641  0.20695  0.16578  Biso   1.000  C
  C125     1.0000 0.12357  0.23689  0.09771  Biso   1.000  C
  C126     1.0000 0.12365  0.23690  0.09766  Biso   1.000  C
  C127     1.0000 0.12357  0.23690  0.09766  Biso   1.000  C
  C128     1.0000 0.12365  0.23689  0.09771  Biso   1.000  C
  N83      1.0000 0.17353  0.70247  0.07580  Biso   1.000  N
  N84      1.0000 0.17361  0.70247  0.07580  Biso   1.000  N
  O36      1.0000 0.12159  0.77111  0.18870  Biso   1.000  O
  O37      1.0000 0.12167  0.77111  0.18870  Biso   1.000  O
  C129     1.0000 0.27225  0.67729  0.02891  Biso   1.000  C
  C130     1.0000 0.27217  0.67729  0.02885  Biso   1.000  C
  C131     1.0000 0.27225  0.67729  0.02885  Biso   1.000  C
  N85      1.0000 0.37034  0.77426  0.00672  Biso   1.000  N
  H91      1.0000 0.42513  0.66607  0.07889  Biso   1.000  H
  N86      1.0000 0.37034  0.77426  0.00667  Biso   1.000  N
  H92      1.0000 0.42521  0.66607  0.07889  Biso   1.000  H
  H93      1.0000 0.52187  0.78370  0.99950  Biso   1.000  H
  H94      1.0000 0.52179  0.78370  0.99950  Biso   1.000  H
  O38      1.0000 0.36809  0.98709  0.93809  Biso   1.000  O
  O39      1.0000 0.36801  0.98709  0.93809  Biso   1.000  O
  H95      1.0000 0.33580  0.14419  0.97888  Biso   1.000  H
  H96      1.0000 0.33588  0.14419  0.97888  Biso   1.000  H
  N87      1.0000 0.18073  0.19188  0.03199  Biso   1.000  N
  H97      1.0000 0.34714  0.16886  0.06169  Biso   1.000  H
  N88      1.0000 0.18065  0.19188  0.03199  Biso   1.000  N
  H98      1.0000 0.34706  0.16886  0.06169  Biso   1.000  H
  O40      1.0000 0.93844  0.17188  0.21380  Biso   1.000  O
  N89      1.0000 0.92513  0.26976  0.11110  Biso   1.000  N
  O41      1.0000 0.93836  0.17188  0.21380  Biso   1.000  O
  N90      1.0000 0.92505  0.26976  0.11110  Biso   1.000  N
  H99      1.0000 0.16242  0.27299  0.11911  Biso   1.000  H
  C132     1.0000 0.00161  0.29646  0.06342  Biso   1.000  C
  H100     1.0000 0.16242  0.27299  0.11906  Biso   1.000  H
  C133     1.0000 0.00161  0.29646  0.06337  Biso   1.000  C
  H101     1.0000 0.16234  0.27299  0.11911  Biso   1.000  H
  C134     1.0000 0.00169  0.29646  0.06342  Biso   1.000  C
  C135     1.0000 0.08395  0.68436  0.06981  Biso   1.000  C
  C136     1.0000 0.08392  0.68443  0.06975  Biso   1.000  C
  C137     1.0000 0.08395  0.68436  0.06975  Biso   1.000  C
  H102     1.0000 0.30824  0.61212  0.02661  Biso   1.000  H
  H103     1.0000 0.30816  0.61212  0.02656  Biso   1.000  H
  H104     1.0000 0.30827  0.61205  0.02661  Biso   1.000  H
  H105     1.0000 0.30824  0.61212  0.02656  Biso   1.000  H
  N91      1.0000 0.24685  0.71886  0.95411  Biso   1.000  N
  N92      1.0000 0.24690  0.71893  0.95406  Biso   1.000  N
  N93      1.0000 0.24685  0.71886  0.95406  Biso   1.000  N
  N94      1.0000 0.24682  0.71893  0.95406  Biso   1.000  N
  C138     1.0000 0.31703  0.76669  0.94268  Biso   1.000  C
  C139     1.0000 0.31711  0.76669  0.94268  Biso   1.000  C
  C140     1.0000 0.10984  0.21517  0.96599  Biso   1.000  C
  C141     1.0000 0.10976  0.21517  0.96599  Biso   1.000  C
  C142     1.0000 0.80300  0.30739  0.10740  Biso   1.000  C
  N95      1.0000 0.00740  0.26996  0.98678  Biso   1.000  N
  N96      1.0000 0.00748  0.26996  0.98678  Biso   1.000  N
  H106     1.0000 0.98620  0.36046  0.06628  Biso   1.000  H
  H107     1.0000 0.98627  0.36046  0.06628  Biso   1.000  H
  H108     1.0000 0.07534  0.64088  0.10219  Biso   1.000  H
  N97      1.0000 0.99260  0.73001  0.01322  Biso   1.000  N
  N98      1.0000 0.99260  0.73001  0.01317  Biso   1.000  N
  N99      1.0000 0.99268  0.73001  0.01317  Biso   1.000  N
  N100     1.0000 0.99268  0.73001  0.01322  Biso   1.000  N
  C143     1.0000 0.19708  0.69257  0.89260  Biso   1.000  C
  C144     1.0000 0.19700  0.69257  0.89260  Biso   1.000  C
  O42      1.0000 0.32845  0.80689  0.88122  Biso   1.000  O
  O43      1.0000 0.32844  0.80689  0.88117  Biso   1.000  O
  O44      1.0000 0.15120  0.20157  0.90218  Biso   1.000  O
  O45      1.0000 0.15128  0.20157  0.90218  Biso   1.000  O
  N101     1.0000 0.75322  0.28111  0.04589  Biso   1.000  N
  N102     1.0000 0.75318  0.28104  0.04589  Biso   1.000  N
  N103     1.0000 0.75326  0.28104  0.04589  Biso   1.000  N
  H109     1.0000 0.77825  0.37206  0.10488  Biso   1.000  H
  H110     1.0000 0.77357  0.29075  0.15340  Biso   1.000  H
  H111     1.0000 0.77354  0.29081  0.15340  Biso   1.000  H
  H112     1.0000 0.77817  0.37206  0.10488  Biso   1.000  H
  H113     1.0000 0.77349  0.29075  0.15340  Biso   1.000  H
  C145     1.0000 0.91613  0.31560  0.93019  Biso   1.000  C
  C146     1.0000 0.91616  0.31554  0.93019  Biso   1.000  C
  C147     1.0000 0.91605  0.31560  0.93019  Biso   1.000  C
  C148     1.0000 0.99847  0.70351  0.93658  Biso   1.000  C
  C149     1.0000 0.99839  0.70351  0.93658  Biso   1.000  C
  C150     1.0000 0.89016  0.78480  0.03401  Biso   1.000  C
  C151     1.0000 0.89024  0.78480  0.03395  Biso   1.000  C
  C152     1.0000 0.89024  0.78480  0.03401  Biso   1.000  C
  N104     1.0000 0.07494  0.73020  0.88890  Biso   1.000  N
  H114     1.0000 0.22183  0.62791  0.89512  Biso   1.000  H
  H115     1.0000 0.22651  0.70922  0.84660  Biso   1.000  H
  H116     1.0000 0.22183  0.62791  0.89506  Biso   1.000  H
  H117     1.0000 0.22659  0.70922  0.84660  Biso   1.000  H
  H118     1.0000 0.22654  0.70915  0.84660  Biso   1.000  H
  C153     1.0000 0.68304  0.23327  0.05732  Biso   1.000  C
  C154     1.0000 0.68304  0.23328  0.05726  Biso   1.000  C
  C155     1.0000 0.68296  0.23327  0.05732  Biso   1.000  C
  C156     1.0000 0.68296  0.23328  0.05726  Biso   1.000  C
  C157     1.0000 0.72783  0.32268  0.97109  Biso   1.000  C
  N105     1.0000 0.82647  0.29750  0.92420  Biso   1.000  N
  N106     1.0000 0.82655  0.29750  0.92420  Biso   1.000  N
  H119     1.0000 0.92474  0.35909  0.89781  Biso   1.000  H
  H120     1.0000 0.92474  0.35909  0.89775  Biso   1.000  H
  H121     1.0000 0.92466  0.35909  0.89775  Biso   1.000  H
  H122     1.0000 0.92466  0.35909  0.89781  Biso   1.000  H
  C158     1.0000 0.87651  0.76307  0.90229  Biso   1.000  C
  C159     1.0000 0.87643  0.76307  0.90229  Biso   1.000  C
  H123     1.0000 0.01388  0.63950  0.93372  Biso   1.000  H
  H124     1.0000 0.01388  0.63951  0.93366  Biso   1.000  H
  H125     1.0000 0.01380  0.63950  0.93372  Biso   1.000  H
  H126     1.0000 0.01380  0.63951  0.93366  Biso   1.000  H
  N107     1.0000 0.81934  0.80808  0.96801  Biso   1.000  N
  N108     1.0000 0.81934  0.80809  0.96795  Biso   1.000  N
  O46      1.0000 0.84880  0.79840  0.09782  Biso   1.000  O
  O47      1.0000 0.84880  0.79840  0.09777  Biso   1.000  O
  O48      1.0000 0.84888  0.79840  0.09777  Biso   1.000  O
  O49      1.0000 0.84888  0.79840  0.09782  Biso   1.000  O
  C160     1.0000 0.01367  0.79301  0.83422  Biso   1.000  C
  C161     1.0000 0.01367  0.79302  0.83416  Biso   1.000  C
  C162     1.0000 0.01362  0.79295  0.83422  Biso   1.000  C
  C163     1.0000 0.01359  0.79302  0.83416  Biso   1.000  C
  N109     1.0000 0.62973  0.22570  0.99328  Biso   1.000  N
  N110     1.0000 0.62977  0.22564  0.99328  Biso   1.000  N
  N111     1.0000 0.62965  0.22570  0.99328  Biso   1.000  N
  O50      1.0000 0.67163  0.19308  0.11878  Biso   1.000  O
  O51      1.0000 0.67155  0.19308  0.11878  Biso   1.000  O
  C164     1.0000 0.64752  0.28589  0.93607  Biso   1.000  C
  H127     1.0000 0.69184  0.38785  0.97339  Biso   1.000  H
  H128     1.0000 0.69180  0.38791  0.97339  Biso   1.000  H
  H129     1.0000 0.69192  0.38785  0.97339  Biso   1.000  H
  C165     1.0000 0.81329  0.25149  0.86391  Biso   1.000  C
  C166     1.0000 0.81329  0.25149  0.86385  Biso   1.000  C
  C167     1.0000 0.81337  0.25149  0.86391  Biso   1.000  C
  N112     1.0000 0.90185  0.82077  0.84548  Biso   1.000  N
  H130     1.0000 0.83765  0.72697  0.88089  Biso   1.000  H
  H131     1.0000 0.83757  0.72697  0.88089  Biso   1.000  H
  C168     1.0000 0.69057  0.85907  0.97042  Biso   1.000  C
  C169     1.0000 0.69049  0.85907  0.97036  Biso   1.000  C
  C170     1.0000 0.69057  0.85907  0.97036  Biso   1.000  C
  O52      1.0000 0.06163  0.82808  0.78620  Biso   1.000  O
  O53      1.0000 0.06171  0.82808  0.78620  Biso   1.000  O
  C171     1.0000 0.55400  0.18996  0.98549  Biso   1.000  C
  C172     1.0000 0.55408  0.18996  0.98549  Biso   1.000  C
  N113     1.0000 0.70642  0.23725  0.87209  Biso   1.000  N
  N114     1.0000 0.70650  0.23725  0.87209  Biso   1.000  N
  H132     1.0000 0.57487  0.33390  0.92111  Biso   1.000  H
  H133     1.0000 0.57495  0.33390  0.92106  Biso   1.000  H
  H134     1.0000 0.57495  0.33390  0.92111  Biso   1.000  H
  H135     1.0000 0.57487  0.33390  0.92106  Biso   1.000  H
  O54      1.0000 0.87841  0.22886  0.81130  Biso   1.000  O
  O55      1.0000 0.87848  0.22886  0.81130  Biso   1.000  O
  C173     1.0000 0.81225  0.87457  0.79460  Biso   1.000  C
  C174     1.0000 0.81233  0.87457  0.79460  Biso   1.000  C
  N115     1.0000 0.65900  0.95016  0.94677  Biso   1.000  N
  H136     1.0000 0.65294  0.83111  0.93831  Biso   1.000  H
  N116     1.0000 0.65892  0.95016  0.94677  Biso   1.000  N
  H137     1.0000 0.65294  0.83111  0.93826  Biso   1.000  H
  H138     1.0000 0.66420  0.85577  0.02112  Biso   1.000  H
  H139     1.0000 0.66420  0.85578  0.02107  Biso   1.000  H
  H140     1.0000 0.66428  0.85577  0.02112  Biso   1.000  H
  H141     1.0000 0.66428  0.85578  0.02107  Biso   1.000  H
  N117     1.0000 0.60098  0.10506  0.95098  Biso   1.000  N
  N118     1.0000 0.60106  0.10506  0.95098  Biso   1.000  N
  H142     1.0000 0.47821  0.21626  0.00050  Biso   1.000  H
  C175     1.0000 0.66207  0.20398  0.81270  Biso   1.000  C
  C176     1.0000 0.66215  0.20398  0.81270  Biso   1.000  C
  N119     1.0000 0.74634  0.96530  0.82592  Biso   1.000  N
  H143     1.0000 0.84539  0.88240  0.74693  Biso   1.000  H
  H144     1.0000 0.76026  0.84429  0.78581  Biso   1.000  H
  N120     1.0000 0.74634  0.96531  0.82587  Biso   1.000  N
  H145     1.0000 0.84531  0.88240  0.74687  Biso   1.000  H
  H146     1.0000 0.76018  0.84429  0.78575  Biso   1.000  H
  H147     1.0000 0.84531  0.88240  0.74693  Biso   1.000  H
  H148     1.0000 0.76026  0.84429  0.78575  Biso   1.000  H
  H149     1.0000 0.84539  0.88240  0.74687  Biso   1.000  H
  C177     1.0000 0.64699  0.98921  0.86862  Biso   1.000  C
  C178     1.0000 0.64691  0.98921  0.86856  Biso   1.000  C
  C179     1.0000 0.64694  0.98915  0.86862  Biso   1.000  C
  C180     1.0000 0.64699  0.98921  0.86856  Biso   1.000  C
  C181     1.0000 0.62860  0.01497  0.99709  Biso   1.000  C
  C182     1.0000 0.62868  0.01497  0.99709  Biso   1.000  C
  C183     1.0000 0.59618  0.08420  0.87528  Biso   1.000  C
  C184     1.0000 0.59626  0.08420  0.87528  Biso   1.000  C
  N121     1.0000 0.67757  0.11417  0.83041  Biso   1.000  N
  N122     1.0000 0.67765  0.11418  0.83035  Biso   1.000  N
  N123     1.0000 0.67765  0.11417  0.83041  Biso   1.000  N
  N124     1.0000 0.67757  0.11418  0.83035  Biso   1.000  N
  H150     1.0000 0.62809  0.23609  0.76911  Biso   1.000  H
  H151     1.0000 0.62809  0.23609  0.76906  Biso   1.000  H
  H152     1.0000 0.62817  0.23609  0.76911  Biso   1.000  H
  C185     1.0000 0.75187  0.03867  0.79668  Biso   1.000  C
  C186     1.0000 0.75195  0.03867  0.79668  Biso   1.000  C
  H153     1.0000 0.59201  0.97096  0.84200  Biso   1.000  H
  H154     1.0000 0.59190  0.97102  0.84200  Biso   1.000  H
  H155     1.0000 0.59193  0.97096  0.84200  Biso   1.000  H
  H156     1.0000 0.59198  0.97102  0.84200  Biso   1.000  H
  O56      1.0000 0.63199  0.01287  0.06191  Biso   1.000  O
  O57      1.0000 0.63199  0.01288  0.06185  Biso   1.000  O
  H157     1.0000 0.51803  0.10960  0.85478  Biso   1.000  H
  H158     1.0000 0.51796  0.10960  0.85478  Biso   1.000  H
  O58      1.0000 0.82711  0.04535  0.75068  Biso   1.000  O
  O59      1.0000 0.82708  0.04542  0.75068  Biso   1.000  O
  O60      1.0000 0.82719  0.04535  0.75068  Biso   1.000  O
  O61      1.0000 0.17292  0.95455  0.24932  Biso   1.000  O
  C187     1.0000 0.24812  0.96130  0.20327  Biso   1.000  C
  C188     1.0000 0.24820  0.96130  0.20332  Biso   1.000  C
  C189     1.0000 0.24812  0.96130  0.20332  Biso   1.000  C
  N125     1.0000 0.32243  0.88579  0.16959  Biso   1.000  N
  N126     1.0000 0.32251  0.88579  0.16959  Biso   1.000  N
  O62      1.0000 0.17297  0.95461  0.24932  Biso   1.000  O
  O63      1.0000 0.17289  0.95462  0.24926  Biso   1.000  O
  O64      1.0000 0.17300  0.95455  0.24932  Biso   1.000  O
  O65      1.0000 0.17300  0.95455  0.24926  Biso   1.000  O
  N127     1.0000 0.25374  0.03466  0.17408  Biso   1.000  N
  N128     1.0000 0.25366  0.03466  0.17408  Biso   1.000  N
  C190     1.0000 0.33793  0.79599  0.18730  Biso   1.000  C
  C191     1.0000 0.33801  0.79599  0.18730  Biso   1.000  C
  C192     1.0000 0.40390  0.91576  0.12472  Biso   1.000  C
  C193     1.0000 0.40382  0.91577  0.12466  Biso   1.000  C
  C194     1.0000 0.40382  0.91576  0.12472  Biso   1.000  C
  C195     1.0000 0.40389  0.91577  0.12466  Biso   1.000  C
  C196     1.0000 0.35309  0.01075  0.13138  Biso   1.000  C
  C197     1.0000 0.35314  0.01082  0.13138  Biso   1.000  C
  C198     1.0000 0.35306  0.01082  0.13138  Biso   1.000  C
  C199     1.0000 0.35317  0.01075  0.13138  Biso   1.000  C
  C200     1.0000 0.18783  0.12540  0.20540  Biso   1.000  C
  C201     1.0000 0.18775  0.12540  0.20540  Biso   1.000  C
  N129     1.0000 0.29365  0.76271  0.12791  Biso   1.000  N
  N130     1.0000 0.29357  0.76272  0.12785  Biso   1.000  N
  N131     1.0000 0.29369  0.76265  0.12791  Biso   1.000  N
  N132     1.0000 0.29365  0.76272  0.12785  Biso   1.000  N
  N133     1.0000 0.29361  0.76265  0.12791  Biso   1.000  N
  H159     1.0000 0.37198  0.76387  0.23089  Biso   1.000  H
  H160     1.0000 0.37190  0.76387  0.23089  Biso   1.000  H
  N134     1.0000 0.39902  0.89491  0.04897  Biso   1.000  N
  N135     1.0000 0.39902  0.89490  0.04902  Biso   1.000  N
  N136     1.0000 0.39910  0.89490  0.04902  Biso   1.000  N
  H161     1.0000 0.48204  0.89037  0.14522  Biso   1.000  H
  H162     1.0000 0.48204  0.89037  0.14517  Biso   1.000  H
  N137     1.0000 0.34108  0.04981  0.05323  Biso   1.000  N
  N138     1.0000 0.34108  0.04981  0.05317  Biso   1.000  N
  N139     1.0000 0.34111  0.04974  0.05323  Biso   1.000  N
  N140     1.0000 0.34119  0.04974  0.05323  Biso   1.000  N
  H163     1.0000 0.40807  0.02901  0.15800  Biso   1.000  H
  H164     1.0000 0.40810  0.02894  0.15800  Biso   1.000  H
  H165     1.0000 0.40818  0.02894  0.15800  Biso   1.000  H
  N141     1.0000 0.09823  0.17920  0.15452  Biso   1.000  N
  H166     1.0000 0.15469  0.11756  0.25307  Biso   1.000  H
  H167     1.0000 0.23982  0.15568  0.21419  Biso   1.000  H
  N142     1.0000 0.09823  0.17920  0.15447  Biso   1.000  N
  H168     1.0000 0.15477  0.11756  0.25307  Biso   1.000  H
  N143     1.0000 0.09815  0.17920  0.15452  Biso   1.000  N
  H169     1.0000 0.23974  0.15568  0.21419  Biso   1.000  H
  N144     1.0000 0.09815  0.17920  0.15447  Biso   1.000  N
  C202     1.0000 0.18678  0.74848  0.13609  Biso   1.000  C
  C203     1.0000 0.18671  0.74848  0.13609  Biso   1.000  C
  C204     1.0000 0.35256  0.71407  0.06393  Biso   1.000  C
  C205     1.0000 0.35248  0.71407  0.06387  Biso   1.000  C
  C206     1.0000 0.35256  0.71407  0.06387  Biso   1.000  C
  C207     1.0000 0.44600  0.81001  0.01445  Biso   1.000  C
  C208     1.0000 0.44608  0.81001  0.01451  Biso   1.000  C
  C209     1.0000 0.44600  0.81001  0.01451  Biso   1.000  C
  C210     1.0000 0.44608  0.81001  0.01445  Biso   1.000  C
  C211     1.0000 0.37148  0.98500  0.00291  Biso   1.000  C
  C212     1.0000 0.37140  0.98500  0.00286  Biso   1.000  C
  C213     1.0000 0.37140  0.98500  0.00291  Biso   1.000  C
  C214     1.0000 0.37148  0.98500  0.00286  Biso   1.000  C
  C215     1.0000 0.30951  0.14090  0.02958  Biso   1.000  C
  C216     1.0000 0.30943  0.14090  0.02958  Biso   1.000  C
  C217     1.0000 0.98641  0.20695  0.16578  Biso   1.000  C
  C218     1.0000 0.12357  0.23689  0.09771  Biso   1.000  C
  C219     1.0000 0.12365  0.23690  0.09766  Biso   1.000  C
  C220     1.0000 0.12357  0.23690  0.09766  Biso   1.000  C
  C221     1.0000 0.12365  0.23689  0.09771  Biso   1.000  C
  N145     1.0000 0.17353  0.70247  0.07580  Biso   1.000  N
  N146     1.0000 0.17361  0.70247  0.07580  Biso   1.000  N
  O66      1.0000 0.12167  0.77111  0.18870  Biso   1.000  O
  O67      1.0000 0.12159  0.77111  0.18870  Biso   1.000  O
  C222     1.0000 0.27225  0.67729  0.02891  Biso   1.000  C
  C223     1.0000 0.27217  0.67729  0.02885  Biso   1.000  C
  C224     1.0000 0.27225  0.67729  0.02885  Biso   1.000  C
  H170     1.0000 0.42513  0.66607  0.07889  Biso   1.000  H
  N147     1.0000 0.37034  0.77426  0.00672  Biso   1.000  N
  N148     1.0000 0.37034  0.77426  0.00667  Biso   1.000  N
  H171     1.0000 0.42521  0.66607  0.07889  Biso   1.000  H
  H172     1.0000 0.52187  0.78370  0.99950  Biso   1.000  H
  H173     1.0000 0.52179  0.78370  0.99950  Biso   1.000  H
  O68      1.0000 0.36809  0.98709  0.93809  Biso   1.000  O
  O69      1.0000 0.36801  0.98709  0.93809  Biso   1.000  O
  H174     1.0000 0.33580  0.14419  0.97888  Biso   1.000  H
  H175     1.0000 0.33588  0.14419  0.97888  Biso   1.000  H
  N149     1.0000 0.18073  0.19188  0.03199  Biso   1.000  N
  H176     1.0000 0.34714  0.16886  0.06169  Biso   1.000  H
  N150     1.0000 0.18065  0.19188  0.03199  Biso   1.000  N
  H177     1.0000 0.34706  0.16886  0.06169  Biso   1.000  H
  O70      1.0000 0.93844  0.17188  0.21380  Biso   1.000  O
  N151     1.0000 0.92513  0.26976  0.11110  Biso   1.000  N
  O71      1.0000 0.93836  0.17188  0.21380  Biso   1.000  O
  N152     1.0000 0.92505  0.26976  0.11110  Biso   1.000  N
  H178     1.0000 0.16242  0.27299  0.11911  Biso   1.000  H
  C225     1.0000 0.00161  0.29646  0.06342  Biso   1.000  C
  H179     1.0000 0.16242  0.27299  0.11906  Biso   1.000  H
  C226     1.0000 0.00161  0.29646  0.06337  Biso   1.000  C
  H180     1.0000 0.16234  0.27299  0.11911  Biso   1.000  H
  C227     1.0000 0.00169  0.29646  0.06342  Biso   1.000  C
  C228     1.0000 0.08395  0.68436  0.06981  Biso   1.000  C
  C229     1.0000 0.08392  0.68443  0.06975  Biso   1.000  C
  C230     1.0000 0.08395  0.68436  0.06975  Biso   1.000  C
  N153     1.0000 0.24685  0.71886  0.95411  Biso   1.000  N
  N154     1.0000 0.24690  0.71893  0.95406  Biso   1.000  N
  N155     1.0000 0.24685  0.71886  0.95406  Biso   1.000  N
  N156     1.0000 0.24682  0.71893  0.95406  Biso   1.000  N
  H181     1.0000 0.30824  0.61212  0.02661  Biso   1.000  H
  H182     1.0000 0.30816  0.61212  0.02656  Biso   1.000  H
  H183     1.0000 0.30827  0.61205  0.02661  Biso   1.000  H
  H184     1.0000 0.30824  0.61212  0.02656  Biso   1.000  H
  C231     1.0000 0.31703  0.76669  0.94268  Biso   1.000  C
  C232     1.0000 0.31711  0.76669  0.94268  Biso   1.000  C
  C233     1.0000 0.10984  0.21517  0.96599  Biso   1.000  C
  C234     1.0000 0.10976  0.21517  0.96599  Biso   1.000  C
  C235     1.0000 0.80300  0.30739  0.10740  Biso   1.000  C
  N157     1.0000 0.00740  0.26996  0.98678  Biso   1.000  N
  N158     1.0000 0.00748  0.26996  0.98678  Biso   1.000  N
  H185     1.0000 0.98620  0.36046  0.06628  Biso   1.000  H
  H186     1.0000 0.98627  0.36046  0.06628  Biso   1.000  H
  H187     1.0000 0.07534  0.64088  0.10219  Biso   1.000  H
  N159     1.0000 0.99260  0.73001  0.01322  Biso   1.000  N
  N160     1.0000 0.99260  0.73001  0.01317  Biso   1.000  N
  N161     1.0000 0.99268  0.73001  0.01317  Biso   1.000  N
  N162     1.0000 0.99268  0.73001  0.01322  Biso   1.000  N
  C236     1.0000 0.19708  0.69257  0.89260  Biso   1.000  C
  C237     1.0000 0.19700  0.69257  0.89260  Biso   1.000  C
  O72      1.0000 0.32845  0.80689  0.88122  Biso   1.000  O
  O73      1.0000 0.32844  0.80689  0.88117  Biso   1.000  O
  O74      1.0000 0.15120  0.20157  0.90218  Biso   1.000  O
  O75      1.0000 0.15128  0.20157  0.90218  Biso   1.000  O
  N163     1.0000 0.75322  0.28111  0.04589  Biso   1.000  N
  N164     1.0000 0.75318  0.28104  0.04589  Biso   1.000  N
  N165     1.0000 0.75326  0.28104  0.04589  Biso   1.000  N
  H188     1.0000 0.77825  0.37206  0.10488  Biso   1.000  H
  H189     1.0000 0.77357  0.29075  0.15340  Biso   1.000  H
  H190     1.0000 0.77354  0.29081  0.15340  Biso   1.000  H
  H191     1.0000 0.77817  0.37206  0.10488  Biso   1.000  H
  H192     1.0000 0.77349  0.29075  0.15340  Biso   1.000  H
  C238     1.0000 0.91613  0.31560  0.93019  Biso   1.000  C
  C239     1.0000 0.91616  0.31554  0.93019  Biso   1.000  C
  C240     1.0000 0.91605  0.31560  0.93019  Biso   1.000  C
  C241     1.0000 0.99847  0.70351  0.93658  Biso   1.000  C
  C242     1.0000 0.99839  0.70351  0.93658  Biso   1.000  C
  C243     1.0000 0.89016  0.78480  0.03401  Biso   1.000  C
  C244     1.0000 0.89024  0.78480  0.03395  Biso   1.000  C
  C245     1.0000 0.89024  0.78480  0.03401  Biso   1.000  C
  N166     1.0000 0.07494  0.73020  0.88890  Biso   1.000  N
  H193     1.0000 0.22183  0.62791  0.89512  Biso   1.000  H
  H194     1.0000 0.22651  0.70922  0.84660  Biso   1.000  H
  H195     1.0000 0.22183  0.62791  0.89506  Biso   1.000  H
  H196     1.0000 0.22659  0.70922  0.84660  Biso   1.000  H
  H197     1.0000 0.22654  0.70915  0.84660  Biso   1.000  H
  C246     1.0000 0.68304  0.23327  0.05732  Biso   1.000  C
  C247     1.0000 0.68304  0.23328  0.05726  Biso   1.000  C
  C248     1.0000 0.68296  0.23327  0.05732  Biso   1.000  C
  C249     1.0000 0.68296  0.23328  0.05726  Biso   1.000  C
  C250     1.0000 0.72783  0.32268  0.97109  Biso   1.000  C
  N167     1.0000 0.82647  0.29750  0.92420  Biso   1.000  N
  N168     1.0000 0.82655  0.29750  0.92420  Biso   1.000  N
  H198     1.0000 0.92474  0.35909  0.89781  Biso   1.000  H
  H199     1.0000 0.92474  0.35909  0.89775  Biso   1.000  H
  H200     1.0000 0.92466  0.35909  0.89775  Biso   1.000  H
  H201     1.0000 0.92466  0.35909  0.89781  Biso   1.000  H
  C251     1.0000 0.87651  0.76307  0.90229  Biso   1.000  C
  C252     1.0000 0.87643  0.76307  0.90229  Biso   1.000  C
  H202     1.0000 0.01388  0.63950  0.93372  Biso   1.000  H
  H203     1.0000 0.01388  0.63951  0.93366  Biso   1.000  H
  H204     1.0000 0.01380  0.63950  0.93372  Biso   1.000  H
  H205     1.0000 0.01380  0.63951  0.93366  Biso   1.000  H
  N169     1.0000 0.81934  0.80808  0.96801  Biso   1.000  N
  N170     1.0000 0.81934  0.80809  0.96795  Biso   1.000  N
  O76      1.0000 0.84880  0.79840  0.09782  Biso   1.000  O
  O77      1.0000 0.84880  0.79840  0.09777  Biso   1.000  O
  O78      1.0000 0.84888  0.79840  0.09777  Biso   1.000  O
  O79      1.0000 0.84888  0.79840  0.09782  Biso   1.000  O
  C253     1.0000 0.01367  0.79301  0.83422  Biso   1.000  C
  C254     1.0000 0.01367  0.79302  0.83416  Biso   1.000  C
  C255     1.0000 0.01362  0.79295  0.83422  Biso   1.000  C
  C256     1.0000 0.01359  0.79302  0.83416  Biso   1.000  C
  N171     1.0000 0.62973  0.22570  0.99328  Biso   1.000  N
  N172     1.0000 0.62977  0.22564  0.99328  Biso   1.000  N
  N173     1.0000 0.62965  0.22570  0.99328  Biso   1.000  N
  O80      1.0000 0.67163  0.19308  0.11878  Biso   1.000  O
  O81      1.0000 0.67155  0.19308  0.11878  Biso   1.000  O
  C257     1.0000 0.64752  0.28589  0.93607  Biso   1.000  C
  H206     1.0000 0.69184  0.38785  0.97339  Biso   1.000  H
  H207     1.0000 0.69180  0.38791  0.97339  Biso   1.000  H
  H208     1.0000 0.69192  0.38785  0.97339  Biso   1.000  H
  C258     1.0000 0.81329  0.25149  0.86391  Biso   1.000  C
  C259     1.0000 0.81329  0.25149  0.86385  Biso   1.000  C
  C260     1.0000 0.81337  0.25149  0.86391  Biso   1.000  C
  N174     1.0000 0.90185  0.82077  0.84548  Biso   1.000  N
  H209     1.0000 0.83765  0.72697  0.88089  Biso   1.000  H
  H210     1.0000 0.83757  0.72697  0.88089  Biso   1.000  H
  C261     1.0000 0.69057  0.85907  0.97042  Biso   1.000  C
  C262     1.0000 0.69049  0.85907  0.97036  Biso   1.000  C
  C263     1.0000 0.69057  0.85907  0.97036  Biso   1.000  C
  O82      1.0000 0.06163  0.82808  0.78620  Biso   1.000  O
  O83      1.0000 0.06171  0.82808  0.78620  Biso   1.000  O
  C264     1.0000 0.55400  0.18996  0.98549  Biso   1.000  C
  C265     1.0000 0.55408  0.18996  0.98549  Biso   1.000  C
  N175     1.0000 0.70642  0.23725  0.87209  Biso   1.000  N
  N176     1.0000 0.70650  0.23725  0.87209  Biso   1.000  N
  H211     1.0000 0.57487  0.33390  0.92111  Biso   1.000  H
  H212     1.0000 0.57495  0.33390  0.92106  Biso   1.000  H
  H213     1.0000 0.57495  0.33390  0.92111  Biso   1.000  H
  H214     1.0000 0.57487  0.33390  0.92106  Biso   1.000  H
  O84      1.0000 0.87841  0.22886  0.81130  Biso   1.000  O
  O85      1.0000 0.87848  0.22886  0.81130  Biso   1.000  O
  C266     1.0000 0.81225  0.87457  0.79460  Biso   1.000  C
  C267     1.0000 0.81233  0.87457  0.79460  Biso   1.000  C
  N177     1.0000 0.65900  0.95016  0.94677  Biso   1.000  N
  H215     1.0000 0.65294  0.83111  0.93831  Biso   1.000  H
  N178     1.0000 0.65892  0.95016  0.94677  Biso   1.000  N
  H216     1.0000 0.65294  0.83111  0.93826  Biso   1.000  H
  H217     1.0000 0.66420  0.85577  0.02112  Biso   1.000  H
  H218     1.0000 0.66420  0.85578  0.02107  Biso   1.000  H
  H219     1.0000 0.66428  0.85577  0.02112  Biso   1.000  H
  H220     1.0000 0.66428  0.85578  0.02107  Biso   1.000  H
  N179     1.0000 0.60098  0.10506  0.95098  Biso   1.000  N
  N180     1.0000 0.60106  0.10506  0.95098  Biso   1.000  N
  H221     1.0000 0.47821  0.21626  0.00050  Biso   1.000  H
  C268     1.0000 0.66207  0.20398  0.81270  Biso   1.000  C
  C269     1.0000 0.66215  0.20398  0.81270  Biso   1.000  C
  N181     1.0000 0.74634  0.96530  0.82592  Biso   1.000  N
  H222     1.0000 0.84539  0.88240  0.74693  Biso   1.000  H
  H223     1.0000 0.76026  0.84429  0.78581  Biso   1.000  H
  N182     1.0000 0.74634  0.96531  0.82587  Biso   1.000  N
  H224     1.0000 0.84531  0.88240  0.74687  Biso   1.000  H
  H225     1.0000 0.76018  0.84429  0.78575  Biso   1.000  H
  H226     1.0000 0.84531  0.88240  0.74693  Biso   1.000  H
  H227     1.0000 0.76026  0.84429  0.78575  Biso   1.000  H
  H228     1.0000 0.84539  0.88240  0.74687  Biso   1.000  H
  C270     1.0000 0.64699  0.98921  0.86862  Biso   1.000  C
  C271     1.0000 0.64691  0.98921  0.86856  Biso   1.000  C
  C272     1.0000 0.64694  0.98915  0.86862  Biso   1.000  C
  C273     1.0000 0.64699  0.98921  0.86856  Biso   1.000  C
  C274     1.0000 0.62860  0.01497  0.99709  Biso   1.000  C
  C275     1.0000 0.62868  0.01497  0.99709  Biso   1.000  C
  C276     1.0000 0.59618  0.08420  0.87528  Biso   1.000  C
  C277     1.0000 0.59626  0.08420  0.87528  Biso   1.000  C
  N183     1.0000 0.67757  0.11417  0.83041  Biso   1.000  N
  N184     1.0000 0.67765  0.11418  0.83035  Biso   1.000  N
  N185     1.0000 0.67765  0.11417  0.83041  Biso   1.000  N
  N186     1.0000 0.67757  0.11418  0.83035  Biso   1.000  N
  H229     1.0000 0.62809  0.23609  0.76911  Biso   1.000  H
  H230     1.0000 0.62809  0.23609  0.76906  Biso   1.000  H
  H231     1.0000 0.62817  0.23609  0.76911  Biso   1.000  H
  C278     1.0000 0.75187  0.03867  0.79668  Biso   1.000  C
  C279     1.0000 0.75195  0.03867  0.79668  Biso   1.000  C
  H232     1.0000 0.59201  0.97096  0.84200  Biso   1.000  H
  H233     1.0000 0.59190  0.97102  0.84200  Biso   1.000  H
  H234     1.0000 0.59193  0.97096  0.84200  Biso   1.000  H
  H235     1.0000 0.59198  0.97102  0.84200  Biso   1.000  H
  O86      1.0000 0.63199  0.01287  0.06191  Biso   1.000  O
  O87      1.0000 0.63199  0.01288  0.06185  Biso   1.000  O
  H236     1.0000 0.51803  0.10960  0.85478  Biso   1.000  H
  H237     1.0000 0.51796  0.10960  0.85478  Biso   1.000  H
  O88      1.0000 0.82711  0.04535  0.75068  Biso   1.000  O
  O89      1.0000 0.82708  0.04542  0.75068  Biso   1.000  O
  O90      1.0000 0.82719  0.04535  0.75068  Biso   1.000  O
  O91      1.0000 0.17292  0.95455  0.24932  Biso   1.000  O
  C280     1.0000 0.24812  0.96130  0.20327  Biso   1.000  C
  C281     1.0000 0.24820  0.96130  0.20332  Biso   1.000  C
  C282     1.0000 0.24812  0.96130  0.20332  Biso   1.000  C
  N187     1.0000 0.32243  0.88579  0.16959  Biso   1.000  N
  N188     1.0000 0.32251  0.88579  0.16959  Biso   1.000  N
  O92      1.0000 0.17297  0.95461  0.24932  Biso   1.000  O
  O93      1.0000 0.17289  0.95462  0.24926  Biso   1.000  O
  O94      1.0000 0.17300  0.95455  0.24932  Biso   1.000  O
  O95      1.0000 0.17300  0.95455  0.24926  Biso   1.000  O
  N189     1.0000 0.25374  0.03466  0.17408  Biso   1.000  N
  N190     1.0000 0.25366  0.03466  0.17408  Biso   1.000  N
  C283     1.0000 0.33793  0.79599  0.18730  Biso   1.000  C
  C284     1.0000 0.33801  0.79599  0.18730  Biso   1.000  C
  C285     1.0000 0.40390  0.91576  0.12472  Biso   1.000  C
  C286     1.0000 0.40382  0.91577  0.12466  Biso   1.000  C
  C287     1.0000 0.40382  0.91576  0.12472  Biso   1.000  C
  C288     1.0000 0.40389  0.91577  0.12466  Biso   1.000  C
  C289     1.0000 0.35309  0.01075  0.13138  Biso   1.000  C
  C290     1.0000 0.35314  0.01082  0.13138  Biso   1.000  C
  C291     1.0000 0.35306  0.01082  0.13138  Biso   1.000  C
  C292     1.0000 0.35317  0.01075  0.13138  Biso   1.000  C
  C293     1.0000 0.18783  0.12540  0.20540  Biso   1.000  C
  C294     1.0000 0.18775  0.12540  0.20540  Biso   1.000  C
  N191     1.0000 0.29365  0.76271  0.12791  Biso   1.000  N
  N192     1.0000 0.29357  0.76272  0.12785  Biso   1.000  N
  N193     1.0000 0.29369  0.76265  0.12791  Biso   1.000  N
  N194     1.0000 0.29365  0.76272  0.12785  Biso   1.000  N
  N195     1.0000 0.29361  0.76265  0.12791  Biso   1.000  N
  H238     1.0000 0.37190  0.76387  0.23089  Biso   1.000  H
  H239     1.0000 0.37198  0.76387  0.23089  Biso   1.000  H
  N196     1.0000 0.39902  0.89491  0.04897  Biso   1.000  N
  N197     1.0000 0.39910  0.89490  0.04902  Biso   1.000  N
  N198     1.0000 0.39902  0.89490  0.04902  Biso   1.000  N
  H240     1.0000 0.48204  0.89037  0.14522  Biso   1.000  H
  H241     1.0000 0.48204  0.89037  0.14517  Biso   1.000  H
  N199     1.0000 0.34108  0.04981  0.05323  Biso   1.000  N
  N200     1.0000 0.34108  0.04981  0.05317  Biso   1.000  N
  N201     1.0000 0.34111  0.04974  0.05323  Biso   1.000  N
  N202     1.0000 0.34119  0.04974  0.05323  Biso   1.000  N
  H242     1.0000 0.40807  0.02901  0.15800  Biso   1.000  H
  H243     1.0000 0.40810  0.02894  0.15800  Biso   1.000  H
  H244     1.0000 0.40818  0.02894  0.15800  Biso   1.000  H
  N203     1.0000 0.09823  0.17920  0.15452  Biso   1.000  N
  H245     1.0000 0.15469  0.11756  0.25307  Biso   1.000  H
  H246     1.0000 0.23982  0.15568  0.21419  Biso   1.000  H
  N204     1.0000 0.09823  0.17920  0.15447  Biso   1.000  N
  H247     1.0000 0.15477  0.11756  0.25307  Biso   1.000  H
  N205     1.0000 0.09815  0.17920  0.15452  Biso   1.000  N
  H248     1.0000 0.23974  0.15568  0.21419  Biso   1.000  H
  N206     1.0000 0.09815  0.17920  0.15447  Biso   1.000  N
  C295     1.0000 0.18671  0.74848  0.13609  Biso   1.000  C
  C296     1.0000 0.18678  0.74848  0.13609  Biso   1.000  C
  C297     1.0000 0.35256  0.71407  0.06393  Biso   1.000  C
  C298     1.0000 0.35248  0.71407  0.06387  Biso   1.000  C
  C299     1.0000 0.35256  0.71407  0.06387  Biso   1.000  C
  C300     1.0000 0.44608  0.81001  0.01451  Biso   1.000  C
  C301     1.0000 0.44600  0.81001  0.01445  Biso   1.000  C
  C302     1.0000 0.44600  0.81001  0.01451  Biso   1.000  C
  C303     1.0000 0.44608  0.81001  0.01445  Biso   1.000  C
  C304     1.0000 0.37148  0.98500  0.00291  Biso   1.000  C
  C305     1.0000 0.37140  0.98500  0.00286  Biso   1.000  C
  C306     1.0000 0.37140  0.98500  0.00291  Biso   1.000  C
  C307     1.0000 0.37148  0.98500  0.00286  Biso   1.000  C
  C308     1.0000 0.30951  0.14090  0.02958  Biso   1.000  C
  C309     1.0000 0.30943  0.14090  0.02958  Biso   1.000  C
  C310     1.0000 0.98641  0.20695  0.16578  Biso   1.000  C
  C311     1.0000 0.12357  0.23689  0.09771  Biso   1.000  C
  C312     1.0000 0.12365  0.23690  0.09766  Biso   1.000  C
  C313     1.0000 0.12357  0.23690  0.09766  Biso   1.000  C
  C314     1.0000 0.12365  0.23689  0.09771  Biso   1.000  C
  N207     1.0000 0.17353  0.70247  0.07580  Biso   1.000  N
  N208     1.0000 0.17361  0.70247  0.07580  Biso   1.000  N
  O96      1.0000 0.12159  0.77111  0.18870  Biso   1.000  O
  O97      1.0000 0.12167  0.77111  0.18870  Biso   1.000  O
  C315     1.0000 0.27225  0.67729  0.02891  Biso   1.000  C
  C316     1.0000 0.27217  0.67729  0.02885  Biso   1.000  C
  C317     1.0000 0.27225  0.67729  0.02885  Biso   1.000  C
  H249     1.0000 0.42513  0.66607  0.07889  Biso   1.000  H
  N209     1.0000 0.37034  0.77426  0.00672  Biso   1.000  N
  N210     1.0000 0.37034  0.77426  0.00667  Biso   1.000  N
  H250     1.0000 0.42521  0.66607  0.07889  Biso   1.000  H
  H251     1.0000 0.52187  0.78370  0.99950  Biso   1.000  H
  H252     1.0000 0.52179  0.78370  0.99950  Biso   1.000  H
  O98      1.0000 0.36809  0.98709  0.93809  Biso   1.000  O
  O99      1.0000 0.36801  0.98709  0.93809  Biso   1.000  O
  H253     1.0000 0.33580  0.14419  0.97888  Biso   1.000  H
  H254     1.0000 0.33588  0.14419  0.97888  Biso   1.000  H
  N211     1.0000 0.18073  0.19188  0.03199  Biso   1.000  N
  H255     1.0000 0.34714  0.16886  0.06169  Biso   1.000  H
  N212     1.0000 0.18065  0.19188  0.03199  Biso   1.000  N
  H256     1.0000 0.34706  0.16886  0.06169  Biso   1.000  H
  O100     1.0000 0.93844  0.17188  0.21380  Biso   1.000  O
  N213     1.0000 0.92513  0.26976  0.11110  Biso   1.000  N
  O101     1.0000 0.93836  0.17188  0.21380  Biso   1.000  O
  N214     1.0000 0.92505  0.26976  0.11110  Biso   1.000  N
  H257     1.0000 0.16242  0.27299  0.11911  Biso   1.000  H
  C318     1.0000 0.00161  0.29646  0.06342  Biso   1.000  C
  H258     1.0000 0.16242  0.27299  0.11906  Biso   1.000  H
  C319     1.0000 0.00161  0.29646  0.06337  Biso   1.000  C
  H259     1.0000 0.16234  0.27299  0.11911  Biso   1.000  H
  C320     1.0000 0.00169  0.29646  0.06342  Biso   1.000  C
  C321     1.0000 0.08395  0.68436  0.06981  Biso   1.000  C
  C322     1.0000 0.08392  0.68443  0.06975  Biso   1.000  C
  C323     1.0000 0.08395  0.68436  0.06975  Biso   1.000  C
  N215     1.0000 0.24685  0.71886  0.95411  Biso   1.000  N
  N216     1.0000 0.24690  0.71893  0.95406  Biso   1.000  N
  N217     1.0000 0.24685  0.71886  0.95406  Biso   1.000  N
  N218     1.0000 0.24682  0.71893  0.95406  Biso   1.000  N
  H260     1.0000 0.30824  0.61212  0.02661  Biso   1.000  H
  H261     1.0000 0.30816  0.61212  0.02656  Biso   1.000  H
  H262     1.0000 0.30827  0.61205  0.02661  Biso   1.000  H
  H263     1.0000 0.30824  0.61212  0.02656  Biso   1.000  H
  C324     1.0000 0.31703  0.76669  0.94268  Biso   1.000  C
  C325     1.0000 0.31711  0.76669  0.94268  Biso   1.000  C
  C326     1.0000 0.10984  0.21517  0.96599  Biso   1.000  C
  C327     1.0000 0.10976  0.21517  0.96599  Biso   1.000  C
  C328     1.0000 0.80300  0.30739  0.10740  Biso   1.000  C
  N219     1.0000 0.00740  0.26996  0.98678  Biso   1.000  N
  N220     1.0000 0.00748  0.26996  0.98678  Biso   1.000  N
  H264     1.0000 0.98620  0.36046  0.06628  Biso   1.000  H
  H265     1.0000 0.98627  0.36046  0.06628  Biso   1.000  H
  H266     1.0000 0.07534  0.64088  0.10219  Biso   1.000  H
  N221     1.0000 0.99260  0.73001  0.01322  Biso   1.000  N
  N222     1.0000 0.99260  0.73001  0.01317  Biso   1.000  N
  N223     1.0000 0.99268  0.73001  0.01317  Biso   1.000  N
  N224     1.0000 0.99268  0.73001  0.01322  Biso   1.000  N
  C329     1.0000 0.19708  0.69257  0.89260  Biso   1.000  C
  C330     1.0000 0.19700  0.69257  0.89260  Biso   1.000  C
  O102     1.0000 0.32845  0.80689  0.88122  Biso   1.000  O
  O103     1.0000 0.32844  0.80689  0.88117  Biso   1.000  O
  O104     1.0000 0.15120  0.20157  0.90218  Biso   1.000  O
  O105     1.0000 0.15128  0.20157  0.90218  Biso   1.000  O
  N225     1.0000 0.75322  0.28111  0.04589  Biso   1.000  N
  N226     1.0000 0.75318  0.28104  0.04589  Biso   1.000  N
  N227     1.0000 0.75326  0.28104  0.04589  Biso   1.000  N
  H267     1.0000 0.77825  0.37206  0.10488  Biso   1.000  H
  H268     1.0000 0.77357  0.29075  0.15340  Biso   1.000  H
  H269     1.0000 0.77354  0.29081  0.15340  Biso   1.000  H
  H270     1.0000 0.77817  0.37206  0.10488  Biso   1.000  H
  H271     1.0000 0.77349  0.29075  0.15340  Biso   1.000  H
  C331     1.0000 0.91613  0.31560  0.93019  Biso   1.000  C
  C332     1.0000 0.91616  0.31554  0.93019  Biso   1.000  C
  C333     1.0000 0.91605  0.31560  0.93019  Biso   1.000  C
  C334     1.0000 0.99847  0.70351  0.93658  Biso   1.000  C
  C335     1.0000 0.99839  0.70351  0.93658  Biso   1.000  C
  C336     1.0000 0.89016  0.78480  0.03401  Biso   1.000  C
  C337     1.0000 0.89024  0.78480  0.03395  Biso   1.000  C
  C338     1.0000 0.89024  0.78480  0.03401  Biso   1.000  C
  N228     1.0000 0.07494  0.73020  0.88890  Biso   1.000  N
  H272     1.0000 0.22183  0.62791  0.89512  Biso   1.000  H
  H273     1.0000 0.22651  0.70922  0.84660  Biso   1.000  H
  H274     1.0000 0.22183  0.62791  0.89506  Biso   1.000  H
  H275     1.0000 0.22659  0.70922  0.84660  Biso   1.000  H
  H276     1.0000 0.22654  0.70915  0.84660  Biso   1.000  H
  C339     1.0000 0.68304  0.23327  0.05732  Biso   1.000  C
  C340     1.0000 0.68304  0.23328  0.05726  Biso   1.000  C
  C341     1.0000 0.68296  0.23327  0.05732  Biso   1.000  C
  C342     1.0000 0.68296  0.23328  0.05726  Biso   1.000  C
  C343     1.0000 0.72783  0.32268  0.97109  Biso   1.000  C
  N229     1.0000 0.82647  0.29750  0.92420  Biso   1.000  N
  N230     1.0000 0.82655  0.29750  0.92420  Biso   1.000  N
  H277     1.0000 0.92474  0.35909  0.89781  Biso   1.000  H
  H278     1.0000 0.92474  0.35909  0.89775  Biso   1.000  H
  H279     1.0000 0.92466  0.35909  0.89775  Biso   1.000  H
  H280     1.0000 0.92466  0.35909  0.89781  Biso   1.000  H
  C344     1.0000 0.87651  0.76307  0.90229  Biso   1.000  C
  C345     1.0000 0.87643  0.76307  0.90229  Biso   1.000  C
  H281     1.0000 0.01388  0.63950  0.93372  Biso   1.000  H
  H282     1.0000 0.01388  0.63951  0.93366  Biso   1.000  H
  H283     1.0000 0.01380  0.63950  0.93372  Biso   1.000  H
  H284     1.0000 0.01380  0.63951  0.93366  Biso   1.000  H
  N231     1.0000 0.81934  0.80808  0.96801  Biso   1.000  N
  N232     1.0000 0.81934  0.80809  0.96795  Biso   1.000  N
  O106     1.0000 0.84880  0.79840  0.09782  Biso   1.000  O
  O107     1.0000 0.84880  0.79840  0.09777  Biso   1.000  O
  O108     1.0000 0.84888  0.79840  0.09777  Biso   1.000  O
  O109     1.0000 0.84888  0.79840  0.09782  Biso   1.000  O
  C346     1.0000 0.01367  0.79301  0.83422  Biso   1.000  C
  C347     1.0000 0.01367  0.79302  0.83416  Biso   1.000  C
  C348     1.0000 0.01362  0.79295  0.83422  Biso   1.000  C
  C349     1.0000 0.01359  0.79302  0.83416  Biso   1.000  C
  N233     1.0000 0.62973  0.22570  0.99328  Biso   1.000  N
  N234     1.0000 0.62977  0.22564  0.99328  Biso   1.000  N
  N235     1.0000 0.62965  0.22570  0.99328  Biso   1.000  N
  O110     1.0000 0.67163  0.19308  0.11878  Biso   1.000  O
  O111     1.0000 0.67155  0.19308  0.11878  Biso   1.000  O
  C350     1.0000 0.64752  0.28589  0.93607  Biso   1.000  C
  H285     1.0000 0.69184  0.38785  0.97339  Biso   1.000  H
  H286     1.0000 0.69180  0.38791  0.97339  Biso   1.000  H
  H287     1.0000 0.69192  0.38785  0.97339  Biso   1.000  H
  C351     1.0000 0.81329  0.25149  0.86391  Biso   1.000  C
  C352     1.0000 0.81329  0.25149  0.86385  Biso   1.000  C
  C353     1.0000 0.81337  0.25149  0.86391  Biso   1.000  C
  N236     1.0000 0.90185  0.82077  0.84548  Biso   1.000  N
  H288     1.0000 0.83765  0.72697  0.88089  Biso   1.000  H
  H289     1.0000 0.83757  0.72697  0.88089  Biso   1.000  H
  C354     1.0000 0.69057  0.85907  0.97042  Biso   1.000  C
  C355     1.0000 0.69049  0.85907  0.97036  Biso   1.000  C
  C356     1.0000 0.69057  0.85907  0.97036  Biso   1.000  C
  O112     1.0000 0.06163  0.82808  0.78620  Biso   1.000  O
  O113     1.0000 0.06171  0.82808  0.78620  Biso   1.000  O
  C357     1.0000 0.55400  0.18996  0.98549  Biso   1.000  C
  C358     1.0000 0.55408  0.18996  0.98549  Biso   1.000  C
  N237     1.0000 0.70642  0.23725  0.87209  Biso   1.000  N
  N238     1.0000 0.70650  0.23725  0.87209  Biso   1.000  N
  H290     1.0000 0.57487  0.33390  0.92111  Biso   1.000  H
  H291     1.0000 0.57495  0.33390  0.92106  Biso   1.000  H
  H292     1.0000 0.57495  0.33390  0.92111  Biso   1.000  H
  H293     1.0000 0.57487  0.33390  0.92106  Biso   1.000  H
  O114     1.0000 0.87841  0.22886  0.81130  Biso   1.000  O
  O115     1.0000 0.87848  0.22886  0.81130  Biso   1.000  O
  C359     1.0000 0.81225  0.87457  0.79460  Biso   1.000  C
  C360     1.0000 0.81233  0.87457  0.79460  Biso   1.000  C
  N239     1.0000 0.65900  0.95016  0.94677  Biso   1.000  N
  H294     1.0000 0.65294  0.83111  0.93831  Biso   1.000  H
  N240     1.0000 0.65892  0.95016  0.94677  Biso   1.000  N
  H295     1.0000 0.65294  0.83111  0.93826  Biso   1.000  H
  H296     1.0000 0.66420  0.85577  0.02112  Biso   1.000  H
  H297     1.0000 0.66420  0.85578  0.02107  Biso   1.000  H
  H298     1.0000 0.66428  0.85577  0.02112  Biso   1.000  H
  H299     1.0000 0.66428  0.85578  0.02107  Biso   1.000  H
  N241     1.0000 0.60098  0.10506  0.95098  Biso   1.000  N
  N242     1.0000 0.60106  0.10506  0.95098  Biso   1.000  N
  H300     1.0000 0.47821  0.21626  0.00050  Biso   1.000  H
  C361     1.0000 0.66207  0.20398  0.81270  Biso   1.000  C
  C362     1.0000 0.66215  0.20398  0.81270  Biso   1.000  C
  N243     1.0000 0.74634  0.96530  0.82592  Biso   1.000  N
  H301     1.0000 0.84539  0.88240  0.74693  Biso   1.000  H
  H302     1.0000 0.76026  0.84429  0.78581  Biso   1.000  H
  N244     1.0000 0.74634  0.96531  0.82587  Biso   1.000  N
  H303     1.0000 0.84531  0.88240  0.74687  Biso   1.000  H
  H304     1.0000 0.76018  0.84429  0.78575  Biso   1.000  H
  H305     1.0000 0.84531  0.88240  0.74693  Biso   1.000  H
  H306     1.0000 0.76026  0.84429  0.78575  Biso   1.000  H
  H307     1.0000 0.84539  0.88240  0.74687  Biso   1.000  H
  C363     1.0000 0.64699  0.98921  0.86862  Biso   1.000  C
  C364     1.0000 0.64691  0.98921  0.86856  Biso   1.000  C
  C365     1.0000 0.64694  0.98915  0.86862  Biso   1.000  C
  C366     1.0000 0.64699  0.98921  0.86856  Biso   1.000  C
  C367     1.0000 0.62860  0.01497  0.99709  Biso   1.000  C
  C368     1.0000 0.62868  0.01497  0.99709  Biso   1.000  C
  C369     1.0000 0.59618  0.08420  0.87528  Biso   1.000  C
  C370     1.0000 0.59626  0.08420  0.87528  Biso   1.000  C
  N245     1.0000 0.67757  0.11417  0.83041  Biso   1.000  N
  N246     1.0000 0.67765  0.11418  0.83035  Biso   1.000  N
  N247     1.0000 0.67765  0.11417  0.83041  Biso   1.000  N
  N248     1.0000 0.67757  0.11418  0.83035  Biso   1.000  N
  H308     1.0000 0.62809  0.23609  0.76911  Biso   1.000  H
  H309     1.0000 0.62809  0.23609  0.76906  Biso   1.000  H
  H310     1.0000 0.62817  0.23609  0.76911  Biso   1.000  H
  C371     1.0000 0.75187  0.03867  0.79668  Biso   1.000  C
  C372     1.0000 0.75195  0.03867  0.79668  Biso   1.000  C
  H311     1.0000 0.59201  0.97096  0.84200  Biso   1.000  H
  H312     1.0000 0.59190  0.97102  0.84200  Biso   1.000  H
  H313     1.0000 0.59193  0.97096  0.84200  Biso   1.000  H
  H314     1.0000 0.59198  0.97102  0.84200  Biso   1.000  H
  O116     1.0000 0.63199  0.01287  0.06191  Biso   1.000  O
  O117     1.0000 0.63199  0.01288  0.06185  Biso   1.000  O
  H315     1.0000 0.51803  0.10960  0.85478  Biso   1.000  H
  H316     1.0000 0.51796  0.10960  0.85478  Biso   1.000  H
  O118     1.0000 0.82711  0.04535  0.75068  Biso   1.000  O
  O119     1.0000 0.82708  0.04542  0.75068  Biso   1.000  O
  O120     1.0000 0.82719  0.04535  0.75068  Biso   1.000  O
  O121     1.0000 0.17292  0.95455  0.24932  Biso   1.000  O
  C373     1.0000 0.24820  0.96130  0.20332  Biso   1.000  C
  C374     1.0000 0.24812  0.96130  0.20327  Biso   1.000  C
  C375     1.0000 0.24812  0.96130  0.20332  Biso   1.000  C
  N249     1.0000 0.32243  0.88579  0.16959  Biso   1.000  N
  N250     1.0000 0.32251  0.88579  0.16959  Biso   1.000  N
  O122     1.0000 0.17297  0.95461  0.24932  Biso   1.000  O
  O123     1.0000 0.17289  0.95462  0.24926  Biso   1.000  O
  O124     1.0000 0.17300  0.95455  0.24932  Biso   1.000  O
  O125     1.0000 0.17300  0.95455  0.24926  Biso   1.000  O
  N251     1.0000 0.25374  0.03466  0.17408  Biso   1.000  N
  N252     1.0000 0.25366  0.03466  0.17408  Biso   1.000  N
  C376     1.0000 0.33793  0.79599  0.18730  Biso   1.000  C
  C377     1.0000 0.33801  0.79599  0.18730  Biso   1.000  C
  C378     1.0000 0.40390  0.91576  0.12472  Biso   1.000  C
  C379     1.0000 0.40382  0.91577  0.12466  Biso   1.000  C
  C380     1.0000 0.40382  0.91576  0.12472  Biso   1.000  C
  C381     1.0000 0.40389  0.91577  0.12466  Biso   1.000  C
  C382     1.0000 0.35309  0.01075  0.13138  Biso   1.000  C
  C383     1.0000 0.35314  0.01082  0.13138  Biso   1.000  C
  C384     1.0000 0.35306  0.01082  0.13138  Biso   1.000  C
  C385     1.0000 0.35317  0.01075  0.13138  Biso   1.000  C
  C386     1.0000 0.18783  0.12540  0.20540  Biso   1.000  C
  C387     1.0000 0.18775  0.12540  0.20540  Biso   1.000  C
  N253     1.0000 0.29365  0.76271  0.12791  Biso   1.000  N
  N254     1.0000 0.29357  0.76272  0.12785  Biso   1.000  N
  N255     1.0000 0.29369  0.76265  0.12791  Biso   1.000  N
  N256     1.0000 0.29365  0.76272  0.12785  Biso   1.000  N
  N257     1.0000 0.29361  0.76265  0.12791  Biso   1.000  N
  H317     1.0000 0.37198  0.76387  0.23089  Biso   1.000  H
  H318     1.0000 0.37190  0.76387  0.23089  Biso   1.000  H
  N258     1.0000 0.39910  0.89490  0.04902  Biso   1.000  N
  N259     1.0000 0.39902  0.89491  0.04897  Biso   1.000  N
  N260     1.0000 0.39902  0.89490  0.04902  Biso   1.000  N
  H319     1.0000 0.48204  0.89037  0.14522  Biso   1.000  H
  H320     1.0000 0.48204  0.89037  0.14517  Biso   1.000  H
  N261     1.0000 0.34108  0.04981  0.05323  Biso   1.000  N
  N262     1.0000 0.34108  0.04981  0.05317  Biso   1.000  N
  N263     1.0000 0.34111  0.04974  0.05323  Biso   1.000  N
  N264     1.0000 0.34119  0.04974  0.05323  Biso   1.000  N
  H321     1.0000 0.40807  0.02901  0.15800  Biso   1.000  H
  H322     1.0000 0.40810  0.02894  0.15800  Biso   1.000  H
  H323     1.0000 0.40818  0.02894  0.15800  Biso   1.000  H
  N265     1.0000 0.09823  0.17920  0.15452  Biso   1.000  N
  H324     1.0000 0.15469  0.11756  0.25307  Biso   1.000  H
  H325     1.0000 0.23982  0.15568  0.21419  Biso   1.000  H
  N266     1.0000 0.09823  0.17920  0.15447  Biso   1.000  N
  H326     1.0000 0.15477  0.11756  0.25307  Biso   1.000  H
  N267     1.0000 0.09815  0.17920  0.15452  Biso   1.000  N
  H327     1.0000 0.23974  0.15568  0.21419  Biso   1.000  H
  N268     1.0000 0.09815  0.17920  0.15447  Biso   1.000  N
  C388     1.0000 0.18678  0.74848  0.13609  Biso   1.000  C
  C389     1.0000 0.18671  0.74848  0.13609  Biso   1.000  C
  C390     1.0000 0.35256  0.71407  0.06393  Biso   1.000  C
  C391     1.0000 0.35248  0.71407  0.06387  Biso   1.000  C
  C392     1.0000 0.35256  0.71407  0.06387  Biso   1.000  C
  C393     1.0000 0.44608  0.81001  0.01451  Biso   1.000  C
  C394     1.0000 0.44600  0.81001  0.01445  Biso   1.000  C
  C395     1.0000 0.44600  0.81001  0.01451  Biso   1.000  C
  C396     1.0000 0.44608  0.81001  0.01445  Biso   1.000  C
  C397     1.0000 0.37148  0.98500  0.00291  Biso   1.000  C
  C398     1.0000 0.37140  0.98500  0.00286  Biso   1.000  C
  C399     1.0000 0.37140  0.98500  0.00291  Biso   1.000  C
  C400     1.0000 0.37148  0.98500  0.00286  Biso   1.000  C
  C401     1.0000 0.30951  0.14090  0.02958  Biso   1.000  C
  C402     1.0000 0.30943  0.14090  0.02958  Biso   1.000  C
  C403     1.0000 0.98641  0.20695  0.16578  Biso   1.000  C
  C404     1.0000 0.12357  0.23689  0.09771  Biso   1.000  C
  C405     1.0000 0.12365  0.23690  0.09766  Biso   1.000  C
  C406     1.0000 0.12357  0.23690  0.09766  Biso   1.000  C
  C407     1.0000 0.12365  0.23689  0.09771  Biso   1.000  C
  N269     1.0000 0.17353  0.70247  0.07580  Biso   1.000  N
  N270     1.0000 0.17361  0.70247  0.07580  Biso   1.000  N
  O126     1.0000 0.12167  0.77111  0.18870  Biso   1.000  O
  O127     1.0000 0.12159  0.77111  0.18870  Biso   1.000  O
  C408     1.0000 0.27225  0.67729  0.02891  Biso   1.000  C
  C409     1.0000 0.27217  0.67729  0.02885  Biso   1.000  C
  C410     1.0000 0.27225  0.67729  0.02885  Biso   1.000  C
  H328     1.0000 0.42513  0.66607  0.07889  Biso   1.000  H
  N271     1.0000 0.37034  0.77426  0.00672  Biso   1.000  N
  H329     1.0000 0.42521  0.66607  0.07889  Biso   1.000  H
  N272     1.0000 0.37034  0.77426  0.00667  Biso   1.000  N
  H330     1.0000 0.52187  0.78370  0.99950  Biso   1.000  H
  H331     1.0000 0.52179  0.78370  0.99950  Biso   1.000  H
  O128     1.0000 0.36809  0.98709  0.93809  Biso   1.000  O
  O129     1.0000 0.36801  0.98709  0.93809  Biso   1.000  O
  H332     1.0000 0.33580  0.14419  0.97888  Biso   1.000  H
  H333     1.0000 0.33588  0.14419  0.97888  Biso   1.000  H
  N273     1.0000 0.18073  0.19188  0.03199  Biso   1.000  N
  H334     1.0000 0.34714  0.16886  0.06169  Biso   1.000  H
  N274     1.0000 0.18065  0.19188  0.03199  Biso   1.000  N
  H335     1.0000 0.34706  0.16886  0.06169  Biso   1.000  H
  O130     1.0000 0.93844  0.17188  0.21380  Biso   1.000  O
  N275     1.0000 0.92513  0.26976  0.11110  Biso   1.000  N
  O131     1.0000 0.93836  0.17188  0.21380  Biso   1.000  O
  N276     1.0000 0.92505  0.26976  0.11110  Biso   1.000  N
  H336     1.0000 0.16242  0.27299  0.11911  Biso   1.000  H
  C411     1.0000 0.00161  0.29646  0.06342  Biso   1.000  C
  H337     1.0000 0.16242  0.27299  0.11906  Biso   1.000  H
  C412     1.0000 0.00161  0.29646  0.06337  Biso   1.000  C
  H338     1.0000 0.16234  0.27299  0.11911  Biso   1.000  H
  C413     1.0000 0.00169  0.29646  0.06342  Biso   1.000  C
  C414     1.0000 0.08395  0.68436  0.06981  Biso   1.000  C
  C415     1.0000 0.08392  0.68443  0.06975  Biso   1.000  C
  C416     1.0000 0.08395  0.68436  0.06975  Biso   1.000  C
  N277     1.0000 0.24685  0.71886  0.95411  Biso   1.000  N
  N278     1.0000 0.24690  0.71893  0.95406  Biso   1.000  N
  N279     1.0000 0.24685  0.71886  0.95406  Biso   1.000  N
  N280     1.0000 0.24682  0.71893  0.95406  Biso   1.000  N
  H339     1.0000 0.30824  0.61212  0.02661  Biso   1.000  H
  H340     1.0000 0.30816  0.61212  0.02656  Biso   1.000  H
  H341     1.0000 0.30827  0.61205  0.02661  Biso   1.000  H
  H342     1.0000 0.30824  0.61212  0.02656  Biso   1.000  H
  C417     1.0000 0.31703  0.76669  0.94268  Biso   1.000  C
  C418     1.0000 0.31711  0.76669  0.94268  Biso   1.000  C
  C419     1.0000 0.10984  0.21517  0.96599  Biso   1.000  C
  C420     1.0000 0.10976  0.21517  0.96599  Biso   1.000  C
  C421     1.0000 0.80300  0.30739  0.10740  Biso   1.000  C
  N281     1.0000 0.00740  0.26996  0.98678  Biso   1.000  N
  N282     1.0000 0.00748  0.26996  0.98678  Biso   1.000  N
  H343     1.0000 0.98620  0.36046  0.06628  Biso   1.000  H
  H344     1.0000 0.98627  0.36046  0.06628  Biso   1.000  H
  H345     1.0000 0.07534  0.64088  0.10219  Biso   1.000  H
  N283     1.0000 0.99260  0.73001  0.01322  Biso   1.000  N
  N284     1.0000 0.99260  0.73001  0.01317  Biso   1.000  N
  N285     1.0000 0.99268  0.73001  0.01317  Biso   1.000  N
  N286     1.0000 0.99268  0.73001  0.01322  Biso   1.000  N
  C422     1.0000 0.19708  0.69257  0.89260  Biso   1.000  C
  C423     1.0000 0.19700  0.69257  0.89260  Biso   1.000  C
  O132     1.0000 0.32845  0.80689  0.88122  Biso   1.000  O
  O133     1.0000 0.32844  0.80689  0.88117  Biso   1.000  O
  O134     1.0000 0.15120  0.20157  0.90218  Biso   1.000  O
  O135     1.0000 0.15128  0.20157  0.90218  Biso   1.000  O
  N287     1.0000 0.75322  0.28111  0.04589  Biso   1.000  N
  H346     1.0000 0.77825  0.37206  0.10488  Biso   1.000  H
  H347     1.0000 0.77357  0.29075  0.15340  Biso   1.000  H
  H348     1.0000 0.77354  0.29081  0.15340  Biso   1.000  H
  N288     1.0000 0.75318  0.28104  0.04589  Biso   1.000  N
  H349     1.0000 0.77817  0.37206  0.10488  Biso   1.000  H
  H350     1.0000 0.77349  0.29075  0.15340  Biso   1.000  H
  N289     1.0000 0.75326  0.28104  0.04589  Biso   1.000  N
  C424     1.0000 0.91613  0.31560  0.93019  Biso   1.000  C
  C425     1.0000 0.91616  0.31554  0.93019  Biso   1.000  C
  C426     1.0000 0.91605  0.31560  0.93019  Biso   1.000  C
  C427     1.0000 0.99847  0.70351  0.93658  Biso   1.000  C
  C428     1.0000 0.99839  0.70351  0.93658  Biso   1.000  C
  C429     1.0000 0.89016  0.78480  0.03401  Biso   1.000  C
  C430     1.0000 0.89024  0.78480  0.03395  Biso   1.000  C
  C431     1.0000 0.89024  0.78480  0.03401  Biso   1.000  C
  N290     1.0000 0.07494  0.73020  0.88890  Biso   1.000  N
  H351     1.0000 0.22183  0.62791  0.89512  Biso   1.000  H
  H352     1.0000 0.22651  0.70922  0.84660  Biso   1.000  H
  H353     1.0000 0.22183  0.62791  0.89506  Biso   1.000  H
  H354     1.0000 0.22659  0.70922  0.84660  Biso   1.000  H
  H355     1.0000 0.22654  0.70915  0.84660  Biso   1.000  H
  C432     1.0000 0.68304  0.23327  0.05732  Biso   1.000  C
  C433     1.0000 0.68304  0.23328  0.05726  Biso   1.000  C
  C434     1.0000 0.68296  0.23327  0.05732  Biso   1.000  C
  C435     1.0000 0.68296  0.23328  0.05726  Biso   1.000  C
  C436     1.0000 0.72783  0.32268  0.97109  Biso   1.000  C
  N291     1.0000 0.82647  0.29750  0.92420  Biso   1.000  N
  H356     1.0000 0.92474  0.35909  0.89781  Biso   1.000  H
  N292     1.0000 0.82655  0.29750  0.92420  Biso   1.000  N
  H357     1.0000 0.92474  0.35909  0.89775  Biso   1.000  H
  H358     1.0000 0.92466  0.35909  0.89775  Biso   1.000  H
  H359     1.0000 0.92466  0.35909  0.89781  Biso   1.000  H
  C437     1.0000 0.87651  0.76307  0.90229  Biso   1.000  C
  C438     1.0000 0.87643  0.76307  0.90229  Biso   1.000  C
  H360     1.0000 0.01388  0.63950  0.93372  Biso   1.000  H
  H361     1.0000 0.01388  0.63951  0.93366  Biso   1.000  H
  H362     1.0000 0.01380  0.63950  0.93372  Biso   1.000  H
  H363     1.0000 0.01380  0.63951  0.93366  Biso   1.000  H
  N293     1.0000 0.81934  0.80808  0.96801  Biso   1.000  N
  N294     1.0000 0.81934  0.80809  0.96795  Biso   1.000  N
  O136     1.0000 0.84880  0.79840  0.09782  Biso   1.000  O
  O137     1.0000 0.84880  0.79840  0.09777  Biso   1.000  O
  O138     1.0000 0.84888  0.79840  0.09777  Biso   1.000  O
  O139     1.0000 0.84888  0.79840  0.09782  Biso   1.000  O
  C439     1.0000 0.01367  0.79301  0.83422  Biso   1.000  C
  C440     1.0000 0.01367  0.79302  0.83416  Biso   1.000  C
  C441     1.0000 0.01362  0.79295  0.83422  Biso   1.000  C
  C442     1.0000 0.01359  0.79302  0.83416  Biso   1.000  C
  N295     1.0000 0.62973  0.22570  0.99328  Biso   1.000  N
  N296     1.0000 0.62977  0.22564  0.99328  Biso   1.000  N
  N297     1.0000 0.62965  0.22570  0.99328  Biso   1.000  N
  O140     1.0000 0.67163  0.19308  0.11878  Biso   1.000  O
  O141     1.0000 0.67155  0.19308  0.11878  Biso   1.000  O
  C443     1.0000 0.64752  0.28589  0.93607  Biso   1.000  C
  H364     1.0000 0.69184  0.38785  0.97339  Biso   1.000  H
  H365     1.0000 0.69180  0.38791  0.97339  Biso   1.000  H
  H366     1.0000 0.69192  0.38785  0.97339  Biso   1.000  H
  C444     1.0000 0.81329  0.25149  0.86391  Biso   1.000  C
  C445     1.0000 0.81329  0.25149  0.86385  Biso   1.000  C
  C446     1.0000 0.81337  0.25149  0.86391  Biso   1.000  C
  N298     1.0000 0.90185  0.82077  0.84548  Biso   1.000  N
  H367     1.0000 0.83765  0.72697  0.88089  Biso   1.000  H
  H368     1.0000 0.83757  0.72697  0.88089  Biso   1.000  H
  C447     1.0000 0.69057  0.85907  0.97042  Biso   1.000  C
  C448     1.0000 0.69049  0.85907  0.97036  Biso   1.000  C
  C449     1.0000 0.69057  0.85907  0.97036  Biso   1.000  C
  O142     1.0000 0.06163  0.82808  0.78620  Biso   1.000  O
  O143     1.0000 0.06171  0.82808  0.78620  Biso   1.000  O
  C450     1.0000 0.55400  0.18996  0.98549  Biso   1.000  C
  C451     1.0000 0.55408  0.18996  0.98549  Biso   1.000  C
  N299     1.0000 0.70642  0.23725  0.87209  Biso   1.000  N
  N300     1.0000 0.70650  0.23725  0.87209  Biso   1.000  N
  H369     1.0000 0.57487  0.33390  0.92111  Biso   1.000  H
  H370     1.0000 0.57495  0.33390  0.92106  Biso   1.000  H
  H371     1.0000 0.57495  0.33390  0.92111  Biso   1.000  H
  H372     1.0000 0.57487  0.33390  0.92106  Biso   1.000  H
  O144     1.0000 0.87841  0.22886  0.81130  Biso   1.000  O
  O145     1.0000 0.87848  0.22886  0.81130  Biso   1.000  O
  C452     1.0000 0.81225  0.87457  0.79460  Biso   1.000  C
  C453     1.0000 0.81233  0.87457  0.79460  Biso   1.000  C
  N301     1.0000 0.65900  0.95016  0.94677  Biso   1.000  N
  H373     1.0000 0.65294  0.83111  0.93831  Biso   1.000  H
  N302     1.0000 0.65892  0.95016  0.94677  Biso   1.000  N
  H374     1.0000 0.65294  0.83111  0.93826  Biso   1.000  H
  H375     1.0000 0.66420  0.85577  0.02112  Biso   1.000  H
  H376     1.0000 0.66420  0.85578  0.02107  Biso   1.000  H
  H377     1.0000 0.66428  0.85577  0.02112  Biso   1.000  H
  H378     1.0000 0.66428  0.85578  0.02107  Biso   1.000  H
  N303     1.0000 0.60098  0.10506  0.95098  Biso   1.000  N
  N304     1.0000 0.60106  0.10506  0.95098  Biso   1.000  N
  H379     1.0000 0.47821  0.21626  0.00050  Biso   1.000  H
  C454     1.0000 0.66207  0.20398  0.81270  Biso   1.000  C
  C455     1.0000 0.66215  0.20398  0.81270  Biso   1.000  C
  N305     1.0000 0.74634  0.96530  0.82592  Biso   1.000  N
  H380     1.0000 0.84539  0.88240  0.74693  Biso   1.000  H
  H381     1.0000 0.76026  0.84429  0.78581  Biso   1.000  H
  N306     1.0000 0.74634  0.96531  0.82587  Biso   1.000  N
  H382     1.0000 0.84531  0.88240  0.74687  Biso   1.000  H
  H383     1.0000 0.76018  0.84429  0.78575  Biso   1.000  H
  H384     1.0000 0.84531  0.88240  0.74693  Biso   1.000  H
  H385     1.0000 0.76026  0.84429  0.78575  Biso   1.000  H
  H386     1.0000 0.84539  0.88240  0.74687  Biso   1.000  H
  C456     1.0000 0.64699  0.98921  0.86862  Biso   1.000  C
  C457     1.0000 0.64691  0.98921  0.86856  Biso   1.000  C
  C458     1.0000 0.64694  0.98915  0.86862  Biso   1.000  C
  C459     1.0000 0.64699  0.98921  0.86856  Biso   1.000  C
  C460     1.0000 0.62860  0.01497  0.99709  Biso   1.000  C
  C461     1.0000 0.62868  0.01497  0.99709  Biso   1.000  C
  C462     1.0000 0.59618  0.08420  0.87528  Biso   1.000  C
  C463     1.0000 0.59626  0.08420  0.87528  Biso   1.000  C
  N307     1.0000 0.67757  0.11417  0.83041  Biso   1.000  N
  N308     1.0000 0.67765  0.11418  0.83035  Biso   1.000  N
  N309     1.0000 0.67765  0.11417  0.83041  Biso   1.000  N
  N310     1.0000 0.67757  0.11418  0.83035  Biso   1.000  N
  H387     1.0000 0.62809  0.23609  0.76911  Biso   1.000  H
  H388     1.0000 0.62809  0.23609  0.76906  Biso   1.000  H
  H389     1.0000 0.62817  0.23609  0.76911  Biso   1.000  H
  C464     1.0000 0.75187  0.03867  0.79668  Biso   1.000  C
  C465     1.0000 0.75195  0.03867  0.79668  Biso   1.000  C
  H390     1.0000 0.59201  0.97096  0.84200  Biso   1.000  H
  H391     1.0000 0.59190  0.97102  0.84200  Biso   1.000  H
  H392     1.0000 0.59193  0.97096  0.84200  Biso   1.000  H
  H393     1.0000 0.59198  0.97102  0.84200  Biso   1.000  H
  O146     1.0000 0.63199  0.01287  0.06191  Biso   1.000  O
  O147     1.0000 0.63199  0.01288  0.06185  Biso   1.000  O
  H394     1.0000 0.51803  0.10960  0.85478  Biso   1.000  H
  H395     1.0000 0.51796  0.10960  0.85478  Biso   1.000  H
  O148     1.0000 0.82711  0.04535  0.75068  Biso   1.000  O
  O149     1.0000 0.82708  0.04542  0.75068  Biso   1.000  O
  O150     1.0000 0.82719  0.04535  0.75068  Biso   1.000  O
  O151     1.0000 0.17292  0.95455  0.24932  Biso   1.000  O
  C466     1.0000 0.24820  0.96130  0.20332  Biso   1.000  C
  C467     1.0000 0.24812  0.96130  0.20327  Biso   1.000  C
  C468     1.0000 0.24812  0.96130  0.20332  Biso   1.000  C
  N311     1.0000 0.32243  0.88579  0.16959  Biso   1.000  N
  N312     1.0000 0.32251  0.88579  0.16959  Biso   1.000  N
  O152     1.0000 0.17297  0.95461  0.24932  Biso   1.000  O
  O153     1.0000 0.17289  0.95462  0.24926  Biso   1.000  O
  O154     1.0000 0.17300  0.95455  0.24932  Biso   1.000  O
  O155     1.0000 0.17300  0.95455  0.24926  Biso   1.000  O
  N313     1.0000 0.25374  0.03466  0.17408  Biso   1.000  N
  N314     1.0000 0.25366  0.03466  0.17408  Biso   1.000  N
  C469     1.0000 0.33793  0.79599  0.18730  Biso   1.000  C
  C470     1.0000 0.33801  0.79599  0.18730  Biso   1.000  C
  C471     1.0000 0.40390  0.91576  0.12472  Biso   1.000  C
  C472     1.0000 0.40382  0.91577  0.12466  Biso   1.000  C
  C473     1.0000 0.40382  0.91576  0.12472  Biso   1.000  C
  C474     1.0000 0.40389  0.91577  0.12466  Biso   1.000  C
  C475     1.0000 0.35309  0.01075  0.13138  Biso   1.000  C
  C476     1.0000 0.35314  0.01082  0.13138  Biso   1.000  C
  C477     1.0000 0.35306  0.01082  0.13138  Biso   1.000  C
  C478     1.0000 0.35317  0.01075  0.13138  Biso   1.000  C
  C479     1.0000 0.18783  0.12540  0.20540  Biso   1.000  C
  C480     1.0000 0.18775  0.12540  0.20540  Biso   1.000  C
  N315     1.0000 0.29365  0.76271  0.12791  Biso   1.000  N
  N316     1.0000 0.29357  0.76272  0.12785  Biso   1.000  N
  N317     1.0000 0.29369  0.76265  0.12791  Biso   1.000  N
  N318     1.0000 0.29365  0.76272  0.12785  Biso   1.000  N
  N319     1.0000 0.29361  0.76265  0.12791  Biso   1.000  N
  H396     1.0000 0.37198  0.76387  0.23089  Biso   1.000  H
  H397     1.0000 0.37190  0.76387  0.23089  Biso   1.000  H
  N320     1.0000 0.39910  0.89490  0.04902  Biso   1.000  N
  N321     1.0000 0.39902  0.89491  0.04897  Biso   1.000  N
  N322     1.0000 0.39902  0.89490  0.04902  Biso   1.000  N
  H398     1.0000 0.48204  0.89037  0.14522  Biso   1.000  H
  H399     1.0000 0.48204  0.89037  0.14517  Biso   1.000  H
  N323     1.0000 0.34108  0.04981  0.05323  Biso   1.000  N
  N324     1.0000 0.34108  0.04981  0.05317  Biso   1.000  N
  N325     1.0000 0.34111  0.04974  0.05323  Biso   1.000  N
  N326     1.0000 0.34119  0.04974  0.05323  Biso   1.000  N
  H400     1.0000 0.40807  0.02901  0.15800  Biso   1.000  H
  H401     1.0000 0.40810  0.02894  0.15800  Biso   1.000  H
  H402     1.0000 0.40818  0.02894  0.15800  Biso   1.000  H
  N327     1.0000 0.09823  0.17920  0.15452  Biso   1.000  N
  H403     1.0000 0.15469  0.11756  0.25307  Biso   1.000  H
  H404     1.0000 0.23982  0.15568  0.21419  Biso   1.000  H
  N328     1.0000 0.09823  0.17920  0.15447  Biso   1.000  N
  H405     1.0000 0.15477  0.11756  0.25307  Biso   1.000  H
  N329     1.0000 0.09815  0.17920  0.15452  Biso   1.000  N
  H406     1.0000 0.23974  0.15568  0.21419  Biso   1.000  H
  N330     1.0000 0.09815  0.17920  0.15447  Biso   1.000  N
  C481     1.0000 0.18678  0.74848  0.13609  Biso   1.000  C
  C482     1.0000 0.18671  0.74848  0.13609  Biso   1.000  C
  C483     1.0000 0.35256  0.71407  0.06393  Biso   1.000  C
  C484     1.0000 0.35248  0.71407  0.06387  Biso   1.000  C
  C485     1.0000 0.35256  0.71407  0.06387  Biso   1.000  C
  C486     1.0000 0.44608  0.81001  0.01451  Biso   1.000  C
  C487     1.0000 0.44600  0.81001  0.01445  Biso   1.000  C
  C488     1.0000 0.44600  0.81001  0.01451  Biso   1.000  C
  C489     1.0000 0.44608  0.81001  0.01445  Biso   1.000  C
  C490     1.0000 0.37148  0.98500  0.00291  Biso   1.000  C
  C491     1.0000 0.37140  0.98500  0.00286  Biso   1.000  C
  C492     1.0000 0.37140  0.98500  0.00291  Biso   1.000  C
  C493     1.0000 0.37148  0.98500  0.00286  Biso   1.000  C
  C494     1.0000 0.30951  0.14090  0.02958  Biso   1.000  C
  C495     1.0000 0.30943  0.14090  0.02958  Biso   1.000  C
  C496     1.0000 0.98641  0.20695  0.16578  Biso   1.000  C
  C497     1.0000 0.12357  0.23689  0.09771  Biso   1.000  C
  C498     1.0000 0.12365  0.23690  0.09766  Biso   1.000  C
  C499     1.0000 0.12357  0.23690  0.09766  Biso   1.000  C
  C500     1.0000 0.12365  0.23689  0.09771  Biso   1.000  C
  N331     1.0000 0.17353  0.70247  0.07580  Biso   1.000  N
  N332     1.0000 0.17361  0.70247  0.07580  Biso   1.000  N
  O156     1.0000 0.12167  0.77111  0.18870  Biso   1.000  O
  O157     1.0000 0.12159  0.77111  0.18870  Biso   1.000  O
  C501     1.0000 0.27225  0.67729  0.02891  Biso   1.000  C
  C502     1.0000 0.27217  0.67729  0.02885  Biso   1.000  C
  C503     1.0000 0.27225  0.67729  0.02885  Biso   1.000  C
  H407     1.0000 0.42513  0.66607  0.07889  Biso   1.000  H
  N333     1.0000 0.37034  0.77426  0.00672  Biso   1.000  N
  H408     1.0000 0.42521  0.66607  0.07889  Biso   1.000  H
  N334     1.0000 0.37034  0.77426  0.00667  Biso   1.000  N
  H409     1.0000 0.52187  0.78370  0.99950  Biso   1.000  H
  H410     1.0000 0.52179  0.78370  0.99950  Biso   1.000  H
  O158     1.0000 0.36809  0.98709  0.93809  Biso   1.000  O
  O159     1.0000 0.36801  0.98709  0.93809  Biso   1.000  O
  H411     1.0000 0.33580  0.14419  0.97888  Biso   1.000  H
  H412     1.0000 0.33588  0.14419  0.97888  Biso   1.000  H
  N335     1.0000 0.18073  0.19188  0.03199  Biso   1.000  N
  H413     1.0000 0.34714  0.16886  0.06169  Biso   1.000  H
  N336     1.0000 0.18065  0.19188  0.03199  Biso   1.000  N
  H414     1.0000 0.34706  0.16886  0.06169  Biso   1.000  H
  O160     1.0000 0.93844  0.17188  0.21380  Biso   1.000  O
  N337     1.0000 0.92513  0.26976  0.11110  Biso   1.000  N
  O161     1.0000 0.93836  0.17188  0.21380  Biso   1.000  O
  N338     1.0000 0.92505  0.26976  0.11110  Biso   1.000  N
  H415     1.0000 0.16242  0.27299  0.11911  Biso   1.000  H
  C504     1.0000 0.00161  0.29646  0.06342  Biso   1.000  C
  H416     1.0000 0.16242  0.27299  0.11906  Biso   1.000  H
  C505     1.0000 0.00161  0.29646  0.06337  Biso   1.000  C
  H417     1.0000 0.16234  0.27299  0.11911  Biso   1.000  H
  C506     1.0000 0.00169  0.29646  0.06342  Biso   1.000  C
  C507     1.0000 0.08395  0.68436  0.06981  Biso   1.000  C
  C508     1.0000 0.08392  0.68443  0.06975  Biso   1.000  C
  C509     1.0000 0.08395  0.68436  0.06975  Biso   1.000  C
  N339     1.0000 0.24685  0.71886  0.95411  Biso   1.000  N
  N340     1.0000 0.24690  0.71893  0.95406  Biso   1.000  N
  N341     1.0000 0.24685  0.71886  0.95406  Biso   1.000  N
  N342     1.0000 0.24682  0.71893  0.95406  Biso   1.000  N
  H418     1.0000 0.30824  0.61212  0.02661  Biso   1.000  H
  H419     1.0000 0.30816  0.61212  0.02656  Biso   1.000  H
  H420     1.0000 0.30827  0.61205  0.02661  Biso   1.000  H
  H421     1.0000 0.30824  0.61212  0.02656  Biso   1.000  H
  C510     1.0000 0.31703  0.76669  0.94268  Biso   1.000  C
  C511     1.0000 0.31711  0.76669  0.94268  Biso   1.000  C
  C512     1.0000 0.10984  0.21517  0.96599  Biso   1.000  C
  C513     1.0000 0.10976  0.21517  0.96599  Biso   1.000  C
  C514     1.0000 0.80300  0.30739  0.10740  Biso   1.000  C
  N343     1.0000 0.00740  0.26996  0.98678  Biso   1.000  N
  N344     1.0000 0.00748  0.26996  0.98678  Biso   1.000  N
  H422     1.0000 0.98620  0.36046  0.06628  Biso   1.000  H
  H423     1.0000 0.98627  0.36046  0.06628  Biso   1.000  H
  H424     1.0000 0.07534  0.64088  0.10219  Biso   1.000  H
  N345     1.0000 0.99260  0.73001  0.01322  Biso   1.000  N
  N346     1.0000 0.99260  0.73001  0.01317  Biso   1.000  N
  N347     1.0000 0.99268  0.73001  0.01317  Biso   1.000  N
  N348     1.0000 0.99268  0.73001  0.01322  Biso   1.000  N
  C515     1.0000 0.19708  0.69257  0.89260  Biso   1.000  C
  C516     1.0000 0.19700  0.69257  0.89260  Biso   1.000  C
  O162     1.0000 0.32845  0.80689  0.88122  Biso   1.000  O
  O163     1.0000 0.32844  0.80689  0.88117  Biso   1.000  O
  O164     1.0000 0.15120  0.20157  0.90218  Biso   1.000  O
  O165     1.0000 0.15128  0.20157  0.90218  Biso   1.000  O
  N349     1.0000 0.75322  0.28111  0.04589  Biso   1.000  N
  H425     1.0000 0.77825  0.37206  0.10488  Biso   1.000  H
  H426     1.0000 0.77357  0.29075  0.15340  Biso   1.000  H
  H427     1.0000 0.77354  0.29081  0.15340  Biso   1.000  H
  N350     1.0000 0.75318  0.28104  0.04589  Biso   1.000  N
  H428     1.0000 0.77817  0.37206  0.10488  Biso   1.000  H
  H429     1.0000 0.77349  0.29075  0.15340  Biso   1.000  H
  N351     1.0000 0.75326  0.28104  0.04589  Biso   1.000  N
  C517     1.0000 0.91613  0.31560  0.93019  Biso   1.000  C
  C518     1.0000 0.91616  0.31554  0.93019  Biso   1.000  C
  C519     1.0000 0.91605  0.31560  0.93019  Biso   1.000  C
  C520     1.0000 0.99847  0.70351  0.93658  Biso   1.000  C
  C521     1.0000 0.99839  0.70351  0.93658  Biso   1.000  C
  C522     1.0000 0.89016  0.78480  0.03401  Biso   1.000  C
  C523     1.0000 0.89024  0.78480  0.03395  Biso   1.000  C
  C524     1.0000 0.89024  0.78480  0.03401  Biso   1.000  C
  N352     1.0000 0.07494  0.73020  0.88890  Biso   1.000  N
  H430     1.0000 0.22183  0.62791  0.89512  Biso   1.000  H
  H431     1.0000 0.22651  0.70922  0.84660  Biso   1.000  H
  H432     1.0000 0.22183  0.62791  0.89506  Biso   1.000  H
  H433     1.0000 0.22659  0.70922  0.84660  Biso   1.000  H
  H434     1.0000 0.22654  0.70915  0.84660  Biso   1.000  H
  C525     1.0000 0.68304  0.23327  0.05732  Biso   1.000  C
  C526     1.0000 0.68304  0.23328  0.05726  Biso   1.000  C
  C527     1.0000 0.68296  0.23327  0.05732  Biso   1.000  C
  C528     1.0000 0.68296  0.23328  0.05726  Biso   1.000  C
  C529     1.0000 0.72783  0.32268  0.97109  Biso   1.000  C
  N353     1.0000 0.82647  0.29750  0.92420  Biso   1.000  N
  H435     1.0000 0.92474  0.35909  0.89781  Biso   1.000  H
  N354     1.0000 0.82655  0.29750  0.92420  Biso   1.000  N
  H436     1.0000 0.92474  0.35909  0.89775  Biso   1.000  H
  H437     1.0000 0.92466  0.35909  0.89775  Biso   1.000  H
  H438     1.0000 0.92466  0.35909  0.89781  Biso   1.000  H
  C530     1.0000 0.87651  0.76307  0.90229  Biso   1.000  C
  C531     1.0000 0.87643  0.76307  0.90229  Biso   1.000  C
  H439     1.0000 0.01388  0.63950  0.93372  Biso   1.000  H
  H440     1.0000 0.01388  0.63951  0.93366  Biso   1.000  H
  H441     1.0000 0.01380  0.63950  0.93372  Biso   1.000  H
  H442     1.0000 0.01380  0.63951  0.93366  Biso   1.000  H
  N355     1.0000 0.81934  0.80808  0.96801  Biso   1.000  N
  N356     1.0000 0.81934  0.80809  0.96795  Biso   1.000  N
  O166     1.0000 0.84880  0.79840  0.09782  Biso   1.000  O
  O167     1.0000 0.84880  0.79840  0.09777  Biso   1.000  O
  O168     1.0000 0.84888  0.79840  0.09777  Biso   1.000  O
  O169     1.0000 0.84888  0.79840  0.09782  Biso   1.000  O
  C532     1.0000 0.01367  0.79301  0.83422  Biso   1.000  C
  C533     1.0000 0.01367  0.79302  0.83416  Biso   1.000  C
  C534     1.0000 0.01362  0.79295  0.83422  Biso   1.000  C
  C535     1.0000 0.01359  0.79302  0.83416  Biso   1.000  C
  N357     1.0000 0.62973  0.22570  0.99328  Biso   1.000  N
  N358     1.0000 0.62977  0.22564  0.99328  Biso   1.000  N
  N359     1.0000 0.62965  0.22570  0.99328  Biso   1.000  N
  O170     1.0000 0.67163  0.19308  0.11878  Biso   1.000  O
  O171     1.0000 0.67155  0.19308  0.11878  Biso   1.000  O
  C536     1.0000 0.64752  0.28589  0.93607  Biso   1.000  C
  H443     1.0000 0.69184  0.38785  0.97339  Biso   1.000  H
  H444     1.0000 0.69180  0.38791  0.97339  Biso   1.000  H
  H445     1.0000 0.69192  0.38785  0.97339  Biso   1.000  H
  C537     1.0000 0.81329  0.25149  0.86391  Biso   1.000  C
  C538     1.0000 0.81329  0.25149  0.86385  Biso   1.000  C
  C539     1.0000 0.81337  0.25149  0.86391  Biso   1.000  C
  N360     1.0000 0.90185  0.82077  0.84548  Biso   1.000  N
  H446     1.0000 0.83765  0.72697  0.88089  Biso   1.000  H
  H447     1.0000 0.83757  0.72697  0.88089  Biso   1.000  H
  C540     1.0000 0.69057  0.85907  0.97042  Biso   1.000  C
  C541     1.0000 0.69049  0.85907  0.97036  Biso   1.000  C
  C542     1.0000 0.69057  0.85907  0.97036  Biso   1.000  C
  O172     1.0000 0.06163  0.82808  0.78620  Biso   1.000  O
  O173     1.0000 0.06171  0.82808  0.78620  Biso   1.000  O
  C543     1.0000 0.55400  0.18996  0.98549  Biso   1.000  C
  C544     1.0000 0.55408  0.18996  0.98549  Biso   1.000  C
  N361     1.0000 0.70642  0.23725  0.87209  Biso   1.000  N
  N362     1.0000 0.70650  0.23725  0.87209  Biso   1.000  N
  H448     1.0000 0.57487  0.33390  0.92111  Biso   1.000  H
  H449     1.0000 0.57495  0.33390  0.92106  Biso   1.000  H
  H450     1.0000 0.57495  0.33390  0.92111  Biso   1.000  H
  H451     1.0000 0.57487  0.33390  0.92106  Biso   1.000  H
  O174     1.0000 0.87841  0.22886  0.81130  Biso   1.000  O
  O175     1.0000 0.87848  0.22886  0.81130  Biso   1.000  O
  C545     1.0000 0.81225  0.87457  0.79460  Biso   1.000  C
  C546     1.0000 0.81233  0.87457  0.79460  Biso   1.000  C
  N363     1.0000 0.65900  0.95016  0.94677  Biso   1.000  N
  H452     1.0000 0.65294  0.83111  0.93831  Biso   1.000  H
  N364     1.0000 0.65892  0.95016  0.94677  Biso   1.000  N
  H453     1.0000 0.65294  0.83111  0.93826  Biso   1.000  H
  H454     1.0000 0.66420  0.85577  0.02112  Biso   1.000  H
  H455     1.0000 0.66420  0.85578  0.02107  Biso   1.000  H
  H456     1.0000 0.66428  0.85577  0.02112  Biso   1.000  H
  H457     1.0000 0.66428  0.85578  0.02107  Biso   1.000  H
  N365     1.0000 0.60098  0.10506  0.95098  Biso   1.000  N
  N366     1.0000 0.60106  0.10506  0.95098  Biso   1.000  N
  H458     1.0000 0.47821  0.21626  0.00050  Biso   1.000  H
  C547     1.0000 0.66207  0.20398  0.81270  Biso   1.000  C
  C548     1.0000 0.66215  0.20398  0.81270  Biso   1.000  C
  N367     1.0000 0.74634  0.96530  0.82592  Biso   1.000  N
  H459     1.0000 0.84539  0.88240  0.74693  Biso   1.000  H
  H460     1.0000 0.76026  0.84429  0.78581  Biso   1.000  H
  N368     1.0000 0.74634  0.96531  0.82587  Biso   1.000  N
  H461     1.0000 0.84531  0.88240  0.74687  Biso   1.000  H
  H462     1.0000 0.76018  0.84429  0.78575  Biso   1.000  H
  H463     1.0000 0.84531  0.88240  0.74693  Biso   1.000  H
  H464     1.0000 0.76026  0.84429  0.78575  Biso   1.000  H
  H465     1.0000 0.84539  0.88240  0.74687  Biso   1.000  H
  C549     1.0000 0.64699  0.98921  0.86862  Biso   1.000  C
  C550     1.0000 0.64691  0.98921  0.86856  Biso   1.000  C
  C551     1.0000 0.64694  0.98915  0.86862  Biso   1.000  C
  C552     1.0000 0.64699  0.98921  0.86856  Biso   1.000  C
  C553     1.0000 0.62860  0.01497  0.99709  Biso   1.000  C
  C554     1.0000 0.62868  0.01497  0.99709  Biso   1.000  C
  C555     1.0000 0.59618  0.08420  0.87528  Biso   1.000  C
  C556     1.0000 0.59626  0.08420  0.87528  Biso   1.000  C
  N369     1.0000 0.67757  0.11417  0.83041  Biso   1.000  N
  N370     1.0000 0.67765  0.11418  0.83035  Biso   1.000  N
  N371     1.0000 0.67765  0.11417  0.83041  Biso   1.000  N
  N372     1.0000 0.67757  0.11418  0.83035  Biso   1.000  N
  H466     1.0000 0.62809  0.23609  0.76911  Biso   1.000  H
  H467     1.0000 0.62809  0.23609  0.76906  Biso   1.000  H
  H468     1.0000 0.62817  0.23609  0.76911  Biso   1.000  H
  C557     1.0000 0.75187  0.03867  0.79668  Biso   1.000  C
  C558     1.0000 0.75195  0.03867  0.79668  Biso   1.000  C
  H469     1.0000 0.59201  0.97096  0.84200  Biso   1.000  H
  H470     1.0000 0.59190  0.97102  0.84200  Biso   1.000  H
  H471     1.0000 0.59193  0.97096  0.84200  Biso   1.000  H
  H472     1.0000 0.59198  0.97102  0.84200  Biso   1.000  H
  O176     1.0000 0.63199  0.01287  0.06191  Biso   1.000  O
  O177     1.0000 0.63199  0.01288  0.06185  Biso   1.000  O
  H473     1.0000 0.51803  0.10960  0.85478  Biso   1.000  H
  H474     1.0000 0.51796  0.10960  0.85478  Biso   1.000  H
  O178     1.0000 0.82711  0.04535  0.75068  Biso   1.000  O
  O179     1.0000 0.82708  0.04542  0.75068  Biso   1.000  O
  O180     1.0000 0.82719  0.04535  0.75068  Biso   1.000  O
  O181     1.0000 0.17292  0.95455  0.24932  Biso   1.000  O
  C559     1.0000 0.24820  0.96130  0.20332  Biso   1.000  C
  C560     1.0000 0.24812  0.96130  0.20327  Biso   1.000  C
  C561     1.0000 0.24812  0.96130  0.20332  Biso   1.000  C
  N373     1.0000 0.32243  0.88579  0.16959  Biso   1.000  N
  N374     1.0000 0.32251  0.88579  0.16959  Biso   1.000  N
  O182     1.0000 0.17297  0.95461  0.24932  Biso   1.000  O
  O183     1.0000 0.17289  0.95462  0.24926  Biso   1.000  O
  O184     1.0000 0.17300  0.95455  0.24932  Biso   1.000  O
  O185     1.0000 0.17300  0.95455  0.24926  Biso   1.000  O
  N375     1.0000 0.25374  0.03466  0.17408  Biso   1.000  N
  N376     1.0000 0.25366  0.03466  0.17408  Biso   1.000  N
  C562     1.0000 0.33793  0.79599  0.18730  Biso   1.000  C
  C563     1.0000 0.33801  0.79599  0.18730  Biso   1.000  C
  C564     1.0000 0.40390  0.91576  0.12472  Biso   1.000  C
  C565     1.0000 0.40382  0.91577  0.12466  Biso   1.000  C
  C566     1.0000 0.40382  0.91576  0.12472  Biso   1.000  C
  C567     1.0000 0.40389  0.91577  0.12466  Biso   1.000  C
  C568     1.0000 0.35309  0.01075  0.13138  Biso   1.000  C
  C569     1.0000 0.35314  0.01082  0.13138  Biso   1.000  C
  C570     1.0000 0.35306  0.01082  0.13138  Biso   1.000  C
  C571     1.0000 0.35317  0.01075  0.13138  Biso   1.000  C
  C572     1.0000 0.18783  0.12540  0.20540  Biso   1.000  C
  C573     1.0000 0.18775  0.12540  0.20540  Biso   1.000  C
  N377     1.0000 0.29365  0.76271  0.12791  Biso   1.000  N
  N378     1.0000 0.29357  0.76272  0.12785  Biso   1.000  N
  N379     1.0000 0.29369  0.76265  0.12791  Biso   1.000  N
  N380     1.0000 0.29365  0.76272  0.12785  Biso   1.000  N
  N381     1.0000 0.29361  0.76265  0.12791  Biso   1.000  N
  H475     1.0000 0.37198  0.76387  0.23089  Biso   1.000  H
  H476     1.0000 0.37190  0.76387  0.23089  Biso   1.000  H
  N382     1.0000 0.39910  0.89490  0.04902  Biso   1.000  N
  N383     1.0000 0.39902  0.89491  0.04897  Biso   1.000  N
  N384     1.0000 0.39902  0.89490  0.04902  Biso   1.000  N
  H477     1.0000 0.48204  0.89037  0.14522  Biso   1.000  H
  H478     1.0000 0.48204  0.89037  0.14517  Biso   1.000  H
  N385     1.0000 0.34108  0.04981  0.05323  Biso   1.000  N
  N386     1.0000 0.34108  0.04981  0.05317  Biso   1.000  N
  N387     1.0000 0.34111  0.04974  0.05323  Biso   1.000  N
  N388     1.0000 0.34119  0.04974  0.05323  Biso   1.000  N
  H479     1.0000 0.40807  0.02901  0.15800  Biso   1.000  H
  H480     1.0000 0.40810  0.02894  0.15800  Biso   1.000  H
  H481     1.0000 0.40818  0.02894  0.15800  Biso   1.000  H
  N389     1.0000 0.09823  0.17920  0.15452  Biso   1.000  N
  H482     1.0000 0.15469  0.11756  0.25307  Biso   1.000  H
  H483     1.0000 0.23982  0.15568  0.21419  Biso   1.000  H
  N390     1.0000 0.09823  0.17920  0.15447  Biso   1.000  N
  H484     1.0000 0.15477  0.11756  0.25307  Biso   1.000  H
  N391     1.0000 0.09815  0.17920  0.15452  Biso   1.000  N
  H485     1.0000 0.23974  0.15568  0.21419  Biso   1.000  H
  N392     1.0000 0.09815  0.17920  0.15447  Biso   1.000  N
  C574     1.0000 0.18678  0.74848  0.13609  Biso   1.000  C
  C575     1.0000 0.18671  0.74848  0.13609  Biso   1.000  C
  C576     1.0000 0.35256  0.71407  0.06393  Biso   1.000  C
  C577     1.0000 0.35248  0.71407  0.06387  Biso   1.000  C
  C578     1.0000 0.35256  0.71407  0.06387  Biso   1.000  C
  C579     1.0000 0.44608  0.81001  0.01451  Biso   1.000  C
  C580     1.0000 0.44600  0.81001  0.01445  Biso   1.000  C
  C581     1.0000 0.44600  0.81001  0.01451  Biso   1.000  C
  C582     1.0000 0.44608  0.81001  0.01445  Biso   1.000  C
  C583     1.0000 0.37148  0.98500  0.00291  Biso   1.000  C
  C584     1.0000 0.37140  0.98500  0.00286  Biso   1.000  C
  C585     1.0000 0.37140  0.98500  0.00291  Biso   1.000  C
  C586     1.0000 0.37148  0.98500  0.00286  Biso   1.000  C
  C587     1.0000 0.30951  0.14090  0.02958  Biso   1.000  C
  C588     1.0000 0.30943  0.14090  0.02958  Biso   1.000  C
  C589     1.0000 0.98641  0.20695  0.16578  Biso   1.000  C
  C590     1.0000 0.12357  0.23689  0.09771  Biso   1.000  C
  C591     1.0000 0.12365  0.23690  0.09766  Biso   1.000  C
  C592     1.0000 0.12357  0.23690  0.09766  Biso   1.000  C
  C593     1.0000 0.12365  0.23689  0.09771  Biso   1.000  C
  N393     1.0000 0.17353  0.70247  0.07580  Biso   1.000  N
  N394     1.0000 0.17361  0.70247  0.07580  Biso   1.000  N
  O186     1.0000 0.12167  0.77111  0.18870  Biso   1.000  O
  O187     1.0000 0.12159  0.77111  0.18870  Biso   1.000  O
  C594     1.0000 0.27225  0.67729  0.02891  Biso   1.000  C
  C595     1.0000 0.27217  0.67729  0.02885  Biso   1.000  C
  C596     1.0000 0.27225  0.67729  0.02885  Biso   1.000  C
  H486     1.0000 0.42513  0.66607  0.07889  Biso   1.000  H
  N395     1.0000 0.37034  0.77426  0.00672  Biso   1.000  N
  H487     1.0000 0.42521  0.66607  0.07889  Biso   1.000  H
  N396     1.0000 0.37034  0.77426  0.00667  Biso   1.000  N
  H488     1.0000 0.52187  0.78370  0.99950  Biso   1.000  H
  H489     1.0000 0.52179  0.78370  0.99950  Biso   1.000  H
  O188     1.0000 0.36809  0.98709  0.93809  Biso   1.000  O
  O189     1.0000 0.36801  0.98709  0.93809  Biso   1.000  O
  H490     1.0000 0.33580  0.14419  0.97888  Biso   1.000  H
  H491     1.0000 0.33588  0.14419  0.97888  Biso   1.000  H
  N397     1.0000 0.18073  0.19188  0.03199  Biso   1.000  N
  H492     1.0000 0.34714  0.16886  0.06169  Biso   1.000  H
  N398     1.0000 0.18065  0.19188  0.03199  Biso   1.000  N
  H493     1.0000 0.34706  0.16886  0.06169  Biso   1.000  H
  O190     1.0000 0.93844  0.17188  0.21380  Biso   1.000  O
  N399     1.0000 0.92513  0.26976  0.11110  Biso   1.000  N
  O191     1.0000 0.93836  0.17188  0.21380  Biso   1.000  O
  N400     1.0000 0.92505  0.26976  0.11110  Biso   1.000  N
  H494     1.0000 0.16242  0.27299  0.11911  Biso   1.000  H
  C597     1.0000 0.00161  0.29646  0.06342  Biso   1.000  C
  H495     1.0000 0.16242  0.27299  0.11906  Biso   1.000  H
  C598     1.0000 0.00161  0.29646  0.06337  Biso   1.000  C
  H496     1.0000 0.16234  0.27299  0.11911  Biso   1.000  H
  C599     1.0000 0.00169  0.29646  0.06342  Biso   1.000  C
  C600     1.0000 0.08395  0.68436  0.06981  Biso   1.000  C
  C601     1.0000 0.08392  0.68443  0.06975  Biso   1.000  C
  C602     1.0000 0.08395  0.68436  0.06975  Biso   1.000  C
  N401     1.0000 0.24685  0.71886  0.95411  Biso   1.000  N
  N402     1.0000 0.24690  0.71893  0.95406  Biso   1.000  N
  N403     1.0000 0.24685  0.71886  0.95406  Biso   1.000  N
  N404     1.0000 0.24682  0.71893  0.95406  Biso   1.000  N
  H497     1.0000 0.30824  0.61212  0.02661  Biso   1.000  H
  H498     1.0000 0.30816  0.61212  0.02656  Biso   1.000  H
  H499     1.0000 0.30827  0.61205  0.02661  Biso   1.000  H
  H500     1.0000 0.30824  0.61212  0.02656  Biso   1.000  H
  C603     1.0000 0.31703  0.76669  0.94268  Biso   1.000  C
  C604     1.0000 0.31711  0.76669  0.94268  Biso   1.000  C
  C605     1.0000 0.10984  0.21517  0.96599  Biso   1.000  C
  C606     1.0000 0.10976  0.21517  0.96599  Biso   1.000  C
  C607     1.0000 0.80300  0.30739  0.10740  Biso   1.000  C
  N405     1.0000 0.00740  0.26996  0.98678  Biso   1.000  N
  N406     1.0000 0.00748  0.26996  0.98678  Biso   1.000  N
  H501     1.0000 0.98620  0.36046  0.06628  Biso   1.000  H
  H502     1.0000 0.98627  0.36046  0.06628  Biso   1.000  H
  H503     1.0000 0.07534  0.64088  0.10219  Biso   1.000  H
  N407     1.0000 0.99260  0.73001  0.01322  Biso   1.000  N
  N408     1.0000 0.99260  0.73001  0.01317  Biso   1.000  N
  N409     1.0000 0.99268  0.73001  0.01317  Biso   1.000  N
  N410     1.0000 0.99268  0.73001  0.01322  Biso   1.000  N
  C608     1.0000 0.19708  0.69257  0.89260  Biso   1.000  C
  C609     1.0000 0.19700  0.69257  0.89260  Biso   1.000  C
  O192     1.0000 0.32845  0.80689  0.88122  Biso   1.000  O
  O193     1.0000 0.32844  0.80689  0.88117  Biso   1.000  O
  O194     1.0000 0.15120  0.20157  0.90218  Biso   1.000  O
  O195     1.0000 0.15128  0.20157  0.90218  Biso   1.000  O
  N411     1.0000 0.75322  0.28111  0.04589  Biso   1.000  N
  H504     1.0000 0.77825  0.37206  0.10488  Biso   1.000  H
  H505     1.0000 0.77357  0.29075  0.15340  Biso   1.000  H
  H506     1.0000 0.77354  0.29081  0.15340  Biso   1.000  H
  N412     1.0000 0.75318  0.28104  0.04589  Biso   1.000  N
  H507     1.0000 0.77817  0.37206  0.10488  Biso   1.000  H
  H508     1.0000 0.77349  0.29075  0.15340  Biso   1.000  H
  N413     1.0000 0.75326  0.28104  0.04589  Biso   1.000  N
  C610     1.0000 0.91613  0.31560  0.93019  Biso   1.000  C
  C611     1.0000 0.91616  0.31554  0.93019  Biso   1.000  C
  C612     1.0000 0.91605  0.31560  0.93019  Biso   1.000  C
  C613     1.0000 0.99847  0.70351  0.93658  Biso   1.000  C
  C614     1.0000 0.99839  0.70351  0.93658  Biso   1.000  C
  C615     1.0000 0.89016  0.78480  0.03401  Biso   1.000  C
  C616     1.0000 0.89024  0.78480  0.03395  Biso   1.000  C
  C617     1.0000 0.89024  0.78480  0.03401  Biso   1.000  C
  N414     1.0000 0.07494  0.73020  0.88890  Biso   1.000  N
  H509     1.0000 0.22183  0.62791  0.89512  Biso   1.000  H
  H510     1.0000 0.22651  0.70922  0.84660  Biso   1.000  H
  H511     1.0000 0.22183  0.62791  0.89506  Biso   1.000  H
  H512     1.0000 0.22659  0.70922  0.84660  Biso   1.000  H
  H513     1.0000 0.22654  0.70915  0.84660  Biso   1.000  H
  C618     1.0000 0.68304  0.23327  0.05732  Biso   1.000  C
  C619     1.0000 0.68304  0.23328  0.05726  Biso   1.000  C
  C620     1.0000 0.68296  0.23327  0.05732  Biso   1.000  C
  C621     1.0000 0.68296  0.23328  0.05726  Biso   1.000  C
  C622     1.0000 0.72783  0.32268  0.97109  Biso   1.000  C
  N415     1.0000 0.82647  0.29750  0.92420  Biso   1.000  N
  H514     1.0000 0.92474  0.35909  0.89781  Biso   1.000  H
  N416     1.0000 0.82655  0.29750  0.92420  Biso   1.000  N
  H515     1.0000 0.92474  0.35909  0.89775  Biso   1.000  H
  H516     1.0000 0.92466  0.35909  0.89775  Biso   1.000  H
  H517     1.0000 0.92466  0.35909  0.89781  Biso   1.000  H
  C623     1.0000 0.87651  0.76307  0.90229  Biso   1.000  C
  C624     1.0000 0.87643  0.76307  0.90229  Biso   1.000  C
  H518     1.0000 0.01388  0.63950  0.93372  Biso   1.000  H
  H519     1.0000 0.01388  0.63951  0.93366  Biso   1.000  H
  H520     1.0000 0.01380  0.63950  0.93372  Biso   1.000  H
  H521     1.0000 0.01380  0.63951  0.93366  Biso   1.000  H
  N417     1.0000 0.81934  0.80808  0.96801  Biso   1.000  N
  N418     1.0000 0.81934  0.80809  0.96795  Biso   1.000  N
  O196     1.0000 0.84880  0.79840  0.09782  Biso   1.000  O
  O197     1.0000 0.84880  0.79840  0.09777  Biso   1.000  O
  O198     1.0000 0.84888  0.79840  0.09777  Biso   1.000  O
  O199     1.0000 0.84888  0.79840  0.09782  Biso   1.000  O
  C625     1.0000 0.01367  0.79301  0.83422  Biso   1.000  C
  C626     1.0000 0.01367  0.79302  0.83416  Biso   1.000  C
  C627     1.0000 0.01362  0.79295  0.83422  Biso   1.000  C
  C628     1.0000 0.01359  0.79302  0.83416  Biso   1.000  C
  N419     1.0000 0.62973  0.22570  0.99328  Biso   1.000  N
  N420     1.0000 0.62977  0.22564  0.99328  Biso   1.000  N
  N421     1.0000 0.62965  0.22570  0.99328  Biso   1.000  N
  O200     1.0000 0.67163  0.19308  0.11878  Biso   1.000  O
  O201     1.0000 0.67155  0.19308  0.11878  Biso   1.000  O
  C629     1.0000 0.64752  0.28589  0.93607  Biso   1.000  C
  H522     1.0000 0.69184  0.38785  0.97339  Biso   1.000  H
  H523     1.0000 0.69180  0.38791  0.97339  Biso   1.000  H
  H524     1.0000 0.69192  0.38785  0.97339  Biso   1.000  H
  C630     1.0000 0.81329  0.25149  0.86391  Biso   1.000  C
  C631     1.0000 0.81329  0.25149  0.86385  Biso   1.000  C
  C632     1.0000 0.81337  0.25149  0.86391  Biso   1.000  C
  N422     1.0000 0.90185  0.82077  0.84548  Biso   1.000  N
  H525     1.0000 0.83765  0.72697  0.88089  Biso   1.000  H
  H526     1.0000 0.83757  0.72697  0.88089  Biso   1.000  H
  C633     1.0000 0.69057  0.85907  0.97042  Biso   1.000  C
  C634     1.0000 0.69049  0.85907  0.97036  Biso   1.000  C
  C635     1.0000 0.69057  0.85907  0.97036  Biso   1.000  C
  O202     1.0000 0.06163  0.82808  0.78620  Biso   1.000  O
  O203     1.0000 0.06171  0.82808  0.78620  Biso   1.000  O
  C636     1.0000 0.55400  0.18996  0.98549  Biso   1.000  C
  C637     1.0000 0.55408  0.18996  0.98549  Biso   1.000  C
  N423     1.0000 0.70642  0.23725  0.87209  Biso   1.000  N
  N424     1.0000 0.70650  0.23725  0.87209  Biso   1.000  N
  H527     1.0000 0.57487  0.33390  0.92111  Biso   1.000  H
  H528     1.0000 0.57495  0.33390  0.92106  Biso   1.000  H
  H529     1.0000 0.57495  0.33390  0.92111  Biso   1.000  H
  H530     1.0000 0.57487  0.33390  0.92106  Biso   1.000  H
  O204     1.0000 0.87841  0.22886  0.81130  Biso   1.000  O
  O205     1.0000 0.87848  0.22886  0.81130  Biso   1.000  O
  C638     1.0000 0.81225  0.87457  0.79460  Biso   1.000  C
  C639     1.0000 0.81233  0.87457  0.79460  Biso   1.000  C
  N425     1.0000 0.65900  0.95016  0.94677  Biso   1.000  N
  H531     1.0000 0.65294  0.83111  0.93831  Biso   1.000  H
  N426     1.0000 0.65892  0.95016  0.94677  Biso   1.000  N
  H532     1.0000 0.65294  0.83111  0.93826  Biso   1.000  H
  H533     1.0000 0.66420  0.85577  0.02112  Biso   1.000  H
  H534     1.0000 0.66420  0.85578  0.02107  Biso   1.000  H
  H535     1.0000 0.66428  0.85577  0.02112  Biso   1.000  H
  H536     1.0000 0.66428  0.85578  0.02107  Biso   1.000  H
  N427     1.0000 0.60098  0.10506  0.95098  Biso   1.000  N
  N428     1.0000 0.60106  0.10506  0.95098  Biso   1.000  N
  H537     1.0000 0.47821  0.21626  0.00050  Biso   1.000  H
  C640     1.0000 0.66207  0.20398  0.81270  Biso   1.000  C
  C641     1.0000 0.66215  0.20398  0.81270  Biso   1.000  C
  N429     1.0000 0.74634  0.96530  0.82592  Biso   1.000  N
  H538     1.0000 0.84539  0.88240  0.74693  Biso   1.000  H
  H539     1.0000 0.76026  0.84429  0.78581  Biso   1.000  H
  N430     1.0000 0.74634  0.96531  0.82587  Biso   1.000  N
  H540     1.0000 0.84531  0.88240  0.74687  Biso   1.000  H
  H541     1.0000 0.76018  0.84429  0.78575  Biso   1.000  H
  H542     1.0000 0.84531  0.88240  0.74693  Biso   1.000  H
  H543     1.0000 0.76026  0.84429  0.78575  Biso   1.000  H
  H544     1.0000 0.84539  0.88240  0.74687  Biso   1.000  H
  C642     1.0000 0.64699  0.98921  0.86862  Biso   1.000  C
  C643     1.0000 0.64691  0.98921  0.86856  Biso   1.000  C
  C644     1.0000 0.64694  0.98915  0.86862  Biso   1.000  C
  C645     1.0000 0.64699  0.98921  0.86856  Biso   1.000  C
  C646     1.0000 0.62860  0.01497  0.99709  Biso   1.000  C
  C647     1.0000 0.62868  0.01497  0.99709  Biso   1.000  C
  C648     1.0000 0.59618  0.08420  0.87528  Biso   1.000  C
  C649     1.0000 0.59626  0.08420  0.87528  Biso   1.000  C
  N431     1.0000 0.67757  0.11417  0.83041  Biso   1.000  N
  N432     1.0000 0.67765  0.11418  0.83035  Biso   1.000  N
  N433     1.0000 0.67765  0.11417  0.83041  Biso   1.000  N
  N434     1.0000 0.67757  0.11418  0.83035  Biso   1.000  N
  H545     1.0000 0.62809  0.23609  0.76911  Biso   1.000  H
  H546     1.0000 0.62809  0.23609  0.76906  Biso   1.000  H
  H547     1.0000 0.62817  0.23609  0.76911  Biso   1.000  H
  C650     1.0000 0.75187  0.03867  0.79668  Biso   1.000  C
  C651     1.0000 0.75195  0.03867  0.79668  Biso   1.000  C
  H548     1.0000 0.59201  0.97096  0.84200  Biso   1.000  H
  H549     1.0000 0.59190  0.97102  0.84200  Biso   1.000  H
  H550     1.0000 0.59193  0.97096  0.84200  Biso   1.000  H
  H551     1.0000 0.59198  0.97102  0.84200  Biso   1.000  H
  O206     1.0000 0.63199  0.01287  0.06191  Biso   1.000  O
  O207     1.0000 0.63199  0.01288  0.06185  Biso   1.000  O
  H552     1.0000 0.51803  0.10960  0.85478  Biso   1.000  H
  H553     1.0000 0.51796  0.10960  0.85478  Biso   1.000  H
  O208     1.0000 0.82711  0.04535  0.75068  Biso   1.000  O
  O209     1.0000 0.82708  0.04542  0.75068  Biso   1.000  O
  O210     1.0000 0.82719  0.04535  0.75068  Biso   1.000  O
  C652     1.0000 0.16536  0.71348  0.36989  Biso   1.000  C
  N435     1.0000 0.13158  0.65096  0.33039  Biso   1.000  N
  N436     1.0000 0.13150  0.65096  0.33039  Biso   1.000  N
  N437     1.0000 0.19895  0.68568  0.44782  Biso   1.000  N
  H554     1.0000 0.10199  0.77106  0.36860  Biso   1.000  H
  H555     1.0000 0.22907  0.72107  0.34401  Biso   1.000  H
  H556     1.0000 0.10191  0.77106  0.36860  Biso   1.000  H
  C653     1.0000 0.21108  0.57911  0.28888  Biso   1.000  C
  C654     1.0000 0.02117  0.67036  0.30372  Biso   1.000  C
  C655     1.0000 0.31686  0.62975  0.46900  Biso   1.000  C
  C656     1.0000 0.13282  0.72766  0.50408  Biso   1.000  C
  C657     1.0000 0.13635  0.54340  0.24389  Biso   1.000  C
  C658     1.0000 0.13627  0.54340  0.24389  Biso   1.000  C
  N438     1.0000 0.28164  0.50737  0.33588  Biso   1.000  N
  H557     1.0000 0.25762  0.60130  0.25560  Biso   1.000  H
  N439     1.0000 0.02122  0.60831  0.25582  Biso   1.000  N
  O211     1.0000 0.93873  0.73756  0.32372  Biso   1.000  O
  N440     1.0000 0.34841  0.53706  0.45332  Biso   1.000  N
  C659     1.0000 0.30543  0.62629  0.55669  Biso   1.000  C
  H558     1.0000 0.37303  0.65466  0.45169  Biso   1.000  H
  N441     1.0000 0.19053  0.68708  0.56940  Biso   1.000  N
  O212     1.0000 0.03366  0.77745  0.50083  Biso   1.000  O
  N442     1.0000 0.15972  0.45839  0.27330  Biso   1.000  N
  H559     1.0000 0.15571  0.54200  0.19072  Biso   1.000  H
  C660     1.0000 0.26219  0.43411  0.31941  Biso   1.000  C
  C661     1.0000 0.37733  0.50148  0.37779  Biso   1.000  C
  C662     1.0000 0.91644  0.60769  0.22540  Biso   1.000  C
  C663     1.0000 0.36757  0.48208  0.51489  Biso   1.000  C
  C664     1.0000 0.36749  0.48208  0.51489  Biso   1.000  C
  N443     1.0000 0.34080  0.53529  0.57719  Biso   1.000  N
  H560     1.0000 0.35883  0.64985  0.57882  Biso   1.000  H
  C665     1.0000 0.14415  0.71604  0.64493  Biso   1.000  C
  C666     1.0000 0.13105  0.39301  0.23492  Biso   1.000  C
  C667     1.0000 0.13097  0.39301  0.23492  Biso   1.000  C
  O213     1.0000 0.30949  0.35261  0.34261  Biso   1.000  O
  H561     1.0000 0.45196  0.47745  0.35997  Biso   1.000  H
  N444     1.0000 0.88108  0.54506  0.25828  Biso   1.000  N
  H562     1.0000 0.87602  0.64667  0.18651  Biso   1.000  H
  O214     1.0000 0.40643  0.39938  0.51842  Biso   1.000  O
  C668     1.0000 0.34897  0.49449  0.65260  Biso   1.000  C
  C669     1.0000 0.34890  0.49449  0.65260  Biso   1.000  C
  N445     1.0000 0.09798  0.65315  0.68588  Biso   1.000  N
  H563     1.0000 0.08327  0.77476  0.63949  Biso   1.000  H
  H564     1.0000 0.20459  0.72195  0.67518  Biso   1.000  H
  H565     1.0000 0.12946  0.40587  0.18130  Biso   1.000  H
  H566     1.0000 0.18979  0.33420  0.24512  Biso   1.000  H
  N446     1.0000 0.02182  0.39188  0.25722  Biso   1.000  N
  H567     1.0000 0.12938  0.40587  0.18130  Biso   1.000  H
  C670     1.0000 0.91076  0.45755  0.23072  Biso   1.000  C
  C671     1.0000 0.77384  0.56485  0.30451  Biso   1.000  C
  N447     1.0000 0.24060  0.50051  0.68622  Biso   1.000  N
  H568     1.0000 0.39832  0.43177  0.65092  Biso   1.000  H
  H569     1.0000 0.38577  0.52269  0.68521  Biso   1.000  H
  H570     1.0000 0.38569  0.52269  0.68521  Biso   1.000  H
  C672     1.0000 0.17262  0.57759  0.72880  Biso   1.000  C
  C673     1.0000 0.98808  0.67729  0.69451  Biso   1.000  C
  C674     1.0000 0.01201  0.32268  0.30552  Biso   1.000  C
  H571     1.0000 0.90257  0.45876  0.17609  Biso   1.000  H
  C675     1.0000 0.82747  0.42237  0.27123  Biso   1.000  C
  H572     1.0000 0.90250  0.45876  0.17609  Biso   1.000  H
  N448     1.0000 0.75942  0.49946  0.31381  Biso   1.000  N
  O215     1.0000 0.72932  0.64451  0.32412  Biso   1.000  O
  C676     1.0000 0.22628  0.43505  0.69552  Biso   1.000  C
  C677     1.0000 0.08936  0.54235  0.76931  Biso   1.000  C
  H573     1.0000 0.21994  0.59416  0.76410  Biso   1.000  H
  N449     1.0000 0.97827  0.60809  0.74281  Biso   1.000  N
  O216     1.0000 0.90898  0.73977  0.67048  Biso   1.000  O
  O217     1.0000 0.09111  0.26020  0.32950  Biso   1.000  O
  N450     1.0000 0.90211  0.34682  0.31409  Biso   1.000  N
  H574     1.0000 0.78015  0.40581  0.23587  Biso   1.000  H
  C678     1.0000 0.65112  0.50548  0.34742  Biso   1.000  C
  O218     1.0000 0.27077  0.35546  0.67591  Biso   1.000  O
  N451     1.0000 0.11901  0.45491  0.74169  Biso   1.000  N
  H575     1.0000 0.09751  0.54121  0.82388  Biso   1.000  H
  C679     1.0000 0.86904  0.60696  0.76511  Biso   1.000  C
  C680     1.0000 0.85597  0.28386  0.35510  Biso   1.000  C
  C681     1.0000 0.85589  0.28386  0.35510  Biso   1.000  C
  N452     1.0000 0.65921  0.46468  0.42278  Biso   1.000  N
  H576     1.0000 0.60177  0.56820  0.34910  Biso   1.000  H
  H577     1.0000 0.61432  0.47727  0.31482  Biso   1.000  H
  H578     1.0000 0.60169  0.56820  0.34910  Biso   1.000  H
  C682     1.0000 0.08365  0.39227  0.77463  Biso   1.000  C
  N453     1.0000 0.84037  0.54158  0.72673  Biso   1.000  N
  H579     1.0000 0.87063  0.59409  0.81872  Biso   1.000  H
  H580     1.0000 0.81030  0.66577  0.75491  Biso   1.000  H
  H581     1.0000 0.81022  0.66577  0.75491  Biso   1.000  H
  N454     1.0000 0.80956  0.31288  0.43062  Biso   1.000  N
  H582     1.0000 0.91681  0.22521  0.36048  Biso   1.000  H
  H583     1.0000 0.79550  0.27802  0.32479  Biso   1.000  H
  C683     1.0000 0.69466  0.37368  0.44329  Biso   1.000  C
  C684     1.0000 0.63252  0.51789  0.48508  Biso   1.000  C
  N455     1.0000 0.97887  0.39165  0.74421  Biso   1.000  N
  H584     1.0000 0.12407  0.35329  0.81351  Biso   1.000  H
  H585     1.0000 0.12399  0.35329  0.81351  Biso   1.000  H
  C685     1.0000 0.73790  0.56585  0.68062  Biso   1.000  C
  C686     1.0000 0.73782  0.56585  0.68062  Biso   1.000  C
  C687     1.0000 0.86374  0.45657  0.75609  Biso   1.000  C
  C688     1.0000 0.86719  0.27231  0.49590  Biso   1.000  C
  H586     1.0000 0.64121  0.35005  0.42121  Biso   1.000  H
  C689     1.0000 0.68323  0.37022  0.53102  Biso   1.000  C
  N456     1.0000 0.65160  0.46290  0.54671  Biso   1.000  N
  O219     1.0000 0.59366  0.60059  0.48161  Biso   1.000  O
  C690     1.0000 0.97892  0.32960  0.69630  Biso   1.000  C
  N457     1.0000 0.71845  0.49260  0.66409  Biso   1.000  N
  O220     1.0000 0.69052  0.64736  0.65742  Biso   1.000  O
  C691     1.0000 0.78893  0.42086  0.71110  Biso   1.000  C
  H587     1.0000 0.84438  0.45797  0.80931  Biso   1.000  H
  O221     1.0000 0.96643  0.22252  0.49920  Biso   1.000  O
  N458     1.0000 0.80114  0.31429  0.55220  Biso   1.000  N
  H588     1.0000 0.62706  0.34531  0.54828  Biso   1.000  H
  H589     1.0000 0.62698  0.34531  0.54828  Biso   1.000  H
  C692     1.0000 0.62276  0.49849  0.62218  Biso   1.000  C
  N459     1.0000 0.86851  0.34901  0.66958  Biso   1.000  N
  O222     1.0000 0.06129  0.26241  0.67630  Biso   1.000  O
  H590     1.0000 0.74247  0.39867  0.74443  Biso   1.000  H
  C693     1.0000 0.83473  0.28649  0.63008  Biso   1.000  C
  H591     1.0000 0.54816  0.52245  0.64000  Biso   1.000  H
  H592     1.0000 0.89810  0.22890  0.63143  Biso   1.000  H
  H593     1.0000 0.77102  0.27889  0.65602  Biso   1.000  H
  C694     1.0000 0.16536  0.71348  0.36989  Biso   1.000  C
  N460     1.0000 0.13158  0.65096  0.33039  Biso   1.000  N
  N461     1.0000 0.13150  0.65096  0.33039  Biso   1.000  N
  N462     1.0000 0.19895  0.68568  0.44782  Biso   1.000  N
  H594     1.0000 0.22907  0.72107  0.34401  Biso   1.000  H
  H595     1.0000 0.10199  0.77106  0.36860  Biso   1.000  H
  H596     1.0000 0.10191  0.77106  0.36860  Biso   1.000  H
  C695     1.0000 0.21108  0.57911  0.28888  Biso   1.000  C
  C696     1.0000 0.02117  0.67036  0.30372  Biso   1.000  C
  C697     1.0000 0.31686  0.62975  0.46900  Biso   1.000  C
  C698     1.0000 0.13282  0.72766  0.50408  Biso   1.000  C
  C699     1.0000 0.13635  0.54340  0.24389  Biso   1.000  C
  C700     1.0000 0.13627  0.54340  0.24389  Biso   1.000  C
  N463     1.0000 0.28164  0.50737  0.33588  Biso   1.000  N
  H597     1.0000 0.25762  0.60130  0.25560  Biso   1.000  H
  N464     1.0000 0.02122  0.60831  0.25582  Biso   1.000  N
  O223     1.0000 0.93873  0.73756  0.32372  Biso   1.000  O
  N465     1.0000 0.34841  0.53706  0.45332  Biso   1.000  N
  C701     1.0000 0.30543  0.62629  0.55669  Biso   1.000  C
  H598     1.0000 0.37303  0.65466  0.45169  Biso   1.000  H
  N466     1.0000 0.19053  0.68708  0.56940  Biso   1.000  N
  O224     1.0000 0.03366  0.77745  0.50083  Biso   1.000  O
  N467     1.0000 0.15972  0.45839  0.27330  Biso   1.000  N
  H599     1.0000 0.15571  0.54200  0.19072  Biso   1.000  H
  C702     1.0000 0.26219  0.43411  0.31941  Biso   1.000  C
  C703     1.0000 0.37733  0.50148  0.37779  Biso   1.000  C
  C704     1.0000 0.91644  0.60769  0.22540  Biso   1.000  C
  C705     1.0000 0.36757  0.48208  0.51489  Biso   1.000  C
  C706     1.0000 0.36749  0.48208  0.51489  Biso   1.000  C
  N468     1.0000 0.34080  0.53529  0.57719  Biso   1.000  N
  H600     1.0000 0.35883  0.64985  0.57882  Biso   1.000  H
  C707     1.0000 0.14415  0.71604  0.64493  Biso   1.000  C
  C708     1.0000 0.13105  0.39301  0.23492  Biso   1.000  C
  C709     1.0000 0.13097  0.39301  0.23492  Biso   1.000  C
  O225     1.0000 0.30949  0.35261  0.34261  Biso   1.000  O
  H601     1.0000 0.45196  0.47745  0.35997  Biso   1.000  H
  N469     1.0000 0.88108  0.54506  0.25828  Biso   1.000  N
  H602     1.0000 0.87602  0.64667  0.18651  Biso   1.000  H
  O226     1.0000 0.40643  0.39938  0.51842  Biso   1.000  O
  C710     1.0000 0.34897  0.49449  0.65260  Biso   1.000  C
  C711     1.0000 0.34890  0.49449  0.65260  Biso   1.000  C
  N470     1.0000 0.09798  0.65315  0.68588  Biso   1.000  N
  H603     1.0000 0.08327  0.77476  0.63949  Biso   1.000  H
  H604     1.0000 0.20459  0.72195  0.67518  Biso   1.000  H
  N471     1.0000 0.02182  0.39188  0.25722  Biso   1.000  N
  H605     1.0000 0.18979  0.33420  0.24512  Biso   1.000  H
  H606     1.0000 0.12946  0.40587  0.18130  Biso   1.000  H
  H607     1.0000 0.12938  0.40587  0.18130  Biso   1.000  H
  C712     1.0000 0.91076  0.45755  0.23072  Biso   1.000  C
  C713     1.0000 0.77384  0.56485  0.30451  Biso   1.000  C
  N472     1.0000 0.24060  0.50051  0.68622  Biso   1.000  N
  H608     1.0000 0.39832  0.43177  0.65092  Biso   1.000  H
  H609     1.0000 0.38577  0.52269  0.68521  Biso   1.000  H
  H610     1.0000 0.38569  0.52269  0.68521  Biso   1.000  H
  C714     1.0000 0.17262  0.57759  0.72880  Biso   1.000  C
  C715     1.0000 0.98808  0.67729  0.69451  Biso   1.000  C
  C716     1.0000 0.01201  0.32268  0.30552  Biso   1.000  C
  C717     1.0000 0.82747  0.42237  0.27123  Biso   1.000  C
  H611     1.0000 0.90257  0.45876  0.17609  Biso   1.000  H
  H612     1.0000 0.90250  0.45876  0.17609  Biso   1.000  H
  N473     1.0000 0.75942  0.49946  0.31381  Biso   1.000  N
  O227     1.0000 0.72932  0.64451  0.32412  Biso   1.000  O
  C718     1.0000 0.22628  0.43505  0.69552  Biso   1.000  C
  C719     1.0000 0.08936  0.54235  0.76931  Biso   1.000  C
  H613     1.0000 0.21994  0.59416  0.76410  Biso   1.000  H
  N474     1.0000 0.97827  0.60809  0.74281  Biso   1.000  N
  O228     1.0000 0.90898  0.73977  0.67048  Biso   1.000  O
  O229     1.0000 0.09111  0.26020  0.32950  Biso   1.000  O
  N475     1.0000 0.90211  0.34682  0.31409  Biso   1.000  N
  H614     1.0000 0.78015  0.40581  0.23587  Biso   1.000  H
  C720     1.0000 0.65112  0.50548  0.34742  Biso   1.000  C
  N476     1.0000 0.11901  0.45491  0.74169  Biso   1.000  N
  O230     1.0000 0.27077  0.35546  0.67591  Biso   1.000  O
  H615     1.0000 0.09751  0.54121  0.82388  Biso   1.000  H
  C721     1.0000 0.86904  0.60696  0.76511  Biso   1.000  C
  C722     1.0000 0.85597  0.28386  0.35510  Biso   1.000  C
  C723     1.0000 0.85589  0.28386  0.35510  Biso   1.000  C
  N477     1.0000 0.65921  0.46468  0.42278  Biso   1.000  N
  H616     1.0000 0.60177  0.56820  0.34910  Biso   1.000  H
  H617     1.0000 0.61432  0.47727  0.31482  Biso   1.000  H
  H618     1.0000 0.60169  0.56820  0.34910  Biso   1.000  H
  C724     1.0000 0.08365  0.39227  0.77463  Biso   1.000  C
  N478     1.0000 0.84037  0.54158  0.72673  Biso   1.000  N
  H619     1.0000 0.87063  0.59409  0.81872  Biso   1.000  H
  H620     1.0000 0.81030  0.66577  0.75491  Biso   1.000  H
  H621     1.0000 0.81022  0.66577  0.75491  Biso   1.000  H
  N479     1.0000 0.80956  0.31288  0.43062  Biso   1.000  N
  H622     1.0000 0.91681  0.22521  0.36048  Biso   1.000  H
  H623     1.0000 0.79550  0.27802  0.32479  Biso   1.000  H
  C725     1.0000 0.69466  0.37368  0.44329  Biso   1.000  C
  C726     1.0000 0.63252  0.51789  0.48508  Biso   1.000  C
  N480     1.0000 0.97887  0.39165  0.74421  Biso   1.000  N
  H624     1.0000 0.12407  0.35329  0.81351  Biso   1.000  H
  H625     1.0000 0.12399  0.35329  0.81351  Biso   1.000  H
  C727     1.0000 0.73790  0.56585  0.68062  Biso   1.000  C
  C728     1.0000 0.73782  0.56585  0.68062  Biso   1.000  C
  C729     1.0000 0.86374  0.45657  0.75609  Biso   1.000  C
  C730     1.0000 0.86719  0.27231  0.49590  Biso   1.000  C
  H626     1.0000 0.64121  0.35005  0.42121  Biso   1.000  H
  C731     1.0000 0.68323  0.37022  0.53102  Biso   1.000  C
  N481     1.0000 0.65160  0.46290  0.54671  Biso   1.000  N
  O231     1.0000 0.59366  0.60059  0.48161  Biso   1.000  O
  C732     1.0000 0.97892  0.32960  0.69630  Biso   1.000  C
  N482     1.0000 0.71845  0.49260  0.66409  Biso   1.000  N
  O232     1.0000 0.69052  0.64736  0.65742  Biso   1.000  O
  C733     1.0000 0.78893  0.42086  0.71110  Biso   1.000  C
  H627     1.0000 0.84438  0.45797  0.80931  Biso   1.000  H
  O233     1.0000 0.96643  0.22252  0.49920  Biso   1.000  O
  N483     1.0000 0.80114  0.31429  0.55220  Biso   1.000  N
  H628     1.0000 0.62706  0.34531  0.54828  Biso   1.000  H
  H629     1.0000 0.62698  0.34531  0.54828  Biso   1.000  H
  C734     1.0000 0.62276  0.49849  0.62218  Biso   1.000  C
  N484     1.0000 0.86851  0.34901  0.66958  Biso   1.000  N
  O234     1.0000 0.06129  0.26241  0.67630  Biso   1.000  O
  H630     1.0000 0.74247  0.39867  0.74443  Biso   1.000  H
  C735     1.0000 0.83473  0.28649  0.63008  Biso   1.000  C
  H631     1.0000 0.54816  0.52245  0.64000  Biso   1.000  H
  H632     1.0000 0.89810  0.22890  0.63143  Biso   1.000  H
  H633     1.0000 0.77102  0.27889  0.65602  Biso   1.000  H
