data_image0
_cell_length_a       25.669
_cell_length_b       14.329
_cell_length_c       24.572
_cell_angle_alpha    90
_cell_angle_beta     117.91
_cell_angle_gamma    90

_symmetry_space_group_name_H-M    "P 1"
_symmetry_int_tables_number       1

loop_
  _symmetry_equiv_pos_as_xyz
  'x, y, z'

loop_
  _atom_site_label
  _atom_site_occupancy
  _atom_site_fract_x
  _atom_site_fract_y
  _atom_site_fract_z
  _atom_site_thermal_displace_type
  _atom_site_B_iso_or_equiv
  _atom_site_type_symbol
  O1       1.0000 0.81641  0.58818  0.61108  Biso   1.000  O
  C1       1.0000 0.82558  0.56543  0.66335  Biso   1.000  C
  N1       1.0000 0.85258  0.48971  0.69624  Biso   1.000  N
  N2       1.0000 0.80504  0.61888  0.69656  Biso   1.000  N
  C2       1.0000 0.84467  0.47882  0.74943  Biso   1.000  C
  C3       1.0000 0.86917  0.41538  0.66814  Biso   1.000  C
  C4       1.0000 0.81570  0.57220  0.75242  Biso   1.000  C
  C5       1.0000 0.77188  0.70207  0.67514  Biso   1.000  C
  H1       1.0000 0.81967  0.42501  0.74597  Biso   1.000  H
  N3       1.0000 0.89794  0.47987  0.80736  Biso   1.000  N
  H2       1.0000 0.85216  0.42683  0.62416  Biso   1.000  H
  H3       1.0000 0.85329  0.35697  0.67390  Biso   1.000  H
  N4       1.0000 0.93378  0.40680  0.69435  Biso   1.000  N
  H4       1.0000 0.77797  0.55929  0.75178  Biso   1.000  H
  N5       1.0000 0.85489  0.61079  0.80962  Biso   1.000  N
  H5       1.0000 0.74037  0.70131  0.68647  Biso   1.000  H
  H6       1.0000 0.75385  0.70319  0.63056  Biso   1.000  H
  N6       1.0000 0.80568  0.78582  0.69877  Biso   1.000  N
  C6       1.0000 0.89997  0.55433  0.84398  Biso   1.000  C
  C7       1.0000 0.93938  0.39968  0.82952  Biso   1.000  C
  C8       1.0000 0.96257  0.42508  0.66036  Biso   1.000  C
  C9       1.0000 0.96873  0.35850  0.74888  Biso   1.000  C
  C10      1.0000 0.84441  0.69949  0.83380  Biso   1.000  C
  C11      1.0000 0.82062  0.84353  0.66464  Biso   1.000  C
  C12      1.0000 0.81516  0.82672  0.75565  Biso   1.000  C
  O2       1.0000 0.93879  0.56417  0.89906  Biso   1.000  O
  H7       1.0000 0.96006  0.40010  0.87419  Biso   1.000  H
  H8       1.0000 0.91717  0.34203  0.81639  Biso   1.000  H
  N7       1.0000 0.98133  0.40240  0.80681  Biso   1.000  N
  O3       1.0000 0.93912  0.46319  0.60915  Biso   1.000  O
  N8       1.0000 0.01860  0.40240  0.69315  Biso   1.000  N
  H9       1.0000 0.95425  0.29472  0.74699  Biso   1.000  H
  C13      1.0000 0.03116  0.35850  0.75109  Biso   1.000  C
  H10      1.0000 0.80346  0.70158  0.82519  Biso   1.000  H
  H11      1.0000 0.86855  0.70033  0.87819  Biso   1.000  H
  N9       1.0000 0.85685  0.78038  0.80879  Biso   1.000  N
  N10      1.0000 0.84743  0.91667  0.69909  Biso   1.000  N
  O4       1.0000 0.81224  0.82504  0.61237  Biso   1.000  O
  C14      1.0000 0.84688  0.91981  0.75620  Biso   1.000  C
  H12      1.0000 0.77804  0.83767  0.75698  Biso   1.000  H
  C15      1.0000 0.03736  0.42508  0.83960  Biso   1.000  C
  C16      1.0000 0.06055  0.39968  0.67045  Biso   1.000  C
  H13      1.0000 0.04564  0.29472  0.75297  Biso   1.000  H
  N11      1.0000 0.06615  0.40680  0.80561  Biso   1.000  N
  C17      1.0000 0.90645  0.83593  0.83992  Biso   1.000  C
  C18      1.0000 0.86854  0.99728  0.67063  Biso   1.000  C
  H14      1.0000 0.82524  0.97411  0.75938  Biso   1.000  H
  N12      1.0000 0.90403  0.90941  0.80976  Biso   1.000  N
  O5       1.0000 0.06077  0.46319  0.89081  Biso   1.000  O
  H15      1.0000 0.03987  0.40010  0.62577  Biso   1.000  H
  H16      1.0000 0.08276  0.34203  0.68357  Biso   1.000  H
  N13      1.0000 0.10199  0.47987  0.69260  Biso   1.000  N
  C19      1.0000 0.13072  0.41538  0.83182  Biso   1.000  C
  O6       1.0000 0.94915  0.81122  0.89113  Biso   1.000  O
  H17      1.0000 0.85007  0.99002  0.62628  Biso   1.000  H
  N14      1.0000 0.92959  0.99679  0.69421  Biso   1.000  N
  H18      1.0000 0.85637  0.05688  0.67957  Biso   1.000  H
  C20      1.0000 0.94593  0.98758  0.83214  Biso   1.000  C
  C21      1.0000 0.09993  0.55433  0.65599  Biso   1.000  C
  C22      1.0000 0.15526  0.47882  0.75053  Biso   1.000  C
  H19      1.0000 0.14775  0.42683  0.87575  Biso   1.000  H
  H20      1.0000 0.14664  0.35697  0.82606  Biso   1.000  H
  N15      1.0000 0.14731  0.48971  0.80373  Biso   1.000  N
  C23      1.0000 0.95427  0.97641  0.66096  Biso   1.000  C
  C24      1.0000 0.97002  0.04341  0.75122  Biso   1.000  C
  H21      1.0000 0.96907  0.98227  0.87649  Biso   1.000  H
  N16      1.0000 0.98441  0.99372  0.80700  Biso   1.000  N
  H22      1.0000 0.92374  0.04543  0.82348  Biso   1.000  H
  N17      1.0000 0.14501  0.61079  0.69034  Biso   1.000  N
  O7       1.0000 0.06114  0.56417  0.60091  Biso   1.000  O
  C25      1.0000 0.18423  0.57220  0.74754  Biso   1.000  C
  H23      1.0000 0.18026  0.42501  0.75399  Biso   1.000  H
  C26      1.0000 0.17431  0.56543  0.83661  Biso   1.000  C
  O8       1.0000 0.93049  0.94389  0.60754  Biso   1.000  O
  N18      1.0000 0.01550  0.99372  0.69292  Biso   1.000  N
  H24      1.0000 0.95705  0.10692  0.75357  Biso   1.000  H
  C27      1.0000 0.02991  0.04341  0.74874  Biso   1.000  C
  C28      1.0000 0.04564  0.97641  0.83896  Biso   1.000  C
  C29      1.0000 0.15548  0.69949  0.66616  Biso   1.000  C
  H25      1.0000 0.22196  0.55929  0.74818  Biso   1.000  H
  N19      1.0000 0.19485  0.61888  0.80340  Biso   1.000  N
  O9       1.0000 0.18352  0.58818  0.88888  Biso   1.000  O
  C30      1.0000 0.05400  0.98758  0.66782  Biso   1.000  C
  N20      1.0000 0.07030  0.99679  0.80575  Biso   1.000  N
  H26      1.0000 0.04284  0.10692  0.74639  Biso   1.000  H
  O10      1.0000 0.06940  0.94389  0.89242  Biso   1.000  O
  H27      1.0000 0.19647  0.70158  0.67478  Biso   1.000  H
  H28      1.0000 0.13134  0.70033  0.62177  Biso   1.000  H
  N21      1.0000 0.14304  0.78038  0.69117  Biso   1.000  N
  C31      1.0000 0.22805  0.70207  0.82482  Biso   1.000  C
  H29      1.0000 0.03086  0.98227  0.62347  Biso   1.000  H
  N22      1.0000 0.09590  0.90941  0.69020  Biso   1.000  N
  H30      1.0000 0.07615  0.04543  0.67648  Biso   1.000  H
  C32      1.0000 0.13134  0.99728  0.82929  Biso   1.000  C
  C33      1.0000 0.09348  0.83593  0.66004  Biso   1.000  C
  C34      1.0000 0.18473  0.82672  0.74432  Biso   1.000  C
  H31      1.0000 0.25956  0.70131  0.81349  Biso   1.000  H
  H32      1.0000 0.24608  0.70319  0.86940  Biso   1.000  H
  N23      1.0000 0.19425  0.78582  0.80119  Biso   1.000  N
  C35      1.0000 0.15301  0.91981  0.74376  Biso   1.000  C
  H33      1.0000 0.14986  0.99002  0.87368  Biso   1.000  H
  N24      1.0000 0.15250  0.91667  0.80087  Biso   1.000  N
  H34      1.0000 0.14356  0.05688  0.82040  Biso   1.000  H
  O11      1.0000 0.05078  0.81122  0.60883  Biso   1.000  O
  H35      1.0000 0.22185  0.83767  0.74298  Biso   1.000  H
  C36      1.0000 0.17927  0.84353  0.83532  Biso   1.000  C
  H36      1.0000 0.17465  0.97411  0.74059  Biso   1.000  H
  O12      1.0000 0.18765  0.82504  0.88759  Biso   1.000  O
  O13      1.0000 0.81641  0.58818  0.61108  Biso   1.000  O
  C37      1.0000 0.82558  0.56543  0.66335  Biso   1.000  C
  N25      1.0000 0.85258  0.48971  0.69624  Biso   1.000  N
  N26      1.0000 0.80504  0.61888  0.69656  Biso   1.000  N
  C38      1.0000 0.84467  0.47882  0.74943  Biso   1.000  C
  C39      1.0000 0.86917  0.41538  0.66814  Biso   1.000  C
  C40      1.0000 0.81570  0.57220  0.75242  Biso   1.000  C
  C41      1.0000 0.77188  0.70207  0.67514  Biso   1.000  C
  H37      1.0000 0.81967  0.42501  0.74597  Biso   1.000  H
  N27      1.0000 0.89794  0.47987  0.80736  Biso   1.000  N
  H38      1.0000 0.85216  0.42683  0.62416  Biso   1.000  H
  H39      1.0000 0.85329  0.35697  0.67390  Biso   1.000  H
  N28      1.0000 0.93378  0.40680  0.69435  Biso   1.000  N
  H40      1.0000 0.77797  0.55929  0.75178  Biso   1.000  H
  N29      1.0000 0.85489  0.61079  0.80962  Biso   1.000  N
  H41      1.0000 0.74037  0.70131  0.68647  Biso   1.000  H
  H42      1.0000 0.75385  0.70319  0.63056  Biso   1.000  H
  N30      1.0000 0.80568  0.78582  0.69877  Biso   1.000  N
  C42      1.0000 0.89997  0.55433  0.84398  Biso   1.000  C
  C43      1.0000 0.93938  0.39968  0.82952  Biso   1.000  C
  C44      1.0000 0.96257  0.42508  0.66036  Biso   1.000  C
  C45      1.0000 0.96873  0.35850  0.74888  Biso   1.000  C
  C46      1.0000 0.84441  0.69949  0.83380  Biso   1.000  C
  C47      1.0000 0.82062  0.84353  0.66464  Biso   1.000  C
  C48      1.0000 0.81516  0.82672  0.75565  Biso   1.000  C
  O14      1.0000 0.93879  0.56417  0.89906  Biso   1.000  O
  H43      1.0000 0.96006  0.40010  0.87419  Biso   1.000  H
  H44      1.0000 0.91717  0.34203  0.81639  Biso   1.000  H
  N31      1.0000 0.98133  0.40240  0.80681  Biso   1.000  N
  O15      1.0000 0.93912  0.46319  0.60915  Biso   1.000  O
  N32      1.0000 0.01860  0.40240  0.69315  Biso   1.000  N
  H45      1.0000 0.95425  0.29472  0.74699  Biso   1.000  H
  C49      1.0000 0.03116  0.35850  0.75109  Biso   1.000  C
  H46      1.0000 0.80346  0.70158  0.82519  Biso   1.000  H
  H47      1.0000 0.86855  0.70033  0.87819  Biso   1.000  H
  N33      1.0000 0.85685  0.78038  0.80879  Biso   1.000  N
  N34      1.0000 0.84743  0.91667  0.69909  Biso   1.000  N
  O16      1.0000 0.81224  0.82504  0.61237  Biso   1.000  O
  C50      1.0000 0.84688  0.91981  0.75620  Biso   1.000  C
  H48      1.0000 0.77804  0.83767  0.75698  Biso   1.000  H
  C51      1.0000 0.03736  0.42508  0.83960  Biso   1.000  C
  C52      1.0000 0.06055  0.39968  0.67045  Biso   1.000  C
  H49      1.0000 0.04564  0.29472  0.75297  Biso   1.000  H
  N35      1.0000 0.06615  0.40680  0.80561  Biso   1.000  N
  C53      1.0000 0.90645  0.83593  0.83992  Biso   1.000  C
  C54      1.0000 0.86854  0.99728  0.67063  Biso   1.000  C
  H50      1.0000 0.82524  0.97411  0.75938  Biso   1.000  H
  N36      1.0000 0.90403  0.90941  0.80976  Biso   1.000  N
  O17      1.0000 0.06077  0.46319  0.89081  Biso   1.000  O
  H51      1.0000 0.03987  0.40010  0.62577  Biso   1.000  H
  H52      1.0000 0.08276  0.34203  0.68357  Biso   1.000  H
  N37      1.0000 0.10199  0.47987  0.69260  Biso   1.000  N
  C55      1.0000 0.13072  0.41538  0.83182  Biso   1.000  C
  O18      1.0000 0.94915  0.81122  0.89113  Biso   1.000  O
  H53      1.0000 0.85007  0.99002  0.62628  Biso   1.000  H
  N38      1.0000 0.92959  0.99679  0.69421  Biso   1.000  N
  H54      1.0000 0.85637  0.05688  0.67957  Biso   1.000  H
  C56      1.0000 0.94593  0.98758  0.83214  Biso   1.000  C
  C57      1.0000 0.09993  0.55433  0.65599  Biso   1.000  C
  C58      1.0000 0.15526  0.47882  0.75053  Biso   1.000  C
  H55      1.0000 0.14775  0.42683  0.87575  Biso   1.000  H
  H56      1.0000 0.14664  0.35697  0.82606  Biso   1.000  H
  N39      1.0000 0.14731  0.48971  0.80373  Biso   1.000  N
  C59      1.0000 0.95427  0.97641  0.66096  Biso   1.000  C
  C60      1.0000 0.97002  0.04341  0.75122  Biso   1.000  C
  H57      1.0000 0.96907  0.98227  0.87649  Biso   1.000  H
  N40      1.0000 0.98441  0.99372  0.80700  Biso   1.000  N
  H58      1.0000 0.92374  0.04543  0.82348  Biso   1.000  H
  N41      1.0000 0.14501  0.61079  0.69034  Biso   1.000  N
  O19      1.0000 0.06114  0.56417  0.60091  Biso   1.000  O
  C61      1.0000 0.18423  0.57220  0.74754  Biso   1.000  C
  H59      1.0000 0.18026  0.42501  0.75399  Biso   1.000  H
  C62      1.0000 0.17431  0.56543  0.83661  Biso   1.000  C
  O20      1.0000 0.93049  0.94389  0.60754  Biso   1.000  O
  N42      1.0000 0.01550  0.99372  0.69292  Biso   1.000  N
  H60      1.0000 0.95705  0.10692  0.75357  Biso   1.000  H
  C63      1.0000 0.02991  0.04341  0.74874  Biso   1.000  C
  C64      1.0000 0.04564  0.97641  0.83896  Biso   1.000  C
  C65      1.0000 0.15548  0.69949  0.66616  Biso   1.000  C
  H61      1.0000 0.22196  0.55929  0.74818  Biso   1.000  H
  N43      1.0000 0.19485  0.61888  0.80340  Biso   1.000  N
  O21      1.0000 0.18352  0.58818  0.88888  Biso   1.000  O
  C66      1.0000 0.05400  0.98758  0.66782  Biso   1.000  C
  N44      1.0000 0.07030  0.99679  0.80575  Biso   1.000  N
  H62      1.0000 0.04284  0.10692  0.74639  Biso   1.000  H
  O22      1.0000 0.06940  0.94389  0.89242  Biso   1.000  O
  H63      1.0000 0.19647  0.70158  0.67478  Biso   1.000  H
  H64      1.0000 0.13134  0.70033  0.62177  Biso   1.000  H
  N45      1.0000 0.14304  0.78038  0.69117  Biso   1.000  N
  C67      1.0000 0.22805  0.70207  0.82482  Biso   1.000  C
  H65      1.0000 0.03086  0.98227  0.62347  Biso   1.000  H
  N46      1.0000 0.09590  0.90941  0.69020  Biso   1.000  N
  H66      1.0000 0.07615  0.04543  0.67648  Biso   1.000  H
  C68      1.0000 0.13134  0.99728  0.82929  Biso   1.000  C
  C69      1.0000 0.09348  0.83593  0.66004  Biso   1.000  C
  C70      1.0000 0.18473  0.82672  0.74432  Biso   1.000  C
  H67      1.0000 0.25956  0.70131  0.81349  Biso   1.000  H
  H68      1.0000 0.24608  0.70319  0.86940  Biso   1.000  H
  N47      1.0000 0.19425  0.78582  0.80119  Biso   1.000  N
  C71      1.0000 0.15301  0.91981  0.74376  Biso   1.000  C
  H69      1.0000 0.14986  0.99002  0.87368  Biso   1.000  H
  N48      1.0000 0.15250  0.91667  0.80087  Biso   1.000  N
  H70      1.0000 0.14356  0.05688  0.82040  Biso   1.000  H
  O23      1.0000 0.05078  0.81122  0.60883  Biso   1.000  O
  H71      1.0000 0.22185  0.83767  0.74298  Biso   1.000  H
  C72      1.0000 0.17927  0.84353  0.83532  Biso   1.000  C
  H72      1.0000 0.17465  0.97411  0.74059  Biso   1.000  H
  O24      1.0000 0.18765  0.82504  0.88759  Biso   1.000  O
  O25      1.0000 0.68770  0.67492  0.38763  Biso   1.000  O
  C73      1.0000 0.67931  0.65650  0.33536  Biso   1.000  C
  N49      1.0000 0.65254  0.58329  0.30091  Biso   1.000  N
  N50      1.0000 0.69429  0.71422  0.30124  Biso   1.000  N
  C74      1.0000 0.63138  0.50269  0.32933  Biso   1.000  C
  C75      1.0000 0.65305  0.58022  0.24381  Biso   1.000  C
  C76      1.0000 0.68476  0.67332  0.24431  Biso   1.000  C
  C77      1.0000 0.72807  0.79789  0.32482  Biso   1.000  C
  N51      1.0000 0.57032  0.50318  0.30575  Biso   1.000  N
  H73      1.0000 0.64989  0.51001  0.37368  Biso   1.000  H
  H74      1.0000 0.64358  0.44309  0.32039  Biso   1.000  H
  N52      1.0000 0.59594  0.59062  0.19025  Biso   1.000  N
  H75      1.0000 0.67467  0.52593  0.24058  Biso   1.000  H
  N53      1.0000 0.64306  0.71959  0.19117  Biso   1.000  N
  H76      1.0000 0.72187  0.66229  0.24298  Biso   1.000  H
  H77      1.0000 0.75958  0.79873  0.31349  Biso   1.000  H
  H78      1.0000 0.74606  0.79678  0.36940  Biso   1.000  H
  N54      1.0000 0.69487  0.88108  0.30340  Biso   1.000  N
  C78      1.0000 0.54568  0.52362  0.33900  Biso   1.000  C
  C79      1.0000 0.52993  0.45663  0.24873  Biso   1.000  C
  C80      1.0000 0.55402  0.51239  0.16782  Biso   1.000  C
  C81      1.0000 0.59351  0.66411  0.16004  Biso   1.000  C
  C82      1.0000 0.65553  0.80047  0.16621  Biso   1.000  C
  C83      1.0000 0.67434  0.93461  0.33660  Biso   1.000  C
  C84      1.0000 0.68427  0.92777  0.24758  Biso   1.000  C
  N55      1.0000 0.48446  0.50632  0.30704  Biso   1.000  N
  O26      1.0000 0.56942  0.55608  0.39242  Biso   1.000  O
  C85      1.0000 0.47006  0.45663  0.25127  Biso   1.000  C
  N56      1.0000 0.51554  0.50632  0.19296  Biso   1.000  N
  H79      1.0000 0.54287  0.39312  0.24639  Biso   1.000  H
  H80      1.0000 0.57617  0.45460  0.17648  Biso   1.000  H
  H81      1.0000 0.53090  0.51769  0.12352  Biso   1.000  H
  O27      1.0000 0.55081  0.68881  0.10882  Biso   1.000  O
  H82      1.0000 0.69649  0.79838  0.17477  Biso   1.000  H
  H83      1.0000 0.63139  0.79971  0.12181  Biso   1.000  H
  N57      1.0000 0.64505  0.88918  0.19039  Biso   1.000  N
  N58      1.0000 0.64733  0.01033  0.30372  Biso   1.000  N
  O28      1.0000 0.68356  0.91186  0.38892  Biso   1.000  O
  C86      1.0000 0.65529  0.02122  0.25053  Biso   1.000  C
  H84      1.0000 0.72198  0.94068  0.24818  Biso   1.000  H
  C87      1.0000 0.44597  0.51239  0.33218  Biso   1.000  C
  N59      1.0000 0.42963  0.50318  0.19425  Biso   1.000  N
  H85      1.0000 0.45707  0.39312  0.25357  Biso   1.000  H
  C88      1.0000 0.45432  0.52362  0.16100  Biso   1.000  C
  C89      1.0000 0.59997  0.94570  0.15603  Biso   1.000  C
  C90      1.0000 0.63076  0.08458  0.33186  Biso   1.000  C
  N60      1.0000 0.60202  0.02010  0.19260  Biso   1.000  N
  H86      1.0000 0.68029  0.07502  0.25398  Biso   1.000  H
  N61      1.0000 0.40406  0.59062  0.30976  Biso   1.000  N
  H87      1.0000 0.42376  0.45460  0.32348  Biso   1.000  H
  H88      1.0000 0.46906  0.51769  0.37649  Biso   1.000  H
  C91      1.0000 0.36858  0.50269  0.17067  Biso   1.000  C
  O29      1.0000 0.43051  0.55608  0.10753  Biso   1.000  O
  O30      1.0000 0.56117  0.93586  0.10090  Biso   1.000  O
  N62      1.0000 0.56619  0.09317  0.30566  Biso   1.000  N
  H89      1.0000 0.64780  0.07321  0.37580  Biso   1.000  H
  H90      1.0000 0.64669  0.14300  0.32610  Biso   1.000  H
  C92      1.0000 0.56058  0.10029  0.17044  Biso   1.000  C
  C93      1.0000 0.34690  0.58022  0.25620  Biso   1.000  C
  C94      1.0000 0.40647  0.66411  0.33992  Biso   1.000  C
  N63      1.0000 0.34746  0.58329  0.19909  Biso   1.000  N
  H91      1.0000 0.35009  0.51001  0.12628  Biso   1.000  H
  H92      1.0000 0.35641  0.44309  0.17961  Biso   1.000  H
  C95      1.0000 0.53740  0.07488  0.33964  Biso   1.000  C
  C96      1.0000 0.53118  0.14153  0.25108  Biso   1.000  C
  N64      1.0000 0.51862  0.09763  0.19315  Biso   1.000  N
  H93      1.0000 0.53992  0.09987  0.12582  Biso   1.000  H
  H94      1.0000 0.58280  0.15800  0.18362  Biso   1.000  H
  H95      1.0000 0.32527  0.52593  0.25937  Biso   1.000  H
  C97      1.0000 0.31520  0.67332  0.25569  Biso   1.000  C
  N65      1.0000 0.35690  0.71959  0.30883  Biso   1.000  N
  O31      1.0000 0.44917  0.68881  0.39113  Biso   1.000  O
  C98      1.0000 0.32065  0.65650  0.16464  Biso   1.000  C
  N66      1.0000 0.48135  0.09763  0.30681  Biso   1.000  N
  O32      1.0000 0.56079  0.03678  0.39081  Biso   1.000  O
  C99      1.0000 0.46878  0.14153  0.24892  Biso   1.000  C
  H96      1.0000 0.54566  0.20532  0.25297  Biso   1.000  H
  C100     1.0000 0.46260  0.07488  0.16036  Biso   1.000  C
  H97      1.0000 0.27807  0.66229  0.25698  Biso   1.000  H
  N67      1.0000 0.30571  0.71422  0.19877  Biso   1.000  N
  C101     1.0000 0.34443  0.80047  0.33380  Biso   1.000  C
  O33      1.0000 0.31226  0.67492  0.11237  Biso   1.000  O
  C102     1.0000 0.43940  0.10029  0.32951  Biso   1.000  C
  N68      1.0000 0.43380  0.09317  0.19435  Biso   1.000  N
  H98      1.0000 0.45427  0.20532  0.24698  Biso   1.000  H
  O34      1.0000 0.43914  0.03678  0.10915  Biso   1.000  O
  C103     1.0000 0.27190  0.79789  0.17514  Biso   1.000  C
  H99      1.0000 0.30349  0.79838  0.32518  Biso   1.000  H
  H100     1.0000 0.36857  0.79971  0.37819  Biso   1.000  H
  N69      1.0000 0.35491  0.88918  0.30962  Biso   1.000  N
  N70      1.0000 0.39796  0.02010  0.30736  Biso   1.000  N
  H101     1.0000 0.46008  0.09987  0.37418  Biso   1.000  H
  H102     1.0000 0.41720  0.15800  0.31639  Biso   1.000  H
  C104     1.0000 0.36920  0.08458  0.16814  Biso   1.000  C
  H103     1.0000 0.24042  0.79873  0.18652  Biso   1.000  H
  H104     1.0000 0.25389  0.79678  0.13061  Biso   1.000  H
  N71      1.0000 0.30509  0.88108  0.19660  Biso   1.000  N
  C105     1.0000 0.39999  0.94570  0.34397  Biso   1.000  C
  C106     1.0000 0.31572  0.92777  0.25242  Biso   1.000  C
  C107     1.0000 0.34469  0.02122  0.24943  Biso   1.000  C
  N72      1.0000 0.35261  0.01033  0.19623  Biso   1.000  N
  H105     1.0000 0.35220  0.07321  0.12421  Biso   1.000  H
  H106     1.0000 0.35331  0.14300  0.17390  Biso   1.000  H
  C108     1.0000 0.32562  0.93461  0.16340  Biso   1.000  C
  O35      1.0000 0.43883  0.93586  0.39910  Biso   1.000  O
  H107     1.0000 0.27799  0.94068  0.25177  Biso   1.000  H
  H108     1.0000 0.31969  0.07502  0.24597  Biso   1.000  H
  O36      1.0000 0.31644  0.91186  0.11108  Biso   1.000  O
  O37      1.0000 0.93881  0.43583  0.39910  Biso   1.000  O
  C109     1.0000 0.90001  0.44567  0.34397  Biso   1.000  C
  N73      1.0000 0.85493  0.38921  0.30962  Biso   1.000  N
  N74      1.0000 0.89794  0.52013  0.30736  Biso   1.000  N
  C110     1.0000 0.81570  0.42780  0.25242  Biso   1.000  C
  C111     1.0000 0.84445  0.30051  0.33380  Biso   1.000  C
  C112     1.0000 0.84467  0.52118  0.24943  Biso   1.000  C
  C113     1.0000 0.93938  0.60032  0.32951  Biso   1.000  C
  N75      1.0000 0.80511  0.38112  0.19660  Biso   1.000  N
  H109     1.0000 0.77798  0.44071  0.25177  Biso   1.000  H
  N76      1.0000 0.85691  0.21962  0.30883  Biso   1.000  N
  H110     1.0000 0.80347  0.29842  0.32518  Biso   1.000  H
  H111     1.0000 0.86859  0.29967  0.37819  Biso   1.000  H
  N77      1.0000 0.85263  0.51029  0.19623  Biso   1.000  N
  H112     1.0000 0.81967  0.57499  0.24597  Biso   1.000  H
  H113     1.0000 0.96006  0.59990  0.37418  Biso   1.000  H
  H114     1.0000 0.91718  0.65797  0.31639  Biso   1.000  H
  N78      1.0000 0.98133  0.59760  0.30681  Biso   1.000  N
  C114     1.0000 0.77188  0.29793  0.17514  Biso   1.000  C
  C115     1.0000 0.82564  0.43457  0.16340  Biso   1.000  C
  C116     1.0000 0.81522  0.17328  0.25569  Biso   1.000  C
  C117     1.0000 0.90645  0.16407  0.33992  Biso   1.000  C
  C118     1.0000 0.86922  0.58462  0.16814  Biso   1.000  C
  C119     1.0000 0.96880  0.64150  0.24892  Biso   1.000  C
  C120     1.0000 0.03738  0.57492  0.33964  Biso   1.000  C
  H115     1.0000 0.74040  0.29869  0.18652  Biso   1.000  H
  H116     1.0000 0.75391  0.29681  0.13061  Biso   1.000  H
  N79      1.0000 0.80569  0.21418  0.19877  Biso   1.000  N
  O38      1.0000 0.81642  0.41182  0.11108  Biso   1.000  O
  C121     1.0000 0.84692  0.08019  0.25620  Biso   1.000  C
  H117     1.0000 0.77809  0.16233  0.25698  Biso   1.000  H
  N80      1.0000 0.90404  0.09059  0.30976  Biso   1.000  N
  O39      1.0000 0.94915  0.18878  0.39113  Biso   1.000  O
  H118     1.0000 0.85218  0.57317  0.12421  Biso   1.000  H
  H119     1.0000 0.85329  0.64303  0.17390  Biso   1.000  H
  N81      1.0000 0.93378  0.59320  0.19435  Biso   1.000  N
  H120     1.0000 0.95429  0.70528  0.24698  Biso   1.000  H
  C122     1.0000 0.03120  0.64150  0.25108  Biso   1.000  C
  N82      1.0000 0.06617  0.59320  0.30566  Biso   1.000  N
  O40      1.0000 0.06081  0.53681  0.39081  Biso   1.000  O
  C123     1.0000 0.82067  0.15647  0.16464  Biso   1.000  C
  N83      1.0000 0.84744  0.08333  0.19909  Biso   1.000  N
  H121     1.0000 0.82529  0.02589  0.25937  Biso   1.000  H
  C124     1.0000 0.94595  0.01242  0.33218  Biso   1.000  C
  C125     1.0000 0.96258  0.57492  0.16036  Biso   1.000  C
  N84      1.0000 0.01860  0.59760  0.19315  Biso   1.000  N
  H122     1.0000 0.04568  0.70528  0.25297  Biso   1.000  H
  C126     1.0000 0.13078  0.58462  0.33186  Biso   1.000  C
  O41      1.0000 0.81228  0.17496  0.11237  Biso   1.000  O
  C127     1.0000 0.86860  0.00272  0.17067  Biso   1.000  C
  H123     1.0000 0.96908  0.01773  0.37649  Biso   1.000  H
  N85      1.0000 0.98444  0.00628  0.30704  Biso   1.000  N
  H124     1.0000 0.92378  0.95457  0.32348  Biso   1.000  H
  O42      1.0000 0.93916  0.53681  0.10915  Biso   1.000  O
  C128     1.0000 0.06056  0.60032  0.17044  Biso   1.000  C
  H125     1.0000 0.14778  0.57317  0.37580  Biso   1.000  H
  H126     1.0000 0.14671  0.64303  0.32610  Biso   1.000  H
  N86      1.0000 0.14735  0.51029  0.30372  Biso   1.000  N
  H127     1.0000 0.85007  0.00998  0.12628  Biso   1.000  H
  N87      1.0000 0.92965  0.00321  0.19425  Biso   1.000  N
  H128     1.0000 0.85640  0.94312  0.17961  Biso   1.000  H
  C129     1.0000 0.97008  0.95659  0.25127  Biso   1.000  C
  C130     1.0000 0.04566  0.02359  0.33900  Biso   1.000  C
  H129     1.0000 0.03990  0.59990  0.12582  Biso   1.000  H
  H130     1.0000 0.08278  0.65797  0.18362  Biso   1.000  H
  N88      1.0000 0.10200  0.52013  0.19260  Biso   1.000  N
  C131     1.0000 0.15527  0.52118  0.25053  Biso   1.000  C
  C132     1.0000 0.17436  0.43457  0.33660  Biso   1.000  C
  C133     1.0000 0.95430  0.02359  0.16100  Biso   1.000  C
  H131     1.0000 0.95709  0.89308  0.25357  Biso   1.000  H
  C134     1.0000 0.02992  0.95659  0.24873  Biso   1.000  C
  N89      1.0000 0.07034  0.00321  0.30575  Biso   1.000  N
  O43      1.0000 0.06944  0.05611  0.39242  Biso   1.000  O
  C135     1.0000 0.09999  0.44567  0.15603  Biso   1.000  C
  C136     1.0000 0.18426  0.42780  0.24758  Biso   1.000  C
  H132     1.0000 0.18027  0.57499  0.25398  Biso   1.000  H
  N90      1.0000 0.19489  0.38112  0.30340  Biso   1.000  N
  O44      1.0000 0.18354  0.41182  0.38892  Biso   1.000  O
  O45      1.0000 0.93053  0.05611  0.10753  Biso   1.000  O
  N91      1.0000 0.01552  0.00628  0.19296  Biso   1.000  N
  H133     1.0000 0.04289  0.89308  0.24639  Biso   1.000  H
  C137     1.0000 0.13140  0.00272  0.32933  Biso   1.000  C
  N92      1.0000 0.14507  0.38921  0.19039  Biso   1.000  N
  O46      1.0000 0.06115  0.43583  0.10090  Biso   1.000  O
  H134     1.0000 0.22196  0.44071  0.24818  Biso   1.000  H
  C138     1.0000 0.22806  0.29793  0.32482  Biso   1.000  C
  C139     1.0000 0.05400  0.01242  0.16782  Biso   1.000  C
  H135     1.0000 0.14360  0.94312  0.32039  Biso   1.000  H
  H136     1.0000 0.14987  0.00998  0.37368  Biso   1.000  H
  N93      1.0000 0.15252  0.08333  0.30091  Biso   1.000  N
  C140     1.0000 0.15554  0.30051  0.16621  Biso   1.000  C
  N94      1.0000 0.19427  0.21418  0.30124  Biso   1.000  N
  H137     1.0000 0.25960  0.29869  0.31349  Biso   1.000  H
  H138     1.0000 0.24608  0.29681  0.36940  Biso   1.000  H
  H139     1.0000 0.07619  0.95457  0.17648  Biso   1.000  H
  H140     1.0000 0.03092  0.01773  0.12352  Biso   1.000  H
  N95      1.0000 0.09592  0.09059  0.19025  Biso   1.000  N
  C141     1.0000 0.15307  0.08019  0.24381  Biso   1.000  C
  C142     1.0000 0.17933  0.15647  0.33536  Biso   1.000  C
  N96      1.0000 0.14308  0.21962  0.19117  Biso   1.000  N
  H141     1.0000 0.19647  0.29842  0.17477  Biso   1.000  H
  H142     1.0000 0.13141  0.29967  0.12181  Biso   1.000  H
  C143     1.0000 0.18478  0.17328  0.24431  Biso   1.000  C
  C144     1.0000 0.09349  0.16407  0.16004  Biso   1.000  C
  H143     1.0000 0.17469  0.02589  0.24058  Biso   1.000  H
  O47      1.0000 0.18771  0.17496  0.38763  Biso   1.000  O
  H144     1.0000 0.22189  0.16233  0.24298  Biso   1.000  H
  O48      1.0000 0.05079  0.18878  0.10882  Biso   1.000  O
  O49      1.0000 0.93881  0.43583  0.39910  Biso   1.000  O
  C145     1.0000 0.90001  0.44567  0.34397  Biso   1.000  C
  N97      1.0000 0.85493  0.38921  0.30962  Biso   1.000  N
  N98      1.0000 0.89794  0.52013  0.30736  Biso   1.000  N
  C146     1.0000 0.81570  0.42780  0.25242  Biso   1.000  C
  C147     1.0000 0.84445  0.30051  0.33380  Biso   1.000  C
  C148     1.0000 0.84467  0.52118  0.24943  Biso   1.000  C
  C149     1.0000 0.93938  0.60032  0.32951  Biso   1.000  C
  N99      1.0000 0.80511  0.38112  0.19660  Biso   1.000  N
  H145     1.0000 0.77798  0.44071  0.25177  Biso   1.000  H
  N100     1.0000 0.85691  0.21962  0.30883  Biso   1.000  N
  H146     1.0000 0.80347  0.29842  0.32518  Biso   1.000  H
  H147     1.0000 0.86859  0.29967  0.37819  Biso   1.000  H
  N101     1.0000 0.85263  0.51029  0.19623  Biso   1.000  N
  H148     1.0000 0.81967  0.57499  0.24597  Biso   1.000  H
  H149     1.0000 0.96006  0.59990  0.37418  Biso   1.000  H
  H150     1.0000 0.91718  0.65797  0.31639  Biso   1.000  H
  N102     1.0000 0.98133  0.59760  0.30681  Biso   1.000  N
  C150     1.0000 0.77188  0.29793  0.17514  Biso   1.000  C
  C151     1.0000 0.82564  0.43457  0.16340  Biso   1.000  C
  C152     1.0000 0.81522  0.17328  0.25569  Biso   1.000  C
  C153     1.0000 0.90645  0.16407  0.33992  Biso   1.000  C
  C154     1.0000 0.86922  0.58462  0.16814  Biso   1.000  C
  C155     1.0000 0.96880  0.64150  0.24892  Biso   1.000  C
  C156     1.0000 0.03738  0.57492  0.33964  Biso   1.000  C
  H151     1.0000 0.74040  0.29869  0.18652  Biso   1.000  H
  H152     1.0000 0.75391  0.29681  0.13061  Biso   1.000  H
  N103     1.0000 0.80569  0.21418  0.19877  Biso   1.000  N
  O50      1.0000 0.81642  0.41182  0.11108  Biso   1.000  O
  C157     1.0000 0.84692  0.08019  0.25620  Biso   1.000  C
  H153     1.0000 0.77809  0.16233  0.25698  Biso   1.000  H
  N104     1.0000 0.90404  0.09059  0.30976  Biso   1.000  N
  O51      1.0000 0.94915  0.18878  0.39113  Biso   1.000  O
  H154     1.0000 0.85218  0.57317  0.12421  Biso   1.000  H
  H155     1.0000 0.85329  0.64303  0.17390  Biso   1.000  H
  N105     1.0000 0.93378  0.59320  0.19435  Biso   1.000  N
  H156     1.0000 0.95429  0.70528  0.24698  Biso   1.000  H
  C158     1.0000 0.03120  0.64150  0.25108  Biso   1.000  C
  N106     1.0000 0.06617  0.59320  0.30566  Biso   1.000  N
  O52      1.0000 0.06081  0.53681  0.39081  Biso   1.000  O
  C159     1.0000 0.82067  0.15647  0.16464  Biso   1.000  C
  N107     1.0000 0.84744  0.08333  0.19909  Biso   1.000  N
  H157     1.0000 0.82529  0.02589  0.25937  Biso   1.000  H
  C160     1.0000 0.94595  0.01242  0.33218  Biso   1.000  C
  C161     1.0000 0.96258  0.57492  0.16036  Biso   1.000  C
  N108     1.0000 0.01860  0.59760  0.19315  Biso   1.000  N
  H158     1.0000 0.04568  0.70528  0.25297  Biso   1.000  H
  C162     1.0000 0.13078  0.58462  0.33186  Biso   1.000  C
  O53      1.0000 0.81228  0.17496  0.11237  Biso   1.000  O
  C163     1.0000 0.86860  0.00272  0.17067  Biso   1.000  C
  H159     1.0000 0.96908  0.01773  0.37649  Biso   1.000  H
  N109     1.0000 0.98444  0.00628  0.30704  Biso   1.000  N
  H160     1.0000 0.92378  0.95457  0.32348  Biso   1.000  H
  O54      1.0000 0.93916  0.53681  0.10915  Biso   1.000  O
  C164     1.0000 0.06056  0.60032  0.17044  Biso   1.000  C
  H161     1.0000 0.14778  0.57317  0.37580  Biso   1.000  H
  H162     1.0000 0.14671  0.64303  0.32610  Biso   1.000  H
  N110     1.0000 0.14735  0.51029  0.30372  Biso   1.000  N
  H163     1.0000 0.85007  0.00998  0.12628  Biso   1.000  H
  N111     1.0000 0.92965  0.00321  0.19425  Biso   1.000  N
  H164     1.0000 0.85640  0.94312  0.17961  Biso   1.000  H
  C165     1.0000 0.97008  0.95659  0.25127  Biso   1.000  C
  C166     1.0000 0.04566  0.02359  0.33900  Biso   1.000  C
  H165     1.0000 0.03990  0.59990  0.12582  Biso   1.000  H
  H166     1.0000 0.08278  0.65797  0.18362  Biso   1.000  H
  N112     1.0000 0.10200  0.52013  0.19260  Biso   1.000  N
  C167     1.0000 0.15527  0.52118  0.25053  Biso   1.000  C
  C168     1.0000 0.17436  0.43457  0.33660  Biso   1.000  C
  C169     1.0000 0.95430  0.02359  0.16100  Biso   1.000  C
  H167     1.0000 0.95709  0.89308  0.25357  Biso   1.000  H
  C170     1.0000 0.02992  0.95659  0.24873  Biso   1.000  C
  N113     1.0000 0.07034  0.00321  0.30575  Biso   1.000  N
  O55      1.0000 0.06944  0.05611  0.39242  Biso   1.000  O
  C171     1.0000 0.09999  0.44567  0.15603  Biso   1.000  C
  C172     1.0000 0.18426  0.42780  0.24758  Biso   1.000  C
  H168     1.0000 0.18027  0.57499  0.25398  Biso   1.000  H
  N114     1.0000 0.19489  0.38112  0.30340  Biso   1.000  N
  O56      1.0000 0.18354  0.41182  0.38892  Biso   1.000  O
  O57      1.0000 0.93053  0.05611  0.10753  Biso   1.000  O
  N115     1.0000 0.01552  0.00628  0.19296  Biso   1.000  N
  H169     1.0000 0.04289  0.89308  0.24639  Biso   1.000  H
  C173     1.0000 0.13140  0.00272  0.32933  Biso   1.000  C
  N116     1.0000 0.14507  0.38921  0.19039  Biso   1.000  N
  O58      1.0000 0.06115  0.43583  0.10090  Biso   1.000  O
  H170     1.0000 0.22196  0.44071  0.24818  Biso   1.000  H
  C174     1.0000 0.22806  0.29793  0.32482  Biso   1.000  C
  C175     1.0000 0.05400  0.01242  0.16782  Biso   1.000  C
  H171     1.0000 0.14360  0.94312  0.32039  Biso   1.000  H
  H172     1.0000 0.14987  0.00998  0.37368  Biso   1.000  H
  N117     1.0000 0.15252  0.08333  0.30091  Biso   1.000  N
  C176     1.0000 0.15554  0.30051  0.16621  Biso   1.000  C
  N118     1.0000 0.19427  0.21418  0.30124  Biso   1.000  N
  H173     1.0000 0.25960  0.29869  0.31349  Biso   1.000  H
  H174     1.0000 0.24608  0.29681  0.36940  Biso   1.000  H
  H175     1.0000 0.07619  0.95457  0.17648  Biso   1.000  H
  H176     1.0000 0.03092  0.01773  0.12352  Biso   1.000  H
  N119     1.0000 0.09592  0.09059  0.19025  Biso   1.000  N
  C177     1.0000 0.15307  0.08019  0.24381  Biso   1.000  C
  C178     1.0000 0.17933  0.15647  0.33536  Biso   1.000  C
  N120     1.0000 0.14308  0.21962  0.19117  Biso   1.000  N
  H177     1.0000 0.19647  0.29842  0.17477  Biso   1.000  H
  H178     1.0000 0.13141  0.29967  0.12181  Biso   1.000  H
  C179     1.0000 0.18478  0.17328  0.24431  Biso   1.000  C
  C180     1.0000 0.09349  0.16407  0.16004  Biso   1.000  C
  H179     1.0000 0.17469  0.02589  0.24058  Biso   1.000  H
  O59      1.0000 0.18771  0.17496  0.38763  Biso   1.000  O
  H180     1.0000 0.22189  0.16233  0.24298  Biso   1.000  H
  O60      1.0000 0.05079  0.18878  0.10882  Biso   1.000  O
  C181     1.0000 0.65550  0.19953  0.66616  Biso   1.000  C
  N121     1.0000 0.64306  0.28041  0.69117  Biso   1.000  N
  H181     1.0000 0.69645  0.20162  0.67478  Biso   1.000  H
  H182     1.0000 0.63136  0.20029  0.62177  Biso   1.000  H
  N122     1.0000 0.64502  0.11082  0.69034  Biso   1.000  N
  C182     1.0000 0.59346  0.33589  0.66004  Biso   1.000  C
  C183     1.0000 0.68475  0.32668  0.74432  Biso   1.000  C
  C184     1.0000 0.59995  0.05430  0.65599  Biso   1.000  C
  C185     1.0000 0.68421  0.07223  0.74754  Biso   1.000  C
  N123     1.0000 0.59588  0.40938  0.69020  Biso   1.000  N
  O61      1.0000 0.55076  0.31119  0.60883  Biso   1.000  O
  C186     1.0000 0.65303  0.41978  0.74376  Biso   1.000  C
  H183     1.0000 0.72187  0.33771  0.74298  Biso   1.000  H
  N124     1.0000 0.69427  0.28578  0.80119  Biso   1.000  N
  O62      1.0000 0.56112  0.06414  0.60091  Biso   1.000  O
  N125     1.0000 0.60198  0.97990  0.69260  Biso   1.000  N
  N126     1.0000 0.69487  0.11892  0.80340  Biso   1.000  N
  H184     1.0000 0.72198  0.05932  0.74818  Biso   1.000  H
  C187     1.0000 0.65524  0.97878  0.75053  Biso   1.000  C
  C188     1.0000 0.55402  0.48761  0.66782  Biso   1.000  C
  N127     1.0000 0.65248  0.41671  0.80087  Biso   1.000  N
  H185     1.0000 0.67467  0.47407  0.74059  Biso   1.000  H
  C189     1.0000 0.67929  0.34350  0.83532  Biso   1.000  C
  C190     1.0000 0.72807  0.20211  0.82482  Biso   1.000  C
  C191     1.0000 0.56053  0.89971  0.67045  Biso   1.000  C
  C192     1.0000 0.67433  0.06539  0.83661  Biso   1.000  C
  H186     1.0000 0.68024  0.92498  0.75399  Biso   1.000  H
  N128     1.0000 0.64733  0.98967  0.80373  Biso   1.000  N
  N129     1.0000 0.51548  0.49368  0.69292  Biso   1.000  N
  H187     1.0000 0.57617  0.54540  0.67648  Biso   1.000  H
  H188     1.0000 0.53087  0.48231  0.62347  Biso   1.000  H
  C193     1.0000 0.63135  0.49731  0.82929  Biso   1.000  C
  O63      1.0000 0.68767  0.32508  0.88759  Biso   1.000  O
  H189     1.0000 0.75958  0.20127  0.81349  Biso   1.000  H
  H190     1.0000 0.74606  0.20322  0.86940  Biso   1.000  H
  H191     1.0000 0.53985  0.90013  0.62577  Biso   1.000  H
  H192     1.0000 0.58278  0.84200  0.68357  Biso   1.000  H
  N130     1.0000 0.51862  0.90237  0.69315  Biso   1.000  N
  O64      1.0000 0.68350  0.08814  0.88888  Biso   1.000  O
  C194     1.0000 0.63074  0.91542  0.83182  Biso   1.000  C
  C195     1.0000 0.45425  0.47638  0.66096  Biso   1.000  C
  C196     1.0000 0.52989  0.54337  0.74874  Biso   1.000  C
  N131     1.0000 0.57032  0.49682  0.80575  Biso   1.000  N
  H193     1.0000 0.64984  0.48999  0.87368  Biso   1.000  H
  H194     1.0000 0.64358  0.55691  0.82040  Biso   1.000  H
  C197     1.0000 0.46255  0.92512  0.66036  Biso   1.000  C
  C198     1.0000 0.53118  0.85847  0.75109  Biso   1.000  C
  H195     1.0000 0.64773  0.92679  0.87575  Biso   1.000  H
  H196     1.0000 0.64666  0.85700  0.82606  Biso   1.000  H
  N132     1.0000 0.56613  0.90683  0.80561  Biso   1.000  N
  O65      1.0000 0.43051  0.44392  0.60754  Biso   1.000  O
  N133     1.0000 0.42961  0.49682  0.69421  Biso   1.000  N
  C199     1.0000 0.47004  0.54337  0.75122  Biso   1.000  C
  H197     1.0000 0.54286  0.60688  0.74639  Biso   1.000  H
  C200     1.0000 0.54562  0.47638  0.83896  Biso   1.000  C
  N134     1.0000 0.43376  0.90683  0.69435  Biso   1.000  N
  O66      1.0000 0.43914  0.96322  0.60915  Biso   1.000  O
  C201     1.0000 0.46875  0.85847  0.74888  Biso   1.000  C
  H198     1.0000 0.54566  0.79468  0.75297  Biso   1.000  H
  C202     1.0000 0.53734  0.92512  0.83960  Biso   1.000  C
  C203     1.0000 0.36855  0.49731  0.67063  Biso   1.000  C
  H199     1.0000 0.45707  0.60688  0.75357  Biso   1.000  H
  N135     1.0000 0.48439  0.49368  0.80700  Biso   1.000  N
  O67      1.0000 0.56942  0.44392  0.89242  Biso   1.000  O
  C204     1.0000 0.36919  0.91542  0.66814  Biso   1.000  C
  N136     1.0000 0.48131  0.90237  0.80681  Biso   1.000  N
  H200     1.0000 0.45427  0.79468  0.74699  Biso   1.000  H
  O68      1.0000 0.56079  0.96322  0.89081  Biso   1.000  O
  H201     1.0000 0.35005  0.48999  0.62628  Biso   1.000  H
  H202     1.0000 0.35635  0.55691  0.67957  Biso   1.000  H
  N137     1.0000 0.34741  0.41671  0.69909  Biso   1.000  N
  C205     1.0000 0.44591  0.48761  0.83214  Biso   1.000  C
  N138     1.0000 0.35260  0.98967  0.69624  Biso   1.000  N
  H203     1.0000 0.35217  0.92679  0.62416  Biso   1.000  H
  H204     1.0000 0.35327  0.85700  0.67390  Biso   1.000  H
  C206     1.0000 0.43936  0.89971  0.82952  Biso   1.000  C
  C207     1.0000 0.32064  0.34350  0.66464  Biso   1.000  C
  C208     1.0000 0.34690  0.41978  0.75620  Biso   1.000  C
  H205     1.0000 0.42376  0.54540  0.82348  Biso   1.000  H
  H206     1.0000 0.46906  0.48231  0.87649  Biso   1.000  H
  N139     1.0000 0.40401  0.40938  0.80976  Biso   1.000  N
  C209     1.0000 0.32560  0.06539  0.66335  Biso   1.000  C
  C210     1.0000 0.34465  0.97878  0.74943  Biso   1.000  C
  N140     1.0000 0.39795  0.97990  0.80736  Biso   1.000  N
  H207     1.0000 0.46004  0.90013  0.87419  Biso   1.000  H
  H208     1.0000 0.41715  0.84200  0.81639  Biso   1.000  H
  N141     1.0000 0.30566  0.28578  0.69877  Biso   1.000  N
  O69      1.0000 0.31226  0.32508  0.61237  Biso   1.000  O
  H209     1.0000 0.32526  0.47407  0.75938  Biso   1.000  H
  C211     1.0000 0.31518  0.32668  0.75565  Biso   1.000  C
  C212     1.0000 0.40643  0.33589  0.83992  Biso   1.000  C
  N142     1.0000 0.30506  0.11892  0.69656  Biso   1.000  N
  O70      1.0000 0.31639  0.08814  0.61108  Biso   1.000  O
  C213     1.0000 0.31568  0.07223  0.75242  Biso   1.000  C
  H210     1.0000 0.31965  0.92498  0.74597  Biso   1.000  H
  C214     1.0000 0.39998  0.05430  0.84398  Biso   1.000  C
  C215     1.0000 0.27186  0.20211  0.67514  Biso   1.000  C
  H211     1.0000 0.27806  0.33771  0.75698  Biso   1.000  H
  N143     1.0000 0.35687  0.28041  0.80879  Biso   1.000  N
  O71      1.0000 0.44913  0.31119  0.89113  Biso   1.000  O
  N144     1.0000 0.35491  0.11082  0.80962  Biso   1.000  N
  H212     1.0000 0.27795  0.05932  0.75178  Biso   1.000  H
  O72      1.0000 0.43877  0.06414  0.89906  Biso   1.000  O
  H213     1.0000 0.24035  0.20127  0.68647  Biso   1.000  H
  H214     1.0000 0.25387  0.20322  0.63056  Biso   1.000  H
  C216     1.0000 0.34443  0.19953  0.83380  Biso   1.000  C
  H215     1.0000 0.30344  0.20162  0.82519  Biso   1.000  H
  H216     1.0000 0.36857  0.20029  0.87819  Biso   1.000  H
