data_image0
_cell_length_a       29.337
_cell_length_b       29.337
_cell_length_c       26.695
_cell_angle_alpha    90
_cell_angle_beta     90
_cell_angle_gamma    120

_symmetry_space_group_name_H-M    "P 1"
_symmetry_int_tables_number       1

loop_
  _symmetry_equiv_pos_as_xyz
  'x, y, z'

loop_
  _atom_site_label
  _atom_site_occupancy
  _atom_site_fract_x
  _atom_site_fract_y
  _atom_site_fract_z
  _atom_site_thermal_displace_type
  _atom_site_B_iso_or_equiv
  _atom_site_type_symbol
  C1       1.0000 0.41264  0.40848  0.77535  Biso   1.000  C
  N1       1.0000 0.40853  0.45390  0.79097  Biso   1.000  N
  N2       1.0000 0.40343  0.37171  0.81618  Biso   1.000  N
  H1       1.0000 0.44775  0.42068  0.76157  Biso   1.000  H
  H2       1.0000 0.38694  0.38986  0.74875  Biso   1.000  H
  N3       1.0000 0.40853  0.45390  0.79093  Biso   1.000  N
  N4       1.0000 0.40343  0.37171  0.81615  Biso   1.000  N
  C2       1.0000 0.35839  0.45315  0.79075  Biso   1.000  C
  C3       1.0000 0.45047  0.50424  0.78505  Biso   1.000  C
  C4       1.0000 0.41264  0.40848  0.77539  Biso   1.000  C
  C5       1.0000 0.35839  0.45315  0.79071  Biso   1.000  C
  C6       1.0000 0.45047  0.50424  0.78502  Biso   1.000  C
  C7       1.0000 0.44015  0.35837  0.83098  Biso   1.000  C
  C8       1.0000 0.35026  0.33279  0.83225  Biso   1.000  C
  C9       1.0000 0.44015  0.35837  0.83094  Biso   1.000  C
  N5       1.0000 0.32717  0.43256  0.83581  Biso   1.000  N
  C10      1.0000 0.37516  0.51274  0.79165  Biso   1.000  C
  H3       1.0000 0.33747  0.43544  0.76044  Biso   1.000  H
  C11      1.0000 0.37516  0.51274  0.79161  Biso   1.000  C
  H4       1.0000 0.33747  0.43544  0.76040  Biso   1.000  H
  O1       1.0000 0.49656  0.51597  0.77921  Biso   1.000  O
  N6       1.0000 0.43155  0.53888  0.78809  Biso   1.000  N
  N7       1.0000 0.43155  0.53888  0.78805  Biso   1.000  N
  N8       1.0000 0.41583  0.31531  0.86207  Biso   1.000  N
  O2       1.0000 0.48683  0.38124  0.81877  Biso   1.000  O
  N9       1.0000 0.32545  0.35345  0.86522  Biso   1.000  N
  C12      1.0000 0.35942  0.29536  0.86638  Biso   1.000  C
  H5       1.0000 0.32743  0.31386  0.80337  Biso   1.000  H
  N10      1.0000 0.32545  0.35345  0.86518  Biso   1.000  N
  C13      1.0000 0.35942  0.29536  0.86634  Biso   1.000  C
  H6       1.0000 0.32743  0.31386  0.80333  Biso   1.000  H
  C14      1.0000 0.32396  0.47074  0.86215  Biso   1.000  C
  C15      1.0000 0.29526  0.37652  0.84664  Biso   1.000  C
  C16      1.0000 0.32396  0.47074  0.86211  Biso   1.000  C
  C17      1.0000 0.29526  0.37652  0.84660  Biso   1.000  C
  N11      1.0000 0.35552  0.51872  0.84008  Biso   1.000  N
  H7       1.0000 0.35956  0.52223  0.76355  Biso   1.000  H
  H8       1.0000 0.35956  0.52223  0.76351  Biso   1.000  H
  C18      1.0000 0.46368  0.59426  0.77633  Biso   1.000  C
  C19      1.0000 0.44085  0.28587  0.87885  Biso   1.000  C
  C20      1.0000 0.31916  0.33393  0.91242  Biso   1.000  C
  N12      1.0000 0.34284  0.30350  0.91564  Biso   1.000  N
  H9       1.0000 0.33844  0.25816  0.85537  Biso   1.000  H
  O3       1.0000 0.29688  0.46354  0.90021  Biso   1.000  O
  H10      1.0000 0.27696  0.35814  0.81592  Biso   1.000  H
  H11      1.0000 0.26858  0.37144  0.87155  Biso   1.000  H
  H12      1.0000 0.26858  0.37144  0.87151  Biso   1.000  H
  C21      1.0000 0.35217  0.56493  0.85274  Biso   1.000  C
  C22      1.0000 0.35217  0.56493  0.85271  Biso   1.000  C
  N13      1.0000 0.47717  0.62881  0.81974  Biso   1.000  N
  H13      1.0000 0.49626  0.60012  0.76044  Biso   1.000  H
  H14      1.0000 0.44486  0.60394  0.75205  Biso   1.000  H
  H15      1.0000 0.49626  0.60012  0.76040  Biso   1.000  H
  H16      1.0000 0.44486  0.60394  0.75201  Biso   1.000  H
  N14      1.0000 0.44878  0.28768  0.93291  Biso   1.000  N
  H17      1.0000 0.47503  0.29996  0.86226  Biso   1.000  H
  H18      1.0000 0.41915  0.24907  0.86855  Biso   1.000  H
  N15      1.0000 0.44878  0.28768  0.93287  Biso   1.000  N
  O4       1.0000 0.29594  0.34168  0.94696  Biso   1.000  O
  C23      1.0000 0.32844  0.26426  0.95568  Biso   1.000  C
  C24      1.0000 0.32844  0.26426  0.95565  Biso   1.000  C
  N16      1.0000 0.40061  0.60795  0.87222  Biso   1.000  N
  H19      1.0000 0.34215  0.57713  0.82263  Biso   1.000  H
  H20      1.0000 0.32429  0.55525  0.87762  Biso   1.000  H
  N17      1.0000 0.40061  0.60795  0.87219  Biso   1.000  N
  C25      1.0000 0.44256  0.64645  0.84004  Biso   1.000  C
  C26      1.0000 0.52716  0.65652  0.83873  Biso   1.000  C
  C27      1.0000 0.44256  0.64645  0.84001  Biso   1.000  C
  C28      1.0000 0.49794  0.30657  0.95306  Biso   1.000  C
  C29      1.0000 0.40714  0.25198  0.96666  Biso   1.000  C
  N18      1.0000 0.37350  0.27135  0.98430  Biso   1.000  N
  H21      1.0000 0.30342  0.26666  0.97827  Biso   1.000  H
  H22      1.0000 0.31084  0.22907  0.94078  Biso   1.000  H
  H23      1.0000 0.30342  0.26666  0.97824  Biso   1.000  H
  H24      1.0000 0.31084  0.22907  0.94074  Biso   1.000  H
  C30      1.0000 0.40428  0.62633  0.92025  Biso   1.000  C
  C31      1.0000 0.40428  0.62633  0.92021  Biso   1.000  C
  C32      1.0000 0.47858  0.69033  0.87694  Biso   1.000  C
  H25      1.0000 0.42869  0.65975  0.81345  Biso   1.000  H
  C33      1.0000 0.47858  0.69033  0.87691  Biso   1.000  C
  H26      1.0000 0.42869  0.65975  0.81341  Biso   1.000  H
  O5       1.0000 0.56504  0.65267  0.82506  Biso   1.000  O
  N19      1.0000 0.52765  0.68927  0.87597  Biso   1.000  N
  N20      1.0000 0.52765  0.68927  0.87593  Biso   1.000  N
  O6       1.0000 0.53999  0.33314  0.93119  Biso   1.000  O
  N21      1.0000 0.49232  0.29185  0.00311  Biso   1.000  N
  N22      1.0000 0.49232  0.29185  0.00315  Biso   1.000  N
  H27      1.0000 0.38663  0.21609  0.95258  Biso   1.000  H
  H28      1.0000 0.38663  0.21609  0.95254  Biso   1.000  H
  C34      1.0000 0.43803  0.25297  0.01487  Biso   1.000  C
  C35      1.0000 0.37611  0.27835  0.03518  Biso   1.000  C
  O7       1.0000 0.37153  0.60331  0.95370  Biso   1.000  O
  N23      1.0000 0.44985  0.67384  0.92429  Biso   1.000  N
  H29      1.0000 0.48395  0.72493  0.86612  Biso   1.000  H
  C36      1.0000 0.57625  0.73304  0.89354  Biso   1.000  C
  C37      1.0000 0.57625  0.73304  0.89350  Biso   1.000  C
  C38      1.0000 0.53633  0.29398  0.03117  Biso   1.000  C
  N24      1.0000 0.41414  0.26899  0.05364  Biso   1.000  N
  H30      1.0000 0.43404  0.21805  0.02206  Biso   1.000  H
  O8       1.0000 0.34888  0.29111  0.06027  Biso   1.000  O
  C39      1.0000 0.46366  0.70604  0.96883  Biso   1.000  C
  N25      1.0000 0.58585  0.73103  0.94636  Biso   1.000  N
  H31      1.0000 0.60548  0.73422  0.87455  Biso   1.000  H
  H32      1.0000 0.57597  0.76575  0.88653  Biso   1.000  H
  N26      1.0000 0.58585  0.73103  0.94632  Biso   1.000  N
  H33      1.0000 0.60548  0.73422  0.87451  Biso   1.000  H
  N27      1.0000 0.55014  0.32618  0.07571  Biso   1.000  N
  H34      1.0000 0.52725  0.25816  0.04068  Biso   1.000  H
  H35      1.0000 0.56724  0.30795  0.00918  Biso   1.000  H
  N28      1.0000 0.55014  0.32618  0.07567  Biso   1.000  N
  H36      1.0000 0.56724  0.30795  0.00914  Biso   1.000  H
  C40      1.0000 0.42374  0.26698  0.10646  Biso   1.000  C
  N29      1.0000 0.50771  0.70816  0.99689  Biso   1.000  N
  H37      1.0000 0.47278  0.74185  0.95932  Biso   1.000  H
  H38      1.0000 0.43276  0.69203  0.99082  Biso   1.000  H
  N30      1.0000 0.50771  0.70816  0.99685  Biso   1.000  N
  C41      1.0000 0.56199  0.74705  0.98513  Biso   1.000  C
  C42      1.0000 0.62386  0.72162  0.96482  Biso   1.000  C
  C43      1.0000 0.59574  0.37368  0.07975  Biso   1.000  C
  C44      1.0000 0.52144  0.30968  0.12306  Biso   1.000  C
  C45      1.0000 0.52144  0.30968  0.12309  Biso   1.000  C
  N31      1.0000 0.47236  0.31071  0.12403  Biso   1.000  N
  H39      1.0000 0.39453  0.26576  0.12545  Biso   1.000  H
  H40      1.0000 0.42405  0.23427  0.11347  Biso   1.000  H
  N32      1.0000 0.47236  0.31071  0.12407  Biso   1.000  N
  H41      1.0000 0.42405  0.23427  0.11343  Biso   1.000  H
  C46      1.0000 0.50209  0.69344  0.04694  Biso   1.000  C
  C47      1.0000 0.50209  0.69344  0.04690  Biso   1.000  C
  H42      1.0000 0.56596  0.78192  0.97794  Biso   1.000  H
  H43      1.0000 0.56596  0.78192  0.97790  Biso   1.000  H
  C48      1.0000 0.59285  0.74803  0.03334  Biso   1.000  C
  C49      1.0000 0.59285  0.74803  0.03330  Biso   1.000  C
  O9       1.0000 0.65113  0.70887  0.93973  Biso   1.000  O
  O10      1.0000 0.65113  0.70887  0.93969  Biso   1.000  O
  N33      1.0000 0.62653  0.72867  0.01570  Biso   1.000  N
  N34      1.0000 0.62653  0.72867  0.01566  Biso   1.000  N
  N35      1.0000 0.59938  0.39206  0.12778  Biso   1.000  N
  O11      1.0000 0.62846  0.39671  0.04630  Biso   1.000  O
  N36      1.0000 0.59938  0.39206  0.12781  Biso   1.000  N
  O12      1.0000 0.62846  0.39671  0.04626  Biso   1.000  O
  H44      1.0000 0.51604  0.27509  0.13388  Biso   1.000  H
  C50      1.0000 0.55743  0.35357  0.15996  Biso   1.000  C
  C51      1.0000 0.47281  0.34345  0.16127  Biso   1.000  C
  C52      1.0000 0.47281  0.34345  0.16123  Biso   1.000  C
  O13      1.0000 0.46000  0.66687  0.06881  Biso   1.000  O
  N37      1.0000 0.55121  0.71233  0.06709  Biso   1.000  N
  N38      1.0000 0.55121  0.71233  0.06713  Biso   1.000  N
  H45      1.0000 0.61336  0.78393  0.04742  Biso   1.000  H
  C53      1.0000 0.67159  0.73575  0.04432  Biso   1.000  C
  C54      1.0000 0.64785  0.43508  0.14726  Biso   1.000  C
  C55      1.0000 0.64785  0.43508  0.14729  Biso   1.000  C
  N39      1.0000 0.52285  0.37120  0.18026  Biso   1.000  N
  H46      1.0000 0.57133  0.34027  0.18655  Biso   1.000  H
  N40      1.0000 0.52285  0.37120  0.18022  Biso   1.000  N
  H47      1.0000 0.57133  0.34027  0.18659  Biso   1.000  H
  O14      1.0000 0.43498  0.34735  0.17494  Biso   1.000  O
  C56      1.0000 0.55917  0.71415  0.12115  Biso   1.000  C
  N41      1.0000 0.65715  0.69651  0.08436  Biso   1.000  N
  H48      1.0000 0.69657  0.73335  0.02173  Biso   1.000  H
  H49      1.0000 0.68918  0.77094  0.05922  Biso   1.000  H
  N42      1.0000 0.64450  0.48129  0.15992  Biso   1.000  N
  H50      1.0000 0.65784  0.42288  0.17737  Biso   1.000  H
  H51      1.0000 0.67574  0.44477  0.12238  Biso   1.000  H
  H52      1.0000 0.65784  0.42288  0.17734  Biso   1.000  H
  H53      1.0000 0.67574  0.44477  0.12235  Biso   1.000  H
  C57      1.0000 0.53632  0.40576  0.22367  Biso   1.000  C
  C58      1.0000 0.53632  0.40576  0.22364  Biso   1.000  C
  N43      1.0000 0.58420  0.68470  0.13793  Biso   1.000  N
  H54      1.0000 0.52499  0.70005  0.13774  Biso   1.000  H
  H55      1.0000 0.58088  0.75095  0.13145  Biso   1.000  H
  H56      1.0000 0.52499  0.70005  0.13770  Biso   1.000  H
  C59      1.0000 0.64055  0.70462  0.13362  Biso   1.000  C
  C60      1.0000 0.68083  0.66609  0.08758  Biso   1.000  C
  C61      1.0000 0.68083  0.66609  0.08754  Biso   1.000  C
  C62      1.0000 0.67603  0.52927  0.13785  Biso   1.000  C
  C63      1.0000 0.62483  0.48728  0.20835  Biso   1.000  C
  N44      1.0000 0.56844  0.46114  0.21191  Biso   1.000  N
  H57      1.0000 0.50374  0.39986  0.23956  Biso   1.000  H
  H58      1.0000 0.55513  0.39608  0.24795  Biso   1.000  H
  H59      1.0000 0.50374  0.39986  0.23960  Biso   1.000  H
  C64      1.0000 0.55987  0.64164  0.16902  Biso   1.000  C
  C65      1.0000 0.55987  0.64164  0.16906  Biso   1.000  C
  C66      1.0000 0.64977  0.66723  0.16775  Biso   1.000  C
  H60      1.0000 0.66158  0.74185  0.14463  Biso   1.000  H
  C67      1.0000 0.64977  0.66723  0.16771  Biso   1.000  C
  H61      1.0000 0.66158  0.74185  0.14460  Biso   1.000  H
  N45      1.0000 0.67453  0.64653  0.13478  Biso   1.000  N
  O15      1.0000 0.70405  0.65833  0.05304  Biso   1.000  O
  O16      1.0000 0.70405  0.65833  0.05301  Biso   1.000  O
  N46      1.0000 0.67286  0.56745  0.16419  Biso   1.000  N
  O17      1.0000 0.70311  0.53648  0.09979  Biso   1.000  O
  N47      1.0000 0.67286  0.56745  0.16415  Biso   1.000  N
  H62      1.0000 0.64044  0.47779  0.23645  Biso   1.000  H
  C68      1.0000 0.64164  0.54687  0.20925  Biso   1.000  C
  C69      1.0000 0.54956  0.49578  0.21495  Biso   1.000  C
  O18      1.0000 0.51319  0.61878  0.18123  Biso   1.000  O
  N48      1.0000 0.59657  0.62826  0.18382  Biso   1.000  N
  O19      1.0000 0.51319  0.61878  0.18119  Biso   1.000  O
  H63      1.0000 0.67258  0.68612  0.19663  Biso   1.000  H
  H64      1.0000 0.67258  0.68612  0.19667  Biso   1.000  H
  C70      1.0000 0.70475  0.62346  0.15336  Biso   1.000  C
  C71      1.0000 0.70475  0.62346  0.15340  Biso   1.000  C
  N49      1.0000 0.59150  0.54612  0.20903  Biso   1.000  N
  H65      1.0000 0.66253  0.56458  0.23956  Biso   1.000  H
  H66      1.0000 0.66253  0.56458  0.23960  Biso   1.000  H
  O20      1.0000 0.50343  0.48405  0.22079  Biso   1.000  O
  C72      1.0000 0.58738  0.59154  0.22461  Biso   1.000  C
  H67      1.0000 0.72303  0.64188  0.18408  Biso   1.000  H
  H68      1.0000 0.73144  0.62858  0.12845  Biso   1.000  H
  H69      1.0000 0.55227  0.57934  0.23843  Biso   1.000  H
  H70      1.0000 0.61309  0.61016  0.25125  Biso   1.000  H
  H71      1.0000 0.55227  0.57934  0.23840  Biso   1.000  H
  C73      1.0000 0.41264  0.40848  0.77535  Biso   1.000  C
  N50      1.0000 0.40343  0.37171  0.81618  Biso   1.000  N
  N51      1.0000 0.40343  0.37171  0.81615  Biso   1.000  N
  H72      1.0000 0.44775  0.42068  0.76157  Biso   1.000  H
  H73      1.0000 0.38694  0.38986  0.74875  Biso   1.000  H
  N52      1.0000 0.40853  0.45390  0.79097  Biso   1.000  N
  N53      1.0000 0.40853  0.45390  0.79093  Biso   1.000  N
  C74      1.0000 0.35026  0.33279  0.83225  Biso   1.000  C
  C75      1.0000 0.44015  0.35837  0.83098  Biso   1.000  C
  C76      1.0000 0.41264  0.40848  0.77539  Biso   1.000  C
  C77      1.0000 0.44015  0.35837  0.83094  Biso   1.000  C
  C78      1.0000 0.35839  0.45315  0.79075  Biso   1.000  C
  C79      1.0000 0.35839  0.45315  0.79071  Biso   1.000  C
  C80      1.0000 0.45047  0.50424  0.78505  Biso   1.000  C
  C81      1.0000 0.45047  0.50424  0.78502  Biso   1.000  C
  N54      1.0000 0.32545  0.35345  0.86522  Biso   1.000  N
  C82      1.0000 0.35942  0.29536  0.86638  Biso   1.000  C
  H74      1.0000 0.32743  0.31386  0.80337  Biso   1.000  H
  N55      1.0000 0.32545  0.35345  0.86518  Biso   1.000  N
  C83      1.0000 0.35942  0.29536  0.86634  Biso   1.000  C
  H75      1.0000 0.32743  0.31386  0.80333  Biso   1.000  H
  N56      1.0000 0.41583  0.31531  0.86207  Biso   1.000  N
  O21      1.0000 0.48683  0.38124  0.81877  Biso   1.000  O
  N57      1.0000 0.32717  0.43256  0.83581  Biso   1.000  N
  C84      1.0000 0.37516  0.51274  0.79165  Biso   1.000  C
  H76      1.0000 0.33747  0.43544  0.76044  Biso   1.000  H
  C85      1.0000 0.37516  0.51274  0.79161  Biso   1.000  C
  H77      1.0000 0.33747  0.43544  0.76040  Biso   1.000  H
  O22      1.0000 0.49656  0.51597  0.77921  Biso   1.000  O
  N58      1.0000 0.43155  0.53888  0.78809  Biso   1.000  N
  N59      1.0000 0.43155  0.53888  0.78805  Biso   1.000  N
  C86      1.0000 0.31916  0.33393  0.91242  Biso   1.000  C
  C87      1.0000 0.29526  0.37652  0.84664  Biso   1.000  C
  C88      1.0000 0.29526  0.37652  0.84660  Biso   1.000  C
  N60      1.0000 0.34284  0.30350  0.91564  Biso   1.000  N
  H78      1.0000 0.33844  0.25816  0.85537  Biso   1.000  H
  C89      1.0000 0.44085  0.28587  0.87885  Biso   1.000  C
  C90      1.0000 0.32396  0.47074  0.86215  Biso   1.000  C
  C91      1.0000 0.32396  0.47074  0.86211  Biso   1.000  C
  N61      1.0000 0.35552  0.51872  0.84008  Biso   1.000  N
  H79      1.0000 0.35956  0.52223  0.76355  Biso   1.000  H
  H80      1.0000 0.35956  0.52223  0.76351  Biso   1.000  H
  C92      1.0000 0.46368  0.59426  0.77633  Biso   1.000  C
  O23      1.0000 0.29594  0.34168  0.94696  Biso   1.000  O
  H81      1.0000 0.27696  0.35814  0.81592  Biso   1.000  H
  H82      1.0000 0.26858  0.37144  0.87155  Biso   1.000  H
  H83      1.0000 0.26858  0.37144  0.87151  Biso   1.000  H
  C93      1.0000 0.32844  0.26426  0.95568  Biso   1.000  C
  C94      1.0000 0.32844  0.26426  0.95565  Biso   1.000  C
  H84      1.0000 0.47503  0.29996  0.86226  Biso   1.000  H
  H85      1.0000 0.41915  0.24907  0.86855  Biso   1.000  H
  N62      1.0000 0.44878  0.28768  0.93291  Biso   1.000  N
  N63      1.0000 0.44878  0.28768  0.93287  Biso   1.000  N
  O24      1.0000 0.29688  0.46354  0.90021  Biso   1.000  O
  C95      1.0000 0.35217  0.56493  0.85274  Biso   1.000  C
  C96      1.0000 0.35217  0.56493  0.85271  Biso   1.000  C
  N64      1.0000 0.47717  0.62881  0.81974  Biso   1.000  N
  H86      1.0000 0.49626  0.60012  0.76044  Biso   1.000  H
  H87      1.0000 0.44486  0.60394  0.75205  Biso   1.000  H
  H88      1.0000 0.49626  0.60012  0.76040  Biso   1.000  H
  H89      1.0000 0.44486  0.60394  0.75201  Biso   1.000  H
  N65      1.0000 0.37350  0.27135  0.98430  Biso   1.000  N
  H90      1.0000 0.30342  0.26666  0.97827  Biso   1.000  H
  H91      1.0000 0.31084  0.22907  0.94078  Biso   1.000  H
  H92      1.0000 0.30342  0.26666  0.97824  Biso   1.000  H
  H93      1.0000 0.31084  0.22907  0.94074  Biso   1.000  H
  C97      1.0000 0.49794  0.30657  0.95306  Biso   1.000  C
  C98      1.0000 0.40714  0.25198  0.96666  Biso   1.000  C
  H94      1.0000 0.34215  0.57713  0.82263  Biso   1.000  H
  H95      1.0000 0.32429  0.55525  0.87762  Biso   1.000  H
  N66      1.0000 0.40061  0.60795  0.87222  Biso   1.000  N
  N67      1.0000 0.40061  0.60795  0.87219  Biso   1.000  N
  C99      1.0000 0.44256  0.64645  0.84004  Biso   1.000  C
  C100     1.0000 0.44256  0.64645  0.84001  Biso   1.000  C
  C101     1.0000 0.52716  0.65652  0.83873  Biso   1.000  C
  C102     1.0000 0.37611  0.27835  0.03518  Biso   1.000  C
  O25      1.0000 0.53999  0.33314  0.93119  Biso   1.000  O
  N68      1.0000 0.49232  0.29185  0.00311  Biso   1.000  N
  N69      1.0000 0.49232  0.29185  0.00315  Biso   1.000  N
  H96      1.0000 0.38663  0.21609  0.95258  Biso   1.000  H
  H97      1.0000 0.38663  0.21609  0.95254  Biso   1.000  H
  C103     1.0000 0.43803  0.25297  0.01487  Biso   1.000  C
  C104     1.0000 0.40428  0.62633  0.92025  Biso   1.000  C
  C105     1.0000 0.40428  0.62633  0.92021  Biso   1.000  C
  C106     1.0000 0.47858  0.69033  0.87694  Biso   1.000  C
  H98      1.0000 0.42869  0.65975  0.81345  Biso   1.000  H
  C107     1.0000 0.47858  0.69033  0.87691  Biso   1.000  C
  H99      1.0000 0.42869  0.65975  0.81341  Biso   1.000  H
  O26      1.0000 0.56504  0.65267  0.82506  Biso   1.000  O
  N70      1.0000 0.52765  0.68927  0.87597  Biso   1.000  N
  N71      1.0000 0.52765  0.68927  0.87593  Biso   1.000  N
  N72      1.0000 0.41414  0.26899  0.05364  Biso   1.000  N
  O27      1.0000 0.34888  0.29111  0.06027  Biso   1.000  O
  C108     1.0000 0.53633  0.29398  0.03117  Biso   1.000  C
  H100     1.0000 0.43404  0.21805  0.02206  Biso   1.000  H
  O28      1.0000 0.37153  0.60331  0.95370  Biso   1.000  O
  N73      1.0000 0.44985  0.67384  0.92429  Biso   1.000  N
  H101     1.0000 0.48395  0.72493  0.86612  Biso   1.000  H
  C109     1.0000 0.57625  0.73304  0.89354  Biso   1.000  C
  C110     1.0000 0.57625  0.73304  0.89350  Biso   1.000  C
  C111     1.0000 0.42374  0.26698  0.10646  Biso   1.000  C
  N74      1.0000 0.55014  0.32618  0.07571  Biso   1.000  N
  H102     1.0000 0.52725  0.25816  0.04068  Biso   1.000  H
  H103     1.0000 0.56724  0.30795  0.00918  Biso   1.000  H
  N75      1.0000 0.55014  0.32618  0.07567  Biso   1.000  N
  H104     1.0000 0.56724  0.30795  0.00914  Biso   1.000  H
  C112     1.0000 0.46366  0.70604  0.96883  Biso   1.000  C
  H105     1.0000 0.57597  0.76575  0.88653  Biso   1.000  H
  N76      1.0000 0.58585  0.73103  0.94636  Biso   1.000  N
  H106     1.0000 0.60548  0.73422  0.87455  Biso   1.000  H
  N77      1.0000 0.58585  0.73103  0.94632  Biso   1.000  N
  H107     1.0000 0.60548  0.73422  0.87451  Biso   1.000  H
  N78      1.0000 0.47236  0.31071  0.12403  Biso   1.000  N
  H108     1.0000 0.39453  0.26576  0.12545  Biso   1.000  H
  H109     1.0000 0.42405  0.23427  0.11347  Biso   1.000  H
  N79      1.0000 0.47236  0.31071  0.12407  Biso   1.000  N
  H110     1.0000 0.42405  0.23427  0.11343  Biso   1.000  H
  C113     1.0000 0.59574  0.37368  0.07975  Biso   1.000  C
  C114     1.0000 0.52144  0.30968  0.12306  Biso   1.000  C
  C115     1.0000 0.52144  0.30968  0.12309  Biso   1.000  C
  H111     1.0000 0.47278  0.74185  0.95932  Biso   1.000  H
  H112     1.0000 0.43276  0.69203  0.99082  Biso   1.000  H
  N80      1.0000 0.50771  0.70816  0.99689  Biso   1.000  N
  N81      1.0000 0.50771  0.70816  0.99685  Biso   1.000  N
  C116     1.0000 0.56199  0.74705  0.98513  Biso   1.000  C
  C117     1.0000 0.62386  0.72162  0.96482  Biso   1.000  C
  C118     1.0000 0.47281  0.34345  0.16127  Biso   1.000  C
  C119     1.0000 0.47281  0.34345  0.16123  Biso   1.000  C
  N82      1.0000 0.59938  0.39206  0.12778  Biso   1.000  N
  O29      1.0000 0.62846  0.39671  0.04630  Biso   1.000  O
  N83      1.0000 0.59938  0.39206  0.12781  Biso   1.000  N
  O30      1.0000 0.62846  0.39671  0.04626  Biso   1.000  O
  H113     1.0000 0.51604  0.27509  0.13388  Biso   1.000  H
  C120     1.0000 0.55743  0.35357  0.15996  Biso   1.000  C
  C121     1.0000 0.50209  0.69344  0.04694  Biso   1.000  C
  C122     1.0000 0.50209  0.69344  0.04690  Biso   1.000  C
  H114     1.0000 0.56596  0.78192  0.97794  Biso   1.000  H
  H115     1.0000 0.56596  0.78192  0.97790  Biso   1.000  H
  C123     1.0000 0.59285  0.74803  0.03334  Biso   1.000  C
  C124     1.0000 0.59285  0.74803  0.03330  Biso   1.000  C
  O31      1.0000 0.65113  0.70887  0.93973  Biso   1.000  O
  O32      1.0000 0.65113  0.70887  0.93969  Biso   1.000  O
  N84      1.0000 0.62653  0.72867  0.01570  Biso   1.000  N
  N85      1.0000 0.62653  0.72867  0.01566  Biso   1.000  N
  N86      1.0000 0.52285  0.37120  0.18026  Biso   1.000  N
  O33      1.0000 0.43498  0.34735  0.17494  Biso   1.000  O
  N87      1.0000 0.52285  0.37120  0.18022  Biso   1.000  N
  C125     1.0000 0.64785  0.43508  0.14726  Biso   1.000  C
  C126     1.0000 0.64785  0.43508  0.14729  Biso   1.000  C
  H116     1.0000 0.57133  0.34027  0.18655  Biso   1.000  H
  H117     1.0000 0.57133  0.34027  0.18659  Biso   1.000  H
  O34      1.0000 0.46000  0.66687  0.06881  Biso   1.000  O
  N88      1.0000 0.55121  0.71233  0.06709  Biso   1.000  N
  N89      1.0000 0.55121  0.71233  0.06713  Biso   1.000  N
  H118     1.0000 0.61336  0.78393  0.04742  Biso   1.000  H
  C127     1.0000 0.67159  0.73575  0.04432  Biso   1.000  C
  C128     1.0000 0.53632  0.40576  0.22367  Biso   1.000  C
  C129     1.0000 0.53632  0.40576  0.22364  Biso   1.000  C
  N90      1.0000 0.64450  0.48129  0.15992  Biso   1.000  N
  H119     1.0000 0.65784  0.42288  0.17737  Biso   1.000  H
  H120     1.0000 0.67574  0.44477  0.12238  Biso   1.000  H
  H121     1.0000 0.65784  0.42288  0.17734  Biso   1.000  H
  H122     1.0000 0.67574  0.44477  0.12235  Biso   1.000  H
  C130     1.0000 0.55917  0.71415  0.12115  Biso   1.000  C
  N91      1.0000 0.65715  0.69651  0.08436  Biso   1.000  N
  H123     1.0000 0.69657  0.73335  0.02173  Biso   1.000  H
  H124     1.0000 0.68918  0.77094  0.05922  Biso   1.000  H
  N92      1.0000 0.56844  0.46114  0.21191  Biso   1.000  N
  H125     1.0000 0.50374  0.39986  0.23956  Biso   1.000  H
  H126     1.0000 0.55513  0.39608  0.24795  Biso   1.000  H
  H127     1.0000 0.50374  0.39986  0.23960  Biso   1.000  H
  C131     1.0000 0.67603  0.52927  0.13785  Biso   1.000  C
  C132     1.0000 0.62483  0.48728  0.20835  Biso   1.000  C
  N93      1.0000 0.58420  0.68470  0.13793  Biso   1.000  N
  H128     1.0000 0.52499  0.70005  0.13774  Biso   1.000  H
  H129     1.0000 0.58088  0.75095  0.13145  Biso   1.000  H
  H130     1.0000 0.52499  0.70005  0.13770  Biso   1.000  H
  C133     1.0000 0.64055  0.70462  0.13362  Biso   1.000  C
  C134     1.0000 0.68083  0.66609  0.08758  Biso   1.000  C
  C135     1.0000 0.68083  0.66609  0.08754  Biso   1.000  C
  C136     1.0000 0.54956  0.49578  0.21495  Biso   1.000  C
  N94      1.0000 0.67286  0.56745  0.16419  Biso   1.000  N
  O35      1.0000 0.70311  0.53648  0.09979  Biso   1.000  O
  N95      1.0000 0.67286  0.56745  0.16415  Biso   1.000  N
  H131     1.0000 0.64044  0.47779  0.23645  Biso   1.000  H
  C137     1.0000 0.64164  0.54687  0.20925  Biso   1.000  C
  C138     1.0000 0.55987  0.64164  0.16902  Biso   1.000  C
  C139     1.0000 0.55987  0.64164  0.16906  Biso   1.000  C
  C140     1.0000 0.64977  0.66723  0.16775  Biso   1.000  C
  H132     1.0000 0.66158  0.74185  0.14463  Biso   1.000  H
  C141     1.0000 0.64977  0.66723  0.16771  Biso   1.000  C
  H133     1.0000 0.66158  0.74185  0.14460  Biso   1.000  H
  N96      1.0000 0.67453  0.64653  0.13478  Biso   1.000  N
  O36      1.0000 0.70405  0.65833  0.05304  Biso   1.000  O
  O37      1.0000 0.70405  0.65833  0.05301  Biso   1.000  O
  N97      1.0000 0.59150  0.54612  0.20903  Biso   1.000  N
  O38      1.0000 0.50343  0.48405  0.22079  Biso   1.000  O
  C142     1.0000 0.70475  0.62346  0.15336  Biso   1.000  C
  C143     1.0000 0.70475  0.62346  0.15340  Biso   1.000  C
  H134     1.0000 0.66253  0.56458  0.23956  Biso   1.000  H
  H135     1.0000 0.66253  0.56458  0.23960  Biso   1.000  H
  N98      1.0000 0.59657  0.62826  0.18382  Biso   1.000  N
  O39      1.0000 0.51319  0.61878  0.18123  Biso   1.000  O
  O40      1.0000 0.51319  0.61878  0.18119  Biso   1.000  O
  H136     1.0000 0.67258  0.68612  0.19663  Biso   1.000  H
  H137     1.0000 0.67258  0.68612  0.19667  Biso   1.000  H
  C144     1.0000 0.58738  0.59154  0.22461  Biso   1.000  C
  H138     1.0000 0.72303  0.64188  0.18408  Biso   1.000  H
  H139     1.0000 0.73144  0.62858  0.12845  Biso   1.000  H
  H140     1.0000 0.55227  0.57934  0.23843  Biso   1.000  H
  H141     1.0000 0.61309  0.61016  0.25125  Biso   1.000  H
  H142     1.0000 0.55227  0.57934  0.23840  Biso   1.000  H
  O41      1.0000 0.27557  0.31779  0.72692  Biso   1.000  O
  C145     1.0000 0.23557  0.29055  0.70182  Biso   1.000  C
  N99      1.0000 0.23120  0.29319  0.65095  Biso   1.000  N
  N100     1.0000 0.18817  0.25253  0.72028  Biso   1.000  N
  C146     1.0000 0.26915  0.33822  0.62233  Biso   1.000  C
  C147     1.0000 0.17817  0.25954  0.63334  Biso   1.000  C
  C148     1.0000 0.14827  0.22864  0.68151  Biso   1.000  C
  C149     1.0000 0.17655  0.24293  0.77310  Biso   1.000  C
  N101     1.0000 0.29399  0.32381  0.58232  Biso   1.000  N
  H143     1.0000 0.29657  0.36325  0.64491  Biso   1.000  H
  H144     1.0000 0.25159  0.35585  0.60742  Biso   1.000  H
  N102     1.0000 0.17223  0.21786  0.59955  Biso   1.000  N
  H145     1.0000 0.16276  0.28005  0.61922  Biso   1.000  H
  N103     1.0000 0.13289  0.17436  0.66979  Biso   1.000  N
  H146     1.0000 0.11737  0.23262  0.68871  Biso   1.000  H
  N104     1.0000 0.17171  0.19432  0.79071  Biso   1.000  N
  H147     1.0000 0.20458  0.27213  0.79213  Biso   1.000  H
  H148     1.0000 0.14359  0.24265  0.78011  Biso   1.000  H
  C150     1.0000 0.26928  0.30724  0.53302  Biso   1.000  C
  C151     1.0000 0.34811  0.34751  0.57910  Biso   1.000  C
  C152     1.0000 0.17837  0.22585  0.54553  Biso   1.000  C
  C153     1.0000 0.14197  0.16874  0.61970  Biso   1.000  C
  C154     1.0000 0.09096  0.13032  0.69781  Biso   1.000  C
  C155     1.0000 0.12157  0.14524  0.78974  Biso   1.000  C
  C156     1.0000 0.20399  0.19385  0.82791  Biso   1.000  C
  C157     1.0000 0.31588  0.31645  0.49893  Biso   1.000  C
  N105     1.0000 0.23283  0.25084  0.52875  Biso   1.000  N
  H149     1.0000 0.25308  0.32822  0.52201  Biso   1.000  H
  N106     1.0000 0.36132  0.34121  0.53186  Biso   1.000  N
  O42      1.0000 0.37908  0.37073  0.61364  Biso   1.000  O
  H150     1.0000 0.15827  0.19164  0.52894  Biso   1.000  H
  H151     1.0000 0.16327  0.24753  0.53523  Biso   1.000  H
  O43      1.0000 0.12646  0.12666  0.59783  Biso   1.000  O
  N107     1.0000 0.10935  0.11651  0.74235  Biso   1.000  N
  H152     1.0000 0.06427  0.13945  0.70732  Biso   1.000  H
  H153     1.0000 0.07405  0.09942  0.67582  Biso   1.000  H
  H154     1.0000 0.09236  0.15063  0.80052  Biso   1.000  H
  C158     1.0000 0.12947  0.10922  0.82663  Biso   1.000  C
  N108     1.0000 0.18167  0.14382  0.84690  Biso   1.000  N
  O44      1.0000 0.24573  0.23171  0.84158  Biso   1.000  O
  N109     1.0000 0.30164  0.26324  0.48282  Biso   1.000  N
  H155     1.0000 0.31977  0.33924  0.47001  Biso   1.000  H
  C159     1.0000 0.25155  0.22652  0.49762  Biso   1.000  C
  C160     1.0000 0.41459  0.37140  0.51328  Biso   1.000  C
  C161     1.0000 0.11127  0.07093  0.74643  Biso   1.000  C
  N110     1.0000 0.12601  0.06727  0.79446  Biso   1.000  N
  H156     1.0000 0.10227  0.09533  0.85323  Biso   1.000  H
  C162     1.0000 0.20277  0.13032  0.89032  Biso   1.000  C
  C163     1.0000 0.32918  0.25403  0.44203  Biso   1.000  C
  O45      1.0000 0.22776  0.17984  0.48541  Biso   1.000  O
  N111     1.0000 0.43874  0.33952  0.50245  Biso   1.000  N
  H157     1.0000 0.41451  0.38970  0.48260  Biso   1.000  H
  H158     1.0000 0.43618  0.39809  0.53819  Biso   1.000  H
  O46      1.0000 0.10156  0.03822  0.71294  Biso   1.000  O
  C164     1.0000 0.12056  0.01881  0.81394  Biso   1.000  C
  N112     1.0000 0.22603  0.09824  0.87859  Biso   1.000  N
  H159     1.0000 0.22948  0.16295  0.90620  Biso   1.000  H
  H160     1.0000 0.17426  0.11155  0.91463  Biso   1.000  H
  H161     1.0000 0.30628  0.21892  0.42821  Biso   1.000  H
  H162     1.0000 0.33627  0.27973  0.41543  Biso   1.000  H
  N113     1.0000 0.37873  0.25816  0.45761  Biso   1.000  N
  C165     1.0000 0.42811  0.30831  0.45739  Biso   1.000  C
  C166     1.0000 0.48011  0.34271  0.52879  Biso   1.000  C
  N114     1.0000 0.17015  0.02220  0.82656  Biso   1.000  N
  H163     1.0000 0.09835  0.00882  0.84402  Biso   1.000  H
  H164     1.0000 0.10234  0.99095  0.78902  Biso   1.000  H
  C167     1.0000 0.19578  0.04184  0.87503  Biso   1.000  C
  C168     1.0000 0.27959  0.11713  0.88163  Biso   1.000  C
  C169     1.0000 0.38710  0.21620  0.45170  Biso   1.000  C
  C170     1.0000 0.47090  0.29150  0.45829  Biso   1.000  C
  H165     1.0000 0.43130  0.32921  0.42708  Biso   1.000  H
  N115     1.0000 0.49654  0.31114  0.50676  Biso   1.000  N
  O47      1.0000 0.49999  0.36979  0.56689  Biso   1.000  O
  C171     1.0000 0.18658  0.99063  0.80453  Biso   1.000  C
  H166     1.0000 0.17068  0.02625  0.90313  Biso   1.000  H
  C172     1.0000 0.23858  0.02503  0.87593  Biso   1.000  C
  N116     1.0000 0.28796  0.07518  0.87567  Biso   1.000  N
  O48      1.0000 0.31395  0.16323  0.88743  Biso   1.000  O
  N117     1.0000 0.44062  0.23510  0.45473  Biso   1.000  N
  O49      1.0000 0.35274  0.17011  0.44589  Biso   1.000  O
  H167     1.0000 0.49601  0.30709  0.43019  Biso   1.000  H
  C173     1.0000 0.54610  0.31449  0.51939  Biso   1.000  C
  O50      1.0000 0.16663  0.96355  0.76644  Biso   1.000  O
  N118     1.0000 0.22792  0.99382  0.83083  Biso   1.000  N
  H168     1.0000 0.23536  0.00413  0.90620  Biso   1.000  H
  C174     1.0000 0.33750  0.07931  0.89129  Biso   1.000  C
  C175     1.0000 0.46392  0.20302  0.44300  Biso   1.000  C
  N119     1.0000 0.54068  0.26607  0.53886  Biso   1.000  N
  H169     1.0000 0.56828  0.32448  0.48931  Biso   1.000  H
  H170     1.0000 0.56428  0.34239  0.54430  Biso   1.000  H
  C176     1.0000 0.25203  0.96194  0.82000  Biso   1.000  C
  N120     1.0000 0.36504  0.07010  0.85046  Biso   1.000  N
  H171     1.0000 0.36041  0.11442  0.90508  Biso   1.000  H
  H172     1.0000 0.33041  0.05361  0.91789  Biso   1.000  H
  N121     1.0000 0.48498  0.18952  0.48642  Biso   1.000  N
  H173     1.0000 0.43721  0.17039  0.42708  Biso   1.000  H
  H174     1.0000 0.49239  0.22179  0.41869  Biso   1.000  H
  C177     1.0000 0.53722  0.22412  0.50669  Biso   1.000  C
  C178     1.0000 0.55541  0.26241  0.58689  Biso   1.000  C
  N122     1.0000 0.30530  0.99213  0.80142  Biso   1.000  N
  H175     1.0000 0.25218  0.94364  0.85072  Biso   1.000  H
  H176     1.0000 0.23041  0.93521  0.79513  Biso   1.000  H
  C179     1.0000 0.41509  0.10678  0.83570  Biso   1.000  C
  C180     1.0000 0.35081  0.01689  0.83439  Biso   1.000  C
  C181     1.0000 0.46270  0.13949  0.50538  Biso   1.000  C
  C182     1.0000 0.54512  0.18810  0.54358  Biso   1.000  C
  H177     1.0000 0.56441  0.23801  0.48009  Biso   1.000  H
  O51      1.0000 0.56509  0.29512  0.62034  Biso   1.000  O
  N123     1.0000 0.55730  0.21683  0.59093  Biso   1.000  N
  C183     1.0000 0.31854  0.98583  0.75422  Biso   1.000  C
  N124     1.0000 0.43386  0.08250  0.80457  Biso   1.000  N
  O52      1.0000 0.43892  0.15350  0.84787  Biso   1.000  O
  C184     1.0000 0.39741  0.02610  0.80030  Biso   1.000  C
  H178     1.0000 0.34691  0.99410  0.86327  Biso   1.000  H
  N125     1.0000 0.49498  0.13902  0.54261  Biso   1.000  N
  O53      1.0000 0.42096  0.10163  0.49170  Biso   1.000  O
  H179     1.0000 0.57429  0.18271  0.53280  Biso   1.000  H
  C185     1.0000 0.57572  0.20302  0.63547  Biso   1.000  C
  N126     1.0000 0.37269  0.00953  0.75100  Biso   1.000  N
  O54      1.0000 0.28761  0.96261  0.71969  Biso   1.000  O
  C186     1.0000 0.48828  0.10749  0.78779  Biso   1.000  C
  H180     1.0000 0.41361  0.00512  0.81128  Biso   1.000  H
  C187     1.0000 0.49010  0.09041  0.56018  Biso   1.000  C
  N127     1.0000 0.53379  0.15897  0.66353  Biso   1.000  N
  H181     1.0000 0.60238  0.19389  0.62600  Biso   1.000  H
  H182     1.0000 0.59260  0.23392  0.65750  Biso   1.000  H
  C188     1.0000 0.39746  0.99512  0.71099  Biso   1.000  C
  N128     1.0000 0.49444  0.11544  0.73377  Biso   1.000  N
  H183     1.0000 0.50838  0.14170  0.80438  Biso   1.000  H
  H184     1.0000 0.50341  0.08580  0.79809  Biso   1.000  H
  N129     1.0000 0.47852  0.08081  0.61300  Biso   1.000  N
  H185     1.0000 0.46211  0.06120  0.54119  Biso   1.000  H
  H186     1.0000 0.52310  0.09069  0.55317  Biso   1.000  H
  C189     1.0000 0.51842  0.10470  0.65177  Biso   1.000  C
  C190     1.0000 0.52471  0.16460  0.71358  Biso   1.000  C
  N130     1.0000 0.43549  0.04015  0.68234  Biso   1.000  N
  H187     1.0000 0.37009  0.97009  0.68837  Biso   1.000  H
  H188     1.0000 0.41510  0.97749  0.72590  Biso   1.000  H
  C191     1.0000 0.48851  0.07380  0.69998  Biso   1.000  C
  C192     1.0000 0.43108  0.04278  0.63150  Biso   1.000  C
  H189     1.0000 0.54930  0.10068  0.64458  Biso   1.000  H
  O55      1.0000 0.54019  0.20668  0.73546  Biso   1.000  O
  H190     1.0000 0.50389  0.05329  0.71410  Biso   1.000  H
  O56      1.0000 0.39111  0.01555  0.60637  Biso   1.000  O
  N131     1.0000 0.33529  0.18649  0.73538  Biso   1.000  N
  C193     1.0000 0.28270  0.14839  0.75329  Biso   1.000  C
  C194     1.0000 0.37636  0.18464  0.76644  Biso   1.000  C
  C195     1.0000 0.24689  0.12060  0.72530  Biso   1.000  C
  H191     1.0000 0.28700  0.12481  0.77640  Biso   1.000  H
  H192     1.0000 0.27040  0.16811  0.77340  Biso   1.000  H
  C196     1.0000 0.43136  0.22604  0.75003  Biso   1.000  C
  H193     1.0000 0.37277  0.14965  0.76363  Biso   1.000  H
  H194     1.0000 0.37128  0.19042  0.80161  Biso   1.000  H
  N132     1.0000 0.25359  0.10659  0.67357  Biso   1.000  N
  H195     1.0000 0.22578  0.08718  0.74299  Biso   1.000  H
  H196     1.0000 0.22480  0.13681  0.72257  Biso   1.000  H
  C197     1.0000 0.44528  0.21864  0.69762  Biso   1.000  C
  H197     1.0000 0.43438  0.26072  0.75231  Biso   1.000  H
  H198     1.0000 0.45697  0.22553  0.77322  Biso   1.000  H
  C198     1.0000 0.22141  0.11469  0.63570  Biso   1.000  C
  N133     1.0000 0.41307  0.22675  0.65971  Biso   1.000  N
  H199     1.0000 0.43988  0.18302  0.69421  Biso   1.000  H
  H200     1.0000 0.48266  0.24364  0.69152  Biso   1.000  H
  C199     1.0000 0.23530  0.10730  0.58329  Biso   1.000  C
  H201     1.0000 0.22681  0.15032  0.63907  Biso   1.000  H
  H202     1.0000 0.18399  0.08970  0.64181  Biso   1.000  H
  C200     1.0000 0.41976  0.21274  0.60802  Biso   1.000  C
  C201     1.0000 0.29029  0.14870  0.56689  Biso   1.000  C
  H203     1.0000 0.23231  0.07262  0.58101  Biso   1.000  H
  H204     1.0000 0.20971  0.10781  0.56010  Biso   1.000  H
  C202     1.0000 0.38399  0.18495  0.58003  Biso   1.000  C
  H205     1.0000 0.44085  0.24612  0.59034  Biso   1.000  H
  H206     1.0000 0.44186  0.19652  0.61071  Biso   1.000  H
  N134     1.0000 0.33139  0.14685  0.59794  Biso   1.000  N
  H207     1.0000 0.29391  0.18369  0.56969  Biso   1.000  H
  H208     1.0000 0.29541  0.14292  0.53167  Biso   1.000  H
  H209     1.0000 0.37965  0.20853  0.55692  Biso   1.000  H
  H210     1.0000 0.39628  0.16523  0.55992  Biso   1.000  H
  C203     1.0000 0.58531  0.51152  0.69998  Biso   1.000  C
  C204     1.0000 0.58631  0.48161  0.65177  Biso   1.000  C
  N135     1.0000 0.60469  0.56454  0.68234  Biso   1.000  N
  N136     1.0000 0.62103  0.50558  0.73377  Biso   1.000  N
  H211     1.0000 0.54941  0.49609  0.71410  Biso   1.000  H
  N137     1.0000 0.60229  0.52148  0.61300  Biso   1.000  N
  N138     1.0000 0.62517  0.46622  0.66353  Biso   1.000  N
  H212     1.0000 0.55139  0.45071  0.64458  Biso   1.000  H
  C205     1.0000 0.61172  0.56891  0.63150  Biso   1.000  C
  C206     1.0000 0.59761  0.60252  0.71099  Biso   1.000  C
  C207     1.0000 0.63991  0.47531  0.71358  Biso   1.000  C
  C208     1.0000 0.61922  0.51172  0.78779  Biso   1.000  C
  C209     1.0000 0.60032  0.50991  0.56018  Biso   1.000  C
  C210     1.0000 0.62729  0.42430  0.63547  Biso   1.000  C
  O57      1.0000 0.62445  0.60890  0.60637  Biso   1.000  O
  N139     1.0000 0.63683  0.62732  0.75100  Biso   1.000  N
  H213     1.0000 0.60002  0.62992  0.68837  Biso   1.000  H
  H214     1.0000 0.56241  0.58489  0.72590  Biso   1.000  H
  O58      1.0000 0.66648  0.45980  0.73546  Biso   1.000  O
  N140     1.0000 0.64866  0.56615  0.80457  Biso   1.000  N
  H215     1.0000 0.63330  0.49160  0.80438  Biso   1.000  H
  H216     1.0000 0.58242  0.49660  0.79809  Biso   1.000  H
  N141     1.0000 0.64407  0.50503  0.54261  Biso   1.000  N
  H217     1.0000 0.59911  0.53789  0.54119  Biso   1.000  H
  H218     1.0000 0.56758  0.47688  0.55317  Biso   1.000  H
  N142     1.0000 0.65952  0.44268  0.59093  Biso   1.000  N
  H219     1.0000 0.59152  0.39761  0.62600  Biso   1.000  H
  H220     1.0000 0.64131  0.40741  0.65750  Biso   1.000  H
  C211     1.0000 0.66727  0.68144  0.75422  Biso   1.000  C
  C212     1.0000 0.62870  0.60260  0.80030  Biso   1.000  C
  C213     1.0000 0.69170  0.58489  0.83570  Biso   1.000  C
  C214     1.0000 0.64301  0.45492  0.54358  Biso   1.000  C
  C215     1.0000 0.67680  0.53730  0.50538  Biso   1.000  C
  C216     1.0000 0.70702  0.44461  0.58689  Biso   1.000  C
  O59      1.0000 0.67502  0.71241  0.71969  Biso   1.000  O
  N143     1.0000 0.68680  0.69466  0.80142  Biso   1.000  N
  C217     1.0000 0.66611  0.64920  0.83439  Biso   1.000  C
  H221     1.0000 0.59150  0.58642  0.81128  Biso   1.000  H
  O60      1.0000 0.71460  0.56107  0.84787  Biso   1.000  O
  N144     1.0000 0.70508  0.63495  0.85046  Biso   1.000  N
  H222     1.0000 0.60840  0.42572  0.53280  Biso   1.000  H
  C218     1.0000 0.68690  0.46279  0.50669  Biso   1.000  C
  N145     1.0000 0.70452  0.51502  0.48642  Biso   1.000  N
  O61      1.0000 0.68068  0.57906  0.49170  Biso   1.000  O
  N146     1.0000 0.72539  0.45933  0.53886  Biso   1.000  N
  O62      1.0000 0.73000  0.43489  0.62034  Biso   1.000  O
  C219     1.0000 0.70987  0.74796  0.82000  Biso   1.000  C
  H223     1.0000 0.64720  0.65310  0.86327  Biso   1.000  H
  C220     1.0000 0.74179  0.66251  0.89129  Biso   1.000  C
  H224     1.0000 0.67360  0.43560  0.48009  Biso   1.000  H
  C221     1.0000 0.73910  0.53612  0.44300  Biso   1.000  C
  C222     1.0000 0.76842  0.45390  0.51939  Biso   1.000  C
  N147     1.0000 0.76590  0.77208  0.83083  Biso   1.000  N
  H225     1.0000 0.69147  0.74784  0.85072  Biso   1.000  H
  H226     1.0000 0.70477  0.76952  0.79513  Biso   1.000  H
  N148     1.0000 0.78723  0.71206  0.87567  Biso   1.000  N
  H227     1.0000 0.75399  0.63960  0.90508  Biso   1.000  H
  H228     1.0000 0.72321  0.66959  0.91789  Biso   1.000  H
  N149     1.0000 0.79447  0.55938  0.45473  Biso   1.000  N
  H229     1.0000 0.73322  0.56281  0.42708  Biso   1.000  H
  H230     1.0000 0.72940  0.50758  0.41869  Biso   1.000  H
  N150     1.0000 0.81462  0.50349  0.50676  Biso   1.000  N
  H231     1.0000 0.75619  0.43170  0.48931  Biso   1.000  H
  H232     1.0000 0.77811  0.43571  0.54430  Biso   1.000  H
  C223     1.0000 0.80407  0.81345  0.80453  Biso   1.000  C
  C224     1.0000 0.78650  0.76146  0.87593  Biso   1.000  C
  C225     1.0000 0.83757  0.72044  0.88163  Biso   1.000  C
  C226     1.0000 0.82061  0.52911  0.45829  Biso   1.000  C
  C227     1.0000 0.82911  0.61291  0.45170  Biso   1.000  C
  C228     1.0000 0.86260  0.51990  0.52879  Biso   1.000  C
  O63      1.0000 0.79687  0.83333  0.76644  Biso   1.000  O
  N151     1.0000 0.85206  0.82986  0.82656  Biso   1.000  N
  C229     1.0000 0.84606  0.80424  0.87503  Biso   1.000  C
  H233     1.0000 0.76876  0.76464  0.90620  Biso   1.000  H
  O64      1.0000 0.84930  0.68608  0.88743  Biso   1.000  O
  N152     1.0000 0.87221  0.77397  0.87859  Biso   1.000  N
  H234     1.0000 0.81109  0.50400  0.43019  Biso   1.000  H
  C230     1.0000 0.88022  0.57190  0.45739  Biso   1.000  C
  N153     1.0000 0.87945  0.62130  0.45761  Biso   1.000  N
  O65      1.0000 0.81738  0.64727  0.44589  Biso   1.000  O
  N154     1.0000 0.90077  0.56127  0.50245  Biso   1.000  N
  O66      1.0000 0.86981  0.50003  0.56689  Biso   1.000  O
  C231     1.0000 0.89830  0.87946  0.81394  Biso   1.000  C
  H235     1.0000 0.85559  0.82935  0.90313  Biso   1.000  H
  C232     1.0000 0.92757  0.79723  0.89032  Biso   1.000  C
  H236     1.0000 0.89792  0.56871  0.42708  Biso   1.000  H
  C233     1.0000 0.92489  0.67085  0.44203  Biso   1.000  C
  C234     1.0000 0.95681  0.58540  0.51328  Biso   1.000  C
  N155     1.0000 0.94127  0.87399  0.79446  Biso   1.000  N
  H237     1.0000 0.91049  0.90166  0.84402  Biso   1.000  H
  H238     1.0000 0.88857  0.89764  0.78902  Biso   1.000  H
  N156     1.0000 0.96215  0.81833  0.84690  Biso   1.000  N
  H239     1.0000 0.93349  0.77055  0.90620  Biso   1.000  H
  H240     1.0000 0.93725  0.82573  0.91463  Biso   1.000  H
  N157     1.0000 0.96162  0.69836  0.48282  Biso   1.000  N
  H241     1.0000 0.91268  0.69376  0.42821  Biso   1.000  H
  H242     1.0000 0.94348  0.66373  0.41543  Biso   1.000  H
  N158     1.0000 0.97988  0.63869  0.53186  Biso   1.000  N
  H243     1.0000 0.97521  0.58552  0.48260  Biso   1.000  H
  H244     1.0000 0.96189  0.56379  0.53819  Biso   1.000  H
  C235     1.0000 0.95966  0.88875  0.74643  Biso   1.000  C
  C236     1.0000 0.97976  0.87052  0.82663  Biso   1.000  C
  C237     1.0000 0.98987  0.79605  0.82791  Biso   1.000  C
  C238     1.0000 0.97496  0.74843  0.49762  Biso   1.000  C
  C239     1.0000 0.00060  0.68415  0.49893  Biso   1.000  C
  C240     1.0000 0.99941  0.65192  0.57910  Biso   1.000  C
  O67      1.0000 0.93665  0.89843  0.71294  Biso   1.000  O
  N159     1.0000 0.00717  0.89064  0.74235  Biso   1.000  N
  H245     1.0000 0.99305  0.89772  0.85323  Biso   1.000  H
  C241     1.0000 0.02367  0.87843  0.78974  Biso   1.000  C
  O68      1.0000 0.98600  0.75429  0.84158  Biso   1.000  O
  N160     1.0000 0.02265  0.82833  0.79071  Biso   1.000  N
  O69      1.0000 0.95210  0.77224  0.48541  Biso   1.000  O
  N161     1.0000 0.01800  0.76716  0.52875  Biso   1.000  N
  H246     1.0000 0.01948  0.68026  0.47001  Biso   1.000  H
  C242     1.0000 0.03798  0.73076  0.53302  Biso   1.000  C
  O70      1.0000 0.99166  0.62094  0.61364  Biso   1.000  O
  N162     1.0000 0.02984  0.70604  0.58232  Biso   1.000  N
  C243     1.0000 0.03939  0.90906  0.69781  Biso   1.000  C
  H247     1.0000 0.05828  0.90764  0.80052  Biso   1.000  H
  C244     1.0000 0.06639  0.82345  0.77310  Biso   1.000  C
  C245     1.0000 0.04749  0.82164  0.54553  Biso   1.000  C
  H248     1.0000 0.07517  0.74693  0.52201  Biso   1.000  H
  C246     1.0000 0.06907  0.73083  0.62233  Biso   1.000  C
  N163     1.0000 0.04150  0.86714  0.66979  Biso   1.000  N
  H249     1.0000 0.07516  0.93574  0.70732  Biso   1.000  H
  H250     1.0000 0.02537  0.92594  0.67582  Biso   1.000  H
  N164     1.0000 0.06437  0.81184  0.72028  Biso   1.000  N
  H251     1.0000 0.06758  0.79542  0.79213  Biso   1.000  H
  H252     1.0000 0.09908  0.85643  0.78011  Biso   1.000  H
  N165     1.0000 0.04565  0.82778  0.59955  Biso   1.000  N
  H253     1.0000 0.03338  0.84175  0.52894  Biso   1.000  H
  H254     1.0000 0.08429  0.83675  0.53523  Biso   1.000  H
  N166     1.0000 0.06198  0.76882  0.65095  Biso   1.000  N
  H255     1.0000 0.06669  0.70344  0.64491  Biso   1.000  H
  H256     1.0000 0.10428  0.74843  0.60742  Biso   1.000  H
  C247     1.0000 0.02677  0.85805  0.61970  Biso   1.000  C
  C248     1.0000 0.08037  0.85175  0.68151  Biso   1.000  C
  C249     1.0000 0.05499  0.76445  0.70182  Biso   1.000  C
  C250     1.0000 0.08137  0.82183  0.63334  Biso   1.000  C
  O71      1.0000 0.00021  0.87351  0.59783  Biso   1.000  O
  H257     1.0000 0.11528  0.88265  0.68871  Biso   1.000  H
  O72      1.0000 0.04222  0.72446  0.72692  Biso   1.000  O
  H258     1.0000 0.11725  0.83722  0.61922  Biso   1.000  H
  O73      1.0000 0.31932  0.42095  0.50826  Biso   1.000  O
  C251     1.0000 0.32322  0.46271  0.49459  Biso   1.000  C
  N167     1.0000 0.35596  0.49499  0.45739  Biso   1.000  N
  N168     1.0000 0.29547  0.48499  0.51358  Biso   1.000  N
  C252     1.0000 0.39971  0.49011  0.43978  Biso   1.000  C
  C253     1.0000 0.35701  0.54509  0.45638  Biso   1.000  C
  C254     1.0000 0.31313  0.53722  0.49328  Biso   1.000  C
  C255     1.0000 0.26089  0.46390  0.55700  Biso   1.000  C
  N169     1.0000 0.39768  0.47850  0.38696  Biso   1.000  N
  H259     1.0000 0.40090  0.46208  0.45878  Biso   1.000  H
  H260     1.0000 0.43239  0.52309  0.44679  Biso   1.000  H
  N170     1.0000 0.34048  0.55730  0.40903  Biso   1.000  N
  H261     1.0000 0.39159  0.57430  0.46720  Biso   1.000  H
  N171     1.0000 0.27458  0.54065  0.46110  Biso   1.000  N
  H262     1.0000 0.32642  0.56442  0.51987  Biso   1.000  H
  N172     1.0000 0.20552  0.44063  0.54523  Biso   1.000  N
  H263     1.0000 0.26680  0.43721  0.57288  Biso   1.000  H
  H264     1.0000 0.27060  0.49239  0.58131  Biso   1.000  H
  C256     1.0000 0.38831  0.43111  0.36850  Biso   1.000  C
  C257     1.0000 0.41372  0.51841  0.34819  Biso   1.000  C
  C258     1.0000 0.37270  0.57572  0.36449  Biso   1.000  C
  C259     1.0000 0.29301  0.55541  0.41307  Biso   1.000  C
  C260     1.0000 0.23161  0.54612  0.48058  Biso   1.000  C
  C261     1.0000 0.17941  0.47090  0.54167  Biso   1.000  C
  C262     1.0000 0.17092  0.38710  0.54830  Biso   1.000  C
  N173     1.0000 0.39533  0.43548  0.31763  Biso   1.000  N
  O74      1.0000 0.37557  0.39112  0.39359  Biso   1.000  O
  C263     1.0000 0.41472  0.48850  0.29998  Biso   1.000  C
  N174     1.0000 0.37482  0.53380  0.33647  Biso   1.000  N
  H265     1.0000 0.44860  0.54931  0.35538  Biso   1.000  H
  H266     1.0000 0.40851  0.60240  0.37400  Biso   1.000  H
  H267     1.0000 0.35871  0.59260  0.34250  Biso   1.000  H
  O75      1.0000 0.26997  0.56509  0.37962  Biso   1.000  O
  N175     1.0000 0.18537  0.49652  0.49324  Biso   1.000  N
  H268     1.0000 0.24380  0.56832  0.51069  Biso   1.000  H
  H269     1.0000 0.22189  0.56430  0.45570  Biso   1.000  H
  H270     1.0000 0.18890  0.49601  0.56981  Biso   1.000  H
  C264     1.0000 0.11981  0.42812  0.54257  Biso   1.000  C
  O76      1.0000 0.18264  0.35274  0.55411  Biso   1.000  O
  N176     1.0000 0.12057  0.37872  0.54235  Biso   1.000  N
  C265     1.0000 0.40242  0.39750  0.28901  Biso   1.000  C
  N177     1.0000 0.37896  0.49444  0.26623  Biso   1.000  N
  H271     1.0000 0.45060  0.50389  0.28590  Biso   1.000  H
  C266     1.0000 0.36011  0.52471  0.28638  Biso   1.000  C
  C267     1.0000 0.13742  0.48011  0.47117  Biso   1.000  C
  N178     1.0000 0.09925  0.43874  0.49751  Biso   1.000  N
  H272     1.0000 0.10211  0.43131  0.57288  Biso   1.000  H
  C268     1.0000 0.07514  0.32917  0.55797  Biso   1.000  C
  N179     1.0000 0.36319  0.37270  0.24900  Biso   1.000  N
  H273     1.0000 0.40000  0.37010  0.31159  Biso   1.000  H
  H274     1.0000 0.43760  0.41509  0.27410  Biso   1.000  H
  C269     1.0000 0.38080  0.48830  0.21221  Biso   1.000  C
  O77      1.0000 0.33352  0.54017  0.26451  Biso   1.000  O
  O78      1.0000 0.13021  0.49999  0.43311  Biso   1.000  O
  C270     1.0000 0.04322  0.41462  0.48668  Biso   1.000  C
  N180     1.0000 0.03839  0.30161  0.51714  Biso   1.000  N
  H275     1.0000 0.08734  0.30626  0.57176  Biso   1.000  H
  H276     1.0000 0.05653  0.33625  0.58457  Biso   1.000  H
  C271     1.0000 0.33276  0.31858  0.24578  Biso   1.000  C
  C272     1.0000 0.37132  0.39742  0.19970  Biso   1.000  C
  N181     1.0000 0.35135  0.43382  0.19543  Biso   1.000  N
  H277     1.0000 0.36669  0.50841  0.19558  Biso   1.000  H
  H278     1.0000 0.41761  0.50341  0.20191  Biso   1.000  H
  N182     1.0000 0.02011  0.36132  0.46810  Biso   1.000  N
  H279     1.0000 0.02478  0.41450  0.51740  Biso   1.000  H
  H280     1.0000 0.03808  0.43619  0.46181  Biso   1.000  H
  C273     1.0000 0.02501  0.25155  0.50234  Biso   1.000  C
  C274     1.0000 0.99943  0.31586  0.50107  Biso   1.000  C
  O79      1.0000 0.32497  0.28760  0.28031  Biso   1.000  O
  N183     1.0000 0.31323  0.30535  0.19854  Biso   1.000  N
  C275     1.0000 0.33391  0.35081  0.16561  Biso   1.000  C
  H281     1.0000 0.40849  0.41359  0.18869  Biso   1.000  H
  C276     1.0000 0.30830  0.41509  0.16430  Biso   1.000  C
  C277     1.0000 0.00058  0.34810  0.42090  Biso   1.000  C
  N184     1.0000 0.98197  0.23281  0.47125  Biso   1.000  N
  O80      1.0000 0.04791  0.22774  0.51455  Biso   1.000  O
  C278     1.0000 0.96202  0.26926  0.46694  Biso   1.000  C
  H282     1.0000 0.98052  0.31976  0.52995  Biso   1.000  H
  C279     1.0000 0.29012  0.25206  0.17996  Biso   1.000  C
  N185     1.0000 0.29493  0.36502  0.14950  Biso   1.000  N
  H283     1.0000 0.35282  0.34692  0.13669  Biso   1.000  H
  O81      1.0000 0.28543  0.43894  0.15209  Biso   1.000  O
  N186     1.0000 0.97015  0.29398  0.41768  Biso   1.000  N
  O82      1.0000 0.00837  0.37907  0.38636  Biso   1.000  O
  C280     1.0000 0.95254  0.17838  0.45447  Biso   1.000  C
  H284     1.0000 0.92485  0.25308  0.47795  Biso   1.000  H
  N187     1.0000 0.23409  0.22793  0.16913  Biso   1.000  N
  H285     1.0000 0.30856  0.25218  0.14928  Biso   1.000  H
  H286     1.0000 0.29524  0.23045  0.20487  Biso   1.000  H
  C281     1.0000 0.25820  0.33751  0.10871  Biso   1.000  C
  C282     1.0000 0.93092  0.26918  0.37767  Biso   1.000  C
  N188     1.0000 0.95437  0.17224  0.40041  Biso   1.000  N
  H287     1.0000 0.96665  0.15827  0.47106  Biso   1.000  H
  H288     1.0000 0.91573  0.16326  0.46477  Biso   1.000  H
  C283     1.0000 0.19592  0.18657  0.19547  Biso   1.000  C
  C284     1.0000 0.21353  0.23856  0.12407  Biso   1.000  C
  H289     1.0000 0.24600  0.36042  0.09489  Biso   1.000  H
  H290     1.0000 0.27679  0.33039  0.08211  Biso   1.000  H
  N189     1.0000 0.21277  0.28796  0.12429  Biso   1.000  N
  N190     1.0000 0.93801  0.23120  0.34902  Biso   1.000  N
  H291     1.0000 0.93334  0.29658  0.35505  Biso   1.000  H
  H292     1.0000 0.89572  0.25155  0.39255  Biso   1.000  H
  C285     1.0000 0.97323  0.14197  0.38026  Biso   1.000  C
  C286     1.0000 0.91862  0.17818  0.36666  Biso   1.000  C
  O83      1.0000 0.20313  0.16669  0.23353  Biso   1.000  O
  N191     1.0000 0.14797  0.17015  0.17344  Biso   1.000  N
  C287     1.0000 0.15393  0.19578  0.12497  Biso   1.000  C
  H293     1.0000 0.23123  0.23537  0.09376  Biso   1.000  H
  C288     1.0000 0.16242  0.27957  0.11837  Biso   1.000  C
  C289     1.0000 0.94503  0.23557  0.29815  Biso   1.000  C
  N192     1.0000 0.95852  0.13288  0.33021  Biso   1.000  N
  O84      1.0000 0.99980  0.12646  0.40214  Biso   1.000  O
  C290     1.0000 0.91962  0.14827  0.31845  Biso   1.000  C
  H294     1.0000 0.88272  0.16275  0.38075  Biso   1.000  H
  C291     1.0000 0.10173  0.12056  0.18606  Biso   1.000  C
  N193     1.0000 0.12782  0.22604  0.12141  Biso   1.000  N
  H295     1.0000 0.14444  0.17066  0.09687  Biso   1.000  H
  O85      1.0000 0.15070  0.31393  0.11253  Biso   1.000  O
  N194     1.0000 0.93564  0.18814  0.27968  Biso   1.000  N
  O86      1.0000 0.95777  0.27556  0.27305  Biso   1.000  O
  C292     1.0000 0.96064  0.09096  0.30215  Biso   1.000  C
  H296     1.0000 0.88474  0.11737  0.31126  Biso   1.000  H
  N195     1.0000 0.05873  0.12599  0.20554  Biso   1.000  N
  H297     1.0000 0.08954  0.09836  0.15595  Biso   1.000  H
  H298     1.0000 0.11145  0.10238  0.21098  Biso   1.000  H
  C293     1.0000 0.07245  0.20278  0.10965  Biso   1.000  C
  C294     1.0000 0.93363  0.17657  0.22686  Biso   1.000  C
  N196     1.0000 0.99284  0.10934  0.25761  Biso   1.000  N
  H299     1.0000 0.92483  0.06427  0.29268  Biso   1.000  H
  H300     1.0000 0.97462  0.07408  0.32414  Biso   1.000  H
  C295     1.0000 0.04033  0.11127  0.25357  Biso   1.000  C
  C296     1.0000 0.02021  0.12945  0.17337  Biso   1.000  C
  N197     1.0000 0.03787  0.18169  0.15310  Biso   1.000  N
  H301     1.0000 0.06654  0.22947  0.09376  Biso   1.000  H
  H302     1.0000 0.06274  0.17429  0.08537  Biso   1.000  H
  N198     1.0000 0.97738  0.17169  0.20929  Biso   1.000  N
  H303     1.0000 0.93242  0.20455  0.20787  Biso   1.000  H
  H304     1.0000 0.90095  0.14358  0.21985  Biso   1.000  H
  C297     1.0000 0.97632  0.12158  0.21026  Biso   1.000  C
  O87      1.0000 0.06335  0.10155  0.28702  Biso   1.000  O
  H305     1.0000 0.00692  0.10226  0.14677  Biso   1.000  H
  C298     1.0000 0.01012  0.20396  0.17205  Biso   1.000  C
  H306     1.0000 0.94175  0.09238  0.19948  Biso   1.000  H
  O88      1.0000 0.01402  0.24572  0.15838  Biso   1.000  O
  C299     1.0000 0.15679  0.42375  0.89350  Biso   1.000  C
  N199     1.0000 0.16163  0.47236  0.87597  Biso   1.000  N
  N200     1.0000 0.16163  0.47236  0.87593  Biso   1.000  N
  N201     1.0000 0.16167  0.47236  0.87597  Biso   1.000  N
  N202     1.0000 0.16167  0.47236  0.87593  Biso   1.000  N
  N203     1.0000 0.14517  0.41414  0.94636  Biso   1.000  N
  H307     1.0000 0.12876  0.39454  0.87455  Biso   1.000  H
  H308     1.0000 0.18975  0.42402  0.88653  Biso   1.000  H
  N204     1.0000 0.14517  0.41414  0.94632  Biso   1.000  N
  H309     1.0000 0.12876  0.39454  0.87451  Biso   1.000  H
  H310     1.0000 0.12879  0.39454  0.87455  Biso   1.000  H
  H311     1.0000 0.12879  0.39454  0.87451  Biso   1.000  H
  C300     1.0000 0.12935  0.47283  0.83873  Biso   1.000  C
  C301     1.0000 0.12938  0.47283  0.83873  Biso   1.000  C
  C302     1.0000 0.21177  0.52144  0.87694  Biso   1.000  C
  C303     1.0000 0.21177  0.52144  0.87691  Biso   1.000  C
  C304     1.0000 0.15679  0.42375  0.89354  Biso   1.000  C
  C305     1.0000 0.18507  0.43804  0.98513  Biso   1.000  C
  C306     1.0000 0.09777  0.37612  0.96482  Biso   1.000  C
  N205     1.0000 0.15167  0.52286  0.81974  Biso   1.000  N
  O89      1.0000 0.08761  0.43497  0.82506  Biso   1.000  O
  O90      1.0000 0.08765  0.43497  0.82506  Biso   1.000  O
  C307     1.0000 0.20387  0.55745  0.84004  Biso   1.000  C
  C308     1.0000 0.20387  0.55745  0.84001  Biso   1.000  C
  N206     1.0000 0.22399  0.55017  0.92429  Biso   1.000  N
  H312     1.0000 0.24098  0.51605  0.86612  Biso   1.000  H
  N207     1.0000 0.20045  0.49231  0.99689  Biso   1.000  N
  N208     1.0000 0.20045  0.49231  0.99685  Biso   1.000  N
  N209     1.0000 0.20048  0.49231  0.99689  Biso   1.000  N
  N210     1.0000 0.20048  0.49231  0.99685  Biso   1.000  N
  H313     1.0000 0.21595  0.43402  0.97794  Biso   1.000  H
  H314     1.0000 0.21595  0.43402  0.97790  Biso   1.000  H
  C309     1.0000 0.15517  0.40714  0.03334  Biso   1.000  C
  C310     1.0000 0.15517  0.40714  0.03330  Biso   1.000  C
  O91      1.0000 0.05776  0.34889  0.93973  Biso   1.000  O
  O92      1.0000 0.05776  0.34889  0.93969  Biso   1.000  O
  N211     1.0000 0.10214  0.37349  0.01570  Biso   1.000  N
  N212     1.0000 0.10214  0.37349  0.01566  Biso   1.000  N
  C311     1.0000 0.13055  0.53632  0.77633  Biso   1.000  C
  N213     1.0000 0.20733  0.59941  0.87222  Biso   1.000  N
  H315     1.0000 0.23107  0.57135  0.81345  Biso   1.000  H
  N214     1.0000 0.20733  0.59941  0.87219  Biso   1.000  N
  H316     1.0000 0.23107  0.57135  0.81341  Biso   1.000  H
  C312     1.0000 0.22207  0.59575  0.92025  Biso   1.000  C
  C313     1.0000 0.22207  0.59575  0.92021  Biso   1.000  C
  C314     1.0000 0.24236  0.53632  0.96883  Biso   1.000  C
  C315     1.0000 0.19136  0.49794  0.04694  Biso   1.000  C
  C316     1.0000 0.19136  0.49794  0.04690  Biso   1.000  C
  N215     1.0000 0.16109  0.44878  0.06709  Biso   1.000  N
  N216     1.0000 0.16109  0.44878  0.06713  Biso   1.000  N
  H317     1.0000 0.17058  0.38663  0.04742  Biso   1.000  H
  C317     1.0000 0.06417  0.32842  0.04432  Biso   1.000  C
  N217     1.0000 0.10731  0.56844  0.78809  Biso   1.000  N
  H318     1.0000 0.10386  0.50373  0.76044  Biso   1.000  H
  H319     1.0000 0.15908  0.55513  0.75205  Biso   1.000  H
  N218     1.0000 0.10731  0.56844  0.78805  Biso   1.000  N
  H320     1.0000 0.10386  0.50373  0.76040  Biso   1.000  H
  H321     1.0000 0.15908  0.55513  0.75201  Biso   1.000  H
  C318     1.0000 0.21276  0.64782  0.85274  Biso   1.000  C
  C319     1.0000 0.21276  0.64782  0.85271  Biso   1.000  C
  O93      1.0000 0.23177  0.62846  0.95370  Biso   1.000  O
  H322     1.0000 0.26907  0.52723  0.95932  Biso   1.000  H
  H323     1.0000 0.25929  0.56725  0.99082  Biso   1.000  H
  O94      1.0000 0.20686  0.53998  0.06881  Biso   1.000  O
  C320     1.0000 0.15497  0.44083  0.12115  Biso   1.000  C
  N219     1.0000 0.03935  0.34286  0.08436  Biso   1.000  N
  H324     1.0000 0.03677  0.30343  0.02173  Biso   1.000  H
  H325     1.0000 0.08175  0.31082  0.05922  Biso   1.000  H
  N220     1.0000 0.03938  0.34286  0.08436  Biso   1.000  N
  H326     1.0000 0.08179  0.31082  0.05922  Biso   1.000  H
  C321     1.0000 0.13755  0.62484  0.79165  Biso   1.000  C
  C322     1.0000 0.05375  0.54954  0.78505  Biso   1.000  C
  C323     1.0000 0.13755  0.62484  0.79161  Biso   1.000  C
  C324     1.0000 0.05375  0.54954  0.78502  Biso   1.000  C
  C325     1.0000 0.13759  0.62484  0.79165  Biso   1.000  C
  C326     1.0000 0.05379  0.54954  0.78505  Biso   1.000  C
  C327     1.0000 0.13759  0.62484  0.79161  Biso   1.000  C
  C328     1.0000 0.05379  0.54954  0.78502  Biso   1.000  C
  N221     1.0000 0.16319  0.64448  0.84008  Biso   1.000  N
  H327     1.0000 0.23497  0.65782  0.82263  Biso   1.000  H
  H328     1.0000 0.23097  0.67573  0.87762  Biso   1.000  H
  N222     1.0000 0.10051  0.41584  0.13793  Biso   1.000  N
  H329     1.0000 0.17507  0.47503  0.13774  Biso   1.000  H
  H330     1.0000 0.17007  0.41914  0.13145  Biso   1.000  H
  H331     1.0000 0.17507  0.47503  0.13770  Biso   1.000  H
  C329     1.0000 0.98523  0.31917  0.08758  Biso   1.000  C
  C330     1.0000 0.98523  0.31917  0.08754  Biso   1.000  C
  C331     1.0000 0.06406  0.35943  0.13362  Biso   1.000  C
  H332     1.0000 0.16266  0.64042  0.76355  Biso   1.000  H
  C332     1.0000 0.09476  0.64164  0.79075  Biso   1.000  C
  H333     1.0000 0.16266  0.64042  0.76351  Biso   1.000  H
  C333     1.0000 0.09476  0.64164  0.79071  Biso   1.000  C
  C334     1.0000 0.09479  0.64164  0.79075  Biso   1.000  C
  C335     1.0000 0.09479  0.64164  0.79071  Biso   1.000  C
  N223     1.0000 0.04538  0.59150  0.79097  Biso   1.000  N
  O95      1.0000 0.01939  0.50345  0.77921  Biso   1.000  O
  N224     1.0000 0.04538  0.59150  0.79093  Biso   1.000  N
  O96      1.0000 0.01943  0.50345  0.77921  Biso   1.000  O
  C336     1.0000 0.14676  0.67605  0.86215  Biso   1.000  C
  C337     1.0000 0.14676  0.67605  0.86211  Biso   1.000  C
  C338     1.0000 0.08177  0.44012  0.16902  Biso   1.000  C
  C339     1.0000 0.08177  0.44012  0.16906  Biso   1.000  C
  O97      1.0000 0.95426  0.29595  0.05304  Biso   1.000  O
  N225     1.0000 0.97202  0.32547  0.13478  Biso   1.000  N
  O98      1.0000 0.95426  0.29595  0.05301  Biso   1.000  O
  C340     1.0000 0.01746  0.35022  0.16775  Biso   1.000  C
  H334     1.0000 0.08024  0.33842  0.14463  Biso   1.000  H
  C341     1.0000 0.01746  0.35022  0.16771  Biso   1.000  C
  H335     1.0000 0.08024  0.33842  0.14460  Biso   1.000  H
  H336     1.0000 0.08028  0.33842  0.14463  Biso   1.000  H
  H337     1.0000 0.08028  0.33842  0.14460  Biso   1.000  H
  N226     1.0000 0.10542  0.67286  0.83581  Biso   1.000  N
  H338     1.0000 0.09798  0.66254  0.76044  Biso   1.000  H
  H339     1.0000 0.09798  0.66254  0.76040  Biso   1.000  H
  C342     1.0000 0.99583  0.58737  0.77539  Biso   1.000  C
  C343     1.0000 0.99583  0.58737  0.77535  Biso   1.000  C
  O99      1.0000 0.16668  0.70312  0.90021  Biso   1.000  O
  O100     1.0000 0.10557  0.48684  0.18123  Biso   1.000  O
  N227     1.0000 0.03170  0.40344  0.18382  Biso   1.000  N
  O101     1.0000 0.10557  0.48684  0.18119  Biso   1.000  O
  O102     1.0000 0.10561  0.48684  0.18123  Biso   1.000  O
  N228     1.0000 0.03173  0.40344  0.18382  Biso   1.000  N
  O103     1.0000 0.10561  0.48684  0.18119  Biso   1.000  O
  C344     1.0000 0.91875  0.29528  0.15336  Biso   1.000  C
  C345     1.0000 0.91875  0.29528  0.15340  Biso   1.000  C
  H340     1.0000 0.01357  0.32743  0.19663  Biso   1.000  H
  H341     1.0000 0.01357  0.32743  0.19667  Biso   1.000  H
  C346     1.0000 0.08128  0.70474  0.84664  Biso   1.000  C
  C347     1.0000 0.08128  0.70474  0.84660  Biso   1.000  C
  H342     1.0000 0.00292  0.61307  0.74875  Biso   1.000  H
  N229     1.0000 0.96830  0.59658  0.81618  Biso   1.000  N
  H343     1.0000 0.97293  0.55226  0.76157  Biso   1.000  H
  N230     1.0000 0.96830  0.59658  0.81615  Biso   1.000  N
  C348     1.0000 0.00416  0.41265  0.22461  Biso   1.000  C
  C349     1.0000 0.00419  0.41265  0.22461  Biso   1.000  C
  N231     1.0000 0.89460  0.32716  0.16419  Biso   1.000  N
  H344     1.0000 0.91883  0.27698  0.18408  Biso   1.000  H
  H345     1.0000 0.89714  0.26855  0.12845  Biso   1.000  H
  N232     1.0000 0.89460  0.32716  0.16415  Biso   1.000  N
  N233     1.0000 0.02801  0.67455  0.86522  Biso   1.000  N
  H346     1.0000 0.08116  0.72304  0.81592  Biso   1.000  H
  H347     1.0000 0.10287  0.73142  0.87155  Biso   1.000  H
  N234     1.0000 0.02801  0.67455  0.86518  Biso   1.000  N
  H348     1.0000 0.10287  0.73142  0.87151  Biso   1.000  H
  H349     1.0000 0.08119  0.72304  0.81592  Biso   1.000  H
  C350     1.0000 0.91823  0.55985  0.83098  Biso   1.000  C
  C351     1.0000 0.98251  0.64975  0.83225  Biso   1.000  C
  C352     1.0000 0.91823  0.55985  0.83094  Biso   1.000  C
  C353     1.0000 0.98254  0.64975  0.83225  Biso   1.000  C
  N235     1.0000 0.95461  0.40852  0.20903  Biso   1.000  N
  H350     1.0000 0.99707  0.38695  0.25125  Biso   1.000  H
  H351     1.0000 0.02704  0.44772  0.23843  Biso   1.000  H
  H352     1.0000 0.02704  0.44772  0.23840  Biso   1.000  H
  H353     1.0000 0.02708  0.44772  0.23843  Biso   1.000  H
  H354     1.0000 0.02708  0.44772  0.23840  Biso   1.000  H
  C354     1.0000 0.85323  0.32397  0.13785  Biso   1.000  C
  C355     1.0000 0.90523  0.35837  0.20925  Biso   1.000  C
  C356     1.0000 0.01476  0.68085  0.91242  Biso   1.000  C
  C357     1.0000 0.01479  0.68085  0.91242  Biso   1.000  C
  O104     1.0000 0.89442  0.51317  0.81877  Biso   1.000  O
  N236     1.0000 0.89948  0.58418  0.86207  Biso   1.000  N
  N237     1.0000 0.89951  0.58418  0.86207  Biso   1.000  N
  H355     1.0000 0.98643  0.67258  0.80337  Biso   1.000  H
  C358     1.0000 0.93593  0.64058  0.86638  Biso   1.000  C
  H356     1.0000 0.98643  0.67258  0.80333  Biso   1.000  H
  C359     1.0000 0.93593  0.64058  0.86634  Biso   1.000  C
  H357     1.0000 0.98646  0.67258  0.80337  Biso   1.000  H
  H358     1.0000 0.98646  0.67258  0.80333  Biso   1.000  H
  C360     1.0000 0.94624  0.45047  0.21495  Biso   1.000  C
  O105     1.0000 0.83335  0.29689  0.09979  Biso   1.000  O
  N238     1.0000 0.83680  0.35554  0.15992  Biso   1.000  N
  N239     1.0000 0.83683  0.35554  0.15992  Biso   1.000  N
  C361     1.0000 0.86244  0.37518  0.20835  Biso   1.000  C
  H359     1.0000 0.90204  0.33747  0.23956  Biso   1.000  H
  H360     1.0000 0.90204  0.33747  0.23960  Biso   1.000  H
  O106     1.0000 0.04573  0.70407  0.94696  Biso   1.000  O
  O107     1.0000 0.04577  0.70407  0.94696  Biso   1.000  O
  N240     1.0000 0.96064  0.65715  0.91564  Biso   1.000  N
  C362     1.0000 0.84506  0.55919  0.87885  Biso   1.000  C
  H361     1.0000 0.91973  0.66156  0.85537  Biso   1.000  H
  O108     1.0000 0.98060  0.49656  0.22079  Biso   1.000  O
  N241     1.0000 0.89270  0.43154  0.21191  Biso   1.000  N
  C363     1.0000 0.78722  0.35215  0.14726  Biso   1.000  C
  C364     1.0000 0.78722  0.35215  0.14729  Biso   1.000  C
  H362     1.0000 0.83731  0.35955  0.23645  Biso   1.000  H
  H363     1.0000 0.83734  0.35955  0.23645  Biso   1.000  H
  C365     1.0000 0.93584  0.67156  0.95568  Biso   1.000  C
  C366     1.0000 0.93584  0.67156  0.95565  Biso   1.000  C
  N242     1.0000 0.83888  0.55120  0.93291  Biso   1.000  N
  H364     1.0000 0.82495  0.52498  0.86226  Biso   1.000  H
  H365     1.0000 0.82993  0.58087  0.86855  Biso   1.000  H
  N243     1.0000 0.83888  0.55120  0.93287  Biso   1.000  N
  C367     1.0000 0.86942  0.46366  0.22367  Biso   1.000  C
  C368     1.0000 0.86942  0.46366  0.22364  Biso   1.000  C
  N244     1.0000 0.79266  0.40060  0.12778  Biso   1.000  N
  N245     1.0000 0.79266  0.40060  0.12781  Biso   1.000  N
  H366     1.0000 0.76504  0.34216  0.17737  Biso   1.000  H
  H367     1.0000 0.76906  0.32429  0.12238  Biso   1.000  H
  H368     1.0000 0.76504  0.34216  0.17734  Biso   1.000  H
  H369     1.0000 0.76906  0.32429  0.12235  Biso   1.000  H
  N246     1.0000 0.89785  0.62653  0.98430  Biso   1.000  N
  H370     1.0000 0.96325  0.69659  0.97827  Biso   1.000  H
  H371     1.0000 0.91822  0.68915  0.94078  Biso   1.000  H
  H372     1.0000 0.96325  0.69659  0.97824  Biso   1.000  H
  H373     1.0000 0.91822  0.68915  0.94074  Biso   1.000  H
  N247     1.0000 0.89789  0.62653  0.98430  Biso   1.000  N
  C369     1.0000 0.80863  0.50207  0.95306  Biso   1.000  C
  C370     1.0000 0.84482  0.59288  0.96666  Biso   1.000  C
  C371     1.0000 0.84486  0.59288  0.96666  Biso   1.000  C
  N248     1.0000 0.84836  0.47716  0.18026  Biso   1.000  N
  N249     1.0000 0.84836  0.47716  0.18022  Biso   1.000  N
  H374     1.0000 0.89613  0.49629  0.23956  Biso   1.000  H
  H375     1.0000 0.84094  0.44488  0.24795  Biso   1.000  H
  H376     1.0000 0.89613  0.49629  0.23960  Biso   1.000  H
  H377     1.0000 0.89617  0.49629  0.23956  Biso   1.000  H
  H378     1.0000 0.89617  0.49629  0.23960  Biso   1.000  H
  C372     1.0000 0.77792  0.40427  0.07975  Biso   1.000  C
  C373     1.0000 0.79612  0.44256  0.15996  Biso   1.000  C
  C374     1.0000 0.90224  0.62385  0.03518  Biso   1.000  C
  O109     1.0000 0.79314  0.46000  0.93119  Biso   1.000  O
  N250     1.0000 0.79954  0.50770  0.00311  Biso   1.000  N
  N251     1.0000 0.79954  0.50770  0.00315  Biso   1.000  N
  H379     1.0000 0.82944  0.61338  0.95258  Biso   1.000  H
  H380     1.0000 0.82944  0.61338  0.95254  Biso   1.000  H
  C375     1.0000 0.81492  0.56198  0.01487  Biso   1.000  C
  C376     1.0000 0.81496  0.56198  0.01487  Biso   1.000  C
  C377     1.0000 0.87064  0.52719  0.16127  Biso   1.000  C
  C378     1.0000 0.87064  0.52719  0.16123  Biso   1.000  C
  N252     1.0000 0.77603  0.44984  0.07571  Biso   1.000  N
  N253     1.0000 0.77603  0.44984  0.07567  Biso   1.000  N
  O110     1.0000 0.76825  0.37156  0.04630  Biso   1.000  O
  O111     1.0000 0.76825  0.37156  0.04626  Biso   1.000  O
  C379     1.0000 0.78822  0.47858  0.12306  Biso   1.000  C
  C380     1.0000 0.78822  0.47858  0.12309  Biso   1.000  C
  C381     1.0000 0.78825  0.47858  0.12306  Biso   1.000  C
  C382     1.0000 0.78825  0.47858  0.12309  Biso   1.000  C
  H381     1.0000 0.76892  0.42867  0.18655  Biso   1.000  H
  H382     1.0000 0.76892  0.42867  0.18659  Biso   1.000  H
  O112     1.0000 0.94223  0.65113  0.06027  Biso   1.000  O
  N254     1.0000 0.85482  0.58587  0.05364  Biso   1.000  N
  O113     1.0000 0.94226  0.65113  0.06027  Biso   1.000  O
  C383     1.0000 0.75762  0.46366  0.03117  Biso   1.000  C
  H383     1.0000 0.78402  0.56596  0.02206  Biso   1.000  H
  N255     1.0000 0.83836  0.52766  0.12403  Biso   1.000  N
  N256     1.0000 0.83836  0.52766  0.12407  Biso   1.000  N
  O114     1.0000 0.91238  0.56505  0.17494  Biso   1.000  O
  H384     1.0000 0.75904  0.48397  0.13388  Biso   1.000  H
  C384     1.0000 0.84324  0.57627  0.10646  Biso   1.000  C
  H385     1.0000 0.73094  0.47275  0.04068  Biso   1.000  H
  H386     1.0000 0.74074  0.43276  0.00918  Biso   1.000  H
  H387     1.0000 0.74074  0.43276  0.00914  Biso   1.000  H
  H388     1.0000 0.87123  0.60547  0.12545  Biso   1.000  H
  H389     1.0000 0.81022  0.57595  0.11347  Biso   1.000  H
  H390     1.0000 0.81022  0.57595  0.11343  Biso   1.000  H
  C385     1.0000 0.15679  0.42375  0.89350  Biso   1.000  C
  N257     1.0000 0.16163  0.47236  0.87597  Biso   1.000  N
  N258     1.0000 0.16163  0.47236  0.87593  Biso   1.000  N
  N259     1.0000 0.16167  0.47236  0.87597  Biso   1.000  N
  N260     1.0000 0.16167  0.47236  0.87593  Biso   1.000  N
  H391     1.0000 0.18975  0.42402  0.88653  Biso   1.000  H
  N261     1.0000 0.14517  0.41414  0.94636  Biso   1.000  N
  N262     1.0000 0.14517  0.41414  0.94632  Biso   1.000  N
  H392     1.0000 0.12876  0.39454  0.87455  Biso   1.000  H
  H393     1.0000 0.12876  0.39454  0.87451  Biso   1.000  H
  H394     1.0000 0.12879  0.39454  0.87455  Biso   1.000  H
  H395     1.0000 0.12879  0.39454  0.87451  Biso   1.000  H
  C386     1.0000 0.12935  0.47283  0.83873  Biso   1.000  C
  C387     1.0000 0.12938  0.47283  0.83873  Biso   1.000  C
  C388     1.0000 0.21177  0.52144  0.87694  Biso   1.000  C
  C389     1.0000 0.21177  0.52144  0.87691  Biso   1.000  C
  C390     1.0000 0.15679  0.42375  0.89354  Biso   1.000  C
  C391     1.0000 0.18507  0.43804  0.98513  Biso   1.000  C
  C392     1.0000 0.09777  0.37612  0.96482  Biso   1.000  C
  N263     1.0000 0.15167  0.52286  0.81974  Biso   1.000  N
  O115     1.0000 0.08761  0.43497  0.82506  Biso   1.000  O
  O116     1.0000 0.08765  0.43497  0.82506  Biso   1.000  O
  C393     1.0000 0.20387  0.55745  0.84004  Biso   1.000  C
  C394     1.0000 0.20387  0.55745  0.84001  Biso   1.000  C
  N264     1.0000 0.22399  0.55017  0.92429  Biso   1.000  N
  H396     1.0000 0.24098  0.51605  0.86612  Biso   1.000  H
  N265     1.0000 0.20045  0.49231  0.99689  Biso   1.000  N
  N266     1.0000 0.20045  0.49231  0.99685  Biso   1.000  N
  N267     1.0000 0.20048  0.49231  0.99689  Biso   1.000  N
  N268     1.0000 0.20048  0.49231  0.99685  Biso   1.000  N
  H397     1.0000 0.21595  0.43402  0.97794  Biso   1.000  H
  H398     1.0000 0.21595  0.43402  0.97790  Biso   1.000  H
  C395     1.0000 0.15517  0.40714  0.03334  Biso   1.000  C
  C396     1.0000 0.15517  0.40714  0.03330  Biso   1.000  C
  O117     1.0000 0.05776  0.34889  0.93973  Biso   1.000  O
  O118     1.0000 0.05776  0.34889  0.93969  Biso   1.000  O
  N269     1.0000 0.10214  0.37349  0.01570  Biso   1.000  N
  N270     1.0000 0.10214  0.37349  0.01566  Biso   1.000  N
  C397     1.0000 0.13055  0.53632  0.77633  Biso   1.000  C
  N271     1.0000 0.20733  0.59941  0.87222  Biso   1.000  N
  H399     1.0000 0.23107  0.57135  0.81345  Biso   1.000  H
  N272     1.0000 0.20733  0.59941  0.87219  Biso   1.000  N
  H400     1.0000 0.23107  0.57135  0.81341  Biso   1.000  H
  C398     1.0000 0.22207  0.59575  0.92025  Biso   1.000  C
  C399     1.0000 0.22207  0.59575  0.92021  Biso   1.000  C
  C400     1.0000 0.24236  0.53632  0.96883  Biso   1.000  C
  C401     1.0000 0.19136  0.49794  0.04694  Biso   1.000  C
  C402     1.0000 0.19136  0.49794  0.04690  Biso   1.000  C
  N273     1.0000 0.16109  0.44878  0.06709  Biso   1.000  N
  H401     1.0000 0.17058  0.38663  0.04742  Biso   1.000  H
  N274     1.0000 0.16109  0.44878  0.06713  Biso   1.000  N
  C403     1.0000 0.06417  0.32842  0.04432  Biso   1.000  C
  N275     1.0000 0.10731  0.56844  0.78809  Biso   1.000  N
  H402     1.0000 0.10386  0.50373  0.76044  Biso   1.000  H
  H403     1.0000 0.15908  0.55513  0.75205  Biso   1.000  H
  N276     1.0000 0.10731  0.56844  0.78805  Biso   1.000  N
  H404     1.0000 0.10386  0.50373  0.76040  Biso   1.000  H
  H405     1.0000 0.15908  0.55513  0.75201  Biso   1.000  H
  C404     1.0000 0.21276  0.64782  0.85274  Biso   1.000  C
  C405     1.0000 0.21276  0.64782  0.85271  Biso   1.000  C
  O119     1.0000 0.23177  0.62846  0.95370  Biso   1.000  O
  H406     1.0000 0.26907  0.52723  0.95932  Biso   1.000  H
  H407     1.0000 0.25929  0.56725  0.99082  Biso   1.000  H
  O120     1.0000 0.20686  0.53998  0.06881  Biso   1.000  O
  C406     1.0000 0.15497  0.44083  0.12115  Biso   1.000  C
  N277     1.0000 0.03935  0.34286  0.08436  Biso   1.000  N
  H408     1.0000 0.03677  0.30343  0.02173  Biso   1.000  H
  H409     1.0000 0.08175  0.31082  0.05922  Biso   1.000  H
  N278     1.0000 0.03938  0.34286  0.08436  Biso   1.000  N
  H410     1.0000 0.08179  0.31082  0.05922  Biso   1.000  H
  C407     1.0000 0.13755  0.62484  0.79165  Biso   1.000  C
  C408     1.0000 0.05375  0.54954  0.78505  Biso   1.000  C
  C409     1.0000 0.13755  0.62484  0.79161  Biso   1.000  C
  C410     1.0000 0.05375  0.54954  0.78502  Biso   1.000  C
  C411     1.0000 0.13759  0.62484  0.79165  Biso   1.000  C
  C412     1.0000 0.05379  0.54954  0.78505  Biso   1.000  C
  C413     1.0000 0.13759  0.62484  0.79161  Biso   1.000  C
  C414     1.0000 0.05379  0.54954  0.78502  Biso   1.000  C
  N279     1.0000 0.16319  0.64448  0.84008  Biso   1.000  N
  H411     1.0000 0.23497  0.65782  0.82263  Biso   1.000  H
  H412     1.0000 0.23097  0.67573  0.87762  Biso   1.000  H
  N280     1.0000 0.10051  0.41584  0.13793  Biso   1.000  N
  H413     1.0000 0.17507  0.47503  0.13774  Biso   1.000  H
  H414     1.0000 0.17007  0.41914  0.13145  Biso   1.000  H
  H415     1.0000 0.17507  0.47503  0.13770  Biso   1.000  H
  C415     1.0000 0.98523  0.31917  0.08758  Biso   1.000  C
  C416     1.0000 0.98523  0.31917  0.08754  Biso   1.000  C
  C417     1.0000 0.06406  0.35943  0.13362  Biso   1.000  C
  H416     1.0000 0.16266  0.64042  0.76355  Biso   1.000  H
  H417     1.0000 0.16266  0.64042  0.76351  Biso   1.000  H
  C418     1.0000 0.09476  0.64164  0.79075  Biso   1.000  C
  C419     1.0000 0.09476  0.64164  0.79071  Biso   1.000  C
  C420     1.0000 0.09479  0.64164  0.79075  Biso   1.000  C
  C421     1.0000 0.09479  0.64164  0.79071  Biso   1.000  C
  O121     1.0000 0.01939  0.50345  0.77921  Biso   1.000  O
  N281     1.0000 0.04538  0.59150  0.79097  Biso   1.000  N
  N282     1.0000 0.04538  0.59150  0.79093  Biso   1.000  N
  O122     1.0000 0.01943  0.50345  0.77921  Biso   1.000  O
  C422     1.0000 0.14676  0.67605  0.86215  Biso   1.000  C
  C423     1.0000 0.14676  0.67605  0.86211  Biso   1.000  C
  C424     1.0000 0.08177  0.44012  0.16902  Biso   1.000  C
  C425     1.0000 0.08177  0.44012  0.16906  Biso   1.000  C
  O123     1.0000 0.95426  0.29595  0.05304  Biso   1.000  O
  N283     1.0000 0.97202  0.32547  0.13478  Biso   1.000  N
  O124     1.0000 0.95426  0.29595  0.05301  Biso   1.000  O
  C426     1.0000 0.01746  0.35022  0.16775  Biso   1.000  C
  H418     1.0000 0.08024  0.33842  0.14463  Biso   1.000  H
  C427     1.0000 0.01746  0.35022  0.16771  Biso   1.000  C
  H419     1.0000 0.08024  0.33842  0.14460  Biso   1.000  H
  H420     1.0000 0.08028  0.33842  0.14463  Biso   1.000  H
  H421     1.0000 0.08028  0.33842  0.14460  Biso   1.000  H
  N284     1.0000 0.10542  0.67286  0.83581  Biso   1.000  N
  H422     1.0000 0.09798  0.66254  0.76044  Biso   1.000  H
  H423     1.0000 0.09798  0.66254  0.76040  Biso   1.000  H
  C428     1.0000 0.99583  0.58737  0.77539  Biso   1.000  C
  C429     1.0000 0.99583  0.58737  0.77535  Biso   1.000  C
  O125     1.0000 0.16668  0.70312  0.90021  Biso   1.000  O
  O126     1.0000 0.10557  0.48684  0.18123  Biso   1.000  O
  N285     1.0000 0.03170  0.40344  0.18382  Biso   1.000  N
  O127     1.0000 0.10557  0.48684  0.18119  Biso   1.000  O
  O128     1.0000 0.10561  0.48684  0.18123  Biso   1.000  O
  N286     1.0000 0.03173  0.40344  0.18382  Biso   1.000  N
  O129     1.0000 0.10561  0.48684  0.18119  Biso   1.000  O
  C430     1.0000 0.91875  0.29528  0.15336  Biso   1.000  C
  C431     1.0000 0.91875  0.29528  0.15340  Biso   1.000  C
  H424     1.0000 0.01357  0.32743  0.19663  Biso   1.000  H
  H425     1.0000 0.01357  0.32743  0.19667  Biso   1.000  H
  C432     1.0000 0.08128  0.70474  0.84664  Biso   1.000  C
  C433     1.0000 0.08128  0.70474  0.84660  Biso   1.000  C
  H426     1.0000 0.00292  0.61307  0.74875  Biso   1.000  H
  N287     1.0000 0.96830  0.59658  0.81618  Biso   1.000  N
  H427     1.0000 0.97293  0.55226  0.76157  Biso   1.000  H
  N288     1.0000 0.96830  0.59658  0.81615  Biso   1.000  N
  C434     1.0000 0.00416  0.41265  0.22461  Biso   1.000  C
  C435     1.0000 0.00419  0.41265  0.22461  Biso   1.000  C
  N289     1.0000 0.89460  0.32716  0.16419  Biso   1.000  N
  H428     1.0000 0.91883  0.27698  0.18408  Biso   1.000  H
  H429     1.0000 0.89714  0.26855  0.12845  Biso   1.000  H
  N290     1.0000 0.89460  0.32716  0.16415  Biso   1.000  N
  H430     1.0000 0.08116  0.72304  0.81592  Biso   1.000  H
  N291     1.0000 0.02801  0.67455  0.86522  Biso   1.000  N
  H431     1.0000 0.10287  0.73142  0.87155  Biso   1.000  H
  N292     1.0000 0.02801  0.67455  0.86518  Biso   1.000  N
  H432     1.0000 0.08119  0.72304  0.81592  Biso   1.000  H
  H433     1.0000 0.10287  0.73142  0.87151  Biso   1.000  H
  C436     1.0000 0.91823  0.55985  0.83098  Biso   1.000  C
  C437     1.0000 0.98251  0.64975  0.83225  Biso   1.000  C
  C438     1.0000 0.91823  0.55985  0.83094  Biso   1.000  C
  C439     1.0000 0.98254  0.64975  0.83225  Biso   1.000  C
  N293     1.0000 0.95461  0.40852  0.20903  Biso   1.000  N
  H434     1.0000 0.99707  0.38695  0.25125  Biso   1.000  H
  H435     1.0000 0.02704  0.44772  0.23843  Biso   1.000  H
  H436     1.0000 0.02704  0.44772  0.23840  Biso   1.000  H
  H437     1.0000 0.02708  0.44772  0.23843  Biso   1.000  H
  H438     1.0000 0.02708  0.44772  0.23840  Biso   1.000  H
  C440     1.0000 0.85323  0.32397  0.13785  Biso   1.000  C
  C441     1.0000 0.90523  0.35837  0.20925  Biso   1.000  C
  C442     1.0000 0.01476  0.68085  0.91242  Biso   1.000  C
  C443     1.0000 0.01479  0.68085  0.91242  Biso   1.000  C
  O130     1.0000 0.89442  0.51317  0.81877  Biso   1.000  O
  N294     1.0000 0.89948  0.58418  0.86207  Biso   1.000  N
  N295     1.0000 0.89951  0.58418  0.86207  Biso   1.000  N
  H439     1.0000 0.98643  0.67258  0.80337  Biso   1.000  H
  C444     1.0000 0.93593  0.64058  0.86638  Biso   1.000  C
  H440     1.0000 0.98643  0.67258  0.80333  Biso   1.000  H
  C445     1.0000 0.93593  0.64058  0.86634  Biso   1.000  C
  H441     1.0000 0.98646  0.67258  0.80337  Biso   1.000  H
  H442     1.0000 0.98646  0.67258  0.80333  Biso   1.000  H
  C446     1.0000 0.94624  0.45047  0.21495  Biso   1.000  C
  O131     1.0000 0.83335  0.29689  0.09979  Biso   1.000  O
  N296     1.0000 0.83680  0.35554  0.15992  Biso   1.000  N
  N297     1.0000 0.83683  0.35554  0.15992  Biso   1.000  N
  C447     1.0000 0.86244  0.37518  0.20835  Biso   1.000  C
  H443     1.0000 0.90204  0.33747  0.23956  Biso   1.000  H
  H444     1.0000 0.90204  0.33747  0.23960  Biso   1.000  H
  O132     1.0000 0.04573  0.70407  0.94696  Biso   1.000  O
  O133     1.0000 0.04577  0.70407  0.94696  Biso   1.000  O
  N298     1.0000 0.96064  0.65715  0.91564  Biso   1.000  N
  C448     1.0000 0.84506  0.55919  0.87885  Biso   1.000  C
  H445     1.0000 0.91973  0.66156  0.85537  Biso   1.000  H
  O134     1.0000 0.98060  0.49656  0.22079  Biso   1.000  O
  N299     1.0000 0.89270  0.43154  0.21191  Biso   1.000  N
  C449     1.0000 0.78722  0.35215  0.14726  Biso   1.000  C
  C450     1.0000 0.78722  0.35215  0.14729  Biso   1.000  C
  H446     1.0000 0.83731  0.35955  0.23645  Biso   1.000  H
  H447     1.0000 0.83734  0.35955  0.23645  Biso   1.000  H
  C451     1.0000 0.93584  0.67156  0.95568  Biso   1.000  C
  C452     1.0000 0.93584  0.67156  0.95565  Biso   1.000  C
  N300     1.0000 0.83888  0.55120  0.93291  Biso   1.000  N
  H448     1.0000 0.82495  0.52498  0.86226  Biso   1.000  H
  H449     1.0000 0.82993  0.58087  0.86855  Biso   1.000  H
  N301     1.0000 0.83888  0.55120  0.93287  Biso   1.000  N
  C453     1.0000 0.86942  0.46366  0.22367  Biso   1.000  C
  C454     1.0000 0.86942  0.46366  0.22364  Biso   1.000  C
  N302     1.0000 0.79266  0.40060  0.12778  Biso   1.000  N
  N303     1.0000 0.79266  0.40060  0.12781  Biso   1.000  N
  H450     1.0000 0.76504  0.34216  0.17737  Biso   1.000  H
  H451     1.0000 0.76906  0.32429  0.12238  Biso   1.000  H
  H452     1.0000 0.76504  0.34216  0.17734  Biso   1.000  H
  H453     1.0000 0.76906  0.32429  0.12235  Biso   1.000  H
  N304     1.0000 0.89785  0.62653  0.98430  Biso   1.000  N
  H454     1.0000 0.96325  0.69659  0.97827  Biso   1.000  H
  H455     1.0000 0.91822  0.68915  0.94078  Biso   1.000  H
  H456     1.0000 0.96325  0.69659  0.97824  Biso   1.000  H
  H457     1.0000 0.91822  0.68915  0.94074  Biso   1.000  H
  N305     1.0000 0.89789  0.62653  0.98430  Biso   1.000  N
  C455     1.0000 0.80863  0.50207  0.95306  Biso   1.000  C
  C456     1.0000 0.84482  0.59288  0.96666  Biso   1.000  C
  C457     1.0000 0.84486  0.59288  0.96666  Biso   1.000  C
  N306     1.0000 0.84836  0.47716  0.18026  Biso   1.000  N
  N307     1.0000 0.84836  0.47716  0.18022  Biso   1.000  N
  H458     1.0000 0.89613  0.49629  0.23956  Biso   1.000  H
  H459     1.0000 0.84094  0.44488  0.24795  Biso   1.000  H
  H460     1.0000 0.89613  0.49629  0.23960  Biso   1.000  H
  H461     1.0000 0.89617  0.49629  0.23956  Biso   1.000  H
  H462     1.0000 0.89617  0.49629  0.23960  Biso   1.000  H
  C458     1.0000 0.77792  0.40427  0.07975  Biso   1.000  C
  C459     1.0000 0.79612  0.44256  0.15996  Biso   1.000  C
  C460     1.0000 0.90224  0.62385  0.03518  Biso   1.000  C
  O135     1.0000 0.79314  0.46000  0.93119  Biso   1.000  O
  N308     1.0000 0.79954  0.50770  0.00311  Biso   1.000  N
  N309     1.0000 0.79954  0.50770  0.00315  Biso   1.000  N
  H463     1.0000 0.82944  0.61338  0.95258  Biso   1.000  H
  H464     1.0000 0.82944  0.61338  0.95254  Biso   1.000  H
  C461     1.0000 0.81492  0.56198  0.01487  Biso   1.000  C
  C462     1.0000 0.81496  0.56198  0.01487  Biso   1.000  C
  C463     1.0000 0.87064  0.52719  0.16127  Biso   1.000  C
  C464     1.0000 0.87064  0.52719  0.16123  Biso   1.000  C
  N310     1.0000 0.77603  0.44984  0.07571  Biso   1.000  N
  N311     1.0000 0.77603  0.44984  0.07567  Biso   1.000  N
  O136     1.0000 0.76825  0.37156  0.04630  Biso   1.000  O
  O137     1.0000 0.76825  0.37156  0.04626  Biso   1.000  O
  C465     1.0000 0.78822  0.47858  0.12306  Biso   1.000  C
  C466     1.0000 0.78822  0.47858  0.12309  Biso   1.000  C
  C467     1.0000 0.78825  0.47858  0.12306  Biso   1.000  C
  C468     1.0000 0.78825  0.47858  0.12309  Biso   1.000  C
  H465     1.0000 0.76892  0.42867  0.18655  Biso   1.000  H
  H466     1.0000 0.76892  0.42867  0.18659  Biso   1.000  H
  O138     1.0000 0.94223  0.65113  0.06027  Biso   1.000  O
  N312     1.0000 0.85482  0.58587  0.05364  Biso   1.000  N
  O139     1.0000 0.94226  0.65113  0.06027  Biso   1.000  O
  C469     1.0000 0.75762  0.46366  0.03117  Biso   1.000  C
  H467     1.0000 0.78402  0.56596  0.02206  Biso   1.000  H
  N313     1.0000 0.83836  0.52766  0.12403  Biso   1.000  N
  N314     1.0000 0.83836  0.52766  0.12407  Biso   1.000  N
  O140     1.0000 0.91238  0.56505  0.17494  Biso   1.000  O
  H468     1.0000 0.75904  0.48397  0.13388  Biso   1.000  H
  C470     1.0000 0.84324  0.57627  0.10646  Biso   1.000  C
  H469     1.0000 0.73094  0.47275  0.04068  Biso   1.000  H
  H470     1.0000 0.74074  0.43276  0.00918  Biso   1.000  H
  H471     1.0000 0.74074  0.43276  0.00914  Biso   1.000  H
  H472     1.0000 0.87123  0.60547  0.12545  Biso   1.000  H
  H473     1.0000 0.81022  0.57595  0.11347  Biso   1.000  H
  H474     1.0000 0.81022  0.57595  0.11343  Biso   1.000  H
  C471     1.0000 0.15679  0.42375  0.89350  Biso   1.000  C
  N315     1.0000 0.16163  0.47236  0.87597  Biso   1.000  N
  N316     1.0000 0.16163  0.47236  0.87593  Biso   1.000  N
  N317     1.0000 0.16167  0.47236  0.87597  Biso   1.000  N
  N318     1.0000 0.16167  0.47236  0.87593  Biso   1.000  N
  H475     1.0000 0.18975  0.42402  0.88653  Biso   1.000  H
  N319     1.0000 0.14517  0.41414  0.94636  Biso   1.000  N
  H476     1.0000 0.12876  0.39454  0.87455  Biso   1.000  H
  N320     1.0000 0.14517  0.41414  0.94632  Biso   1.000  N
  H477     1.0000 0.12876  0.39454  0.87451  Biso   1.000  H
  H478     1.0000 0.12879  0.39454  0.87455  Biso   1.000  H
  H479     1.0000 0.12879  0.39454  0.87451  Biso   1.000  H
  C472     1.0000 0.12935  0.47283  0.83873  Biso   1.000  C
  C473     1.0000 0.12938  0.47283  0.83873  Biso   1.000  C
  C474     1.0000 0.21177  0.52144  0.87694  Biso   1.000  C
  C475     1.0000 0.21177  0.52144  0.87691  Biso   1.000  C
  C476     1.0000 0.15679  0.42375  0.89354  Biso   1.000  C
  C477     1.0000 0.18507  0.43804  0.98513  Biso   1.000  C
  C478     1.0000 0.09777  0.37612  0.96482  Biso   1.000  C
  N321     1.0000 0.15167  0.52286  0.81974  Biso   1.000  N
  O141     1.0000 0.08761  0.43497  0.82506  Biso   1.000  O
  O142     1.0000 0.08765  0.43497  0.82506  Biso   1.000  O
  C479     1.0000 0.20387  0.55745  0.84004  Biso   1.000  C
  C480     1.0000 0.20387  0.55745  0.84001  Biso   1.000  C
  N322     1.0000 0.22399  0.55017  0.92429  Biso   1.000  N
  H480     1.0000 0.24098  0.51605  0.86612  Biso   1.000  H
  N323     1.0000 0.20045  0.49231  0.99689  Biso   1.000  N
  N324     1.0000 0.20045  0.49231  0.99685  Biso   1.000  N
  N325     1.0000 0.20048  0.49231  0.99689  Biso   1.000  N
  N326     1.0000 0.20048  0.49231  0.99685  Biso   1.000  N
  H481     1.0000 0.21595  0.43402  0.97794  Biso   1.000  H
  H482     1.0000 0.21595  0.43402  0.97790  Biso   1.000  H
  C481     1.0000 0.15517  0.40714  0.03334  Biso   1.000  C
  C482     1.0000 0.15517  0.40714  0.03330  Biso   1.000  C
  O143     1.0000 0.05776  0.34889  0.93973  Biso   1.000  O
  O144     1.0000 0.05776  0.34889  0.93969  Biso   1.000  O
  N327     1.0000 0.10214  0.37349  0.01570  Biso   1.000  N
  N328     1.0000 0.10214  0.37349  0.01566  Biso   1.000  N
  C483     1.0000 0.13055  0.53632  0.77633  Biso   1.000  C
  N329     1.0000 0.20733  0.59941  0.87222  Biso   1.000  N
  H483     1.0000 0.23107  0.57135  0.81345  Biso   1.000  H
  N330     1.0000 0.20733  0.59941  0.87219  Biso   1.000  N
  H484     1.0000 0.23107  0.57135  0.81341  Biso   1.000  H
  C484     1.0000 0.22207  0.59575  0.92025  Biso   1.000  C
  C485     1.0000 0.22207  0.59575  0.92021  Biso   1.000  C
  C486     1.0000 0.24236  0.53632  0.96883  Biso   1.000  C
  C487     1.0000 0.19136  0.49794  0.04694  Biso   1.000  C
  C488     1.0000 0.19136  0.49794  0.04690  Biso   1.000  C
  N331     1.0000 0.16109  0.44878  0.06709  Biso   1.000  N
  N332     1.0000 0.16109  0.44878  0.06713  Biso   1.000  N
  H485     1.0000 0.17058  0.38663  0.04742  Biso   1.000  H
  C489     1.0000 0.06417  0.32842  0.04432  Biso   1.000  C
  N333     1.0000 0.10731  0.56844  0.78809  Biso   1.000  N
  H486     1.0000 0.10386  0.50373  0.76044  Biso   1.000  H
  H487     1.0000 0.15908  0.55513  0.75205  Biso   1.000  H
  N334     1.0000 0.10731  0.56844  0.78805  Biso   1.000  N
  H488     1.0000 0.10386  0.50373  0.76040  Biso   1.000  H
  H489     1.0000 0.15908  0.55513  0.75201  Biso   1.000  H
  C490     1.0000 0.21276  0.64782  0.85274  Biso   1.000  C
  C491     1.0000 0.21276  0.64782  0.85271  Biso   1.000  C
  O145     1.0000 0.23177  0.62846  0.95370  Biso   1.000  O
  H490     1.0000 0.26907  0.52723  0.95932  Biso   1.000  H
  H491     1.0000 0.25929  0.56725  0.99082  Biso   1.000  H
  O146     1.0000 0.20686  0.53998  0.06881  Biso   1.000  O
  C492     1.0000 0.15497  0.44083  0.12115  Biso   1.000  C
  N335     1.0000 0.03935  0.34286  0.08436  Biso   1.000  N
  H492     1.0000 0.03677  0.30343  0.02173  Biso   1.000  H
  H493     1.0000 0.08175  0.31082  0.05922  Biso   1.000  H
  N336     1.0000 0.03938  0.34286  0.08436  Biso   1.000  N
  H494     1.0000 0.08179  0.31082  0.05922  Biso   1.000  H
  C493     1.0000 0.13755  0.62484  0.79165  Biso   1.000  C
  C494     1.0000 0.05375  0.54954  0.78505  Biso   1.000  C
  C495     1.0000 0.13755  0.62484  0.79161  Biso   1.000  C
  C496     1.0000 0.05375  0.54954  0.78502  Biso   1.000  C
  C497     1.0000 0.13759  0.62484  0.79165  Biso   1.000  C
  C498     1.0000 0.05379  0.54954  0.78505  Biso   1.000  C
  C499     1.0000 0.13759  0.62484  0.79161  Biso   1.000  C
  C500     1.0000 0.05379  0.54954  0.78502  Biso   1.000  C
  N337     1.0000 0.16319  0.64448  0.84008  Biso   1.000  N
  H495     1.0000 0.23497  0.65782  0.82263  Biso   1.000  H
  H496     1.0000 0.23097  0.67573  0.87762  Biso   1.000  H
  N338     1.0000 0.10051  0.41584  0.13793  Biso   1.000  N
  H497     1.0000 0.17507  0.47503  0.13774  Biso   1.000  H
  H498     1.0000 0.17007  0.41914  0.13145  Biso   1.000  H
  H499     1.0000 0.17507  0.47503  0.13770  Biso   1.000  H
  C501     1.0000 0.98523  0.31917  0.08758  Biso   1.000  C
  C502     1.0000 0.98523  0.31917  0.08754  Biso   1.000  C
  C503     1.0000 0.06406  0.35943  0.13362  Biso   1.000  C
  H500     1.0000 0.16266  0.64042  0.76355  Biso   1.000  H
  C504     1.0000 0.09476  0.64164  0.79075  Biso   1.000  C
  H501     1.0000 0.16266  0.64042  0.76351  Biso   1.000  H
  C505     1.0000 0.09476  0.64164  0.79071  Biso   1.000  C
  C506     1.0000 0.09479  0.64164  0.79075  Biso   1.000  C
  C507     1.0000 0.09479  0.64164  0.79071  Biso   1.000  C
  N339     1.0000 0.04538  0.59150  0.79097  Biso   1.000  N
  O147     1.0000 0.01939  0.50345  0.77921  Biso   1.000  O
  N340     1.0000 0.04538  0.59150  0.79093  Biso   1.000  N
  O148     1.0000 0.01943  0.50345  0.77921  Biso   1.000  O
  C508     1.0000 0.14676  0.67605  0.86215  Biso   1.000  C
  C509     1.0000 0.14676  0.67605  0.86211  Biso   1.000  C
  C510     1.0000 0.08177  0.44012  0.16902  Biso   1.000  C
  C511     1.0000 0.08177  0.44012  0.16906  Biso   1.000  C
  O149     1.0000 0.95426  0.29595  0.05304  Biso   1.000  O
  N341     1.0000 0.97202  0.32547  0.13478  Biso   1.000  N
  O150     1.0000 0.95426  0.29595  0.05301  Biso   1.000  O
  C512     1.0000 0.01746  0.35022  0.16775  Biso   1.000  C
  H502     1.0000 0.08024  0.33842  0.14463  Biso   1.000  H
  C513     1.0000 0.01746  0.35022  0.16771  Biso   1.000  C
  H503     1.0000 0.08024  0.33842  0.14460  Biso   1.000  H
  H504     1.0000 0.08028  0.33842  0.14463  Biso   1.000  H
  H505     1.0000 0.08028  0.33842  0.14460  Biso   1.000  H
  N342     1.0000 0.10542  0.67286  0.83581  Biso   1.000  N
  H506     1.0000 0.09798  0.66254  0.76044  Biso   1.000  H
  H507     1.0000 0.09798  0.66254  0.76040  Biso   1.000  H
  C514     1.0000 0.99583  0.58737  0.77539  Biso   1.000  C
  C515     1.0000 0.99583  0.58737  0.77535  Biso   1.000  C
  O151     1.0000 0.16668  0.70312  0.90021  Biso   1.000  O
  O152     1.0000 0.10557  0.48684  0.18123  Biso   1.000  O
  N343     1.0000 0.03170  0.40344  0.18382  Biso   1.000  N
  O153     1.0000 0.10557  0.48684  0.18119  Biso   1.000  O
  O154     1.0000 0.10561  0.48684  0.18123  Biso   1.000  O
  N344     1.0000 0.03173  0.40344  0.18382  Biso   1.000  N
  O155     1.0000 0.10561  0.48684  0.18119  Biso   1.000  O
  C516     1.0000 0.91875  0.29528  0.15336  Biso   1.000  C
  C517     1.0000 0.91875  0.29528  0.15340  Biso   1.000  C
  H508     1.0000 0.01357  0.32743  0.19663  Biso   1.000  H
  H509     1.0000 0.01357  0.32743  0.19667  Biso   1.000  H
  C518     1.0000 0.08128  0.70474  0.84664  Biso   1.000  C
  C519     1.0000 0.08128  0.70474  0.84660  Biso   1.000  C
  H510     1.0000 0.00292  0.61307  0.74875  Biso   1.000  H
  N345     1.0000 0.96830  0.59658  0.81618  Biso   1.000  N
  H511     1.0000 0.97293  0.55226  0.76157  Biso   1.000  H
  N346     1.0000 0.96830  0.59658  0.81615  Biso   1.000  N
  C520     1.0000 0.00416  0.41265  0.22461  Biso   1.000  C
  C521     1.0000 0.00419  0.41265  0.22461  Biso   1.000  C
  N347     1.0000 0.89460  0.32716  0.16419  Biso   1.000  N
  H512     1.0000 0.91883  0.27698  0.18408  Biso   1.000  H
  H513     1.0000 0.89714  0.26855  0.12845  Biso   1.000  H
  N348     1.0000 0.89460  0.32716  0.16415  Biso   1.000  N
  N349     1.0000 0.02801  0.67455  0.86522  Biso   1.000  N
  H514     1.0000 0.08116  0.72304  0.81592  Biso   1.000  H
  H515     1.0000 0.10287  0.73142  0.87155  Biso   1.000  H
  N350     1.0000 0.02801  0.67455  0.86518  Biso   1.000  N
  H516     1.0000 0.10287  0.73142  0.87151  Biso   1.000  H
  H517     1.0000 0.08119  0.72304  0.81592  Biso   1.000  H
  C522     1.0000 0.91823  0.55985  0.83098  Biso   1.000  C
  C523     1.0000 0.98251  0.64975  0.83225  Biso   1.000  C
  C524     1.0000 0.91823  0.55985  0.83094  Biso   1.000  C
  C525     1.0000 0.98254  0.64975  0.83225  Biso   1.000  C
  N351     1.0000 0.95461  0.40852  0.20903  Biso   1.000  N
  H518     1.0000 0.99707  0.38695  0.25125  Biso   1.000  H
  H519     1.0000 0.02704  0.44772  0.23843  Biso   1.000  H
  H520     1.0000 0.02704  0.44772  0.23840  Biso   1.000  H
  H521     1.0000 0.02708  0.44772  0.23843  Biso   1.000  H
  H522     1.0000 0.02708  0.44772  0.23840  Biso   1.000  H
  C526     1.0000 0.85323  0.32397  0.13785  Biso   1.000  C
  C527     1.0000 0.90523  0.35837  0.20925  Biso   1.000  C
  C528     1.0000 0.01476  0.68085  0.91242  Biso   1.000  C
  C529     1.0000 0.01479  0.68085  0.91242  Biso   1.000  C
  O156     1.0000 0.89442  0.51317  0.81877  Biso   1.000  O
  N352     1.0000 0.89948  0.58418  0.86207  Biso   1.000  N
  N353     1.0000 0.89951  0.58418  0.86207  Biso   1.000  N
  H523     1.0000 0.98643  0.67258  0.80337  Biso   1.000  H
  C530     1.0000 0.93593  0.64058  0.86638  Biso   1.000  C
  H524     1.0000 0.98643  0.67258  0.80333  Biso   1.000  H
  C531     1.0000 0.93593  0.64058  0.86634  Biso   1.000  C
  H525     1.0000 0.98646  0.67258  0.80337  Biso   1.000  H
  H526     1.0000 0.98646  0.67258  0.80333  Biso   1.000  H
  C532     1.0000 0.94624  0.45047  0.21495  Biso   1.000  C
  O157     1.0000 0.83335  0.29689  0.09979  Biso   1.000  O
  N354     1.0000 0.83680  0.35554  0.15992  Biso   1.000  N
  N355     1.0000 0.83683  0.35554  0.15992  Biso   1.000  N
  C533     1.0000 0.86244  0.37518  0.20835  Biso   1.000  C
  H527     1.0000 0.90204  0.33747  0.23956  Biso   1.000  H
  H528     1.0000 0.90204  0.33747  0.23960  Biso   1.000  H
  N356     1.0000 0.96064  0.65715  0.91564  Biso   1.000  N
  O158     1.0000 0.04573  0.70407  0.94696  Biso   1.000  O
  O159     1.0000 0.04577  0.70407  0.94696  Biso   1.000  O
  C534     1.0000 0.84506  0.55919  0.87885  Biso   1.000  C
  H529     1.0000 0.91973  0.66156  0.85537  Biso   1.000  H
  O160     1.0000 0.98060  0.49656  0.22079  Biso   1.000  O
  N357     1.0000 0.89270  0.43154  0.21191  Biso   1.000  N
  C535     1.0000 0.78722  0.35215  0.14726  Biso   1.000  C
  C536     1.0000 0.78722  0.35215  0.14729  Biso   1.000  C
  H530     1.0000 0.83731  0.35955  0.23645  Biso   1.000  H
  H531     1.0000 0.83734  0.35955  0.23645  Biso   1.000  H
  C537     1.0000 0.93584  0.67156  0.95568  Biso   1.000  C
  C538     1.0000 0.93584  0.67156  0.95565  Biso   1.000  C
  N358     1.0000 0.83888  0.55120  0.93291  Biso   1.000  N
  H532     1.0000 0.82495  0.52498  0.86226  Biso   1.000  H
  H533     1.0000 0.82993  0.58087  0.86855  Biso   1.000  H
  N359     1.0000 0.83888  0.55120  0.93287  Biso   1.000  N
  C539     1.0000 0.86942  0.46366  0.22367  Biso   1.000  C
  C540     1.0000 0.86942  0.46366  0.22364  Biso   1.000  C
  N360     1.0000 0.79266  0.40060  0.12778  Biso   1.000  N
  N361     1.0000 0.79266  0.40060  0.12781  Biso   1.000  N
  H534     1.0000 0.76504  0.34216  0.17737  Biso   1.000  H
  H535     1.0000 0.76906  0.32429  0.12238  Biso   1.000  H
  H536     1.0000 0.76504  0.34216  0.17734  Biso   1.000  H
  H537     1.0000 0.76906  0.32429  0.12235  Biso   1.000  H
  N362     1.0000 0.89785  0.62653  0.98430  Biso   1.000  N
  H538     1.0000 0.96325  0.69659  0.97827  Biso   1.000  H
  H539     1.0000 0.91822  0.68915  0.94078  Biso   1.000  H
  H540     1.0000 0.96325  0.69659  0.97824  Biso   1.000  H
  H541     1.0000 0.91822  0.68915  0.94074  Biso   1.000  H
  N363     1.0000 0.89789  0.62653  0.98430  Biso   1.000  N
  C541     1.0000 0.80863  0.50207  0.95306  Biso   1.000  C
  C542     1.0000 0.84482  0.59288  0.96666  Biso   1.000  C
  C543     1.0000 0.84486  0.59288  0.96666  Biso   1.000  C
  N364     1.0000 0.84836  0.47716  0.18026  Biso   1.000  N
  N365     1.0000 0.84836  0.47716  0.18022  Biso   1.000  N
  H542     1.0000 0.89613  0.49629  0.23956  Biso   1.000  H
  H543     1.0000 0.84094  0.44488  0.24795  Biso   1.000  H
  H544     1.0000 0.89613  0.49629  0.23960  Biso   1.000  H
  H545     1.0000 0.89617  0.49629  0.23956  Biso   1.000  H
  H546     1.0000 0.89617  0.49629  0.23960  Biso   1.000  H
  C544     1.0000 0.77792  0.40427  0.07975  Biso   1.000  C
  C545     1.0000 0.79612  0.44256  0.15996  Biso   1.000  C
  C546     1.0000 0.90224  0.62385  0.03518  Biso   1.000  C
  O161     1.0000 0.79314  0.46000  0.93119  Biso   1.000  O
  N366     1.0000 0.79954  0.50770  0.00311  Biso   1.000  N
  N367     1.0000 0.79954  0.50770  0.00315  Biso   1.000  N
  H547     1.0000 0.82944  0.61338  0.95258  Biso   1.000  H
  H548     1.0000 0.82944  0.61338  0.95254  Biso   1.000  H
  C547     1.0000 0.81492  0.56198  0.01487  Biso   1.000  C
  C548     1.0000 0.81496  0.56198  0.01487  Biso   1.000  C
  C549     1.0000 0.87064  0.52719  0.16127  Biso   1.000  C
  C550     1.0000 0.87064  0.52719  0.16123  Biso   1.000  C
  N368     1.0000 0.77603  0.44984  0.07571  Biso   1.000  N
  N369     1.0000 0.77603  0.44984  0.07567  Biso   1.000  N
  O162     1.0000 0.76825  0.37156  0.04630  Biso   1.000  O
  O163     1.0000 0.76825  0.37156  0.04626  Biso   1.000  O
  C551     1.0000 0.78822  0.47858  0.12306  Biso   1.000  C
  C552     1.0000 0.78822  0.47858  0.12309  Biso   1.000  C
  C553     1.0000 0.78825  0.47858  0.12306  Biso   1.000  C
  C554     1.0000 0.78825  0.47858  0.12309  Biso   1.000  C
  H549     1.0000 0.76892  0.42867  0.18655  Biso   1.000  H
  H550     1.0000 0.76892  0.42867  0.18659  Biso   1.000  H
  O164     1.0000 0.94223  0.65113  0.06027  Biso   1.000  O
  N370     1.0000 0.85482  0.58587  0.05364  Biso   1.000  N
  O165     1.0000 0.94226  0.65113  0.06027  Biso   1.000  O
  C555     1.0000 0.75762  0.46366  0.03117  Biso   1.000  C
  H551     1.0000 0.78402  0.56596  0.02206  Biso   1.000  H
  N371     1.0000 0.83836  0.52766  0.12403  Biso   1.000  N
  N372     1.0000 0.83836  0.52766  0.12407  Biso   1.000  N
  O166     1.0000 0.91238  0.56505  0.17494  Biso   1.000  O
  H552     1.0000 0.75904  0.48397  0.13388  Biso   1.000  H
  C556     1.0000 0.84324  0.57627  0.10646  Biso   1.000  C
  H553     1.0000 0.73094  0.47275  0.04068  Biso   1.000  H
  H554     1.0000 0.74074  0.43276  0.00918  Biso   1.000  H
  H555     1.0000 0.74074  0.43276  0.00914  Biso   1.000  H
  H556     1.0000 0.87123  0.60547  0.12545  Biso   1.000  H
  H557     1.0000 0.81022  0.57595  0.11347  Biso   1.000  H
  H558     1.0000 0.81022  0.57595  0.11343  Biso   1.000  H
  C557     1.0000 0.15679  0.42375  0.89350  Biso   1.000  C
  N373     1.0000 0.16163  0.47236  0.87597  Biso   1.000  N
  N374     1.0000 0.16163  0.47236  0.87593  Biso   1.000  N
  N375     1.0000 0.16167  0.47236  0.87597  Biso   1.000  N
  N376     1.0000 0.16167  0.47236  0.87593  Biso   1.000  N
  H559     1.0000 0.18975  0.42402  0.88653  Biso   1.000  H
  N377     1.0000 0.14517  0.41414  0.94636  Biso   1.000  N
  H560     1.0000 0.12876  0.39454  0.87455  Biso   1.000  H
  N378     1.0000 0.14517  0.41414  0.94632  Biso   1.000  N
  H561     1.0000 0.12876  0.39454  0.87451  Biso   1.000  H
  H562     1.0000 0.12879  0.39454  0.87455  Biso   1.000  H
  H563     1.0000 0.12879  0.39454  0.87451  Biso   1.000  H
  C558     1.0000 0.12935  0.47283  0.83873  Biso   1.000  C
  C559     1.0000 0.12938  0.47283  0.83873  Biso   1.000  C
  C560     1.0000 0.21177  0.52144  0.87694  Biso   1.000  C
  C561     1.0000 0.21177  0.52144  0.87691  Biso   1.000  C
  C562     1.0000 0.15679  0.42375  0.89354  Biso   1.000  C
  C563     1.0000 0.18507  0.43804  0.98513  Biso   1.000  C
  C564     1.0000 0.09777  0.37612  0.96482  Biso   1.000  C
  N379     1.0000 0.15167  0.52286  0.81974  Biso   1.000  N
  O167     1.0000 0.08761  0.43497  0.82506  Biso   1.000  O
  O168     1.0000 0.08765  0.43497  0.82506  Biso   1.000  O
  C565     1.0000 0.20387  0.55745  0.84004  Biso   1.000  C
  C566     1.0000 0.20387  0.55745  0.84001  Biso   1.000  C
  N380     1.0000 0.22399  0.55017  0.92429  Biso   1.000  N
  H564     1.0000 0.24098  0.51605  0.86612  Biso   1.000  H
  N381     1.0000 0.20045  0.49231  0.99689  Biso   1.000  N
  N382     1.0000 0.20045  0.49231  0.99685  Biso   1.000  N
  N383     1.0000 0.20048  0.49231  0.99689  Biso   1.000  N
  N384     1.0000 0.20048  0.49231  0.99685  Biso   1.000  N
  H565     1.0000 0.21595  0.43402  0.97794  Biso   1.000  H
  H566     1.0000 0.21595  0.43402  0.97790  Biso   1.000  H
  C567     1.0000 0.15517  0.40714  0.03334  Biso   1.000  C
  C568     1.0000 0.15517  0.40714  0.03330  Biso   1.000  C
  O169     1.0000 0.05776  0.34889  0.93973  Biso   1.000  O
  O170     1.0000 0.05776  0.34889  0.93969  Biso   1.000  O
  N385     1.0000 0.10214  0.37349  0.01570  Biso   1.000  N
  N386     1.0000 0.10214  0.37349  0.01566  Biso   1.000  N
  C569     1.0000 0.13055  0.53632  0.77633  Biso   1.000  C
  N387     1.0000 0.20733  0.59941  0.87222  Biso   1.000  N
  H567     1.0000 0.23107  0.57135  0.81345  Biso   1.000  H
  N388     1.0000 0.20733  0.59941  0.87219  Biso   1.000  N
  H568     1.0000 0.23107  0.57135  0.81341  Biso   1.000  H
  C570     1.0000 0.22207  0.59575  0.92025  Biso   1.000  C
  C571     1.0000 0.22207  0.59575  0.92021  Biso   1.000  C
  C572     1.0000 0.24236  0.53632  0.96883  Biso   1.000  C
  C573     1.0000 0.19136  0.49794  0.04694  Biso   1.000  C
  C574     1.0000 0.19136  0.49794  0.04690  Biso   1.000  C
  N389     1.0000 0.16109  0.44878  0.06709  Biso   1.000  N
  N390     1.0000 0.16109  0.44878  0.06713  Biso   1.000  N
  H569     1.0000 0.17058  0.38663  0.04742  Biso   1.000  H
  C575     1.0000 0.06417  0.32842  0.04432  Biso   1.000  C
  N391     1.0000 0.10731  0.56844  0.78809  Biso   1.000  N
  H570     1.0000 0.10386  0.50373  0.76044  Biso   1.000  H
  H571     1.0000 0.15908  0.55513  0.75205  Biso   1.000  H
  N392     1.0000 0.10731  0.56844  0.78805  Biso   1.000  N
  H572     1.0000 0.10386  0.50373  0.76040  Biso   1.000  H
  H573     1.0000 0.15908  0.55513  0.75201  Biso   1.000  H
  C576     1.0000 0.21276  0.64782  0.85274  Biso   1.000  C
  C577     1.0000 0.21276  0.64782  0.85271  Biso   1.000  C
  O171     1.0000 0.23177  0.62846  0.95370  Biso   1.000  O
  H574     1.0000 0.26907  0.52723  0.95932  Biso   1.000  H
  H575     1.0000 0.25929  0.56725  0.99082  Biso   1.000  H
  O172     1.0000 0.20686  0.53998  0.06881  Biso   1.000  O
  C578     1.0000 0.15497  0.44083  0.12115  Biso   1.000  C
  N393     1.0000 0.03935  0.34286  0.08436  Biso   1.000  N
  H576     1.0000 0.03677  0.30343  0.02173  Biso   1.000  H
  H577     1.0000 0.08175  0.31082  0.05922  Biso   1.000  H
  N394     1.0000 0.03938  0.34286  0.08436  Biso   1.000  N
  H578     1.0000 0.08179  0.31082  0.05922  Biso   1.000  H
  C579     1.0000 0.13755  0.62484  0.79165  Biso   1.000  C
  C580     1.0000 0.05375  0.54954  0.78505  Biso   1.000  C
  C581     1.0000 0.13755  0.62484  0.79161  Biso   1.000  C
  C582     1.0000 0.05375  0.54954  0.78502  Biso   1.000  C
  C583     1.0000 0.13759  0.62484  0.79165  Biso   1.000  C
  C584     1.0000 0.05379  0.54954  0.78505  Biso   1.000  C
  C585     1.0000 0.13759  0.62484  0.79161  Biso   1.000  C
  C586     1.0000 0.05379  0.54954  0.78502  Biso   1.000  C
  N395     1.0000 0.16319  0.64448  0.84008  Biso   1.000  N
  H579     1.0000 0.23497  0.65782  0.82263  Biso   1.000  H
  H580     1.0000 0.23097  0.67573  0.87762  Biso   1.000  H
  N396     1.0000 0.10051  0.41584  0.13793  Biso   1.000  N
  H581     1.0000 0.17507  0.47503  0.13774  Biso   1.000  H
  H582     1.0000 0.17007  0.41914  0.13145  Biso   1.000  H
  H583     1.0000 0.17507  0.47503  0.13770  Biso   1.000  H
  C587     1.0000 0.98523  0.31917  0.08758  Biso   1.000  C
  C588     1.0000 0.98523  0.31917  0.08754  Biso   1.000  C
  C589     1.0000 0.06406  0.35943  0.13362  Biso   1.000  C
  H584     1.0000 0.16266  0.64042  0.76355  Biso   1.000  H
  C590     1.0000 0.09476  0.64164  0.79075  Biso   1.000  C
  H585     1.0000 0.16266  0.64042  0.76351  Biso   1.000  H
  C591     1.0000 0.09476  0.64164  0.79071  Biso   1.000  C
  C592     1.0000 0.09479  0.64164  0.79075  Biso   1.000  C
  C593     1.0000 0.09479  0.64164  0.79071  Biso   1.000  C
  N397     1.0000 0.04538  0.59150  0.79097  Biso   1.000  N
  O173     1.0000 0.01939  0.50345  0.77921  Biso   1.000  O
  N398     1.0000 0.04538  0.59150  0.79093  Biso   1.000  N
  O174     1.0000 0.01943  0.50345  0.77921  Biso   1.000  O
  C594     1.0000 0.14676  0.67605  0.86215  Biso   1.000  C
  C595     1.0000 0.14676  0.67605  0.86211  Biso   1.000  C
  C596     1.0000 0.08177  0.44012  0.16902  Biso   1.000  C
  C597     1.0000 0.08177  0.44012  0.16906  Biso   1.000  C
  O175     1.0000 0.95426  0.29595  0.05304  Biso   1.000  O
  N399     1.0000 0.97202  0.32547  0.13478  Biso   1.000  N
  O176     1.0000 0.95426  0.29595  0.05301  Biso   1.000  O
  C598     1.0000 0.01746  0.35022  0.16775  Biso   1.000  C
  H586     1.0000 0.08024  0.33842  0.14463  Biso   1.000  H
  C599     1.0000 0.01746  0.35022  0.16771  Biso   1.000  C
  H587     1.0000 0.08024  0.33842  0.14460  Biso   1.000  H
  H588     1.0000 0.08028  0.33842  0.14463  Biso   1.000  H
  H589     1.0000 0.08028  0.33842  0.14460  Biso   1.000  H
  N400     1.0000 0.10542  0.67286  0.83581  Biso   1.000  N
  H590     1.0000 0.09798  0.66254  0.76044  Biso   1.000  H
  H591     1.0000 0.09798  0.66254  0.76040  Biso   1.000  H
  C600     1.0000 0.99583  0.58737  0.77539  Biso   1.000  C
  C601     1.0000 0.99583  0.58737  0.77535  Biso   1.000  C
  O177     1.0000 0.16668  0.70312  0.90021  Biso   1.000  O
  O178     1.0000 0.10557  0.48684  0.18123  Biso   1.000  O
  N401     1.0000 0.03170  0.40344  0.18382  Biso   1.000  N
  O179     1.0000 0.10557  0.48684  0.18119  Biso   1.000  O
  O180     1.0000 0.10561  0.48684  0.18123  Biso   1.000  O
  N402     1.0000 0.03173  0.40344  0.18382  Biso   1.000  N
  O181     1.0000 0.10561  0.48684  0.18119  Biso   1.000  O
  C602     1.0000 0.91875  0.29528  0.15336  Biso   1.000  C
  C603     1.0000 0.91875  0.29528  0.15340  Biso   1.000  C
  H592     1.0000 0.01357  0.32743  0.19663  Biso   1.000  H
  H593     1.0000 0.01357  0.32743  0.19667  Biso   1.000  H
  C604     1.0000 0.08128  0.70474  0.84664  Biso   1.000  C
  C605     1.0000 0.08128  0.70474  0.84660  Biso   1.000  C
  H594     1.0000 0.00292  0.61307  0.74875  Biso   1.000  H
  N403     1.0000 0.96830  0.59658  0.81618  Biso   1.000  N
  H595     1.0000 0.97293  0.55226  0.76157  Biso   1.000  H
  N404     1.0000 0.96830  0.59658  0.81615  Biso   1.000  N
  C606     1.0000 0.00416  0.41265  0.22461  Biso   1.000  C
  C607     1.0000 0.00419  0.41265  0.22461  Biso   1.000  C
  N405     1.0000 0.89460  0.32716  0.16419  Biso   1.000  N
  H596     1.0000 0.91883  0.27698  0.18408  Biso   1.000  H
  H597     1.0000 0.89714  0.26855  0.12845  Biso   1.000  H
  N406     1.0000 0.89460  0.32716  0.16415  Biso   1.000  N
  N407     1.0000 0.02801  0.67455  0.86522  Biso   1.000  N
  H598     1.0000 0.08116  0.72304  0.81592  Biso   1.000  H
  H599     1.0000 0.10287  0.73142  0.87155  Biso   1.000  H
  N408     1.0000 0.02801  0.67455  0.86518  Biso   1.000  N
  H600     1.0000 0.10287  0.73142  0.87151  Biso   1.000  H
  H601     1.0000 0.08119  0.72304  0.81592  Biso   1.000  H
  C608     1.0000 0.91823  0.55985  0.83098  Biso   1.000  C
  C609     1.0000 0.98251  0.64975  0.83225  Biso   1.000  C
  C610     1.0000 0.91823  0.55985  0.83094  Biso   1.000  C
  C611     1.0000 0.98254  0.64975  0.83225  Biso   1.000  C
  N409     1.0000 0.95461  0.40852  0.20903  Biso   1.000  N
  H602     1.0000 0.99707  0.38695  0.25125  Biso   1.000  H
  H603     1.0000 0.02704  0.44772  0.23843  Biso   1.000  H
  H604     1.0000 0.02704  0.44772  0.23840  Biso   1.000  H
  H605     1.0000 0.02708  0.44772  0.23843  Biso   1.000  H
  H606     1.0000 0.02708  0.44772  0.23840  Biso   1.000  H
  C612     1.0000 0.85323  0.32397  0.13785  Biso   1.000  C
  C613     1.0000 0.90523  0.35837  0.20925  Biso   1.000  C
  C614     1.0000 0.01476  0.68085  0.91242  Biso   1.000  C
  C615     1.0000 0.01479  0.68085  0.91242  Biso   1.000  C
  O182     1.0000 0.89442  0.51317  0.81877  Biso   1.000  O
  N410     1.0000 0.89948  0.58418  0.86207  Biso   1.000  N
  N411     1.0000 0.89951  0.58418  0.86207  Biso   1.000  N
  H607     1.0000 0.98643  0.67258  0.80337  Biso   1.000  H
  C616     1.0000 0.93593  0.64058  0.86638  Biso   1.000  C
  H608     1.0000 0.98643  0.67258  0.80333  Biso   1.000  H
  C617     1.0000 0.93593  0.64058  0.86634  Biso   1.000  C
  H609     1.0000 0.98646  0.67258  0.80337  Biso   1.000  H
  H610     1.0000 0.98646  0.67258  0.80333  Biso   1.000  H
  C618     1.0000 0.94624  0.45047  0.21495  Biso   1.000  C
  O183     1.0000 0.83335  0.29689  0.09979  Biso   1.000  O
  N412     1.0000 0.83680  0.35554  0.15992  Biso   1.000  N
  N413     1.0000 0.83683  0.35554  0.15992  Biso   1.000  N
  C619     1.0000 0.86244  0.37518  0.20835  Biso   1.000  C
  H611     1.0000 0.90204  0.33747  0.23956  Biso   1.000  H
  H612     1.0000 0.90204  0.33747  0.23960  Biso   1.000  H
  N414     1.0000 0.96064  0.65715  0.91564  Biso   1.000  N
  O184     1.0000 0.04573  0.70407  0.94696  Biso   1.000  O
  O185     1.0000 0.04577  0.70407  0.94696  Biso   1.000  O
  C620     1.0000 0.84506  0.55919  0.87885  Biso   1.000  C
  H613     1.0000 0.91973  0.66156  0.85537  Biso   1.000  H
  O186     1.0000 0.98060  0.49656  0.22079  Biso   1.000  O
  N415     1.0000 0.89270  0.43154  0.21191  Biso   1.000  N
  C621     1.0000 0.78722  0.35215  0.14726  Biso   1.000  C
  C622     1.0000 0.78722  0.35215  0.14729  Biso   1.000  C
  H614     1.0000 0.83731  0.35955  0.23645  Biso   1.000  H
  H615     1.0000 0.83734  0.35955  0.23645  Biso   1.000  H
  C623     1.0000 0.93584  0.67156  0.95568  Biso   1.000  C
  C624     1.0000 0.93584  0.67156  0.95565  Biso   1.000  C
  N416     1.0000 0.83888  0.55120  0.93291  Biso   1.000  N
  H616     1.0000 0.82495  0.52498  0.86226  Biso   1.000  H
  H617     1.0000 0.82993  0.58087  0.86855  Biso   1.000  H
  N417     1.0000 0.83888  0.55120  0.93287  Biso   1.000  N
  C625     1.0000 0.86942  0.46366  0.22367  Biso   1.000  C
  C626     1.0000 0.86942  0.46366  0.22364  Biso   1.000  C
  N418     1.0000 0.79266  0.40060  0.12778  Biso   1.000  N
  N419     1.0000 0.79266  0.40060  0.12781  Biso   1.000  N
  H618     1.0000 0.76504  0.34216  0.17737  Biso   1.000  H
  H619     1.0000 0.76906  0.32429  0.12238  Biso   1.000  H
  H620     1.0000 0.76504  0.34216  0.17734  Biso   1.000  H
  H621     1.0000 0.76906  0.32429  0.12235  Biso   1.000  H
  N420     1.0000 0.89785  0.62653  0.98430  Biso   1.000  N
  H622     1.0000 0.96325  0.69659  0.97827  Biso   1.000  H
  H623     1.0000 0.91822  0.68915  0.94078  Biso   1.000  H
  H624     1.0000 0.96325  0.69659  0.97824  Biso   1.000  H
  H625     1.0000 0.91822  0.68915  0.94074  Biso   1.000  H
  N421     1.0000 0.89789  0.62653  0.98430  Biso   1.000  N
  C627     1.0000 0.80863  0.50207  0.95306  Biso   1.000  C
  C628     1.0000 0.84482  0.59288  0.96666  Biso   1.000  C
  C629     1.0000 0.84486  0.59288  0.96666  Biso   1.000  C
  N422     1.0000 0.84836  0.47716  0.18026  Biso   1.000  N
  N423     1.0000 0.84836  0.47716  0.18022  Biso   1.000  N
  H626     1.0000 0.89613  0.49629  0.23956  Biso   1.000  H
  H627     1.0000 0.84094  0.44488  0.24795  Biso   1.000  H
  H628     1.0000 0.89613  0.49629  0.23960  Biso   1.000  H
  H629     1.0000 0.89617  0.49629  0.23956  Biso   1.000  H
  H630     1.0000 0.89617  0.49629  0.23960  Biso   1.000  H
  C630     1.0000 0.77792  0.40427  0.07975  Biso   1.000  C
  C631     1.0000 0.79612  0.44256  0.15996  Biso   1.000  C
  C632     1.0000 0.90224  0.62385  0.03518  Biso   1.000  C
  O187     1.0000 0.79314  0.46000  0.93119  Biso   1.000  O
  N424     1.0000 0.79954  0.50770  0.00311  Biso   1.000  N
  N425     1.0000 0.79954  0.50770  0.00315  Biso   1.000  N
  H631     1.0000 0.82944  0.61338  0.95258  Biso   1.000  H
  H632     1.0000 0.82944  0.61338  0.95254  Biso   1.000  H
  C633     1.0000 0.81492  0.56198  0.01487  Biso   1.000  C
  C634     1.0000 0.81496  0.56198  0.01487  Biso   1.000  C
  C635     1.0000 0.87064  0.52719  0.16127  Biso   1.000  C
  C636     1.0000 0.87064  0.52719  0.16123  Biso   1.000  C
  N426     1.0000 0.77603  0.44984  0.07571  Biso   1.000  N
  N427     1.0000 0.77603  0.44984  0.07567  Biso   1.000  N
  O188     1.0000 0.76825  0.37156  0.04630  Biso   1.000  O
  O189     1.0000 0.76825  0.37156  0.04626  Biso   1.000  O
  C637     1.0000 0.78822  0.47858  0.12306  Biso   1.000  C
  C638     1.0000 0.78822  0.47858  0.12309  Biso   1.000  C
  C639     1.0000 0.78825  0.47858  0.12306  Biso   1.000  C
  C640     1.0000 0.78825  0.47858  0.12309  Biso   1.000  C
  H633     1.0000 0.76892  0.42867  0.18655  Biso   1.000  H
  H634     1.0000 0.76892  0.42867  0.18659  Biso   1.000  H
  O190     1.0000 0.94223  0.65113  0.06027  Biso   1.000  O
  N428     1.0000 0.85482  0.58587  0.05364  Biso   1.000  N
  O191     1.0000 0.94226  0.65113  0.06027  Biso   1.000  O
  C641     1.0000 0.75762  0.46366  0.03117  Biso   1.000  C
  H635     1.0000 0.78402  0.56596  0.02206  Biso   1.000  H
  N429     1.0000 0.83836  0.52766  0.12403  Biso   1.000  N
  N430     1.0000 0.83836  0.52766  0.12407  Biso   1.000  N
  O192     1.0000 0.91238  0.56505  0.17494  Biso   1.000  O
  H636     1.0000 0.75904  0.48397  0.13388  Biso   1.000  H
  C642     1.0000 0.84324  0.57627  0.10646  Biso   1.000  C
  H637     1.0000 0.73094  0.47275  0.04068  Biso   1.000  H
  H638     1.0000 0.74074  0.43276  0.00918  Biso   1.000  H
  H639     1.0000 0.74074  0.43276  0.00914  Biso   1.000  H
  H640     1.0000 0.87123  0.60547  0.12545  Biso   1.000  H
  H641     1.0000 0.81022  0.57595  0.11347  Biso   1.000  H
  H642     1.0000 0.81022  0.57595  0.11343  Biso   1.000  H
  C643     1.0000 0.57192  0.69171  0.54257  Biso   1.000  C
  N431     1.0000 0.56125  0.66050  0.49751  Biso   1.000  N
  C644     1.0000 0.52912  0.70852  0.54167  Biso   1.000  C
  N432     1.0000 0.62129  0.74185  0.54235  Biso   1.000  N
  H643     1.0000 0.56869  0.67081  0.57288  Biso   1.000  H
  C645     1.0000 0.51992  0.65731  0.47117  Biso   1.000  C
  C646     1.0000 0.58540  0.62862  0.48668  Biso   1.000  C
  N433     1.0000 0.50347  0.68884  0.49324  Biso   1.000  N
  N434     1.0000 0.55935  0.76488  0.54523  Biso   1.000  N
  H644     1.0000 0.50399  0.69289  0.56981  Biso   1.000  H
  C647     1.0000 0.61292  0.78381  0.54830  Biso   1.000  C
  C648     1.0000 0.67084  0.74599  0.55797  Biso   1.000  C
  O193     1.0000 0.50000  0.63023  0.43311  Biso   1.000  O
  N435     1.0000 0.63867  0.65881  0.46810  Biso   1.000  N
  H645     1.0000 0.58552  0.61031  0.51740  Biso   1.000  H
  H646     1.0000 0.56379  0.60189  0.46181  Biso   1.000  H
  C649     1.0000 0.45390  0.68549  0.48058  Biso   1.000  C
  C650     1.0000 0.53611  0.79700  0.55700  Biso   1.000  C
  O194     1.0000 0.64729  0.82990  0.55411  Biso   1.000  O
  N436     1.0000 0.69838  0.73678  0.51714  Biso   1.000  N
  H647     1.0000 0.69373  0.78106  0.57176  Biso   1.000  H
  H648     1.0000 0.66375  0.72029  0.58457  Biso   1.000  H
  C651     1.0000 0.65192  0.65251  0.42090  Biso   1.000  C
  C652     1.0000 0.68415  0.68356  0.50107  Biso   1.000  C
  N437     1.0000 0.45935  0.73394  0.46110  Biso   1.000  N
  H649     1.0000 0.43169  0.67549  0.51069  Biso   1.000  H
  H650     1.0000 0.43569  0.65759  0.45570  Biso   1.000  H
  N438     1.0000 0.51501  0.81050  0.51358  Biso   1.000  N
  H651     1.0000 0.56280  0.82959  0.57288  Biso   1.000  H
  H652     1.0000 0.50760  0.77822  0.58131  Biso   1.000  H
  C653     1.0000 0.74842  0.77346  0.50234  Biso   1.000  C
  O195     1.0000 0.62095  0.62929  0.38636  Biso   1.000  O
  N439     1.0000 0.70603  0.67620  0.41768  Biso   1.000  N
  C654     1.0000 0.73075  0.69277  0.46694  Biso   1.000  C
  H653     1.0000 0.68025  0.66077  0.52995  Biso   1.000  H
  C655     1.0000 0.44461  0.73760  0.41307  Biso   1.000  C
  C656     1.0000 0.46280  0.77590  0.49328  Biso   1.000  C
  C657     1.0000 0.53733  0.86052  0.49459  Biso   1.000  C
  N440     1.0000 0.76720  0.74918  0.47125  Biso   1.000  N
  O196     1.0000 0.77226  0.82018  0.51455  Biso   1.000  O
  C658     1.0000 0.73082  0.66176  0.37767  Biso   1.000  C
  H654     1.0000 0.74693  0.67175  0.47795  Biso   1.000  H
  O197     1.0000 0.43490  0.70490  0.37962  Biso   1.000  O
  N441     1.0000 0.44269  0.78318  0.40903  Biso   1.000  N
  C659     1.0000 0.45491  0.81192  0.45638  Biso   1.000  C
  H655     1.0000 0.43561  0.76201  0.51987  Biso   1.000  H
  N442     1.0000 0.50503  0.86096  0.45739  Biso   1.000  N
  O198     1.0000 0.57906  0.89839  0.50826  Biso   1.000  O
  C660     1.0000 0.82162  0.77417  0.45447  Biso   1.000  C
  N443     1.0000 0.76883  0.70682  0.34902  Biso   1.000  N
  H656     1.0000 0.70342  0.63676  0.35505  Biso   1.000  H
  H657     1.0000 0.74844  0.64416  0.39255  Biso   1.000  H
  C661     1.0000 0.42430  0.79700  0.36449  Biso   1.000  C
  H658     1.0000 0.42570  0.81731  0.46720  Biso   1.000  H
  C662     1.0000 0.50989  0.90961  0.43978  Biso   1.000  C
  N444     1.0000 0.82778  0.78212  0.40041  Biso   1.000  N
  H659     1.0000 0.84172  0.80837  0.47106  Biso   1.000  H
  H660     1.0000 0.83675  0.75248  0.46477  Biso   1.000  H
  C663     1.0000 0.82185  0.74048  0.36666  Biso   1.000  C
  C664     1.0000 0.76442  0.70946  0.29815  Biso   1.000  C
  N445     1.0000 0.46623  0.84104  0.33647  Biso   1.000  N
  H661     1.0000 0.39759  0.80609  0.37400  Biso   1.000  H
  H662     1.0000 0.40739  0.76610  0.34250  Biso   1.000  H
  N446     1.0000 0.52151  0.91921  0.38696  Biso   1.000  N
  H663     1.0000 0.53792  0.93881  0.45878  Biso   1.000  H
  H664     1.0000 0.47690  0.90929  0.44679  Biso   1.000  H
  C665     1.0000 0.85805  0.83128  0.38026  Biso   1.000  C
  H665     1.0000 0.83723  0.71997  0.38075  Biso   1.000  H
  C666     1.0000 0.85175  0.77137  0.31845  Biso   1.000  C
  N447     1.0000 0.81186  0.74748  0.27968  Biso   1.000  N
  O199     1.0000 0.72445  0.68222  0.27305  Biso   1.000  O
  C667     1.0000 0.47531  0.83541  0.28638  Biso   1.000  C
  C668     1.0000 0.48161  0.89532  0.34819  Biso   1.000  C
  C669     1.0000 0.56889  0.95719  0.36850  Biso   1.000  C
  N448     1.0000 0.86713  0.82565  0.33021  Biso   1.000  N
  O200     1.0000 0.87351  0.87332  0.40214  Biso   1.000  O
  H666     1.0000 0.88264  0.76736  0.31126  Biso   1.000  H
  C670     1.0000 0.82344  0.75709  0.22686  Biso   1.000  C
  O201     1.0000 0.45980  0.79334  0.26451  Biso   1.000  O
  N449     1.0000 0.50557  0.88453  0.26623  Biso   1.000  N
  C671     1.0000 0.51151  0.92622  0.29998  Biso   1.000  C
  H667     1.0000 0.45070  0.89929  0.35538  Biso   1.000  H
  N450     1.0000 0.56454  0.95987  0.31763  Biso   1.000  N
  O202     1.0000 0.60891  0.98447  0.39359  Biso   1.000  O
  C672     1.0000 0.90904  0.86966  0.30215  Biso   1.000  C
  N451     1.0000 0.82832  0.80570  0.20929  Biso   1.000  N
  H668     1.0000 0.79544  0.72788  0.20787  Biso   1.000  H
  H669     1.0000 0.85644  0.75736  0.21985  Biso   1.000  H
  C673     1.0000 0.51171  0.89252  0.21221  Biso   1.000  C
  H670     1.0000 0.49610  0.94672  0.28590  Biso   1.000  H
  C674     1.0000 0.60253  0.00490  0.28901  Biso   1.000  C
  N452     1.0000 0.89064  0.88351  0.25761  Biso   1.000  N
  H671     1.0000 0.93572  0.86056  0.29268  Biso   1.000  H
  H672     1.0000 0.92592  0.90055  0.32414  Biso   1.000  H
  C675     1.0000 0.87846  0.85478  0.21026  Biso   1.000  C
  C676     1.0000 0.79604  0.80617  0.17205  Biso   1.000  C
  N453     1.0000 0.56617  0.91752  0.19543  Biso   1.000  N
  H673     1.0000 0.49161  0.85832  0.19558  Biso   1.000  H
  H674     1.0000 0.49661  0.91421  0.20191  Biso   1.000  H
  N454     1.0000 0.62733  0.99049  0.24900  Biso   1.000  N
  H675     1.0000 0.62992  0.02989  0.31159  Biso   1.000  H
  H676     1.0000 0.58494  0.02249  0.27410  Biso   1.000  H
  C677     1.0000 0.88875  0.92909  0.25357  Biso   1.000  C
  H677     1.0000 0.90763  0.84939  0.19948  Biso   1.000  H
  C678     1.0000 0.87054  0.89075  0.17337  Biso   1.000  C
  N455     1.0000 0.81832  0.85620  0.15310  Biso   1.000  N
  O203     1.0000 0.75430  0.76830  0.15838  Biso   1.000  O
  C679     1.0000 0.58489  0.89319  0.16430  Biso   1.000  C
  C680     1.0000 0.60262  0.97392  0.19970  Biso   1.000  C
  C681     1.0000 0.68145  0.01419  0.24578  Biso   1.000  C
  N456     1.0000 0.87402  0.93275  0.20554  Biso   1.000  N
  O204     1.0000 0.89843  0.96180  0.28702  Biso   1.000  O
  H678     1.0000 0.89775  0.90469  0.14677  Biso   1.000  H
  C682     1.0000 0.79724  0.86966  0.10965  Biso   1.000  C
  O205     1.0000 0.56110  0.84651  0.15209  Biso   1.000  O
  N457     1.0000 0.63498  0.92992  0.14950  Biso   1.000  N
  C683     1.0000 0.64920  0.98309  0.16561  Biso   1.000  C
  H679     1.0000 0.58642  0.99490  0.18869  Biso   1.000  H
  N458     1.0000 0.69469  0.00789  0.19854  Biso   1.000  N
  O206     1.0000 0.71245  0.03741  0.28031  Biso   1.000  O
  C684     1.0000 0.87944  0.98116  0.18606  Biso   1.000  C
  N459     1.0000 0.77396  0.90177  0.12141  Biso   1.000  N
  H680     1.0000 0.77055  0.83707  0.09376  Biso   1.000  H
  H681     1.0000 0.82573  0.88847  0.08537  Biso   1.000  H
  C685     1.0000 0.66252  0.92071  0.10871  Biso   1.000  C
  H682     1.0000 0.65311  0.00592  0.13669  Biso   1.000  H
  C686     1.0000 0.74793  0.03808  0.17996  Biso   1.000  C
  N460     1.0000 0.82988  0.97782  0.17344  Biso   1.000  N
  H683     1.0000 0.90162  0.99116  0.15595  Biso   1.000  H
  H684     1.0000 0.89766  0.00907  0.21098  Biso   1.000  H
  C687     1.0000 0.72044  0.88288  0.11837  Biso   1.000  C
  C688     1.0000 0.80424  0.95818  0.12497  Biso   1.000  C
  H685     1.0000 0.63961  0.88560  0.09489  Biso   1.000  H
  H686     1.0000 0.66961  0.94641  0.08211  Biso   1.000  H
  N461     1.0000 0.71207  0.92484  0.12429  Biso   1.000  N
  N462     1.0000 0.77206  0.00616  0.16913  Biso   1.000  N
  H687     1.0000 0.74784  0.05638  0.14928  Biso   1.000  H
  H688     1.0000 0.76952  0.06476  0.20487  Biso   1.000  H
  C689     1.0000 0.81348  0.00938  0.19547  Biso   1.000  C
  O207     1.0000 0.68608  0.83679  0.11253  Biso   1.000  O
  C690     1.0000 0.76145  0.97498  0.12407  Biso   1.000  C
  H689     1.0000 0.82935  0.97376  0.09687  Biso   1.000  H
  O208     1.0000 0.83336  0.03646  0.23353  Biso   1.000  O
  H690     1.0000 0.76464  0.99588  0.09376  Biso   1.000  H
  C691     1.0000 0.19903  0.38396  0.41997  Biso   1.000  C
  N463     1.0000 0.18454  0.33137  0.40206  Biso   1.000  N
  C692     1.0000 0.20702  0.41977  0.39195  Biso   1.000  C
  H691     1.0000 0.17112  0.37967  0.44304  Biso   1.000  H
  H692     1.0000 0.23103  0.39628  0.44004  Biso   1.000  H
  C693     1.0000 0.14161  0.29032  0.43308  Biso   1.000  C
  N464     1.0000 0.18633  0.41308  0.34025  Biso   1.000  N
  H693     1.0000 0.19473  0.44087  0.40966  Biso   1.000  H
  H694     1.0000 0.24533  0.44185  0.38925  Biso   1.000  H
  C694     1.0000 0.12801  0.23529  0.41671  Biso   1.000  C
  H695     1.0000 0.11020  0.29390  0.43031  Biso   1.000  H
  H696     1.0000 0.15250  0.29540  0.46829  Biso   1.000  H
  C695     1.0000 0.22663  0.44528  0.30238  Biso   1.000  C
  C696     1.0000 0.10671  0.22140  0.36430  Biso   1.000  C
  H697     1.0000 0.15971  0.23230  0.41899  Biso   1.000  H
  H698     1.0000 0.10189  0.20971  0.43990  Biso   1.000  H
  C697     1.0000 0.20533  0.43138  0.24997  Biso   1.000  C
  H699     1.0000 0.25686  0.43989  0.30575  Biso   1.000  H
  H700     1.0000 0.23905  0.48267  0.30845  Biso   1.000  H
  N465     1.0000 0.14701  0.25360  0.32639  Biso   1.000  N
  H701     1.0000 0.07648  0.22679  0.36089  Biso   1.000  H
  H702     1.0000 0.09429  0.18401  0.35819  Biso   1.000  H
  C698     1.0000 0.19172  0.37636  0.23356  Biso   1.000  C
  H703     1.0000 0.17363  0.43438  0.24765  Biso   1.000  H
  H704     1.0000 0.23145  0.45697  0.22675  Biso   1.000  H
  C699     1.0000 0.12632  0.24690  0.27470  Biso   1.000  C
  N466     1.0000 0.14880  0.33531  0.26458  Biso   1.000  N
  H705     1.0000 0.22313  0.37278  0.23637  Biso   1.000  H
  H706     1.0000 0.18083  0.37128  0.19835  Biso   1.000  H
  H707     1.0000 0.13861  0.22581  0.25698  Biso   1.000  H
  H708     1.0000 0.08799  0.22478  0.27739  Biso   1.000  H
  C700     1.0000 0.13429  0.28268  0.24671  Biso   1.000  C
  H709     1.0000 0.16222  0.28701  0.22360  Biso   1.000  H
  H710     1.0000 0.10231  0.27040  0.22660  Biso   1.000  H
  C701     1.0000 0.77336  0.55474  0.69762  Biso   1.000  C
  N467     1.0000 0.81366  0.58693  0.65971  Biso   1.000  N
  H711     1.0000 0.74317  0.56013  0.69421  Biso   1.000  H
  H712     1.0000 0.76097  0.51735  0.69152  Biso   1.000  H
  C702     1.0000 0.79466  0.56863  0.75003  Biso   1.000  C
  C703     1.0000 0.79297  0.58024  0.60802  Biso   1.000  C
  H713     1.0000 0.82637  0.56564  0.75231  Biso   1.000  H
  H714     1.0000 0.76858  0.54305  0.77322  Biso   1.000  H
  C704     1.0000 0.80827  0.62366  0.76644  Biso   1.000  C
  C705     1.0000 0.80097  0.61602  0.58003  Biso   1.000  C
  H715     1.0000 0.80529  0.55915  0.59034  Biso   1.000  H
  H716     1.0000 0.75467  0.55812  0.61071  Biso   1.000  H
  H717     1.0000 0.77686  0.62724  0.76363  Biso   1.000  H
  H718     1.0000 0.81916  0.62873  0.80161  Biso   1.000  H
  N468     1.0000 0.85122  0.66471  0.73538  Biso   1.000  N
  H719     1.0000 0.82887  0.62035  0.55692  Biso   1.000  H
  H720     1.0000 0.76896  0.60374  0.55992  Biso   1.000  H
  N469     1.0000 0.81549  0.66865  0.59794  Biso   1.000  N
  C706     1.0000 0.86569  0.71729  0.75329  Biso   1.000  C
  C707     1.0000 0.85841  0.70970  0.56689  Biso   1.000  C
  C708     1.0000 0.87371  0.75311  0.72530  Biso   1.000  C
  H721     1.0000 0.83781  0.71300  0.77640  Biso   1.000  H
  H722     1.0000 0.89772  0.72961  0.77340  Biso   1.000  H
  C709     1.0000 0.87202  0.76472  0.58329  Biso   1.000  C
  H723     1.0000 0.88982  0.70612  0.56969  Biso   1.000  H
  H724     1.0000 0.84752  0.70462  0.53167  Biso   1.000  H
  N470     1.0000 0.85301  0.74642  0.67357  Biso   1.000  N
  H725     1.0000 0.86142  0.77421  0.74299  Biso   1.000  H
  H726     1.0000 0.91199  0.77519  0.72257  Biso   1.000  H
  C710     1.0000 0.89331  0.77862  0.63570  Biso   1.000  C
  H727     1.0000 0.84031  0.76771  0.58101  Biso   1.000  H
  H728     1.0000 0.89810  0.79031  0.56010  Biso   1.000  H
  H729     1.0000 0.92351  0.77322  0.63907  Biso   1.000  H
  H730     1.0000 0.90570  0.81601  0.64181  Biso   1.000  H
  O209     1.0000 0.46353  0.16665  0.09979  Biso   1.000  O
  C711     1.0000 0.47073  0.14677  0.13785  Biso   1.000  C
  C712     1.0000 0.47077  0.14677  0.13785  Biso   1.000  C
  N471     1.0000 0.51872  0.16319  0.15992  Biso   1.000  N
  N472     1.0000 0.43256  0.10541  0.16419  Biso   1.000  N
  N473     1.0000 0.43256  0.10541  0.16415  Biso   1.000  N
  N474     1.0000 0.43260  0.10541  0.16419  Biso   1.000  N
  O210     1.0000 0.46356  0.16665  0.09979  Biso   1.000  O
  N475     1.0000 0.43260  0.10541  0.16415  Biso   1.000  N
  C713     1.0000 0.56496  0.21278  0.14726  Biso   1.000  C
  C714     1.0000 0.56496  0.21278  0.14729  Biso   1.000  C
  C715     1.0000 0.56494  0.21274  0.14726  Biso   1.000  C
  C716     1.0000 0.56494  0.21274  0.14729  Biso   1.000  C
  C717     1.0000 0.51273  0.13756  0.20835  Biso   1.000  C
  C718     1.0000 0.51276  0.13756  0.20835  Biso   1.000  C
  C719     1.0000 0.45316  0.09478  0.20925  Biso   1.000  C
  C720     1.0000 0.45314  0.09474  0.20925  Biso   1.000  C
  C721     1.0000 0.37653  0.08128  0.15336  Biso   1.000  C
  C722     1.0000 0.37653  0.08128  0.15340  Biso   1.000  C
  C723     1.0000 0.37654  0.08124  0.15336  Biso   1.000  C
  C724     1.0000 0.37654  0.08124  0.15340  Biso   1.000  C
  N476     1.0000 0.60793  0.20731  0.12778  Biso   1.000  N
  N477     1.0000 0.60793  0.20731  0.12781  Biso   1.000  N
  H731     1.0000 0.57715  0.23498  0.17737  Biso   1.000  H
  H732     1.0000 0.55523  0.23096  0.12238  Biso   1.000  H
  H733     1.0000 0.57715  0.23498  0.17734  Biso   1.000  H
  H734     1.0000 0.55523  0.23096  0.12235  Biso   1.000  H
  N478     1.0000 0.53887  0.10730  0.21191  Biso   1.000  N
  H735     1.0000 0.52225  0.16267  0.23645  Biso   1.000  H
  N479     1.0000 0.45389  0.04538  0.20903  Biso   1.000  N
  H736     1.0000 0.43542  0.09797  0.23956  Biso   1.000  H
  H737     1.0000 0.43542  0.09797  0.23960  Biso   1.000  H
  N480     1.0000 0.45392  0.04538  0.20903  Biso   1.000  N
  H738     1.0000 0.43546  0.09797  0.23956  Biso   1.000  H
  H739     1.0000 0.43546  0.09797  0.23960  Biso   1.000  H
  N481     1.0000 0.35346  0.02798  0.13478  Biso   1.000  N
  H740     1.0000 0.35813  0.08116  0.18408  Biso   1.000  H
  H741     1.0000 0.37145  0.10289  0.12845  Biso   1.000  H
  H742     1.0000 0.37143  0.10285  0.12845  Biso   1.000  H
  C725     1.0000 0.62632  0.22207  0.07975  Biso   1.000  C
  C726     1.0000 0.62636  0.22207  0.07975  Biso   1.000  C
  C727     1.0000 0.64644  0.20388  0.15996  Biso   1.000  C
  C728     1.0000 0.64646  0.20384  0.15996  Biso   1.000  C
  C729     1.0000 0.59423  0.13056  0.22367  Biso   1.000  C
  C730     1.0000 0.59423  0.13056  0.22364  Biso   1.000  C
  C731     1.0000 0.50423  0.05377  0.21495  Biso   1.000  C
  C732     1.0000 0.50427  0.05377  0.21495  Biso   1.000  C
  C733     1.0000 0.40842  0.99583  0.22461  Biso   1.000  C
  C734     1.0000 0.40845  0.99583  0.22461  Biso   1.000  C
  C735     1.0000 0.33274  0.98252  0.16775  Biso   1.000  C
  C736     1.0000 0.33274  0.98252  0.16771  Biso   1.000  C
  C737     1.0000 0.33393  0.01476  0.08758  Biso   1.000  C
  C738     1.0000 0.33393  0.01476  0.08754  Biso   1.000  C
  N482     1.0000 0.67385  0.22400  0.07571  Biso   1.000  N
  N483     1.0000 0.67385  0.22400  0.07567  Biso   1.000  N
  N484     1.0000 0.67383  0.22396  0.07571  Biso   1.000  N
  N485     1.0000 0.67383  0.22396  0.07567  Biso   1.000  N
  O211     1.0000 0.60331  0.23175  0.04630  Biso   1.000  O
  O212     1.0000 0.60331  0.23175  0.04626  Biso   1.000  O
  C739     1.0000 0.69033  0.21176  0.12306  Biso   1.000  C
  C740     1.0000 0.69033  0.21176  0.12309  Biso   1.000  C
  C741     1.0000 0.69036  0.21176  0.12306  Biso   1.000  C
  C742     1.0000 0.69036  0.21176  0.12309  Biso   1.000  C
  N486     1.0000 0.62881  0.15165  0.18026  Biso   1.000  N
  H743     1.0000 0.65973  0.23108  0.18655  Biso   1.000  H
  N487     1.0000 0.62881  0.15165  0.18022  Biso   1.000  N
  H744     1.0000 0.65973  0.23108  0.18659  Biso   1.000  H
  H745     1.0000 0.65975  0.23104  0.18655  Biso   1.000  H
  H746     1.0000 0.65975  0.23104  0.18659  Biso   1.000  H
  H747     1.0000 0.60015  0.10387  0.23956  Biso   1.000  H
  H748     1.0000 0.60392  0.15905  0.24795  Biso   1.000  H
  H749     1.0000 0.60015  0.10387  0.23960  Biso   1.000  H
  H750     1.0000 0.60395  0.15905  0.24795  Biso   1.000  H
  O213     1.0000 0.51596  0.01940  0.22079  Biso   1.000  O
  O214     1.0000 0.51599  0.01940  0.22079  Biso   1.000  O
  N488     1.0000 0.37170  0.96828  0.18382  Biso   1.000  N
  H751     1.0000 0.42066  0.97292  0.23843  Biso   1.000  H
  H752     1.0000 0.42066  0.97292  0.23840  Biso   1.000  H
  H753     1.0000 0.42069  0.97292  0.23843  Biso   1.000  H
  H754     1.0000 0.42069  0.97292  0.23840  Biso   1.000  H
  H755     1.0000 0.38989  0.00295  0.25125  Biso   1.000  H
  H756     1.0000 0.38987  0.00291  0.25125  Biso   1.000  H
  C743     1.0000 0.29533  0.93592  0.13362  Biso   1.000  C
  H757     1.0000 0.31383  0.98642  0.19663  Biso   1.000  H
  H758     1.0000 0.31383  0.98642  0.19667  Biso   1.000  H
  N489     1.0000 0.30346  0.96064  0.08436  Biso   1.000  N
  O215     1.0000 0.34168  0.04574  0.05304  Biso   1.000  O
  O216     1.0000 0.34168  0.04574  0.05301  Biso   1.000  O
  O217     1.0000 0.34171  0.04574  0.05304  Biso   1.000  O
  O218     1.0000 0.34171  0.04574  0.05301  Biso   1.000  O
  C744     1.0000 0.70605  0.24238  0.03117  Biso   1.000  C
  N490     1.0000 0.68931  0.16165  0.12403  Biso   1.000  N
  N491     1.0000 0.68931  0.16165  0.12407  Biso   1.000  N
  H759     1.0000 0.72494  0.24096  0.13388  Biso   1.000  H
  C745     1.0000 0.65653  0.12938  0.16127  Biso   1.000  C
  C746     1.0000 0.65653  0.12938  0.16123  Biso   1.000  C
  C747     1.0000 0.65657  0.12938  0.16127  Biso   1.000  C
  C748     1.0000 0.65657  0.12938  0.16123  Biso   1.000  C
  C749     1.0000 0.35838  0.91825  0.16902  Biso   1.000  C
  C750     1.0000 0.35838  0.91825  0.16906  Biso   1.000  C
  C751     1.0000 0.35836  0.91821  0.16902  Biso   1.000  C
  C752     1.0000 0.35836  0.91821  0.16906  Biso   1.000  C
  N492     1.0000 0.31532  0.89947  0.13793  Biso   1.000  N
  H760     1.0000 0.25816  0.91975  0.14463  Biso   1.000  H
  H761     1.0000 0.25816  0.91975  0.14460  Biso   1.000  H
  H762     1.0000 0.25818  0.91971  0.14463  Biso   1.000  H
  H763     1.0000 0.25818  0.91971  0.14460  Biso   1.000  H
  C753     1.0000 0.26427  0.93584  0.04432  Biso   1.000  C
  C754     1.0000 0.26425  0.93580  0.04432  Biso   1.000  C
  N493     1.0000 0.70817  0.20046  0.00311  Biso   1.000  N
  N494     1.0000 0.70817  0.20046  0.00315  Biso   1.000  N
  H764     1.0000 0.74182  0.26906  0.04068  Biso   1.000  H
  H765     1.0000 0.69203  0.25926  0.00918  Biso   1.000  H
  H766     1.0000 0.69203  0.25926  0.00914  Biso   1.000  H
  H767     1.0000 0.74185  0.26906  0.04068  Biso   1.000  H
  H768     1.0000 0.69206  0.25926  0.00918  Biso   1.000  H
  H769     1.0000 0.69206  0.25926  0.00914  Biso   1.000  H
  C755     1.0000 0.73305  0.15677  0.10646  Biso   1.000  C
  O219     1.0000 0.65266  0.08762  0.17494  Biso   1.000  O
  O220     1.0000 0.38122  0.89440  0.18123  Biso   1.000  O
  O221     1.0000 0.38122  0.89440  0.18119  Biso   1.000  O
  C756     1.0000 0.28585  0.84504  0.12115  Biso   1.000  C
  N495     1.0000 0.27136  0.89786  0.01570  Biso   1.000  N
  N496     1.0000 0.27136  0.89786  0.01566  Biso   1.000  N
  H770     1.0000 0.26669  0.96324  0.02173  Biso   1.000  H
  H771     1.0000 0.22909  0.91825  0.05922  Biso   1.000  H
  H772     1.0000 0.22907  0.91821  0.05922  Biso   1.000  H
  C757     1.0000 0.69343  0.19137  0.95306  Biso   1.000  C
  C758     1.0000 0.69346  0.19137  0.95306  Biso   1.000  C
  C759     1.0000 0.74703  0.18507  0.01487  Biso   1.000  C
  C760     1.0000 0.74707  0.18507  0.01487  Biso   1.000  C
  N497     1.0000 0.73103  0.14516  0.05364  Biso   1.000  N
  H773     1.0000 0.73426  0.12879  0.12545  Biso   1.000  H
  H774     1.0000 0.76574  0.18975  0.11347  Biso   1.000  H
  H775     1.0000 0.76574  0.18975  0.11343  Biso   1.000  H
  H776     1.0000 0.73424  0.12875  0.12545  Biso   1.000  H
  N498     1.0000 0.28769  0.83890  0.06709  Biso   1.000  N
  N499     1.0000 0.28769  0.83890  0.06713  Biso   1.000  N
  H777     1.0000 0.29993  0.82493  0.13774  Biso   1.000  H
  H778     1.0000 0.24908  0.82993  0.13145  Biso   1.000  H
  H779     1.0000 0.29993  0.82493  0.13770  Biso   1.000  H
  H780     1.0000 0.29996  0.82493  0.13774  Biso   1.000  H
  H781     1.0000 0.29996  0.82493  0.13770  Biso   1.000  H
  C761     1.0000 0.27838  0.90223  0.96482  Biso   1.000  C
  C762     1.0000 0.25197  0.84484  0.03334  Biso   1.000  C
  C763     1.0000 0.25197  0.84484  0.03330  Biso   1.000  C
  C764     1.0000 0.25195  0.84480  0.03334  Biso   1.000  C
  C765     1.0000 0.25195  0.84480  0.03330  Biso   1.000  C
  N500     1.0000 0.71231  0.16110  0.93291  Biso   1.000  N
  N501     1.0000 0.71231  0.16110  0.93287  Biso   1.000  N
  O222     1.0000 0.66689  0.20688  0.93119  Biso   1.000  O
  O223     1.0000 0.66687  0.20684  0.93119  Biso   1.000  O
  C766     1.0000 0.74803  0.15516  0.96666  Biso   1.000  C
  C767     1.0000 0.74806  0.15516  0.96666  Biso   1.000  C
  H782     1.0000 0.78195  0.21597  0.02206  Biso   1.000  H
  C768     1.0000 0.72165  0.09777  0.03518  Biso   1.000  C
  C769     1.0000 0.30654  0.80863  0.04694  Biso   1.000  C
  C770     1.0000 0.30654  0.80863  0.04690  Biso   1.000  C
  N502     1.0000 0.26897  0.85484  0.94636  Biso   1.000  N
  N503     1.0000 0.26897  0.85484  0.94632  Biso   1.000  N
  N504     1.0000 0.26898  0.85480  0.94636  Biso   1.000  N
  N505     1.0000 0.26898  0.85480  0.94632  Biso   1.000  N
  O224     1.0000 0.29108  0.94222  0.93973  Biso   1.000  O
  O225     1.0000 0.29108  0.94222  0.93969  Biso   1.000  O
  C771     1.0000 0.25297  0.81493  0.98513  Biso   1.000  C
  H783     1.0000 0.21607  0.82941  0.04742  Biso   1.000  H
  C772     1.0000 0.71415  0.15496  0.87885  Biso   1.000  C
  N506     1.0000 0.72864  0.10214  0.98430  Biso   1.000  N
  H784     1.0000 0.78393  0.17059  0.95258  Biso   1.000  H
  H785     1.0000 0.78393  0.17059  0.95254  Biso   1.000  H
  N507     1.0000 0.72868  0.10214  0.98430  Biso   1.000  N
  H786     1.0000 0.78395  0.17055  0.95258  Biso   1.000  H
  H787     1.0000 0.78395  0.17055  0.95254  Biso   1.000  H
  O226     1.0000 0.70888  0.05778  0.06027  Biso   1.000  O
  O227     1.0000 0.70890  0.05774  0.06027  Biso   1.000  O
  N508     1.0000 0.29183  0.79954  0.99689  Biso   1.000  N
  N509     1.0000 0.29183  0.79954  0.99685  Biso   1.000  N
  O228     1.0000 0.33311  0.79312  0.06881  Biso   1.000  O
  C773     1.0000 0.26698  0.84323  0.89354  Biso   1.000  C
  C774     1.0000 0.26698  0.84323  0.89350  Biso   1.000  C
  H788     1.0000 0.21805  0.78403  0.97794  Biso   1.000  H
  H789     1.0000 0.21805  0.78403  0.97790  Biso   1.000  H
  H790     1.0000 0.21809  0.78403  0.97794  Biso   1.000  H
  H791     1.0000 0.21809  0.78403  0.97790  Biso   1.000  H
  N510     1.0000 0.68468  0.10053  0.86207  Biso   1.000  N
  N511     1.0000 0.68470  0.10049  0.86207  Biso   1.000  N
  H792     1.0000 0.70004  0.17507  0.86226  Biso   1.000  H
  H793     1.0000 0.75095  0.17007  0.86855  Biso   1.000  H
  C775     1.0000 0.73573  0.06416  0.95568  Biso   1.000  C
  C776     1.0000 0.73573  0.06416  0.95565  Biso   1.000  C
  C777     1.0000 0.73576  0.06416  0.95568  Biso   1.000  C
  C778     1.0000 0.73576  0.06416  0.95565  Biso   1.000  C
  C779     1.0000 0.29392  0.75762  0.96883  Biso   1.000  C
  C780     1.0000 0.29399  0.75762  0.96883  Biso   1.000  C
  N512     1.0000 0.31069  0.83835  0.87597  Biso   1.000  N
  N513     1.0000 0.31069  0.83835  0.87593  Biso   1.000  N
  H794     1.0000 0.26574  0.87121  0.87455  Biso   1.000  H
  H795     1.0000 0.23423  0.81025  0.88653  Biso   1.000  H
  H796     1.0000 0.26574  0.87121  0.87451  Biso   1.000  H
  H797     1.0000 0.23424  0.81021  0.88653  Biso   1.000  H
  C781     1.0000 0.64162  0.08175  0.83098  Biso   1.000  C
  C782     1.0000 0.64162  0.08175  0.83094  Biso   1.000  C
  C783     1.0000 0.64165  0.08175  0.83098  Biso   1.000  C
  C784     1.0000 0.64165  0.08175  0.83094  Biso   1.000  C
  C785     1.0000 0.70464  0.06408  0.86638  Biso   1.000  C
  C786     1.0000 0.70464  0.06408  0.86634  Biso   1.000  C
  C787     1.0000 0.70465  0.06404  0.86638  Biso   1.000  C
  C788     1.0000 0.70465  0.06404  0.86634  Biso   1.000  C
  N514     1.0000 0.69650  0.03936  0.91564  Biso   1.000  N
  N515     1.0000 0.69654  0.03936  0.91564  Biso   1.000  N
  H798     1.0000 0.73335  0.03676  0.97827  Biso   1.000  H
  H799     1.0000 0.77094  0.08175  0.94078  Biso   1.000  H
  H800     1.0000 0.73335  0.03676  0.97824  Biso   1.000  H
  H801     1.0000 0.77094  0.08175  0.94074  Biso   1.000  H
  N516     1.0000 0.32615  0.77600  0.92429  Biso   1.000  N
  H802     1.0000 0.25818  0.73094  0.95932  Biso   1.000  H
  H803     1.0000 0.30797  0.74074  0.99082  Biso   1.000  H
  C789     1.0000 0.34343  0.87062  0.83873  Biso   1.000  C
  C790     1.0000 0.30967  0.78824  0.87694  Biso   1.000  C
  C791     1.0000 0.30967  0.78824  0.87691  Biso   1.000  C
  C792     1.0000 0.30965  0.78820  0.87694  Biso   1.000  C
  C793     1.0000 0.30965  0.78820  0.87691  Biso   1.000  C
  O229     1.0000 0.61878  0.10560  0.81877  Biso   1.000  O
  N517     1.0000 0.62830  0.03172  0.81618  Biso   1.000  N
  N518     1.0000 0.62830  0.03172  0.81615  Biso   1.000  N
  O230     1.0000 0.61876  0.10556  0.81877  Biso   1.000  O
  N519     1.0000 0.62828  0.03168  0.81618  Biso   1.000  N
  N520     1.0000 0.62828  0.03168  0.81615  Biso   1.000  N
  C794     1.0000 0.66726  0.01748  0.83225  Biso   1.000  C
  H804     1.0000 0.74184  0.08025  0.85537  Biso   1.000  H
  C795     1.0000 0.66604  0.98524  0.91242  Biso   1.000  C
  C796     1.0000 0.66610  0.98524  0.91242  Biso   1.000  C
  C797     1.0000 0.37368  0.77793  0.92025  Biso   1.000  C
  C798     1.0000 0.37368  0.77793  0.92021  Biso   1.000  C
  N521     1.0000 0.37119  0.84835  0.81974  Biso   1.000  N
  O231     1.0000 0.34734  0.91238  0.82506  Biso   1.000  O
  O232     1.0000 0.34735  0.91235  0.82506  Biso   1.000  O
  C799     1.0000 0.35356  0.79612  0.84004  Biso   1.000  C
  C800     1.0000 0.35356  0.79612  0.84001  Biso   1.000  C
  H805     1.0000 0.27506  0.75904  0.86612  Biso   1.000  H
  C801     1.0000 0.59155  0.00417  0.77539  Biso   1.000  C
  C802     1.0000 0.59155  0.00417  0.77535  Biso   1.000  C
  H806     1.0000 0.68614  0.01358  0.80337  Biso   1.000  H
  H807     1.0000 0.68614  0.01358  0.80333  Biso   1.000  H
  H808     1.0000 0.68615  0.01354  0.80337  Biso   1.000  H
  H809     1.0000 0.68615  0.01354  0.80333  Biso   1.000  H
  N522     1.0000 0.64654  0.97202  0.86522  Biso   1.000  N
  N523     1.0000 0.64654  0.97202  0.86518  Biso   1.000  N
  N524     1.0000 0.64652  0.97198  0.86522  Biso   1.000  N
  N525     1.0000 0.64652  0.97198  0.86518  Biso   1.000  N
  O233     1.0000 0.65829  0.95426  0.94696  Biso   1.000  O
  N526     1.0000 0.39207  0.79269  0.87222  Biso   1.000  N
  N527     1.0000 0.39207  0.79269  0.87219  Biso   1.000  N
  N528     1.0000 0.39205  0.79265  0.87222  Biso   1.000  N
  N529     1.0000 0.39205  0.79265  0.87219  Biso   1.000  N
  O234     1.0000 0.39669  0.76825  0.95370  Biso   1.000  O
  O235     1.0000 0.39667  0.76821  0.95370  Biso   1.000  O
  C803     1.0000 0.40577  0.86944  0.77633  Biso   1.000  C
  C804     1.0000 0.40575  0.86940  0.77633  Biso   1.000  C
  H810     1.0000 0.34023  0.76892  0.81345  Biso   1.000  H
  H811     1.0000 0.34023  0.76892  0.81341  Biso   1.000  H
  H812     1.0000 0.57934  0.02708  0.76157  Biso   1.000  H
  H813     1.0000 0.57932  0.02704  0.76157  Biso   1.000  H
  N530     1.0000 0.54608  0.95462  0.79097  Biso   1.000  N
  H814     1.0000 0.61011  0.99705  0.74875  Biso   1.000  H
  N531     1.0000 0.54608  0.95462  0.79093  Biso   1.000  N
  C805     1.0000 0.62347  0.91872  0.84664  Biso   1.000  C
  C806     1.0000 0.62347  0.91872  0.84660  Biso   1.000  C
  C807     1.0000 0.43504  0.78722  0.85274  Biso   1.000  C
  C808     1.0000 0.43504  0.78722  0.85271  Biso   1.000  C
  N532     1.0000 0.46109  0.89270  0.78809  Biso   1.000  N
  N533     1.0000 0.46109  0.89270  0.78805  Biso   1.000  N
  N534     1.0000 0.46111  0.89267  0.78809  Biso   1.000  N
  N535     1.0000 0.46111  0.89267  0.78805  Biso   1.000  N
  H815     1.0000 0.39988  0.89613  0.76044  Biso   1.000  H
  H816     1.0000 0.39608  0.84095  0.75205  Biso   1.000  H
  H817     1.0000 0.39988  0.89613  0.76040  Biso   1.000  H
  H818     1.0000 0.39608  0.84095  0.75201  Biso   1.000  H
  H819     1.0000 0.39606  0.84091  0.75205  Biso   1.000  H
  H820     1.0000 0.39606  0.84091  0.75201  Biso   1.000  H
  C809     1.0000 0.54684  0.90522  0.79075  Biso   1.000  C
  C810     1.0000 0.49573  0.94623  0.78505  Biso   1.000  C
  C811     1.0000 0.54684  0.90522  0.79071  Biso   1.000  C
  C812     1.0000 0.49573  0.94623  0.78502  Biso   1.000  C
  N536     1.0000 0.56740  0.89459  0.83581  Biso   1.000  N
  H821     1.0000 0.64183  0.91884  0.81592  Biso   1.000  H
  H822     1.0000 0.62852  0.89711  0.87155  Biso   1.000  H
  H823     1.0000 0.62852  0.89711  0.87151  Biso   1.000  H
  H824     1.0000 0.64187  0.91884  0.81592  Biso   1.000  H
  H825     1.0000 0.62859  0.89711  0.87155  Biso   1.000  H
  H826     1.0000 0.62859  0.89711  0.87151  Biso   1.000  H
  N537     1.0000 0.48125  0.83681  0.84008  Biso   1.000  N
  N538     1.0000 0.48129  0.83677  0.84008  Biso   1.000  N
  H827     1.0000 0.42282  0.76502  0.82263  Biso   1.000  H
  H828     1.0000 0.44477  0.76904  0.87762  Biso   1.000  H
  H829     1.0000 0.42285  0.76502  0.82263  Biso   1.000  H
  C813     1.0000 0.48724  0.86244  0.79165  Biso   1.000  C
  C814     1.0000 0.48724  0.86244  0.79161  Biso   1.000  C
  H830     1.0000 0.56458  0.90203  0.76044  Biso   1.000  H
  H831     1.0000 0.56458  0.90203  0.76040  Biso   1.000  H
  O236     1.0000 0.48404  0.98060  0.77921  Biso   1.000  O
  C815     1.0000 0.52927  0.85323  0.86215  Biso   1.000  C
  C816     1.0000 0.52927  0.85323  0.86211  Biso   1.000  C
  H832     1.0000 0.47772  0.83733  0.76355  Biso   1.000  H
  H833     1.0000 0.47772  0.83733  0.76351  Biso   1.000  H
  H834     1.0000 0.47775  0.83733  0.76355  Biso   1.000  H
  H835     1.0000 0.47775  0.83733  0.76351  Biso   1.000  H
  O237     1.0000 0.53647  0.83335  0.90021  Biso   1.000  O
  O238     1.0000 0.46353  0.16665  0.09979  Biso   1.000  O
  C817     1.0000 0.47073  0.14677  0.13785  Biso   1.000  C
  C818     1.0000 0.47077  0.14677  0.13785  Biso   1.000  C
  N539     1.0000 0.51872  0.16319  0.15992  Biso   1.000  N
  N540     1.0000 0.43256  0.10541  0.16419  Biso   1.000  N
  N541     1.0000 0.43256  0.10541  0.16415  Biso   1.000  N
  N542     1.0000 0.43260  0.10541  0.16419  Biso   1.000  N
  O239     1.0000 0.46356  0.16665  0.09979  Biso   1.000  O
  N543     1.0000 0.43260  0.10541  0.16415  Biso   1.000  N
  C819     1.0000 0.56496  0.21278  0.14726  Biso   1.000  C
  C820     1.0000 0.56496  0.21278  0.14729  Biso   1.000  C
  C821     1.0000 0.56494  0.21274  0.14726  Biso   1.000  C
  C822     1.0000 0.56494  0.21274  0.14729  Biso   1.000  C
  C823     1.0000 0.51273  0.13756  0.20835  Biso   1.000  C
  C824     1.0000 0.51276  0.13756  0.20835  Biso   1.000  C
  C825     1.0000 0.45316  0.09478  0.20925  Biso   1.000  C
  C826     1.0000 0.45314  0.09474  0.20925  Biso   1.000  C
  C827     1.0000 0.37653  0.08128  0.15336  Biso   1.000  C
  C828     1.0000 0.37653  0.08128  0.15340  Biso   1.000  C
  C829     1.0000 0.37654  0.08124  0.15336  Biso   1.000  C
  C830     1.0000 0.37654  0.08124  0.15340  Biso   1.000  C
  N544     1.0000 0.60793  0.20731  0.12778  Biso   1.000  N
  N545     1.0000 0.60793  0.20731  0.12781  Biso   1.000  N
  H836     1.0000 0.57715  0.23498  0.17737  Biso   1.000  H
  H837     1.0000 0.55523  0.23096  0.12238  Biso   1.000  H
  H838     1.0000 0.57715  0.23498  0.17734  Biso   1.000  H
  H839     1.0000 0.55523  0.23096  0.12235  Biso   1.000  H
  N546     1.0000 0.53887  0.10730  0.21191  Biso   1.000  N
  H840     1.0000 0.52225  0.16267  0.23645  Biso   1.000  H
  N547     1.0000 0.45389  0.04538  0.20903  Biso   1.000  N
  H841     1.0000 0.43542  0.09797  0.23956  Biso   1.000  H
  H842     1.0000 0.43542  0.09797  0.23960  Biso   1.000  H
  N548     1.0000 0.45392  0.04538  0.20903  Biso   1.000  N
  H843     1.0000 0.43546  0.09797  0.23956  Biso   1.000  H
  H844     1.0000 0.43546  0.09797  0.23960  Biso   1.000  H
  N549     1.0000 0.35346  0.02798  0.13478  Biso   1.000  N
  H845     1.0000 0.35813  0.08116  0.18408  Biso   1.000  H
  H846     1.0000 0.37145  0.10289  0.12845  Biso   1.000  H
  H847     1.0000 0.37143  0.10285  0.12845  Biso   1.000  H
  C831     1.0000 0.62632  0.22207  0.07975  Biso   1.000  C
  C832     1.0000 0.62636  0.22207  0.07975  Biso   1.000  C
  C833     1.0000 0.64644  0.20388  0.15996  Biso   1.000  C
  C834     1.0000 0.64646  0.20384  0.15996  Biso   1.000  C
  C835     1.0000 0.59423  0.13056  0.22367  Biso   1.000  C
  C836     1.0000 0.59423  0.13056  0.22364  Biso   1.000  C
  C837     1.0000 0.50423  0.05377  0.21495  Biso   1.000  C
  C838     1.0000 0.50427  0.05377  0.21495  Biso   1.000  C
  C839     1.0000 0.40842  0.99583  0.22461  Biso   1.000  C
  C840     1.0000 0.40845  0.99583  0.22461  Biso   1.000  C
  C841     1.0000 0.33274  0.98252  0.16775  Biso   1.000  C
  C842     1.0000 0.33274  0.98252  0.16771  Biso   1.000  C
  C843     1.0000 0.33393  0.01476  0.08758  Biso   1.000  C
  C844     1.0000 0.33393  0.01476  0.08754  Biso   1.000  C
  N550     1.0000 0.67385  0.22400  0.07571  Biso   1.000  N
  N551     1.0000 0.67385  0.22400  0.07567  Biso   1.000  N
  N552     1.0000 0.67383  0.22396  0.07571  Biso   1.000  N
  N553     1.0000 0.67383  0.22396  0.07567  Biso   1.000  N
  O240     1.0000 0.60331  0.23175  0.04630  Biso   1.000  O
  O241     1.0000 0.60331  0.23175  0.04626  Biso   1.000  O
  C845     1.0000 0.69033  0.21176  0.12306  Biso   1.000  C
  C846     1.0000 0.69033  0.21176  0.12309  Biso   1.000  C
  C847     1.0000 0.69036  0.21176  0.12306  Biso   1.000  C
  C848     1.0000 0.69036  0.21176  0.12309  Biso   1.000  C
  N554     1.0000 0.62881  0.15165  0.18026  Biso   1.000  N
  H848     1.0000 0.65973  0.23108  0.18655  Biso   1.000  H
  N555     1.0000 0.62881  0.15165  0.18022  Biso   1.000  N
  H849     1.0000 0.65973  0.23108  0.18659  Biso   1.000  H
  H850     1.0000 0.65975  0.23104  0.18655  Biso   1.000  H
  H851     1.0000 0.65975  0.23104  0.18659  Biso   1.000  H
  H852     1.0000 0.60015  0.10387  0.23956  Biso   1.000  H
  H853     1.0000 0.60392  0.15905  0.24795  Biso   1.000  H
  H854     1.0000 0.60015  0.10387  0.23960  Biso   1.000  H
  H855     1.0000 0.60395  0.15905  0.24795  Biso   1.000  H
  O242     1.0000 0.51596  0.01940  0.22079  Biso   1.000  O
  O243     1.0000 0.51599  0.01940  0.22079  Biso   1.000  O
  N556     1.0000 0.37170  0.96828  0.18382  Biso   1.000  N
  H856     1.0000 0.42066  0.97292  0.23843  Biso   1.000  H
  H857     1.0000 0.42066  0.97292  0.23840  Biso   1.000  H
  H858     1.0000 0.42069  0.97292  0.23843  Biso   1.000  H
  H859     1.0000 0.42069  0.97292  0.23840  Biso   1.000  H
  H860     1.0000 0.38989  0.00295  0.25125  Biso   1.000  H
  H861     1.0000 0.38987  0.00291  0.25125  Biso   1.000  H
  C849     1.0000 0.29533  0.93592  0.13362  Biso   1.000  C
  H862     1.0000 0.31383  0.98642  0.19663  Biso   1.000  H
  H863     1.0000 0.31383  0.98642  0.19667  Biso   1.000  H
  N557     1.0000 0.30346  0.96064  0.08436  Biso   1.000  N
  O244     1.0000 0.34168  0.04574  0.05304  Biso   1.000  O
  O245     1.0000 0.34168  0.04574  0.05301  Biso   1.000  O
  O246     1.0000 0.34171  0.04574  0.05304  Biso   1.000  O
  O247     1.0000 0.34171  0.04574  0.05301  Biso   1.000  O
  C850     1.0000 0.70605  0.24238  0.03117  Biso   1.000  C
  N558     1.0000 0.68931  0.16165  0.12403  Biso   1.000  N
  N559     1.0000 0.68931  0.16165  0.12407  Biso   1.000  N
  H864     1.0000 0.72494  0.24096  0.13388  Biso   1.000  H
  C851     1.0000 0.65653  0.12938  0.16127  Biso   1.000  C
  C852     1.0000 0.65653  0.12938  0.16123  Biso   1.000  C
  C853     1.0000 0.65657  0.12938  0.16127  Biso   1.000  C
  C854     1.0000 0.65657  0.12938  0.16123  Biso   1.000  C
  C855     1.0000 0.35838  0.91825  0.16902  Biso   1.000  C
  C856     1.0000 0.35838  0.91825  0.16906  Biso   1.000  C
  C857     1.0000 0.35836  0.91821  0.16902  Biso   1.000  C
  C858     1.0000 0.35836  0.91821  0.16906  Biso   1.000  C
  N560     1.0000 0.31532  0.89947  0.13793  Biso   1.000  N
  H865     1.0000 0.25816  0.91975  0.14463  Biso   1.000  H
  H866     1.0000 0.25816  0.91975  0.14460  Biso   1.000  H
  H867     1.0000 0.25818  0.91971  0.14463  Biso   1.000  H
  H868     1.0000 0.25818  0.91971  0.14460  Biso   1.000  H
  C859     1.0000 0.26427  0.93584  0.04432  Biso   1.000  C
  C860     1.0000 0.26425  0.93580  0.04432  Biso   1.000  C
  N561     1.0000 0.70817  0.20046  0.00311  Biso   1.000  N
  N562     1.0000 0.70817  0.20046  0.00315  Biso   1.000  N
  H869     1.0000 0.74182  0.26906  0.04068  Biso   1.000  H
  H870     1.0000 0.69203  0.25926  0.00918  Biso   1.000  H
  H871     1.0000 0.69203  0.25926  0.00914  Biso   1.000  H
  H872     1.0000 0.74185  0.26906  0.04068  Biso   1.000  H
  H873     1.0000 0.69206  0.25926  0.00918  Biso   1.000  H
  H874     1.0000 0.69206  0.25926  0.00914  Biso   1.000  H
  C861     1.0000 0.73305  0.15677  0.10646  Biso   1.000  C
  O248     1.0000 0.65266  0.08762  0.17494  Biso   1.000  O
  O249     1.0000 0.38122  0.89440  0.18123  Biso   1.000  O
  O250     1.0000 0.38122  0.89440  0.18119  Biso   1.000  O
  C862     1.0000 0.28585  0.84504  0.12115  Biso   1.000  C
  N563     1.0000 0.27136  0.89786  0.01570  Biso   1.000  N
  N564     1.0000 0.27136  0.89786  0.01566  Biso   1.000  N
  H875     1.0000 0.26669  0.96324  0.02173  Biso   1.000  H
  H876     1.0000 0.22909  0.91825  0.05922  Biso   1.000  H
  H877     1.0000 0.22907  0.91821  0.05922  Biso   1.000  H
  C863     1.0000 0.69343  0.19137  0.95306  Biso   1.000  C
  C864     1.0000 0.69346  0.19137  0.95306  Biso   1.000  C
  C865     1.0000 0.74703  0.18507  0.01487  Biso   1.000  C
  C866     1.0000 0.74707  0.18507  0.01487  Biso   1.000  C
  N565     1.0000 0.73103  0.14516  0.05364  Biso   1.000  N
  H878     1.0000 0.73426  0.12879  0.12545  Biso   1.000  H
  H879     1.0000 0.76574  0.18975  0.11347  Biso   1.000  H
  H880     1.0000 0.76574  0.18975  0.11343  Biso   1.000  H
  H881     1.0000 0.73424  0.12875  0.12545  Biso   1.000  H
  N566     1.0000 0.28769  0.83890  0.06709  Biso   1.000  N
  N567     1.0000 0.28769  0.83890  0.06713  Biso   1.000  N
  H882     1.0000 0.29993  0.82493  0.13774  Biso   1.000  H
  H883     1.0000 0.24908  0.82993  0.13145  Biso   1.000  H
  H884     1.0000 0.29993  0.82493  0.13770  Biso   1.000  H
  H885     1.0000 0.29996  0.82493  0.13774  Biso   1.000  H
  H886     1.0000 0.29996  0.82493  0.13770  Biso   1.000  H
  C867     1.0000 0.27838  0.90223  0.96482  Biso   1.000  C
  C868     1.0000 0.25197  0.84484  0.03334  Biso   1.000  C
  C869     1.0000 0.25197  0.84484  0.03330  Biso   1.000  C
  C870     1.0000 0.25195  0.84480  0.03334  Biso   1.000  C
  C871     1.0000 0.25195  0.84480  0.03330  Biso   1.000  C
  N568     1.0000 0.71231  0.16110  0.93291  Biso   1.000  N
  N569     1.0000 0.71231  0.16110  0.93287  Biso   1.000  N
  O251     1.0000 0.66689  0.20688  0.93119  Biso   1.000  O
  O252     1.0000 0.66687  0.20684  0.93119  Biso   1.000  O
  C872     1.0000 0.74803  0.15516  0.96666  Biso   1.000  C
  C873     1.0000 0.74806  0.15516  0.96666  Biso   1.000  C
  H887     1.0000 0.78195  0.21597  0.02206  Biso   1.000  H
  C874     1.0000 0.72165  0.09777  0.03518  Biso   1.000  C
  C875     1.0000 0.30654  0.80863  0.04694  Biso   1.000  C
  C876     1.0000 0.30654  0.80863  0.04690  Biso   1.000  C
  N570     1.0000 0.26897  0.85484  0.94636  Biso   1.000  N
  N571     1.0000 0.26897  0.85484  0.94632  Biso   1.000  N
  N572     1.0000 0.26898  0.85480  0.94636  Biso   1.000  N
  N573     1.0000 0.26898  0.85480  0.94632  Biso   1.000  N
  O253     1.0000 0.29108  0.94222  0.93973  Biso   1.000  O
  O254     1.0000 0.29108  0.94222  0.93969  Biso   1.000  O
  C877     1.0000 0.25297  0.81493  0.98513  Biso   1.000  C
  H888     1.0000 0.21607  0.82941  0.04742  Biso   1.000  H
  C878     1.0000 0.71415  0.15496  0.87885  Biso   1.000  C
  N574     1.0000 0.72864  0.10214  0.98430  Biso   1.000  N
  N575     1.0000 0.72868  0.10214  0.98430  Biso   1.000  N
  H889     1.0000 0.78393  0.17059  0.95258  Biso   1.000  H
  H890     1.0000 0.78393  0.17059  0.95254  Biso   1.000  H
  H891     1.0000 0.78395  0.17055  0.95258  Biso   1.000  H
  H892     1.0000 0.78395  0.17055  0.95254  Biso   1.000  H
  O255     1.0000 0.70888  0.05778  0.06027  Biso   1.000  O
  O256     1.0000 0.70890  0.05774  0.06027  Biso   1.000  O
  N576     1.0000 0.29183  0.79954  0.99689  Biso   1.000  N
  N577     1.0000 0.29183  0.79954  0.99685  Biso   1.000  N
  O257     1.0000 0.33311  0.79312  0.06881  Biso   1.000  O
  C879     1.0000 0.26698  0.84323  0.89354  Biso   1.000  C
  C880     1.0000 0.26698  0.84323  0.89350  Biso   1.000  C
  H893     1.0000 0.21805  0.78403  0.97794  Biso   1.000  H
  H894     1.0000 0.21805  0.78403  0.97790  Biso   1.000  H
  H895     1.0000 0.21809  0.78403  0.97794  Biso   1.000  H
  H896     1.0000 0.21809  0.78403  0.97790  Biso   1.000  H
  N578     1.0000 0.68468  0.10053  0.86207  Biso   1.000  N
  N579     1.0000 0.68470  0.10049  0.86207  Biso   1.000  N
  H897     1.0000 0.70004  0.17507  0.86226  Biso   1.000  H
  H898     1.0000 0.75095  0.17007  0.86855  Biso   1.000  H
  C881     1.0000 0.73573  0.06416  0.95568  Biso   1.000  C
  C882     1.0000 0.73573  0.06416  0.95565  Biso   1.000  C
  C883     1.0000 0.73576  0.06416  0.95568  Biso   1.000  C
  C884     1.0000 0.73576  0.06416  0.95565  Biso   1.000  C
  C885     1.0000 0.29392  0.75762  0.96883  Biso   1.000  C
  C886     1.0000 0.29399  0.75762  0.96883  Biso   1.000  C
  N580     1.0000 0.31069  0.83835  0.87597  Biso   1.000  N
  N581     1.0000 0.31069  0.83835  0.87593  Biso   1.000  N
  H899     1.0000 0.26574  0.87121  0.87455  Biso   1.000  H
  H900     1.0000 0.23423  0.81025  0.88653  Biso   1.000  H
  H901     1.0000 0.26574  0.87121  0.87451  Biso   1.000  H
  H902     1.0000 0.23424  0.81021  0.88653  Biso   1.000  H
  C887     1.0000 0.64162  0.08175  0.83098  Biso   1.000  C
  C888     1.0000 0.64162  0.08175  0.83094  Biso   1.000  C
  C889     1.0000 0.64165  0.08175  0.83098  Biso   1.000  C
  C890     1.0000 0.64165  0.08175  0.83094  Biso   1.000  C
  C891     1.0000 0.70464  0.06408  0.86638  Biso   1.000  C
  C892     1.0000 0.70464  0.06408  0.86634  Biso   1.000  C
  C893     1.0000 0.70465  0.06404  0.86638  Biso   1.000  C
  C894     1.0000 0.70465  0.06404  0.86634  Biso   1.000  C
  N582     1.0000 0.69650  0.03936  0.91564  Biso   1.000  N
  N583     1.0000 0.69654  0.03936  0.91564  Biso   1.000  N
  H903     1.0000 0.73335  0.03676  0.97827  Biso   1.000  H
  H904     1.0000 0.77094  0.08175  0.94078  Biso   1.000  H
  H905     1.0000 0.73335  0.03676  0.97824  Biso   1.000  H
  H906     1.0000 0.77094  0.08175  0.94074  Biso   1.000  H
  N584     1.0000 0.32615  0.77600  0.92429  Biso   1.000  N
  H907     1.0000 0.25818  0.73094  0.95932  Biso   1.000  H
  H908     1.0000 0.30797  0.74074  0.99082  Biso   1.000  H
  C895     1.0000 0.34343  0.87062  0.83873  Biso   1.000  C
  C896     1.0000 0.30967  0.78824  0.87694  Biso   1.000  C
  C897     1.0000 0.30967  0.78824  0.87691  Biso   1.000  C
  C898     1.0000 0.30965  0.78820  0.87694  Biso   1.000  C
  C899     1.0000 0.30965  0.78820  0.87691  Biso   1.000  C
  O258     1.0000 0.61878  0.10560  0.81877  Biso   1.000  O
  O259     1.0000 0.61876  0.10556  0.81877  Biso   1.000  O
  N585     1.0000 0.62830  0.03172  0.81618  Biso   1.000  N
  N586     1.0000 0.62830  0.03172  0.81615  Biso   1.000  N
  N587     1.0000 0.62828  0.03168  0.81618  Biso   1.000  N
  N588     1.0000 0.62828  0.03168  0.81615  Biso   1.000  N
  C900     1.0000 0.66726  0.01748  0.83225  Biso   1.000  C
  H909     1.0000 0.74184  0.08025  0.85537  Biso   1.000  H
  C901     1.0000 0.66604  0.98524  0.91242  Biso   1.000  C
  C902     1.0000 0.66610  0.98524  0.91242  Biso   1.000  C
  C903     1.0000 0.37368  0.77793  0.92025  Biso   1.000  C
  C904     1.0000 0.37368  0.77793  0.92021  Biso   1.000  C
  N589     1.0000 0.37119  0.84835  0.81974  Biso   1.000  N
  O260     1.0000 0.34734  0.91238  0.82506  Biso   1.000  O
  O261     1.0000 0.34735  0.91235  0.82506  Biso   1.000  O
  H910     1.0000 0.27506  0.75904  0.86612  Biso   1.000  H
  C905     1.0000 0.35356  0.79612  0.84004  Biso   1.000  C
  C906     1.0000 0.35356  0.79612  0.84001  Biso   1.000  C
  C907     1.0000 0.59155  0.00417  0.77539  Biso   1.000  C
  C908     1.0000 0.59155  0.00417  0.77535  Biso   1.000  C
  N590     1.0000 0.64654  0.97202  0.86522  Biso   1.000  N
  N591     1.0000 0.64654  0.97202  0.86518  Biso   1.000  N
  N592     1.0000 0.64652  0.97198  0.86522  Biso   1.000  N
  N593     1.0000 0.64652  0.97198  0.86518  Biso   1.000  N
  H911     1.0000 0.68614  0.01358  0.80337  Biso   1.000  H
  H912     1.0000 0.68614  0.01358  0.80333  Biso   1.000  H
  H913     1.0000 0.68615  0.01354  0.80337  Biso   1.000  H
  H914     1.0000 0.68615  0.01354  0.80333  Biso   1.000  H
  O262     1.0000 0.65829  0.95426  0.94696  Biso   1.000  O
  N594     1.0000 0.39207  0.79269  0.87222  Biso   1.000  N
  N595     1.0000 0.39207  0.79269  0.87219  Biso   1.000  N
  N596     1.0000 0.39205  0.79265  0.87222  Biso   1.000  N
  N597     1.0000 0.39205  0.79265  0.87219  Biso   1.000  N
  O263     1.0000 0.39669  0.76825  0.95370  Biso   1.000  O
  O264     1.0000 0.39667  0.76821  0.95370  Biso   1.000  O
  C909     1.0000 0.40577  0.86944  0.77633  Biso   1.000  C
  C910     1.0000 0.40575  0.86940  0.77633  Biso   1.000  C
  H915     1.0000 0.34023  0.76892  0.81345  Biso   1.000  H
  H916     1.0000 0.34023  0.76892  0.81341  Biso   1.000  H
  H917     1.0000 0.57934  0.02708  0.76157  Biso   1.000  H
  H918     1.0000 0.57932  0.02704  0.76157  Biso   1.000  H
  N598     1.0000 0.54608  0.95462  0.79097  Biso   1.000  N
  H919     1.0000 0.61011  0.99705  0.74875  Biso   1.000  H
  N599     1.0000 0.54608  0.95462  0.79093  Biso   1.000  N
  C911     1.0000 0.62347  0.91872  0.84664  Biso   1.000  C
  C912     1.0000 0.62347  0.91872  0.84660  Biso   1.000  C
  C913     1.0000 0.43504  0.78722  0.85274  Biso   1.000  C
  C914     1.0000 0.43504  0.78722  0.85271  Biso   1.000  C
  N600     1.0000 0.46109  0.89270  0.78809  Biso   1.000  N
  N601     1.0000 0.46109  0.89270  0.78805  Biso   1.000  N
  N602     1.0000 0.46111  0.89267  0.78809  Biso   1.000  N
  N603     1.0000 0.46111  0.89267  0.78805  Biso   1.000  N
  H920     1.0000 0.39988  0.89613  0.76044  Biso   1.000  H
  H921     1.0000 0.39608  0.84095  0.75205  Biso   1.000  H
  H922     1.0000 0.39988  0.89613  0.76040  Biso   1.000  H
  H923     1.0000 0.39608  0.84095  0.75201  Biso   1.000  H
  H924     1.0000 0.39606  0.84091  0.75205  Biso   1.000  H
  H925     1.0000 0.39606  0.84091  0.75201  Biso   1.000  H
  C915     1.0000 0.54684  0.90522  0.79075  Biso   1.000  C
  C916     1.0000 0.49573  0.94623  0.78505  Biso   1.000  C
  C917     1.0000 0.54684  0.90522  0.79071  Biso   1.000  C
  C918     1.0000 0.49573  0.94623  0.78502  Biso   1.000  C
  N604     1.0000 0.56740  0.89459  0.83581  Biso   1.000  N
  H926     1.0000 0.64183  0.91884  0.81592  Biso   1.000  H
  H927     1.0000 0.62852  0.89711  0.87155  Biso   1.000  H
  H928     1.0000 0.62852  0.89711  0.87151  Biso   1.000  H
  H929     1.0000 0.64187  0.91884  0.81592  Biso   1.000  H
  H930     1.0000 0.62859  0.89711  0.87155  Biso   1.000  H
  H931     1.0000 0.62859  0.89711  0.87151  Biso   1.000  H
  H932     1.0000 0.44477  0.76904  0.87762  Biso   1.000  H
  N605     1.0000 0.48125  0.83681  0.84008  Biso   1.000  N
  N606     1.0000 0.48129  0.83677  0.84008  Biso   1.000  N
  H933     1.0000 0.42282  0.76502  0.82263  Biso   1.000  H
  H934     1.0000 0.42285  0.76502  0.82263  Biso   1.000  H
  C919     1.0000 0.48724  0.86244  0.79165  Biso   1.000  C
  C920     1.0000 0.48724  0.86244  0.79161  Biso   1.000  C
  H935     1.0000 0.56458  0.90203  0.76044  Biso   1.000  H
  H936     1.0000 0.56458  0.90203  0.76040  Biso   1.000  H
  O265     1.0000 0.48404  0.98060  0.77921  Biso   1.000  O
  C921     1.0000 0.52927  0.85323  0.86215  Biso   1.000  C
  C922     1.0000 0.52927  0.85323  0.86211  Biso   1.000  C
  H937     1.0000 0.47772  0.83733  0.76355  Biso   1.000  H
  H938     1.0000 0.47772  0.83733  0.76351  Biso   1.000  H
  H939     1.0000 0.47775  0.83733  0.76355  Biso   1.000  H
  H940     1.0000 0.47775  0.83733  0.76351  Biso   1.000  H
  O266     1.0000 0.53647  0.83335  0.90021  Biso   1.000  O
  O267     1.0000 0.46353  0.16665  0.09979  Biso   1.000  O
  C923     1.0000 0.47073  0.14677  0.13785  Biso   1.000  C
  C924     1.0000 0.47077  0.14677  0.13785  Biso   1.000  C
  N607     1.0000 0.51872  0.16319  0.15992  Biso   1.000  N
  N608     1.0000 0.43256  0.10541  0.16419  Biso   1.000  N
  N609     1.0000 0.43256  0.10541  0.16415  Biso   1.000  N
  N610     1.0000 0.43260  0.10541  0.16419  Biso   1.000  N
  O268     1.0000 0.46356  0.16665  0.09979  Biso   1.000  O
  N611     1.0000 0.43260  0.10541  0.16415  Biso   1.000  N
  C925     1.0000 0.56496  0.21278  0.14726  Biso   1.000  C
  C926     1.0000 0.56496  0.21278  0.14729  Biso   1.000  C
  C927     1.0000 0.56494  0.21274  0.14726  Biso   1.000  C
  C928     1.0000 0.56494  0.21274  0.14729  Biso   1.000  C
  C929     1.0000 0.51273  0.13756  0.20835  Biso   1.000  C
  C930     1.0000 0.51276  0.13756  0.20835  Biso   1.000  C
  C931     1.0000 0.45316  0.09478  0.20925  Biso   1.000  C
  C932     1.0000 0.45314  0.09474  0.20925  Biso   1.000  C
  C933     1.0000 0.37653  0.08128  0.15336  Biso   1.000  C
  C934     1.0000 0.37653  0.08128  0.15340  Biso   1.000  C
  C935     1.0000 0.37654  0.08124  0.15336  Biso   1.000  C
  C936     1.0000 0.37654  0.08124  0.15340  Biso   1.000  C
  N612     1.0000 0.60793  0.20731  0.12778  Biso   1.000  N
  N613     1.0000 0.60793  0.20731  0.12781  Biso   1.000  N
  H941     1.0000 0.57715  0.23498  0.17737  Biso   1.000  H
  H942     1.0000 0.55523  0.23096  0.12238  Biso   1.000  H
  H943     1.0000 0.57715  0.23498  0.17734  Biso   1.000  H
  H944     1.0000 0.55523  0.23096  0.12235  Biso   1.000  H
  N614     1.0000 0.53887  0.10730  0.21191  Biso   1.000  N
  H945     1.0000 0.52225  0.16267  0.23645  Biso   1.000  H
  N615     1.0000 0.45389  0.04538  0.20903  Biso   1.000  N
  H946     1.0000 0.43542  0.09797  0.23956  Biso   1.000  H
  H947     1.0000 0.43542  0.09797  0.23960  Biso   1.000  H
  N616     1.0000 0.45392  0.04538  0.20903  Biso   1.000  N
  H948     1.0000 0.43546  0.09797  0.23956  Biso   1.000  H
  H949     1.0000 0.43546  0.09797  0.23960  Biso   1.000  H
  N617     1.0000 0.35346  0.02798  0.13478  Biso   1.000  N
  H950     1.0000 0.35813  0.08116  0.18408  Biso   1.000  H
  H951     1.0000 0.37145  0.10289  0.12845  Biso   1.000  H
  H952     1.0000 0.37143  0.10285  0.12845  Biso   1.000  H
  C937     1.0000 0.62632  0.22207  0.07975  Biso   1.000  C
  C938     1.0000 0.62636  0.22207  0.07975  Biso   1.000  C
  C939     1.0000 0.64644  0.20388  0.15996  Biso   1.000  C
  C940     1.0000 0.64646  0.20384  0.15996  Biso   1.000  C
  C941     1.0000 0.59423  0.13056  0.22367  Biso   1.000  C
  C942     1.0000 0.59423  0.13056  0.22364  Biso   1.000  C
  C943     1.0000 0.50423  0.05377  0.21495  Biso   1.000  C
  C944     1.0000 0.50427  0.05377  0.21495  Biso   1.000  C
  C945     1.0000 0.40842  0.99583  0.22461  Biso   1.000  C
  C946     1.0000 0.40845  0.99583  0.22461  Biso   1.000  C
  C947     1.0000 0.33274  0.98252  0.16775  Biso   1.000  C
  C948     1.0000 0.33274  0.98252  0.16771  Biso   1.000  C
  C949     1.0000 0.33393  0.01476  0.08758  Biso   1.000  C
  C950     1.0000 0.33393  0.01476  0.08754  Biso   1.000  C
  N618     1.0000 0.67385  0.22400  0.07571  Biso   1.000  N
  N619     1.0000 0.67385  0.22400  0.07567  Biso   1.000  N
  N620     1.0000 0.67383  0.22396  0.07571  Biso   1.000  N
  N621     1.0000 0.67383  0.22396  0.07567  Biso   1.000  N
  O269     1.0000 0.60331  0.23175  0.04630  Biso   1.000  O
  O270     1.0000 0.60331  0.23175  0.04626  Biso   1.000  O
  C951     1.0000 0.69033  0.21176  0.12306  Biso   1.000  C
  C952     1.0000 0.69033  0.21176  0.12309  Biso   1.000  C
  C953     1.0000 0.69036  0.21176  0.12306  Biso   1.000  C
  C954     1.0000 0.69036  0.21176  0.12309  Biso   1.000  C
  N622     1.0000 0.62881  0.15165  0.18026  Biso   1.000  N
  H953     1.0000 0.65973  0.23108  0.18655  Biso   1.000  H
  N623     1.0000 0.62881  0.15165  0.18022  Biso   1.000  N
  H954     1.0000 0.65973  0.23108  0.18659  Biso   1.000  H
  H955     1.0000 0.65975  0.23104  0.18655  Biso   1.000  H
  H956     1.0000 0.65975  0.23104  0.18659  Biso   1.000  H
  H957     1.0000 0.60015  0.10387  0.23956  Biso   1.000  H
  H958     1.0000 0.60392  0.15905  0.24795  Biso   1.000  H
  H959     1.0000 0.60015  0.10387  0.23960  Biso   1.000  H
  H960     1.0000 0.60395  0.15905  0.24795  Biso   1.000  H
  O271     1.0000 0.51596  0.01940  0.22079  Biso   1.000  O
  O272     1.0000 0.51599  0.01940  0.22079  Biso   1.000  O
  N624     1.0000 0.37170  0.96828  0.18382  Biso   1.000  N
  H961     1.0000 0.42066  0.97292  0.23843  Biso   1.000  H
  H962     1.0000 0.42066  0.97292  0.23840  Biso   1.000  H
  H963     1.0000 0.42069  0.97292  0.23843  Biso   1.000  H
  H964     1.0000 0.42069  0.97292  0.23840  Biso   1.000  H
  H965     1.0000 0.38989  0.00295  0.25125  Biso   1.000  H
  H966     1.0000 0.38987  0.00291  0.25125  Biso   1.000  H
  H967     1.0000 0.31383  0.98642  0.19663  Biso   1.000  H
  C955     1.0000 0.29533  0.93592  0.13362  Biso   1.000  C
  H968     1.0000 0.31383  0.98642  0.19667  Biso   1.000  H
  N625     1.0000 0.30346  0.96064  0.08436  Biso   1.000  N
  O273     1.0000 0.34168  0.04574  0.05304  Biso   1.000  O
  O274     1.0000 0.34168  0.04574  0.05301  Biso   1.000  O
  O275     1.0000 0.34171  0.04574  0.05304  Biso   1.000  O
  O276     1.0000 0.34171  0.04574  0.05301  Biso   1.000  O
  C956     1.0000 0.70605  0.24238  0.03117  Biso   1.000  C
  N626     1.0000 0.68931  0.16165  0.12403  Biso   1.000  N
  N627     1.0000 0.68931  0.16165  0.12407  Biso   1.000  N
  H969     1.0000 0.72494  0.24096  0.13388  Biso   1.000  H
  C957     1.0000 0.65653  0.12938  0.16127  Biso   1.000  C
  C958     1.0000 0.65653  0.12938  0.16123  Biso   1.000  C
  C959     1.0000 0.65657  0.12938  0.16127  Biso   1.000  C
  C960     1.0000 0.65657  0.12938  0.16123  Biso   1.000  C
  C961     1.0000 0.35838  0.91825  0.16902  Biso   1.000  C
  C962     1.0000 0.35838  0.91825  0.16906  Biso   1.000  C
  C963     1.0000 0.35836  0.91821  0.16902  Biso   1.000  C
  C964     1.0000 0.35836  0.91821  0.16906  Biso   1.000  C
  N628     1.0000 0.31532  0.89947  0.13793  Biso   1.000  N
  H970     1.0000 0.25816  0.91975  0.14463  Biso   1.000  H
  H971     1.0000 0.25816  0.91975  0.14460  Biso   1.000  H
  H972     1.0000 0.25818  0.91971  0.14463  Biso   1.000  H
  H973     1.0000 0.25818  0.91971  0.14460  Biso   1.000  H
  C965     1.0000 0.26427  0.93584  0.04432  Biso   1.000  C
  C966     1.0000 0.26425  0.93580  0.04432  Biso   1.000  C
  N629     1.0000 0.70817  0.20046  0.00311  Biso   1.000  N
  N630     1.0000 0.70817  0.20046  0.00315  Biso   1.000  N
  H974     1.0000 0.74182  0.26906  0.04068  Biso   1.000  H
  H975     1.0000 0.69203  0.25926  0.00918  Biso   1.000  H
  H976     1.0000 0.69203  0.25926  0.00914  Biso   1.000  H
  H977     1.0000 0.74185  0.26906  0.04068  Biso   1.000  H
  H978     1.0000 0.69206  0.25926  0.00918  Biso   1.000  H
  H979     1.0000 0.69206  0.25926  0.00914  Biso   1.000  H
  C967     1.0000 0.73305  0.15677  0.10646  Biso   1.000  C
  O277     1.0000 0.65266  0.08762  0.17494  Biso   1.000  O
  O278     1.0000 0.38122  0.89440  0.18123  Biso   1.000  O
  O279     1.0000 0.38122  0.89440  0.18119  Biso   1.000  O
  C968     1.0000 0.28585  0.84504  0.12115  Biso   1.000  C
  N631     1.0000 0.27136  0.89786  0.01570  Biso   1.000  N
  N632     1.0000 0.27136  0.89786  0.01566  Biso   1.000  N
  H980     1.0000 0.26669  0.96324  0.02173  Biso   1.000  H
  H981     1.0000 0.22909  0.91825  0.05922  Biso   1.000  H
  H982     1.0000 0.22907  0.91821  0.05922  Biso   1.000  H
  C969     1.0000 0.69343  0.19137  0.95306  Biso   1.000  C
  C970     1.0000 0.69346  0.19137  0.95306  Biso   1.000  C
  C971     1.0000 0.74703  0.18507  0.01487  Biso   1.000  C
  C972     1.0000 0.74707  0.18507  0.01487  Biso   1.000  C
  N633     1.0000 0.73103  0.14516  0.05364  Biso   1.000  N
  H983     1.0000 0.73426  0.12879  0.12545  Biso   1.000  H
  H984     1.0000 0.76574  0.18975  0.11347  Biso   1.000  H
  H985     1.0000 0.76574  0.18975  0.11343  Biso   1.000  H
  H986     1.0000 0.73424  0.12875  0.12545  Biso   1.000  H
  N634     1.0000 0.28769  0.83890  0.06709  Biso   1.000  N
  N635     1.0000 0.28769  0.83890  0.06713  Biso   1.000  N
  H987     1.0000 0.29993  0.82493  0.13774  Biso   1.000  H
  H988     1.0000 0.24908  0.82993  0.13145  Biso   1.000  H
  H989     1.0000 0.29993  0.82493  0.13770  Biso   1.000  H
  H990     1.0000 0.29996  0.82493  0.13774  Biso   1.000  H
  H991     1.0000 0.29996  0.82493  0.13770  Biso   1.000  H
  C973     1.0000 0.27838  0.90223  0.96482  Biso   1.000  C
  C974     1.0000 0.25197  0.84484  0.03334  Biso   1.000  C
  C975     1.0000 0.25197  0.84484  0.03330  Biso   1.000  C
  C976     1.0000 0.25195  0.84480  0.03334  Biso   1.000  C
  C977     1.0000 0.25195  0.84480  0.03330  Biso   1.000  C
  N636     1.0000 0.71231  0.16110  0.93291  Biso   1.000  N
  N637     1.0000 0.71231  0.16110  0.93287  Biso   1.000  N
  O280     1.0000 0.66689  0.20688  0.93119  Biso   1.000  O
  O281     1.0000 0.66687  0.20684  0.93119  Biso   1.000  O
  C978     1.0000 0.74803  0.15516  0.96666  Biso   1.000  C
  C979     1.0000 0.74806  0.15516  0.96666  Biso   1.000  C
  H992     1.0000 0.78195  0.21597  0.02206  Biso   1.000  H
  C980     1.0000 0.72165  0.09777  0.03518  Biso   1.000  C
  C981     1.0000 0.30654  0.80863  0.04694  Biso   1.000  C
  C982     1.0000 0.30654  0.80863  0.04690  Biso   1.000  C
  N638     1.0000 0.26897  0.85484  0.94636  Biso   1.000  N
  N639     1.0000 0.26897  0.85484  0.94632  Biso   1.000  N
  N640     1.0000 0.26898  0.85480  0.94636  Biso   1.000  N
  N641     1.0000 0.26898  0.85480  0.94632  Biso   1.000  N
  O282     1.0000 0.29108  0.94222  0.93973  Biso   1.000  O
  O283     1.0000 0.29108  0.94222  0.93969  Biso   1.000  O
  C983     1.0000 0.25297  0.81493  0.98513  Biso   1.000  C
  H993     1.0000 0.21607  0.82941  0.04742  Biso   1.000  H
  C984     1.0000 0.71415  0.15496  0.87885  Biso   1.000  C
  N642     1.0000 0.72864  0.10214  0.98430  Biso   1.000  N
  H994     1.0000 0.78393  0.17059  0.95258  Biso   1.000  H
  H995     1.0000 0.78393  0.17059  0.95254  Biso   1.000  H
  N643     1.0000 0.72868  0.10214  0.98430  Biso   1.000  N
  H996     1.0000 0.78395  0.17055  0.95258  Biso   1.000  H
  H997     1.0000 0.78395  0.17055  0.95254  Biso   1.000  H
  O284     1.0000 0.70888  0.05778  0.06027  Biso   1.000  O
  O285     1.0000 0.70890  0.05774  0.06027  Biso   1.000  O
  N644     1.0000 0.29183  0.79954  0.99689  Biso   1.000  N
  N645     1.0000 0.29183  0.79954  0.99685  Biso   1.000  N
  O286     1.0000 0.33311  0.79312  0.06881  Biso   1.000  O
  C985     1.0000 0.26698  0.84323  0.89354  Biso   1.000  C
  C986     1.0000 0.26698  0.84323  0.89350  Biso   1.000  C
  H998     1.0000 0.21805  0.78403  0.97794  Biso   1.000  H
  H999     1.0000 0.21805  0.78403  0.97790  Biso   1.000  H
  H1000    1.0000 0.21809  0.78403  0.97794  Biso   1.000  H
  H1001    1.0000 0.21809  0.78403  0.97790  Biso   1.000  H
  H1002    1.0000 0.70004  0.17507  0.86226  Biso   1.000  H
  H1003    1.0000 0.75095  0.17007  0.86855  Biso   1.000  H
  N646     1.0000 0.68468  0.10053  0.86207  Biso   1.000  N
  N647     1.0000 0.68470  0.10049  0.86207  Biso   1.000  N
  C987     1.0000 0.73573  0.06416  0.95568  Biso   1.000  C
  C988     1.0000 0.73573  0.06416  0.95565  Biso   1.000  C
  C989     1.0000 0.73576  0.06416  0.95568  Biso   1.000  C
  C990     1.0000 0.73576  0.06416  0.95565  Biso   1.000  C
  C991     1.0000 0.29392  0.75762  0.96883  Biso   1.000  C
  C992     1.0000 0.29399  0.75762  0.96883  Biso   1.000  C
  N648     1.0000 0.31069  0.83835  0.87597  Biso   1.000  N
  N649     1.0000 0.31069  0.83835  0.87593  Biso   1.000  N
  H1004    1.0000 0.26574  0.87121  0.87455  Biso   1.000  H
  H1005    1.0000 0.23423  0.81025  0.88653  Biso   1.000  H
  H1006    1.0000 0.26574  0.87121  0.87451  Biso   1.000  H
  H1007    1.0000 0.23424  0.81021  0.88653  Biso   1.000  H
  C993     1.0000 0.64162  0.08175  0.83098  Biso   1.000  C
  C994     1.0000 0.70464  0.06408  0.86638  Biso   1.000  C
  C995     1.0000 0.64162  0.08175  0.83094  Biso   1.000  C
  C996     1.0000 0.70464  0.06408  0.86634  Biso   1.000  C
  C997     1.0000 0.64165  0.08175  0.83098  Biso   1.000  C
  C998     1.0000 0.70465  0.06404  0.86638  Biso   1.000  C
  C999     1.0000 0.64165  0.08175  0.83094  Biso   1.000  C
  C1000    1.0000 0.70465  0.06404  0.86634  Biso   1.000  C
  N650     1.0000 0.69650  0.03936  0.91564  Biso   1.000  N
  N651     1.0000 0.69654  0.03936  0.91564  Biso   1.000  N
  H1008    1.0000 0.73335  0.03676  0.97827  Biso   1.000  H
  H1009    1.0000 0.77094  0.08175  0.94078  Biso   1.000  H
  H1010    1.0000 0.73335  0.03676  0.97824  Biso   1.000  H
  H1011    1.0000 0.77094  0.08175  0.94074  Biso   1.000  H
  N652     1.0000 0.32615  0.77600  0.92429  Biso   1.000  N
  H1012    1.0000 0.25818  0.73094  0.95932  Biso   1.000  H
  H1013    1.0000 0.30797  0.74074  0.99082  Biso   1.000  H
  C1001    1.0000 0.34343  0.87062  0.83873  Biso   1.000  C
  C1002    1.0000 0.30967  0.78824  0.87694  Biso   1.000  C
  C1003    1.0000 0.30967  0.78824  0.87691  Biso   1.000  C
  C1004    1.0000 0.30965  0.78820  0.87694  Biso   1.000  C
  C1005    1.0000 0.30965  0.78820  0.87691  Biso   1.000  C
  O287     1.0000 0.61878  0.10560  0.81877  Biso   1.000  O
  N653     1.0000 0.62830  0.03172  0.81618  Biso   1.000  N
  N654     1.0000 0.62830  0.03172  0.81615  Biso   1.000  N
  O288     1.0000 0.61876  0.10556  0.81877  Biso   1.000  O
  N655     1.0000 0.62828  0.03168  0.81618  Biso   1.000  N
  N656     1.0000 0.62828  0.03168  0.81615  Biso   1.000  N
  C1006    1.0000 0.66726  0.01748  0.83225  Biso   1.000  C
  H1014    1.0000 0.74184  0.08025  0.85537  Biso   1.000  H
  C1007    1.0000 0.66604  0.98524  0.91242  Biso   1.000  C
  C1008    1.0000 0.66610  0.98524  0.91242  Biso   1.000  C
  C1009    1.0000 0.37368  0.77793  0.92025  Biso   1.000  C
  C1010    1.0000 0.37368  0.77793  0.92021  Biso   1.000  C
  N657     1.0000 0.37119  0.84835  0.81974  Biso   1.000  N
  O289     1.0000 0.34734  0.91238  0.82506  Biso   1.000  O
  O290     1.0000 0.34735  0.91235  0.82506  Biso   1.000  O
  H1015    1.0000 0.27506  0.75904  0.86612  Biso   1.000  H
  C1011    1.0000 0.35356  0.79612  0.84004  Biso   1.000  C
  C1012    1.0000 0.35356  0.79612  0.84001  Biso   1.000  C
  C1013    1.0000 0.59155  0.00417  0.77539  Biso   1.000  C
  C1014    1.0000 0.59155  0.00417  0.77535  Biso   1.000  C
  N658     1.0000 0.64654  0.97202  0.86522  Biso   1.000  N
  N659     1.0000 0.64654  0.97202  0.86518  Biso   1.000  N
  N660     1.0000 0.64652  0.97198  0.86522  Biso   1.000  N
  N661     1.0000 0.64652  0.97198  0.86518  Biso   1.000  N
  H1016    1.0000 0.68614  0.01358  0.80337  Biso   1.000  H
  H1017    1.0000 0.68614  0.01358  0.80333  Biso   1.000  H
  H1018    1.0000 0.68615  0.01354  0.80337  Biso   1.000  H
  H1019    1.0000 0.68615  0.01354  0.80333  Biso   1.000  H
  O291     1.0000 0.65829  0.95426  0.94696  Biso   1.000  O
  N662     1.0000 0.39207  0.79269  0.87222  Biso   1.000  N
  N663     1.0000 0.39207  0.79269  0.87219  Biso   1.000  N
  N664     1.0000 0.39205  0.79265  0.87222  Biso   1.000  N
  N665     1.0000 0.39205  0.79265  0.87219  Biso   1.000  N
  O292     1.0000 0.39669  0.76825  0.95370  Biso   1.000  O
  O293     1.0000 0.39667  0.76821  0.95370  Biso   1.000  O
  C1015    1.0000 0.40577  0.86944  0.77633  Biso   1.000  C
  C1016    1.0000 0.40575  0.86940  0.77633  Biso   1.000  C
  H1020    1.0000 0.34023  0.76892  0.81345  Biso   1.000  H
  H1021    1.0000 0.34023  0.76892  0.81341  Biso   1.000  H
  N666     1.0000 0.54608  0.95462  0.79097  Biso   1.000  N
  H1022    1.0000 0.61011  0.99705  0.74875  Biso   1.000  H
  N667     1.0000 0.54608  0.95462  0.79093  Biso   1.000  N
  H1023    1.0000 0.57934  0.02708  0.76157  Biso   1.000  H
  H1024    1.0000 0.57932  0.02704  0.76157  Biso   1.000  H
  C1017    1.0000 0.62347  0.91872  0.84664  Biso   1.000  C
  C1018    1.0000 0.62347  0.91872  0.84660  Biso   1.000  C
  C1019    1.0000 0.43504  0.78722  0.85274  Biso   1.000  C
  C1020    1.0000 0.43504  0.78722  0.85271  Biso   1.000  C
  N668     1.0000 0.46109  0.89270  0.78809  Biso   1.000  N
  N669     1.0000 0.46109  0.89270  0.78805  Biso   1.000  N
  N670     1.0000 0.46111  0.89267  0.78809  Biso   1.000  N
  N671     1.0000 0.46111  0.89267  0.78805  Biso   1.000  N
  H1025    1.0000 0.39988  0.89613  0.76044  Biso   1.000  H
  H1026    1.0000 0.39608  0.84095  0.75205  Biso   1.000  H
  H1027    1.0000 0.39988  0.89613  0.76040  Biso   1.000  H
  H1028    1.0000 0.39608  0.84095  0.75201  Biso   1.000  H
  H1029    1.0000 0.39606  0.84091  0.75205  Biso   1.000  H
  H1030    1.0000 0.39606  0.84091  0.75201  Biso   1.000  H
  C1021    1.0000 0.54684  0.90522  0.79075  Biso   1.000  C
  C1022    1.0000 0.49573  0.94623  0.78505  Biso   1.000  C
  C1023    1.0000 0.54684  0.90522  0.79071  Biso   1.000  C
  C1024    1.0000 0.49573  0.94623  0.78502  Biso   1.000  C
  N672     1.0000 0.56740  0.89459  0.83581  Biso   1.000  N
  H1031    1.0000 0.64183  0.91884  0.81592  Biso   1.000  H
  H1032    1.0000 0.62852  0.89711  0.87155  Biso   1.000  H
  H1033    1.0000 0.62852  0.89711  0.87151  Biso   1.000  H
  H1034    1.0000 0.64187  0.91884  0.81592  Biso   1.000  H
  H1035    1.0000 0.62859  0.89711  0.87155  Biso   1.000  H
  H1036    1.0000 0.62859  0.89711  0.87151  Biso   1.000  H
  H1037    1.0000 0.44477  0.76904  0.87762  Biso   1.000  H
  N673     1.0000 0.48125  0.83681  0.84008  Biso   1.000  N
  N674     1.0000 0.48129  0.83677  0.84008  Biso   1.000  N
  H1038    1.0000 0.42282  0.76502  0.82263  Biso   1.000  H
  H1039    1.0000 0.42285  0.76502  0.82263  Biso   1.000  H
  C1025    1.0000 0.48724  0.86244  0.79165  Biso   1.000  C
  C1026    1.0000 0.48724  0.86244  0.79161  Biso   1.000  C
  H1040    1.0000 0.56458  0.90203  0.76044  Biso   1.000  H
  H1041    1.0000 0.56458  0.90203  0.76040  Biso   1.000  H
  O294     1.0000 0.48404  0.98060  0.77921  Biso   1.000  O
  C1027    1.0000 0.52927  0.85323  0.86215  Biso   1.000  C
  C1028    1.0000 0.52927  0.85323  0.86211  Biso   1.000  C
  H1042    1.0000 0.47772  0.83733  0.76355  Biso   1.000  H
  H1043    1.0000 0.47772  0.83733  0.76351  Biso   1.000  H
  H1044    1.0000 0.47775  0.83733  0.76355  Biso   1.000  H
  H1045    1.0000 0.47775  0.83733  0.76351  Biso   1.000  H
  O295     1.0000 0.53647  0.83335  0.90021  Biso   1.000  O
  O296     1.0000 0.46353  0.16665  0.09979  Biso   1.000  O
  C1029    1.0000 0.47073  0.14677  0.13785  Biso   1.000  C
  C1030    1.0000 0.47077  0.14677  0.13785  Biso   1.000  C
  N675     1.0000 0.51872  0.16319  0.15992  Biso   1.000  N
  N676     1.0000 0.43256  0.10541  0.16419  Biso   1.000  N
  N677     1.0000 0.43256  0.10541  0.16415  Biso   1.000  N
  N678     1.0000 0.43260  0.10541  0.16419  Biso   1.000  N
  O297     1.0000 0.46356  0.16665  0.09979  Biso   1.000  O
  N679     1.0000 0.43260  0.10541  0.16415  Biso   1.000  N
  C1031    1.0000 0.56496  0.21278  0.14726  Biso   1.000  C
  C1032    1.0000 0.56496  0.21278  0.14729  Biso   1.000  C
  C1033    1.0000 0.56494  0.21274  0.14726  Biso   1.000  C
  C1034    1.0000 0.56494  0.21274  0.14729  Biso   1.000  C
  C1035    1.0000 0.51273  0.13756  0.20835  Biso   1.000  C
  C1036    1.0000 0.51276  0.13756  0.20835  Biso   1.000  C
  C1037    1.0000 0.45316  0.09478  0.20925  Biso   1.000  C
  C1038    1.0000 0.45314  0.09474  0.20925  Biso   1.000  C
  C1039    1.0000 0.37653  0.08128  0.15336  Biso   1.000  C
  C1040    1.0000 0.37653  0.08128  0.15340  Biso   1.000  C
  C1041    1.0000 0.37654  0.08124  0.15336  Biso   1.000  C
  C1042    1.0000 0.37654  0.08124  0.15340  Biso   1.000  C
  N680     1.0000 0.60793  0.20731  0.12778  Biso   1.000  N
  N681     1.0000 0.60793  0.20731  0.12781  Biso   1.000  N
  H1046    1.0000 0.57715  0.23498  0.17737  Biso   1.000  H
  H1047    1.0000 0.55523  0.23096  0.12238  Biso   1.000  H
  H1048    1.0000 0.57715  0.23498  0.17734  Biso   1.000  H
  H1049    1.0000 0.55523  0.23096  0.12235  Biso   1.000  H
  N682     1.0000 0.53887  0.10730  0.21191  Biso   1.000  N
  H1050    1.0000 0.52225  0.16267  0.23645  Biso   1.000  H
  N683     1.0000 0.45389  0.04538  0.20903  Biso   1.000  N
  H1051    1.0000 0.43542  0.09797  0.23956  Biso   1.000  H
  H1052    1.0000 0.43542  0.09797  0.23960  Biso   1.000  H
  N684     1.0000 0.45392  0.04538  0.20903  Biso   1.000  N
  H1053    1.0000 0.43546  0.09797  0.23956  Biso   1.000  H
  H1054    1.0000 0.43546  0.09797  0.23960  Biso   1.000  H
  N685     1.0000 0.35346  0.02798  0.13478  Biso   1.000  N
  H1055    1.0000 0.35813  0.08116  0.18408  Biso   1.000  H
  H1056    1.0000 0.37145  0.10289  0.12845  Biso   1.000  H
  H1057    1.0000 0.37143  0.10285  0.12845  Biso   1.000  H
  C1043    1.0000 0.62632  0.22207  0.07975  Biso   1.000  C
  C1044    1.0000 0.62636  0.22207  0.07975  Biso   1.000  C
  C1045    1.0000 0.64644  0.20388  0.15996  Biso   1.000  C
  C1046    1.0000 0.64646  0.20384  0.15996  Biso   1.000  C
  C1047    1.0000 0.59423  0.13056  0.22367  Biso   1.000  C
  C1048    1.0000 0.59423  0.13056  0.22364  Biso   1.000  C
  C1049    1.0000 0.50423  0.05377  0.21495  Biso   1.000  C
  C1050    1.0000 0.50427  0.05377  0.21495  Biso   1.000  C
  C1051    1.0000 0.40842  0.99583  0.22461  Biso   1.000  C
  C1052    1.0000 0.40845  0.99583  0.22461  Biso   1.000  C
  C1053    1.0000 0.33274  0.98252  0.16775  Biso   1.000  C
  C1054    1.0000 0.33274  0.98252  0.16771  Biso   1.000  C
  C1055    1.0000 0.33393  0.01476  0.08758  Biso   1.000  C
  C1056    1.0000 0.33393  0.01476  0.08754  Biso   1.000  C
  N686     1.0000 0.67385  0.22400  0.07571  Biso   1.000  N
  N687     1.0000 0.67385  0.22400  0.07567  Biso   1.000  N
  N688     1.0000 0.67383  0.22396  0.07571  Biso   1.000  N
  N689     1.0000 0.67383  0.22396  0.07567  Biso   1.000  N
  O298     1.0000 0.60331  0.23175  0.04630  Biso   1.000  O
  O299     1.0000 0.60331  0.23175  0.04626  Biso   1.000  O
  C1057    1.0000 0.69033  0.21176  0.12306  Biso   1.000  C
  C1058    1.0000 0.69033  0.21176  0.12309  Biso   1.000  C
  C1059    1.0000 0.69036  0.21176  0.12306  Biso   1.000  C
  C1060    1.0000 0.69036  0.21176  0.12309  Biso   1.000  C
  N690     1.0000 0.62881  0.15165  0.18026  Biso   1.000  N
  H1058    1.0000 0.65973  0.23108  0.18655  Biso   1.000  H
  N691     1.0000 0.62881  0.15165  0.18022  Biso   1.000  N
  H1059    1.0000 0.65973  0.23108  0.18659  Biso   1.000  H
  H1060    1.0000 0.65975  0.23104  0.18655  Biso   1.000  H
  H1061    1.0000 0.65975  0.23104  0.18659  Biso   1.000  H
  H1062    1.0000 0.60015  0.10387  0.23956  Biso   1.000  H
  H1063    1.0000 0.60392  0.15905  0.24795  Biso   1.000  H
  H1064    1.0000 0.60015  0.10387  0.23960  Biso   1.000  H
  H1065    1.0000 0.60395  0.15905  0.24795  Biso   1.000  H
  O300     1.0000 0.51596  0.01940  0.22079  Biso   1.000  O
  O301     1.0000 0.51599  0.01940  0.22079  Biso   1.000  O
  N692     1.0000 0.37170  0.96828  0.18382  Biso   1.000  N
  H1066    1.0000 0.42066  0.97292  0.23843  Biso   1.000  H
  H1067    1.0000 0.42066  0.97292  0.23840  Biso   1.000  H
  H1068    1.0000 0.42069  0.97292  0.23843  Biso   1.000  H
  H1069    1.0000 0.42069  0.97292  0.23840  Biso   1.000  H
  H1070    1.0000 0.38989  0.00295  0.25125  Biso   1.000  H
  H1071    1.0000 0.38987  0.00291  0.25125  Biso   1.000  H
  H1072    1.0000 0.31383  0.98642  0.19663  Biso   1.000  H
  C1061    1.0000 0.29533  0.93592  0.13362  Biso   1.000  C
  H1073    1.0000 0.31383  0.98642  0.19667  Biso   1.000  H
  N693     1.0000 0.30346  0.96064  0.08436  Biso   1.000  N
  O302     1.0000 0.34168  0.04574  0.05304  Biso   1.000  O
  O303     1.0000 0.34168  0.04574  0.05301  Biso   1.000  O
  O304     1.0000 0.34171  0.04574  0.05304  Biso   1.000  O
  O305     1.0000 0.34171  0.04574  0.05301  Biso   1.000  O
  C1062    1.0000 0.70605  0.24238  0.03117  Biso   1.000  C
  N694     1.0000 0.68931  0.16165  0.12403  Biso   1.000  N
  N695     1.0000 0.68931  0.16165  0.12407  Biso   1.000  N
  H1074    1.0000 0.72494  0.24096  0.13388  Biso   1.000  H
  C1063    1.0000 0.65653  0.12938  0.16127  Biso   1.000  C
  C1064    1.0000 0.65653  0.12938  0.16123  Biso   1.000  C
  C1065    1.0000 0.65657  0.12938  0.16127  Biso   1.000  C
  C1066    1.0000 0.65657  0.12938  0.16123  Biso   1.000  C
  C1067    1.0000 0.35838  0.91825  0.16902  Biso   1.000  C
  C1068    1.0000 0.35838  0.91825  0.16906  Biso   1.000  C
  C1069    1.0000 0.35836  0.91821  0.16902  Biso   1.000  C
  C1070    1.0000 0.35836  0.91821  0.16906  Biso   1.000  C
  N696     1.0000 0.31532  0.89947  0.13793  Biso   1.000  N
  H1075    1.0000 0.25816  0.91975  0.14463  Biso   1.000  H
  H1076    1.0000 0.25816  0.91975  0.14460  Biso   1.000  H
  H1077    1.0000 0.25818  0.91971  0.14463  Biso   1.000  H
  H1078    1.0000 0.25818  0.91971  0.14460  Biso   1.000  H
  C1071    1.0000 0.26427  0.93584  0.04432  Biso   1.000  C
  C1072    1.0000 0.26425  0.93580  0.04432  Biso   1.000  C
  N697     1.0000 0.70817  0.20046  0.00311  Biso   1.000  N
  N698     1.0000 0.70817  0.20046  0.00315  Biso   1.000  N
  H1079    1.0000 0.74182  0.26906  0.04068  Biso   1.000  H
  H1080    1.0000 0.69203  0.25926  0.00918  Biso   1.000  H
  H1081    1.0000 0.69203  0.25926  0.00914  Biso   1.000  H
  H1082    1.0000 0.74185  0.26906  0.04068  Biso   1.000  H
  H1083    1.0000 0.69206  0.25926  0.00918  Biso   1.000  H
  H1084    1.0000 0.69206  0.25926  0.00914  Biso   1.000  H
  C1073    1.0000 0.73305  0.15677  0.10646  Biso   1.000  C
  O306     1.0000 0.65266  0.08762  0.17494  Biso   1.000  O
  O307     1.0000 0.38122  0.89440  0.18123  Biso   1.000  O
  O308     1.0000 0.38122  0.89440  0.18119  Biso   1.000  O
  C1074    1.0000 0.28585  0.84504  0.12115  Biso   1.000  C
  N699     1.0000 0.27136  0.89786  0.01570  Biso   1.000  N
  N700     1.0000 0.27136  0.89786  0.01566  Biso   1.000  N
  H1085    1.0000 0.26669  0.96324  0.02173  Biso   1.000  H
  H1086    1.0000 0.22909  0.91825  0.05922  Biso   1.000  H
  H1087    1.0000 0.22907  0.91821  0.05922  Biso   1.000  H
  C1075    1.0000 0.69343  0.19137  0.95306  Biso   1.000  C
  C1076    1.0000 0.69346  0.19137  0.95306  Biso   1.000  C
  C1077    1.0000 0.74703  0.18507  0.01487  Biso   1.000  C
  C1078    1.0000 0.74707  0.18507  0.01487  Biso   1.000  C
  N701     1.0000 0.73103  0.14516  0.05364  Biso   1.000  N
  H1088    1.0000 0.73426  0.12879  0.12545  Biso   1.000  H
  H1089    1.0000 0.76574  0.18975  0.11347  Biso   1.000  H
  H1090    1.0000 0.76574  0.18975  0.11343  Biso   1.000  H
  H1091    1.0000 0.73424  0.12875  0.12545  Biso   1.000  H
  N702     1.0000 0.28769  0.83890  0.06709  Biso   1.000  N
  N703     1.0000 0.28769  0.83890  0.06713  Biso   1.000  N
  H1092    1.0000 0.29993  0.82493  0.13774  Biso   1.000  H
  H1093    1.0000 0.24908  0.82993  0.13145  Biso   1.000  H
  H1094    1.0000 0.29993  0.82493  0.13770  Biso   1.000  H
  H1095    1.0000 0.29996  0.82493  0.13774  Biso   1.000  H
  H1096    1.0000 0.29996  0.82493  0.13770  Biso   1.000  H
  C1079    1.0000 0.27838  0.90223  0.96482  Biso   1.000  C
  C1080    1.0000 0.25197  0.84484  0.03334  Biso   1.000  C
  C1081    1.0000 0.25197  0.84484  0.03330  Biso   1.000  C
  C1082    1.0000 0.25195  0.84480  0.03334  Biso   1.000  C
  C1083    1.0000 0.25195  0.84480  0.03330  Biso   1.000  C
  N704     1.0000 0.71231  0.16110  0.93291  Biso   1.000  N
  N705     1.0000 0.71231  0.16110  0.93287  Biso   1.000  N
  O309     1.0000 0.66689  0.20688  0.93119  Biso   1.000  O
  O310     1.0000 0.66687  0.20684  0.93119  Biso   1.000  O
  C1084    1.0000 0.74803  0.15516  0.96666  Biso   1.000  C
  C1085    1.0000 0.74806  0.15516  0.96666  Biso   1.000  C
  H1097    1.0000 0.78195  0.21597  0.02206  Biso   1.000  H
  C1086    1.0000 0.72165  0.09777  0.03518  Biso   1.000  C
  C1087    1.0000 0.30654  0.80863  0.04694  Biso   1.000  C
  C1088    1.0000 0.30654  0.80863  0.04690  Biso   1.000  C
  N706     1.0000 0.26897  0.85484  0.94636  Biso   1.000  N
  N707     1.0000 0.26897  0.85484  0.94632  Biso   1.000  N
  N708     1.0000 0.26898  0.85480  0.94636  Biso   1.000  N
  N709     1.0000 0.26898  0.85480  0.94632  Biso   1.000  N
  O311     1.0000 0.29108  0.94222  0.93973  Biso   1.000  O
  O312     1.0000 0.29108  0.94222  0.93969  Biso   1.000  O
  C1089    1.0000 0.25297  0.81493  0.98513  Biso   1.000  C
  H1098    1.0000 0.21607  0.82941  0.04742  Biso   1.000  H
  C1090    1.0000 0.71415  0.15496  0.87885  Biso   1.000  C
  N710     1.0000 0.72864  0.10214  0.98430  Biso   1.000  N
  H1099    1.0000 0.78393  0.17059  0.95258  Biso   1.000  H
  H1100    1.0000 0.78393  0.17059  0.95254  Biso   1.000  H
  N711     1.0000 0.72868  0.10214  0.98430  Biso   1.000  N
  H1101    1.0000 0.78395  0.17055  0.95258  Biso   1.000  H
  H1102    1.0000 0.78395  0.17055  0.95254  Biso   1.000  H
  O313     1.0000 0.70888  0.05778  0.06027  Biso   1.000  O
  O314     1.0000 0.70890  0.05774  0.06027  Biso   1.000  O
  N712     1.0000 0.29183  0.79954  0.99689  Biso   1.000  N
  N713     1.0000 0.29183  0.79954  0.99685  Biso   1.000  N
  O315     1.0000 0.33311  0.79312  0.06881  Biso   1.000  O
  C1091    1.0000 0.26698  0.84323  0.89354  Biso   1.000  C
  C1092    1.0000 0.26698  0.84323  0.89350  Biso   1.000  C
  H1103    1.0000 0.21805  0.78403  0.97794  Biso   1.000  H
  H1104    1.0000 0.21805  0.78403  0.97790  Biso   1.000  H
  H1105    1.0000 0.21809  0.78403  0.97794  Biso   1.000  H
  H1106    1.0000 0.21809  0.78403  0.97790  Biso   1.000  H
  H1107    1.0000 0.70004  0.17507  0.86226  Biso   1.000  H
  H1108    1.0000 0.75095  0.17007  0.86855  Biso   1.000  H
  N714     1.0000 0.68468  0.10053  0.86207  Biso   1.000  N
  N715     1.0000 0.68470  0.10049  0.86207  Biso   1.000  N
  C1093    1.0000 0.73573  0.06416  0.95568  Biso   1.000  C
  C1094    1.0000 0.73573  0.06416  0.95565  Biso   1.000  C
  C1095    1.0000 0.73576  0.06416  0.95568  Biso   1.000  C
  C1096    1.0000 0.73576  0.06416  0.95565  Biso   1.000  C
  C1097    1.0000 0.29392  0.75762  0.96883  Biso   1.000  C
  C1098    1.0000 0.29399  0.75762  0.96883  Biso   1.000  C
  N716     1.0000 0.31069  0.83835  0.87597  Biso   1.000  N
  N717     1.0000 0.31069  0.83835  0.87593  Biso   1.000  N
  H1109    1.0000 0.26574  0.87121  0.87455  Biso   1.000  H
  H1110    1.0000 0.23423  0.81025  0.88653  Biso   1.000  H
  H1111    1.0000 0.26574  0.87121  0.87451  Biso   1.000  H
  H1112    1.0000 0.23424  0.81021  0.88653  Biso   1.000  H
  C1099    1.0000 0.64162  0.08175  0.83098  Biso   1.000  C
  C1100    1.0000 0.70464  0.06408  0.86638  Biso   1.000  C
  C1101    1.0000 0.64162  0.08175  0.83094  Biso   1.000  C
  C1102    1.0000 0.70464  0.06408  0.86634  Biso   1.000  C
  C1103    1.0000 0.64165  0.08175  0.83098  Biso   1.000  C
  C1104    1.0000 0.70465  0.06404  0.86638  Biso   1.000  C
  C1105    1.0000 0.64165  0.08175  0.83094  Biso   1.000  C
  C1106    1.0000 0.70465  0.06404  0.86634  Biso   1.000  C
  N718     1.0000 0.69650  0.03936  0.91564  Biso   1.000  N
  N719     1.0000 0.69654  0.03936  0.91564  Biso   1.000  N
  H1113    1.0000 0.73335  0.03676  0.97827  Biso   1.000  H
  H1114    1.0000 0.77094  0.08175  0.94078  Biso   1.000  H
  H1115    1.0000 0.73335  0.03676  0.97824  Biso   1.000  H
  H1116    1.0000 0.77094  0.08175  0.94074  Biso   1.000  H
  N720     1.0000 0.32615  0.77600  0.92429  Biso   1.000  N
  H1117    1.0000 0.25818  0.73094  0.95932  Biso   1.000  H
  H1118    1.0000 0.30797  0.74074  0.99082  Biso   1.000  H
  C1107    1.0000 0.34343  0.87062  0.83873  Biso   1.000  C
  C1108    1.0000 0.30967  0.78824  0.87694  Biso   1.000  C
  C1109    1.0000 0.30967  0.78824  0.87691  Biso   1.000  C
  C1110    1.0000 0.30965  0.78820  0.87694  Biso   1.000  C
  C1111    1.0000 0.30965  0.78820  0.87691  Biso   1.000  C
  O316     1.0000 0.61878  0.10560  0.81877  Biso   1.000  O
  N721     1.0000 0.62830  0.03172  0.81618  Biso   1.000  N
  N722     1.0000 0.62830  0.03172  0.81615  Biso   1.000  N
  O317     1.0000 0.61876  0.10556  0.81877  Biso   1.000  O
  N723     1.0000 0.62828  0.03168  0.81618  Biso   1.000  N
  N724     1.0000 0.62828  0.03168  0.81615  Biso   1.000  N
  C1112    1.0000 0.66726  0.01748  0.83225  Biso   1.000  C
  H1119    1.0000 0.74184  0.08025  0.85537  Biso   1.000  H
  C1113    1.0000 0.66604  0.98524  0.91242  Biso   1.000  C
  C1114    1.0000 0.66610  0.98524  0.91242  Biso   1.000  C
  C1115    1.0000 0.37368  0.77793  0.92025  Biso   1.000  C
  C1116    1.0000 0.37368  0.77793  0.92021  Biso   1.000  C
  N725     1.0000 0.37119  0.84835  0.81974  Biso   1.000  N
  O318     1.0000 0.34734  0.91238  0.82506  Biso   1.000  O
  O319     1.0000 0.34735  0.91235  0.82506  Biso   1.000  O
  H1120    1.0000 0.27506  0.75904  0.86612  Biso   1.000  H
  C1117    1.0000 0.35356  0.79612  0.84004  Biso   1.000  C
  C1118    1.0000 0.35356  0.79612  0.84001  Biso   1.000  C
  C1119    1.0000 0.59155  0.00417  0.77539  Biso   1.000  C
  C1120    1.0000 0.59155  0.00417  0.77535  Biso   1.000  C
  N726     1.0000 0.64654  0.97202  0.86522  Biso   1.000  N
  N727     1.0000 0.64654  0.97202  0.86518  Biso   1.000  N
  N728     1.0000 0.64652  0.97198  0.86522  Biso   1.000  N
  N729     1.0000 0.64652  0.97198  0.86518  Biso   1.000  N
  H1121    1.0000 0.68614  0.01358  0.80337  Biso   1.000  H
  H1122    1.0000 0.68614  0.01358  0.80333  Biso   1.000  H
  H1123    1.0000 0.68615  0.01354  0.80337  Biso   1.000  H
  H1124    1.0000 0.68615  0.01354  0.80333  Biso   1.000  H
  O320     1.0000 0.65829  0.95426  0.94696  Biso   1.000  O
  N730     1.0000 0.39207  0.79269  0.87222  Biso   1.000  N
  N731     1.0000 0.39207  0.79269  0.87219  Biso   1.000  N
  N732     1.0000 0.39205  0.79265  0.87222  Biso   1.000  N
  N733     1.0000 0.39205  0.79265  0.87219  Biso   1.000  N
  O321     1.0000 0.39669  0.76825  0.95370  Biso   1.000  O
  O322     1.0000 0.39667  0.76821  0.95370  Biso   1.000  O
  C1121    1.0000 0.40577  0.86944  0.77633  Biso   1.000  C
  C1122    1.0000 0.40575  0.86940  0.77633  Biso   1.000  C
  H1125    1.0000 0.34023  0.76892  0.81345  Biso   1.000  H
  H1126    1.0000 0.34023  0.76892  0.81341  Biso   1.000  H
  N734     1.0000 0.54608  0.95462  0.79097  Biso   1.000  N
  H1127    1.0000 0.61011  0.99705  0.74875  Biso   1.000  H
  N735     1.0000 0.54608  0.95462  0.79093  Biso   1.000  N
  H1128    1.0000 0.57934  0.02708  0.76157  Biso   1.000  H
  H1129    1.0000 0.57932  0.02704  0.76157  Biso   1.000  H
  C1123    1.0000 0.62347  0.91872  0.84664  Biso   1.000  C
  C1124    1.0000 0.62347  0.91872  0.84660  Biso   1.000  C
  C1125    1.0000 0.43504  0.78722  0.85274  Biso   1.000  C
  C1126    1.0000 0.43504  0.78722  0.85271  Biso   1.000  C
  N736     1.0000 0.46109  0.89270  0.78809  Biso   1.000  N
  N737     1.0000 0.46109  0.89270  0.78805  Biso   1.000  N
  N738     1.0000 0.46111  0.89267  0.78809  Biso   1.000  N
  N739     1.0000 0.46111  0.89267  0.78805  Biso   1.000  N
  H1130    1.0000 0.39988  0.89613  0.76044  Biso   1.000  H
  H1131    1.0000 0.39608  0.84095  0.75205  Biso   1.000  H
  H1132    1.0000 0.39988  0.89613  0.76040  Biso   1.000  H
  H1133    1.0000 0.39608  0.84095  0.75201  Biso   1.000  H
  H1134    1.0000 0.39606  0.84091  0.75205  Biso   1.000  H
  H1135    1.0000 0.39606  0.84091  0.75201  Biso   1.000  H
  C1127    1.0000 0.54684  0.90522  0.79075  Biso   1.000  C
  C1128    1.0000 0.49573  0.94623  0.78505  Biso   1.000  C
  C1129    1.0000 0.54684  0.90522  0.79071  Biso   1.000  C
  C1130    1.0000 0.49573  0.94623  0.78502  Biso   1.000  C
  N740     1.0000 0.56740  0.89459  0.83581  Biso   1.000  N
  H1136    1.0000 0.64183  0.91884  0.81592  Biso   1.000  H
  H1137    1.0000 0.62852  0.89711  0.87155  Biso   1.000  H
  H1138    1.0000 0.62852  0.89711  0.87151  Biso   1.000  H
  H1139    1.0000 0.64187  0.91884  0.81592  Biso   1.000  H
  H1140    1.0000 0.62859  0.89711  0.87155  Biso   1.000  H
  H1141    1.0000 0.62859  0.89711  0.87151  Biso   1.000  H
  H1142    1.0000 0.44477  0.76904  0.87762  Biso   1.000  H
  N741     1.0000 0.48125  0.83681  0.84008  Biso   1.000  N
  N742     1.0000 0.48129  0.83677  0.84008  Biso   1.000  N
  H1143    1.0000 0.42282  0.76502  0.82263  Biso   1.000  H
  H1144    1.0000 0.42285  0.76502  0.82263  Biso   1.000  H
  C1131    1.0000 0.48724  0.86244  0.79165  Biso   1.000  C
  C1132    1.0000 0.48724  0.86244  0.79161  Biso   1.000  C
  H1145    1.0000 0.56458  0.90203  0.76044  Biso   1.000  H
  H1146    1.0000 0.56458  0.90203  0.76040  Biso   1.000  H
  O323     1.0000 0.48404  0.98060  0.77921  Biso   1.000  O
  C1133    1.0000 0.52927  0.85323  0.86215  Biso   1.000  C
  C1134    1.0000 0.52927  0.85323  0.86211  Biso   1.000  C
  H1147    1.0000 0.47772  0.83733  0.76355  Biso   1.000  H
  H1148    1.0000 0.47772  0.83733  0.76351  Biso   1.000  H
  H1149    1.0000 0.47775  0.83733  0.76355  Biso   1.000  H
  H1150    1.0000 0.47775  0.83733  0.76351  Biso   1.000  H
  O324     1.0000 0.53647  0.83335  0.90021  Biso   1.000  O
  O325     1.0000 0.70488  0.26997  0.62034  Biso   1.000  O
  C1135    1.0000 0.73759  0.29299  0.58689  Biso   1.000  C
  N743     1.0000 0.73396  0.27461  0.53886  Biso   1.000  N
  N744     1.0000 0.78320  0.34050  0.59093  Biso   1.000  N
  C1136    1.0000 0.68549  0.23159  0.51939  Biso   1.000  C
  C1137    1.0000 0.77591  0.31311  0.50669  Biso   1.000  C
  C1138    1.0000 0.81190  0.35699  0.54358  Biso   1.000  C
  C1139    1.0000 0.79701  0.37270  0.63547  Biso   1.000  C
  N745     1.0000 0.68887  0.18538  0.50676  Biso   1.000  N
  H1151    1.0000 0.67550  0.24380  0.48931  Biso   1.000  H
  H1152    1.0000 0.65760  0.22191  0.54430  Biso   1.000  H
  N746     1.0000 0.81048  0.29547  0.48642  Biso   1.000  N
  H1153    1.0000 0.76201  0.32641  0.48009  Biso   1.000  H
  N747     1.0000 0.86098  0.35597  0.54261  Biso   1.000  N
  H1154    1.0000 0.81730  0.39159  0.53280  Biso   1.000  H
  N748     1.0000 0.84102  0.37482  0.66353  Biso   1.000  N
  H1155    1.0000 0.80613  0.40852  0.62600  Biso   1.000  H
  H1156    1.0000 0.76611  0.35869  0.65750  Biso   1.000  H
  C1140    1.0000 0.65731  0.13741  0.52879  Biso   1.000  C
  C1141    1.0000 0.70851  0.17940  0.45829  Biso   1.000  C
  C1142    1.0000 0.79702  0.26092  0.44300  Biso   1.000  C
  C1143    1.0000 0.86050  0.32318  0.50538  Biso   1.000  C
  C1144    1.0000 0.90960  0.39970  0.56018  Biso   1.000  C
  C1145    1.0000 0.83540  0.36010  0.71358  Biso   1.000  C
  C1146    1.0000 0.89530  0.41371  0.65177  Biso   1.000  C
  N749     1.0000 0.66051  0.09923  0.50245  Biso   1.000  N
  O326     1.0000 0.63022  0.13020  0.56689  Biso   1.000  O
  N750     1.0000 0.76490  0.20554  0.45473  Biso   1.000  N
  H1157    1.0000 0.69290  0.18889  0.43019  Biso   1.000  H
  C1147    1.0000 0.69170  0.11981  0.45739  Biso   1.000  C
  H1158    1.0000 0.82963  0.26682  0.42708  Biso   1.000  H
  H1159    1.0000 0.77821  0.27060  0.41869  Biso   1.000  H
  O327     1.0000 0.89839  0.31933  0.49170  Biso   1.000  O
  N751     1.0000 0.91920  0.39769  0.61300  Biso   1.000  N
  H1160    1.0000 0.93881  0.40092  0.54119  Biso   1.000  H
  H1161    1.0000 0.90932  0.43241  0.55317  Biso   1.000  H
  O328     1.0000 0.79335  0.33354  0.73546  Biso   1.000  O
  N752     1.0000 0.88456  0.37900  0.73377  Biso   1.000  N
  C1148    1.0000 0.92620  0.41470  0.69998  Biso   1.000  C
  H1162    1.0000 0.89931  0.44858  0.64458  Biso   1.000  H
  C1149    1.0000 0.62862  0.04322  0.51328  Biso   1.000  C
  C1150    1.0000 0.78382  0.17090  0.45170  Biso   1.000  C
  N753     1.0000 0.74184  0.12056  0.45761  Biso   1.000  N
  H1163    1.0000 0.67081  0.10210  0.42708  Biso   1.000  H
  C1151    1.0000 0.95721  0.38829  0.63150  Biso   1.000  C
  C1152    1.0000 0.89252  0.38081  0.78779  Biso   1.000  C
  N754     1.0000 0.95988  0.39533  0.68234  Biso   1.000  N
  H1164    1.0000 0.94671  0.45059  0.71410  Biso   1.000  H
  N755     1.0000 0.65879  0.02011  0.53186  Biso   1.000  N
  H1165    1.0000 0.61031  0.02480  0.48260  Biso   1.000  H
  H1166    1.0000 0.60190  0.03810  0.53819  Biso   1.000  H
  O329     1.0000 0.82990  0.18263  0.44589  Biso   1.000  O
  C1153    1.0000 0.74596  0.07514  0.44203  Biso   1.000  C
  O330     1.0000 0.98446  0.37557  0.60637  Biso   1.000  O
  N756     1.0000 0.91751  0.35137  0.80457  Biso   1.000  N
  H1167    1.0000 0.85831  0.36672  0.80438  Biso   1.000  H
  H1168    1.0000 0.91419  0.41761  0.79809  Biso   1.000  H
  C1154    1.0000 0.00490  0.40242  0.71099  Biso   1.000  C
  C1155    1.0000 0.65251  0.00059  0.57910  Biso   1.000  C
  C1156    1.0000 0.68354  0.99945  0.49893  Biso   1.000  C
  N757     1.0000 0.73675  0.03838  0.48282  Biso   1.000  N
  H1169    1.0000 0.78107  0.08734  0.42821  Biso   1.000  H
  H1170    1.0000 0.72025  0.05652  0.41543  Biso   1.000  H
  C1157    1.0000 0.89322  0.30831  0.83570  Biso   1.000  C
  C1158    1.0000 0.97391  0.37132  0.80030  Biso   1.000  C
  N758     1.0000 0.99050  0.36317  0.75100  Biso   1.000  N
  H1171    1.0000 0.02991  0.40001  0.68837  Biso   1.000  H
  H1172    1.0000 0.02250  0.43760  0.72590  Biso   1.000  H
  O331     1.0000 0.62929  0.00834  0.61364  Biso   1.000  O
  N759     1.0000 0.67616  0.97017  0.58232  Biso   1.000  N
  H1173    1.0000 0.66078  0.98052  0.47001  Biso   1.000  H
  C1159    1.0000 0.69277  0.96202  0.53302  Biso   1.000  C
  C1160    1.0000 0.77347  0.02503  0.49762  Biso   1.000  C
  O332     1.0000 0.84651  0.28544  0.84787  Biso   1.000  O
  N760     1.0000 0.92989  0.29492  0.85046  Biso   1.000  N
  C1161    1.0000 0.98312  0.33389  0.83439  Biso   1.000  C
  H1174    1.0000 0.99490  0.40852  0.81128  Biso   1.000  H
  C1162    1.0000 0.01418  0.33275  0.75422  Biso   1.000  C
  C1163    1.0000 0.66175  0.93092  0.62233  Biso   1.000  C
  N761     1.0000 0.74911  0.98197  0.52875  Biso   1.000  N
  H1175    1.0000 0.67172  0.92482  0.52201  Biso   1.000  H
  O333     1.0000 0.82018  0.04790  0.48541  Biso   1.000  O
  C1164    1.0000 0.92069  0.25820  0.89129  Biso   1.000  C
  N762     1.0000 0.00787  0.31319  0.80142  Biso   1.000  N
  H1176    1.0000 0.00591  0.35282  0.86327  Biso   1.000  H
  O334     1.0000 0.03740  0.32499  0.71969  Biso   1.000  O
  N763     1.0000 0.70681  0.93801  0.65095  Biso   1.000  N
  H1177    1.0000 0.63677  0.93332  0.64491  Biso   1.000  H
  H1178    1.0000 0.64416  0.89574  0.60742  Biso   1.000  H
  C1165    1.0000 0.77413  0.95253  0.54553  Biso   1.000  C
  N764     1.0000 0.92484  0.21278  0.87567  Biso   1.000  N
  H1179    1.0000 0.88562  0.24600  0.90508  Biso   1.000  H
  H1180    1.0000 0.94640  0.27682  0.91789  Biso   1.000  H
  C1166    1.0000 0.03806  0.29012  0.82000  Biso   1.000  C
  C1167    1.0000 0.74045  0.91864  0.63334  Biso   1.000  C
  C1168    1.0000 0.70943  0.94501  0.70182  Biso   1.000  C
  N765     1.0000 0.78209  0.95434  0.59955  Biso   1.000  N
  H1181    1.0000 0.80834  0.96662  0.52894  Biso   1.000  H
  H1182    1.0000 0.75246  0.91573  0.53523  Biso   1.000  H
  C1169    1.0000 0.97498  0.21353  0.87593  Biso   1.000  C
  C1170    1.0000 0.88287  0.16244  0.88163  Biso   1.000  C
  N766     1.0000 0.00617  0.23411  0.83083  Biso   1.000  N
  H1183    1.0000 0.05637  0.30854  0.85072  Biso   1.000  H
  H1184    1.0000 0.06479  0.29524  0.79513  Biso   1.000  H
  H1185    1.0000 0.71995  0.88275  0.61922  Biso   1.000  H
  C1171    1.0000 0.77135  0.91963  0.68151  Biso   1.000  C
  O335     1.0000 0.68223  0.95777  0.72692  Biso   1.000  O
  N767     1.0000 0.74745  0.93565  0.72028  Biso   1.000  N
  C1172    1.0000 0.83125  0.97324  0.61970  Biso   1.000  C
  C1173    1.0000 0.95818  0.15394  0.87503  Biso   1.000  C
  H1186    1.0000 0.99587  0.23124  0.90620  Biso   1.000  H
  O336     1.0000 0.83678  0.15071  0.88743  Biso   1.000  O
  N768     1.0000 0.90178  0.12780  0.87859  Biso   1.000  N
  C1174    1.0000 0.00938  0.19593  0.80453  Biso   1.000  C
  N769     1.0000 0.82559  0.95851  0.66979  Biso   1.000  N
  H1187    1.0000 0.76736  0.88471  0.68871  Biso   1.000  H
  C1175    1.0000 0.75705  0.93364  0.77310  Biso   1.000  C
  O337     1.0000 0.87330  0.99980  0.59783  Biso   1.000  O
  N770     1.0000 0.97782  0.14795  0.82656  Biso   1.000  N
  H1188    1.0000 0.97378  0.14445  0.90313  Biso   1.000  H
  C1176    1.0000 0.86966  0.07242  0.89032  Biso   1.000  C
  O338     1.0000 0.03646  0.20314  0.76644  Biso   1.000  O
  C1177    1.0000 0.86964  0.96064  0.69781  Biso   1.000  C
  N771     1.0000 0.80567  0.97737  0.79071  Biso   1.000  N
  H1189    1.0000 0.72788  0.93242  0.79213  Biso   1.000  H
  H1190    1.0000 0.75736  0.90093  0.78011  Biso   1.000  H
  C1178    1.0000 0.98117  0.10175  0.81394  Biso   1.000  C
  N772     1.0000 0.85617  0.03786  0.84690  Biso   1.000  N
  H1191    1.0000 0.83706  0.06652  0.90620  Biso   1.000  H
  H1192    1.0000 0.88848  0.06274  0.91463  Biso   1.000  H
  N773     1.0000 0.88346  0.99284  0.74235  Biso   1.000  N
  H1193    1.0000 0.86056  0.92482  0.70732  Biso   1.000  H
  H1194    1.0000 0.90054  0.97465  0.67582  Biso   1.000  H
  C1179    1.0000 0.80616  0.01012  0.82791  Biso   1.000  C
  C1180    1.0000 0.85479  0.97634  0.78974  Biso   1.000  C
  N774     1.0000 0.93273  0.05872  0.79446  Biso   1.000  N
  H1195    1.0000 0.99119  0.08954  0.84402  Biso   1.000  H
  H1196    1.0000 0.00908  0.11143  0.78902  Biso   1.000  H
  C1181    1.0000 0.89078  0.02023  0.82663  Biso   1.000  C
  C1182    1.0000 0.92909  0.04034  0.74643  Biso   1.000  C
  O339     1.0000 0.76830  0.01401  0.84158  Biso   1.000  O
  H1197    1.0000 0.84939  0.94175  0.80052  Biso   1.000  H
  H1198    1.0000 0.90468  0.00693  0.85323  Biso   1.000  H
  O340     1.0000 0.96181  0.06337  0.71294  Biso   1.000  O
  C1183    1.0000 0.22412  0.68691  0.49328  Biso   1.000  C
  C1184    1.0000 0.18810  0.64302  0.45638  Biso   1.000  C
  N775     1.0000 0.26607  0.72540  0.46110  Biso   1.000  N
  N776     1.0000 0.18951  0.70454  0.51358  Biso   1.000  N
  H1199    1.0000 0.23799  0.67360  0.51987  Biso   1.000  H
  N777     1.0000 0.21683  0.65951  0.40903  Biso   1.000  N
  N778     1.0000 0.13901  0.64405  0.45739  Biso   1.000  N
  H1200    1.0000 0.18271  0.60839  0.46720  Biso   1.000  H
  C1185    1.0000 0.26240  0.70702  0.41307  Biso   1.000  C
  C1186    1.0000 0.31450  0.76842  0.48058  Biso   1.000  C
  C1187    1.0000 0.13950  0.67679  0.49459  Biso   1.000  C
  C1188    1.0000 0.20300  0.73910  0.55700  Biso   1.000  C
  C1189    1.0000 0.20301  0.62732  0.36449  Biso   1.000  C
  C1190    1.0000 0.09042  0.60032  0.43978  Biso   1.000  C
  O341     1.0000 0.29513  0.73001  0.37962  Biso   1.000  O
  N779     1.0000 0.31116  0.81463  0.49324  Biso   1.000  N
  H1201    1.0000 0.32453  0.75622  0.51069  Biso   1.000  H
  H1202    1.0000 0.34239  0.77811  0.45570  Biso   1.000  H
  O342     1.0000 0.10164  0.68069  0.50826  Biso   1.000  O
  N780     1.0000 0.23512  0.79448  0.54523  Biso   1.000  N
  H1203    1.0000 0.17040  0.73320  0.57288  Biso   1.000  H
  H1204    1.0000 0.22182  0.72942  0.58131  Biso   1.000  H
  N781     1.0000 0.15897  0.62519  0.33647  Biso   1.000  N
  H1205    1.0000 0.19390  0.59150  0.37400  Biso   1.000  H
  H1206    1.0000 0.23389  0.64129  0.34250  Biso   1.000  H
  N782     1.0000 0.08081  0.60228  0.38696  Biso   1.000  N
  H1207    1.0000 0.06118  0.59910  0.45878  Biso   1.000  H
  H1208    1.0000 0.09070  0.56761  0.44679  Biso   1.000  H
  C1191    1.0000 0.34271  0.86261  0.47117  Biso   1.000  C
  C1192    1.0000 0.29152  0.82061  0.54167  Biso   1.000  C
  C1193    1.0000 0.21621  0.82912  0.54830  Biso   1.000  C
  C1194    1.0000 0.16459  0.63991  0.28638  Biso   1.000  C
  C1195    1.0000 0.10469  0.58630  0.34819  Biso   1.000  C
  C1196    1.0000 0.04280  0.61169  0.36850  Biso   1.000  C
  O343     1.0000 0.36980  0.86981  0.43311  Biso   1.000  O
  N783     1.0000 0.33951  0.90079  0.49751  Biso   1.000  N
  H1209    1.0000 0.30710  0.81109  0.56981  Biso   1.000  H
  C1197    1.0000 0.30829  0.88020  0.54257  Biso   1.000  C
  N784     1.0000 0.25813  0.87942  0.54235  Biso   1.000  N
  O344     1.0000 0.17012  0.81739  0.55411  Biso   1.000  O
  O345     1.0000 0.20668  0.66648  0.26451  Biso   1.000  O
  N785     1.0000 0.11547  0.62102  0.26623  Biso   1.000  N
  C1198    1.0000 0.07382  0.58532  0.29998  Biso   1.000  C
  H1210    1.0000 0.10070  0.55139  0.35538  Biso   1.000  H
  N786     1.0000 0.04015  0.60469  0.31763  Biso   1.000  N
  O346     1.0000 0.01553  0.62444  0.39359  Biso   1.000  O
  C1199    1.0000 0.37140  0.95680  0.48668  Biso   1.000  C
  H1211    1.0000 0.32921  0.89792  0.57288  Biso   1.000  H
  C1200    1.0000 0.25403  0.92488  0.55797  Biso   1.000  C
  C1201    1.0000 0.10751  0.61921  0.21221  Biso   1.000  C
  H1212    1.0000 0.05330  0.54939  0.28590  Biso   1.000  H
  C1202    1.0000 0.99509  0.59760  0.28901  Biso   1.000  C
  N787     1.0000 0.34121  0.97986  0.46810  Biso   1.000  N
  H1213    1.0000 0.38971  0.97522  0.51740  Biso   1.000  H
  H1214    1.0000 0.39809  0.96192  0.46181  Biso   1.000  H
  N788     1.0000 0.26323  0.96160  0.51714  Biso   1.000  N
  H1215    1.0000 0.21892  0.91268  0.57176  Biso   1.000  H
  H1216    1.0000 0.27972  0.94346  0.58457  Biso   1.000  H
  N789     1.0000 0.08248  0.64865  0.19543  Biso   1.000  N
  H1217    1.0000 0.14168  0.63330  0.19558  Biso   1.000  H
  H1218    1.0000 0.08580  0.58241  0.20191  Biso   1.000  H
  N790     1.0000 0.00953  0.63684  0.24900  Biso   1.000  N
  H1219    1.0000 0.97011  0.60000  0.31159  Biso   1.000  H
  H1220    1.0000 0.97749  0.56241  0.27410  Biso   1.000  H
  C1203    1.0000 0.34752  0.99943  0.42090  Biso   1.000  C
  C1204    1.0000 0.31642  0.00057  0.50107  Biso   1.000  C
  C1205    1.0000 0.22652  0.97498  0.50234  Biso   1.000  C
  C1206    1.0000 0.10681  0.69171  0.16430  Biso   1.000  C
  C1207    1.0000 0.02611  0.62870  0.19970  Biso   1.000  C
  C1208    1.0000 0.98585  0.66727  0.24578  Biso   1.000  C
  O347     1.0000 0.37074  0.99167  0.38636  Biso   1.000  O
  N791     1.0000 0.32384  0.02985  0.41768  Biso   1.000  N
  C1209    1.0000 0.30723  0.03796  0.46694  Biso   1.000  C
  H1221    1.0000 0.33923  0.01946  0.52995  Biso   1.000  H
  N792     1.0000 0.25085  0.01804  0.47125  Biso   1.000  N
  O348     1.0000 0.17982  0.95208  0.51455  Biso   1.000  O
  O349     1.0000 0.15349  0.71458  0.15209  Biso   1.000  O
  N793     1.0000 0.07008  0.70505  0.14950  Biso   1.000  N
  C1210    1.0000 0.01689  0.66609  0.16561  Biso   1.000  C
  H1222    1.0000 0.00509  0.59150  0.18869  Biso   1.000  H
  N794     1.0000 0.99213  0.68679  0.19854  Biso   1.000  N
  O350     1.0000 0.96263  0.67502  0.28031  Biso   1.000  O
  C1211    1.0000 0.33828  0.06909  0.37767  Biso   1.000  C
  H1223    1.0000 0.32827  0.07519  0.47795  Biso   1.000  H
  C1212    1.0000 0.22586  0.04748  0.45447  Biso   1.000  C
  C1213    1.0000 0.07930  0.74182  0.10871  Biso   1.000  C
  H1224    1.0000 0.99408  0.64719  0.13669  Biso   1.000  H
  C1214    1.0000 0.96191  0.70986  0.17996  Biso   1.000  C
  N795     1.0000 0.29322  0.06201  0.34902  Biso   1.000  N
  H1225    1.0000 0.36329  0.06669  0.35505  Biso   1.000  H
  H1226    1.0000 0.35587  0.10428  0.39255  Biso   1.000  H
  N796     1.0000 0.21791  0.04563  0.40041  Biso   1.000  N
  H1227    1.0000 0.19163  0.03335  0.47106  Biso   1.000  H
  H1228    1.0000 0.24753  0.08429  0.46477  Biso   1.000  H
  H1229    1.0000 0.11440  0.75402  0.09489  Biso   1.000  H
  H1230    1.0000 0.05359  0.72320  0.08211  Biso   1.000  H
  N797     1.0000 0.07518  0.78724  0.12429  Biso   1.000  N
  N798     1.0000 0.99382  0.76590  0.16913  Biso   1.000  N
  H1231    1.0000 0.94365  0.69147  0.14928  Biso   1.000  H
  H1232    1.0000 0.93524  0.70478  0.20487  Biso   1.000  H
  C1215    1.0000 0.25954  0.08137  0.36666  Biso   1.000  C
  C1216    1.0000 0.29058  0.05496  0.29815  Biso   1.000  C
  C1217    1.0000 0.16874  0.02678  0.38026  Biso   1.000  C
  C1218    1.0000 0.02504  0.78649  0.12407  Biso   1.000  C
  C1219    1.0000 0.11712  0.83758  0.11837  Biso   1.000  C
  C1220    1.0000 0.99065  0.80408  0.19547  Biso   1.000  C
  H1233    1.0000 0.28008  0.11727  0.38075  Biso   1.000  H
  C1221    1.0000 0.22868  0.08039  0.31845  Biso   1.000  C
  N799     1.0000 0.25254  0.06437  0.27968  Biso   1.000  N
  O351     1.0000 0.31778  0.04221  0.27305  Biso   1.000  O
  N800     1.0000 0.17436  0.04150  0.33021  Biso   1.000  N
  O352     1.0000 0.12672  0.00021  0.40214  Biso   1.000  O
  C1222    1.0000 0.04185  0.84608  0.12497  Biso   1.000  C
  H1234    1.0000 0.00415  0.76878  0.09376  Biso   1.000  H
  N801     1.0000 0.09824  0.87221  0.12141  Biso   1.000  N
  O353     1.0000 0.16324  0.84931  0.11253  Biso   1.000  O
  N802     1.0000 0.02217  0.85206  0.17344  Biso   1.000  N
  O354     1.0000 0.96356  0.79688  0.23353  Biso   1.000  O
  H1235    1.0000 0.23265  0.11526  0.31126  Biso   1.000  H
  C1223    1.0000 0.24297  0.06638  0.22686  Biso   1.000  C
  C1224    1.0000 0.13038  0.03938  0.30215  Biso   1.000  C
  H1236    1.0000 0.02624  0.85557  0.09687  Biso   1.000  H
  C1225    1.0000 0.13034  0.92755  0.10965  Biso   1.000  C
  C1226    1.0000 0.01883  0.89827  0.18606  Biso   1.000  C
  N803     1.0000 0.19430  0.02261  0.20929  Biso   1.000  N
  H1237    1.0000 0.27213  0.06756  0.20787  Biso   1.000  H
  H1238    1.0000 0.24263  0.09909  0.21985  Biso   1.000  H
  N804     1.0000 0.11657  0.00718  0.25761  Biso   1.000  N
  H1239    1.0000 0.13943  0.07519  0.29268  Biso   1.000  H
  H1240    1.0000 0.09945  0.02536  0.32414  Biso   1.000  H
  N805     1.0000 0.14382  0.96215  0.15310  Biso   1.000  N
  H1241    1.0000 0.16292  0.93346  0.09376  Biso   1.000  H
  H1242    1.0000 0.11155  0.93728  0.08537  Biso   1.000  H
  N806     1.0000 0.06730  0.94129  0.20554  Biso   1.000  N
  H1243    1.0000 0.00884  0.91047  0.15595  Biso   1.000  H
  H1244    1.0000 0.99094  0.88859  0.21098  Biso   1.000  H
  C1227    1.0000 0.19384  0.98986  0.17205  Biso   1.000  C
  C1228    1.0000 0.14523  0.02367  0.21026  Biso   1.000  C
  C1229    1.0000 0.07093  0.95967  0.25357  Biso   1.000  C
  C1230    1.0000 0.10925  0.97979  0.17337  Biso   1.000  C
  O355     1.0000 0.23169  0.98600  0.15838  Biso   1.000  O
  H1245    1.0000 0.15064  0.05827  0.19948  Biso   1.000  H
  O356     1.0000 0.03822  0.93665  0.28702  Biso   1.000  O
  H1246    1.0000 0.09534  0.99309  0.14677  Biso   1.000  H
  C1231    1.0000 0.58023  0.78728  0.39195  Biso   1.000  C
  N807     1.0000 0.58693  0.77326  0.34025  Biso   1.000  N
  H1247    1.0000 0.55912  0.75386  0.40966  Biso   1.000  H
  H1248    1.0000 0.55812  0.80345  0.38925  Biso   1.000  H
  C1232    1.0000 0.61604  0.81506  0.41997  Biso   1.000  C
  C1233    1.0000 0.55475  0.78137  0.30238  Biso   1.000  C
  H1249    1.0000 0.62034  0.79149  0.44304  Biso   1.000  H
  H1250    1.0000 0.60374  0.83478  0.44004  Biso   1.000  H
  N808     1.0000 0.66863  0.85316  0.40206  Biso   1.000  N
  C1234    1.0000 0.56863  0.77397  0.24997  Biso   1.000  C
  H1251    1.0000 0.56013  0.81695  0.30575  Biso   1.000  H
  H1252    1.0000 0.51733  0.75638  0.30845  Biso   1.000  H
  C1235    1.0000 0.70970  0.85131  0.43308  Biso   1.000  C
  C1236    1.0000 0.62363  0.81538  0.23356  Biso   1.000  C
  H1253    1.0000 0.56563  0.73926  0.24765  Biso   1.000  H
  H1254    1.0000 0.54305  0.77448  0.22675  Biso   1.000  H
  C1237    1.0000 0.76470  0.89272  0.41671  Biso   1.000  C
  H1255    1.0000 0.70611  0.81632  0.43031  Biso   1.000  H
  H1256    1.0000 0.70462  0.85710  0.46829  Biso   1.000  H
  N809     1.0000 0.66471  0.81349  0.26458  Biso   1.000  N
  H1257    1.0000 0.62725  0.85037  0.23637  Biso   1.000  H
  H1258    1.0000 0.62873  0.80955  0.19835  Biso   1.000  H
  C1238    1.0000 0.77862  0.88532  0.36430  Biso   1.000  C
  H1259    1.0000 0.76772  0.92740  0.41899  Biso   1.000  H
  H1260    1.0000 0.79031  0.89221  0.43990  Biso   1.000  H
  C1239    1.0000 0.71730  0.85159  0.24671  Biso   1.000  C
  N810     1.0000 0.74638  0.89339  0.32639  Biso   1.000  N
  H1261    1.0000 0.77322  0.84970  0.36089  Biso   1.000  H
  H1262    1.0000 0.81600  0.91032  0.35819  Biso   1.000  H
  C1240    1.0000 0.75310  0.87942  0.27470  Biso   1.000  C
  H1263    1.0000 0.71299  0.87521  0.22360  Biso   1.000  H
  H1264    1.0000 0.72962  0.83191  0.22660  Biso   1.000  H
  H1265    1.0000 0.77419  0.91279  0.25698  Biso   1.000  H
  H1266    1.0000 0.77519  0.86320  0.27739  Biso   1.000  H
  C1241    1.0000 0.78138  0.22663  0.69762  Biso   1.000  C
  N811     1.0000 0.77326  0.18633  0.65971  Biso   1.000  N
  H1267    1.0000 0.81696  0.25682  0.69421  Biso   1.000  H
  H1268    1.0000 0.75636  0.23903  0.69152  Biso   1.000  H
  C1242    1.0000 0.77397  0.20534  0.75003  Biso   1.000  C
  C1243    1.0000 0.78726  0.20703  0.60802  Biso   1.000  C
  H1269    1.0000 0.73926  0.17362  0.75231  Biso   1.000  H
  H1270    1.0000 0.77448  0.23144  0.77322  Biso   1.000  H
  C1244    1.0000 0.81536  0.19172  0.76644  Biso   1.000  C
  H1271    1.0000 0.75389  0.19475  0.59034  Biso   1.000  H
  H1272    1.0000 0.80348  0.24533  0.61071  Biso   1.000  H
  C1245    1.0000 0.81507  0.19904  0.58003  Biso   1.000  C
  H1273    1.0000 0.85036  0.22313  0.76363  Biso   1.000  H
  H1274    1.0000 0.80957  0.18082  0.80161  Biso   1.000  H
  N812     1.0000 0.81351  0.14882  0.73538  Biso   1.000  N
  H1275    1.0000 0.79147  0.17114  0.55692  Biso   1.000  H
  H1276    1.0000 0.83478  0.23104  0.55992  Biso   1.000  H
  N813     1.0000 0.85318  0.18452  0.59794  Biso   1.000  N
  C1246    1.0000 0.85162  0.13430  0.75329  Biso   1.000  C
  C1247    1.0000 0.85132  0.14162  0.56689  Biso   1.000  C
  C1248    1.0000 0.87939  0.12631  0.72530  Biso   1.000  C
  H1277    1.0000 0.87522  0.16220  0.77640  Biso   1.000  H
  H1278    1.0000 0.83190  0.10230  0.77340  Biso   1.000  H
  C1249    1.0000 0.89271  0.12800  0.58329  Biso   1.000  C
  H1279    1.0000 0.81629  0.11021  0.56969  Biso   1.000  H
  H1280    1.0000 0.85712  0.15252  0.53167  Biso   1.000  H
  N814     1.0000 0.89342  0.14701  0.67357  Biso   1.000  N
  H1281    1.0000 0.91280  0.13859  0.74299  Biso   1.000  H
  H1282    1.0000 0.86321  0.08801  0.72257  Biso   1.000  H
  C1250    1.0000 0.88531  0.10670  0.63570  Biso   1.000  C
  H1283    1.0000 0.92741  0.15968  0.58101  Biso   1.000  H
  H1284    1.0000 0.89221  0.10190  0.56010  Biso   1.000  H
  H1285    1.0000 0.84972  0.07652  0.63907  Biso   1.000  H
  H1286    1.0000 0.91030  0.09431  0.64181  Biso   1.000  H
  C1251    1.0000 0.21273  0.79298  0.39195  Biso   1.000  C
  N815     1.0000 0.22673  0.81369  0.34025  Biso   1.000  N
  H1287    1.0000 0.24614  0.80526  0.40966  Biso   1.000  H
  H1288    1.0000 0.19655  0.75469  0.38925  Biso   1.000  H
  C1252    1.0000 0.18492  0.80097  0.41997  Biso   1.000  C
  C1253    1.0000 0.21864  0.77338  0.30238  Biso   1.000  C
  H1289    1.0000 0.20852  0.82888  0.44304  Biso   1.000  H
  H1290    1.0000 0.16524  0.76897  0.44004  Biso   1.000  H
  N816     1.0000 0.14683  0.81546  0.40206  Biso   1.000  N
  C1254    1.0000 0.22605  0.79468  0.24997  Biso   1.000  C
  H1291    1.0000 0.18301  0.74315  0.30575  Biso   1.000  H
  H1292    1.0000 0.24363  0.76098  0.30845  Biso   1.000  H
  C1255    1.0000 0.14870  0.85840  0.43308  Biso   1.000  C
  C1256    1.0000 0.18461  0.80825  0.23356  Biso   1.000  C
  H1293    1.0000 0.26074  0.82636  0.24765  Biso   1.000  H
  H1294    1.0000 0.22555  0.76858  0.22675  Biso   1.000  H
  C1257    1.0000 0.10731  0.87202  0.41671  Biso   1.000  C
  H1295    1.0000 0.18370  0.88981  0.43031  Biso   1.000  H
  H1296    1.0000 0.14291  0.84750  0.46829  Biso   1.000  H
  N817     1.0000 0.18648  0.85120  0.26458  Biso   1.000  N
  H1297    1.0000 0.14963  0.77689  0.23637  Biso   1.000  H
  H1298    1.0000 0.19044  0.81916  0.19835  Biso   1.000  H
  C1258    1.0000 0.11472  0.89331  0.36430  Biso   1.000  C
  H1299    1.0000 0.07260  0.84029  0.41899  Biso   1.000  H
  H1300    1.0000 0.10782  0.89811  0.43990  Biso   1.000  H
  C1259    1.0000 0.14841  0.86572  0.24671  Biso   1.000  C
  N818     1.0000 0.10660  0.85301  0.32639  Biso   1.000  N
  H1301    1.0000 0.15030  0.92350  0.36089  Biso   1.000  H
  H1302    1.0000 0.08970  0.90571  0.35819  Biso   1.000  H
  C1260    1.0000 0.12060  0.87371  0.27470  Biso   1.000  C
  H1303    1.0000 0.12481  0.83781  0.22360  Biso   1.000  H
  H1304    1.0000 0.16812  0.89772  0.22660  Biso   1.000  H
  H1305    1.0000 0.08720  0.86139  0.25698  Biso   1.000  H
  H1306    1.0000 0.13682  0.91201  0.27739  Biso   1.000  H
  C1261    1.0000 0.48205  0.52506  0.09979  Biso   1.000  C
  N819     1.0000 0.48018  0.48212  0.06874  Biso   1.000  N
  C1262    1.0000 0.44063  0.53868  0.08335  Biso   1.000  C
  H1307    1.0000 0.51705  0.55647  0.09695  Biso   1.000  H
  H1308    1.0000 0.47622  0.51416  0.13497  Biso   1.000  H
  C1263    1.0000 0.44063  0.53868  0.08339  Biso   1.000  C
  C1264    1.0000 0.51827  0.46763  0.08665  Biso   1.000  C
  C1265    1.0000 0.48205  0.52506  0.09976  Biso   1.000  C
  C1266    1.0000 0.51827  0.46763  0.08661  Biso   1.000  C
  C1267    1.0000 0.44803  0.55997  0.03098  Biso   1.000  C
  H1309    1.0000 0.40591  0.50696  0.08567  Biso   1.000  H
  H1310    1.0000 0.44113  0.56477  0.10657  Biso   1.000  H
  C1268    1.0000 0.54608  0.45964  0.05863  Biso   1.000  C
  H1311    1.0000 0.54187  0.49554  0.10972  Biso   1.000  H
  H1312    1.0000 0.49856  0.43564  0.10672  Biso   1.000  H
  H1313    1.0000 0.54187  0.49554  0.10976  Biso   1.000  H
  H1314    1.0000 0.48365  0.59016  0.02757  Biso   1.000  H
  H1315    1.0000 0.42304  0.57237  0.02487  Biso   1.000  H
  H1316    1.0000 0.48365  0.59016  0.02753  Biso   1.000  H
  N820     1.0000 0.43995  0.51967  0.99307  Biso   1.000  N
  N821     1.0000 0.43995  0.51967  0.99303  Biso   1.000  N
  H1317    1.0000 0.57945  0.47192  0.07634  Biso   1.000  H
  H1318    1.0000 0.52986  0.42135  0.05593  Biso   1.000  H
  N822     1.0000 0.56008  0.48035  0.00693  Biso   1.000  N
  H1319    1.0000 0.57945  0.47192  0.07631  Biso   1.000  H
  H1320    1.0000 0.52986  0.42135  0.05597  Biso   1.000  H
  C1269    1.0000 0.45395  0.54037  0.94137  Biso   1.000  C
  C1270    1.0000 0.45395  0.54037  0.94134  Biso   1.000  C
  C1271    1.0000 0.55196  0.44004  0.96902  Biso   1.000  C
  H1321    1.0000 0.42052  0.52805  0.92366  Biso   1.000  H
  H1322    1.0000 0.47013  0.57867  0.94407  Biso   1.000  H
  C1272    1.0000 0.48175  0.53238  0.91335  Biso   1.000  C
  H1323    1.0000 0.47013  0.57867  0.94403  Biso   1.000  H
  H1324    1.0000 0.51638  0.40985  0.97243  Biso   1.000  H
  H1325    1.0000 0.57698  0.42764  0.97513  Biso   1.000  H
  C1273    1.0000 0.55937  0.46134  0.91665  Biso   1.000  C
  C1274    1.0000 0.55937  0.46134  0.91661  Biso   1.000  C
  N823     1.0000 0.51983  0.51786  0.93126  Biso   1.000  N
  H1326    1.0000 0.45816  0.50448  0.89028  Biso   1.000  H
  H1327    1.0000 0.50144  0.56438  0.89328  Biso   1.000  H
  H1328    1.0000 0.45816  0.50448  0.89024  Biso   1.000  H
  H1329    1.0000 0.50144  0.56438  0.89324  Biso   1.000  H
  H1330    1.0000 0.59406  0.49302  0.91433  Biso   1.000  H
  H1331    1.0000 0.55886  0.43524  0.89343  Biso   1.000  H
  C1275    1.0000 0.51798  0.47496  0.90024  Biso   1.000  C
  C1276    1.0000 0.51798  0.47496  0.90021  Biso   1.000  C
  H1332    1.0000 0.48298  0.44355  0.90305  Biso   1.000  H
  H1333    1.0000 0.52375  0.48582  0.86503  Biso   1.000  H
  H1334    1.0000 0.48298  0.44355  0.90302  Biso   1.000  H
  C1277    1.0000 0.48205  0.52506  0.09979  Biso   1.000  C
  N824     1.0000 0.48018  0.48212  0.06874  Biso   1.000  N
  H1335    1.0000 0.51705  0.55647  0.09695  Biso   1.000  H
  H1336    1.0000 0.47622  0.51416  0.13497  Biso   1.000  H
  C1278    1.0000 0.44063  0.53868  0.08335  Biso   1.000  C
  C1279    1.0000 0.44063  0.53868  0.08339  Biso   1.000  C
  C1280    1.0000 0.51827  0.46763  0.08665  Biso   1.000  C
  C1281    1.0000 0.48205  0.52506  0.09976  Biso   1.000  C
  C1282    1.0000 0.51827  0.46763  0.08661  Biso   1.000  C
  C1283    1.0000 0.44803  0.55997  0.03098  Biso   1.000  C
  H1337    1.0000 0.40591  0.50696  0.08567  Biso   1.000  H
  H1338    1.0000 0.44113  0.56477  0.10657  Biso   1.000  H
  C1284    1.0000 0.54608  0.45964  0.05863  Biso   1.000  C
  H1339    1.0000 0.49856  0.43564  0.10672  Biso   1.000  H
  H1340    1.0000 0.54187  0.49554  0.10972  Biso   1.000  H
  H1341    1.0000 0.54187  0.49554  0.10976  Biso   1.000  H
  H1342    1.0000 0.42304  0.57237  0.02487  Biso   1.000  H
  N825     1.0000 0.43995  0.51967  0.99307  Biso   1.000  N
  N826     1.0000 0.43995  0.51967  0.99303  Biso   1.000  N
  H1343    1.0000 0.48365  0.59016  0.02757  Biso   1.000  H
  H1344    1.0000 0.48365  0.59016  0.02753  Biso   1.000  H
  N827     1.0000 0.56008  0.48035  0.00693  Biso   1.000  N
  H1345    1.0000 0.57945  0.47192  0.07634  Biso   1.000  H
  H1346    1.0000 0.52986  0.42135  0.05593  Biso   1.000  H
  H1347    1.0000 0.57945  0.47192  0.07631  Biso   1.000  H
  H1348    1.0000 0.52986  0.42135  0.05597  Biso   1.000  H
  C1285    1.0000 0.45395  0.54037  0.94137  Biso   1.000  C
  C1286    1.0000 0.45395  0.54037  0.94134  Biso   1.000  C
  C1287    1.0000 0.55196  0.44004  0.96902  Biso   1.000  C
  H1349    1.0000 0.42052  0.52805  0.92366  Biso   1.000  H
  H1350    1.0000 0.47013  0.57867  0.94407  Biso   1.000  H
  C1288    1.0000 0.48175  0.53238  0.91335  Biso   1.000  C
  H1351    1.0000 0.47013  0.57867  0.94403  Biso   1.000  H
  H1352    1.0000 0.51638  0.40985  0.97243  Biso   1.000  H
  H1353    1.0000 0.57698  0.42764  0.97513  Biso   1.000  H
  C1289    1.0000 0.55937  0.46134  0.91665  Biso   1.000  C
  C1290    1.0000 0.55937  0.46134  0.91661  Biso   1.000  C
  N828     1.0000 0.51983  0.51786  0.93126  Biso   1.000  N
  H1354    1.0000 0.45816  0.50448  0.89028  Biso   1.000  H
  H1355    1.0000 0.50144  0.56438  0.89328  Biso   1.000  H
  H1356    1.0000 0.45816  0.50448  0.89024  Biso   1.000  H
  H1357    1.0000 0.50144  0.56438  0.89324  Biso   1.000  H
  H1358    1.0000 0.59406  0.49302  0.91433  Biso   1.000  H
  H1359    1.0000 0.55886  0.43524  0.89343  Biso   1.000  H
  C1291    1.0000 0.51798  0.47496  0.90024  Biso   1.000  C
  C1292    1.0000 0.51798  0.47496  0.90021  Biso   1.000  C
  H1360    1.0000 0.48298  0.44355  0.90305  Biso   1.000  H
  H1361    1.0000 0.52375  0.48582  0.86503  Biso   1.000  H
  H1362    1.0000 0.48298  0.44355  0.90302  Biso   1.000  H
  C1293    1.0000 0.04305  0.51798  0.09979  Biso   1.000  C
  C1294    1.0000 0.09804  0.55938  0.08339  Biso   1.000  C
  C1295    1.0000 0.09804  0.55938  0.08335  Biso   1.000  C
  H1363    1.0000 0.03943  0.48298  0.09695  Biso   1.000  H
  H1364    1.0000 0.03793  0.52376  0.13497  Biso   1.000  H
  N829     1.0000 0.00195  0.51983  0.06874  Biso   1.000  N
  H1365    1.0000 0.03946  0.48298  0.09695  Biso   1.000  H
  N830     1.0000 0.00198  0.51983  0.06874  Biso   1.000  N
  C1296    1.0000 0.11193  0.55198  0.03098  Biso   1.000  C
  H1366    1.0000 0.10103  0.59406  0.08567  Biso   1.000  H
  H1367    1.0000 0.12363  0.55887  0.10657  Biso   1.000  H
  C1297    1.0000 0.04305  0.51798  0.09976  Biso   1.000  C
  C1298    1.0000 0.94935  0.48173  0.08665  Biso   1.000  C
  C1299    1.0000 0.94935  0.48173  0.08661  Biso   1.000  C
  H1368    1.0000 0.10653  0.51636  0.02757  Biso   1.000  H
  H1369    1.0000 0.14935  0.57698  0.02487  Biso   1.000  H
  H1370    1.0000 0.10653  0.51636  0.02753  Biso   1.000  H
  N831     1.0000 0.07973  0.56005  0.99307  Biso   1.000  N
  N832     1.0000 0.07973  0.56005  0.99303  Biso   1.000  N
  C1300    1.0000 0.91358  0.45394  0.05863  Biso   1.000  C
  H1371    1.0000 0.95369  0.45815  0.10972  Biso   1.000  H
  H1372    1.0000 0.93706  0.50144  0.10672  Biso   1.000  H
  H1373    1.0000 0.95369  0.45815  0.10976  Biso   1.000  H
  H1374    1.0000 0.93709  0.50144  0.10672  Biso   1.000  H
  C1301    1.0000 0.08645  0.54608  0.94137  Biso   1.000  C
  C1302    1.0000 0.08645  0.54608  0.94134  Biso   1.000  C
  N833     1.0000 0.92027  0.43993  0.00693  Biso   1.000  N
  H1375    1.0000 0.89247  0.42052  0.07634  Biso   1.000  H
  H1376    1.0000 0.89148  0.47015  0.05593  Biso   1.000  H
  H1377    1.0000 0.89247  0.42052  0.07631  Biso   1.000  H
  H1378    1.0000 0.89148  0.47015  0.05597  Biso   1.000  H
  H1379    1.0000 0.10753  0.57946  0.92366  Biso   1.000  H
  H1380    1.0000 0.10854  0.52986  0.94407  Biso   1.000  H
  C1303    1.0000 0.05062  0.51825  0.91335  Biso   1.000  C
  H1381    1.0000 0.10854  0.52986  0.94403  Biso   1.000  H
  C1304    1.0000 0.88806  0.44803  0.96902  Biso   1.000  C
  N834     1.0000 0.99803  0.48015  0.93126  Biso   1.000  N
  H1382    1.0000 0.04634  0.54187  0.89028  Biso   1.000  H
  H1383    1.0000 0.06293  0.49857  0.89328  Biso   1.000  H
  H1384    1.0000 0.04634  0.54187  0.89024  Biso   1.000  H
  H1385    1.0000 0.06293  0.49857  0.89324  Biso   1.000  H
  C1305    1.0000 0.90198  0.44063  0.91665  Biso   1.000  C
  C1306    1.0000 0.90198  0.44063  0.91661  Biso   1.000  C
  H1386    1.0000 0.89346  0.48365  0.97243  Biso   1.000  H
  H1387    1.0000 0.85068  0.42304  0.97513  Biso   1.000  H
  H1388    1.0000 0.89350  0.48365  0.97243  Biso   1.000  H
  C1307    1.0000 0.95698  0.48204  0.90024  Biso   1.000  C
  C1308    1.0000 0.95698  0.48204  0.90021  Biso   1.000  C
  H1389    1.0000 0.89894  0.40592  0.91433  Biso   1.000  H
  H1390    1.0000 0.87637  0.44115  0.89343  Biso   1.000  H
  H1391    1.0000 0.89897  0.40592  0.91433  Biso   1.000  H
  H1392    1.0000 0.96056  0.51703  0.90305  Biso   1.000  H
  H1393    1.0000 0.96206  0.47625  0.86503  Biso   1.000  H
  H1394    1.0000 0.96056  0.51703  0.90302  Biso   1.000  H
  H1395    1.0000 0.96209  0.47625  0.86503  Biso   1.000  H
  C1309    1.0000 0.04305  0.51798  0.09979  Biso   1.000  C
  C1310    1.0000 0.09804  0.55938  0.08339  Biso   1.000  C
  C1311    1.0000 0.09804  0.55938  0.08335  Biso   1.000  C
  H1396    1.0000 0.03943  0.48298  0.09695  Biso   1.000  H
  H1397    1.0000 0.03793  0.52376  0.13497  Biso   1.000  H
  N835     1.0000 0.00195  0.51983  0.06874  Biso   1.000  N
  H1398    1.0000 0.03946  0.48298  0.09695  Biso   1.000  H
  N836     1.0000 0.00198  0.51983  0.06874  Biso   1.000  N
  C1312    1.0000 0.11193  0.55198  0.03098  Biso   1.000  C
  H1399    1.0000 0.10103  0.59406  0.08567  Biso   1.000  H
  H1400    1.0000 0.12363  0.55887  0.10657  Biso   1.000  H
  C1313    1.0000 0.04305  0.51798  0.09976  Biso   1.000  C
  C1314    1.0000 0.94935  0.48173  0.08665  Biso   1.000  C
  C1315    1.0000 0.94935  0.48173  0.08661  Biso   1.000  C
  H1401    1.0000 0.14935  0.57698  0.02487  Biso   1.000  H
  H1402    1.0000 0.10653  0.51636  0.02757  Biso   1.000  H
  H1403    1.0000 0.10653  0.51636  0.02753  Biso   1.000  H
  N837     1.0000 0.07973  0.56005  0.99307  Biso   1.000  N
  N838     1.0000 0.07973  0.56005  0.99303  Biso   1.000  N
  C1316    1.0000 0.91358  0.45394  0.05863  Biso   1.000  C
  H1404    1.0000 0.95369  0.45815  0.10972  Biso   1.000  H
  H1405    1.0000 0.93706  0.50144  0.10672  Biso   1.000  H
  H1406    1.0000 0.95369  0.45815  0.10976  Biso   1.000  H
  H1407    1.0000 0.93709  0.50144  0.10672  Biso   1.000  H
  C1317    1.0000 0.08645  0.54608  0.94137  Biso   1.000  C
  C1318    1.0000 0.08645  0.54608  0.94134  Biso   1.000  C
  N839     1.0000 0.92027  0.43993  0.00693  Biso   1.000  N
  H1408    1.0000 0.89247  0.42052  0.07634  Biso   1.000  H
  H1409    1.0000 0.89148  0.47015  0.05593  Biso   1.000  H
  H1410    1.0000 0.89247  0.42052  0.07631  Biso   1.000  H
  H1411    1.0000 0.89148  0.47015  0.05597  Biso   1.000  H
  H1412    1.0000 0.10753  0.57946  0.92366  Biso   1.000  H
  H1413    1.0000 0.10854  0.52986  0.94407  Biso   1.000  H
  C1319    1.0000 0.05062  0.51825  0.91335  Biso   1.000  C
  H1414    1.0000 0.10854  0.52986  0.94403  Biso   1.000  H
  C1320    1.0000 0.88806  0.44803  0.96902  Biso   1.000  C
  N840     1.0000 0.99803  0.48015  0.93126  Biso   1.000  N
  H1415    1.0000 0.04634  0.54187  0.89028  Biso   1.000  H
  H1416    1.0000 0.06293  0.49857  0.89328  Biso   1.000  H
  H1417    1.0000 0.04634  0.54187  0.89024  Biso   1.000  H
  H1418    1.0000 0.06293  0.49857  0.89324  Biso   1.000  H
  C1321    1.0000 0.90198  0.44063  0.91665  Biso   1.000  C
  C1322    1.0000 0.90198  0.44063  0.91661  Biso   1.000  C
  H1419    1.0000 0.89346  0.48365  0.97243  Biso   1.000  H
  H1420    1.0000 0.85068  0.42304  0.97513  Biso   1.000  H
  H1421    1.0000 0.89350  0.48365  0.97243  Biso   1.000  H
  C1323    1.0000 0.95698  0.48204  0.90024  Biso   1.000  C
  C1324    1.0000 0.95698  0.48204  0.90021  Biso   1.000  C
  H1422    1.0000 0.89894  0.40592  0.91433  Biso   1.000  H
  H1423    1.0000 0.87637  0.44115  0.89343  Biso   1.000  H
  H1424    1.0000 0.89897  0.40592  0.91433  Biso   1.000  H
  H1425    1.0000 0.96056  0.51703  0.90305  Biso   1.000  H
  H1426    1.0000 0.96206  0.47625  0.86503  Biso   1.000  H
  H1427    1.0000 0.96056  0.51703  0.90302  Biso   1.000  H
  H1428    1.0000 0.96209  0.47625  0.86503  Biso   1.000  H
  C1325    1.0000 0.04305  0.51798  0.09979  Biso   1.000  C
  C1326    1.0000 0.09804  0.55938  0.08335  Biso   1.000  C
  C1327    1.0000 0.09804  0.55938  0.08339  Biso   1.000  C
  H1429    1.0000 0.03793  0.52376  0.13497  Biso   1.000  H
  H1430    1.0000 0.03943  0.48298  0.09695  Biso   1.000  H
  N841     1.0000 0.00195  0.51983  0.06874  Biso   1.000  N
  H1431    1.0000 0.03946  0.48298  0.09695  Biso   1.000  H
  N842     1.0000 0.00198  0.51983  0.06874  Biso   1.000  N
  C1328    1.0000 0.11193  0.55198  0.03098  Biso   1.000  C
  H1432    1.0000 0.10103  0.59406  0.08567  Biso   1.000  H
  H1433    1.0000 0.12363  0.55887  0.10657  Biso   1.000  H
  C1329    1.0000 0.04305  0.51798  0.09976  Biso   1.000  C
  C1330    1.0000 0.94935  0.48173  0.08665  Biso   1.000  C
  C1331    1.0000 0.94935  0.48173  0.08661  Biso   1.000  C
  H1434    1.0000 0.14935  0.57698  0.02487  Biso   1.000  H
  N843     1.0000 0.07973  0.56005  0.99307  Biso   1.000  N
  N844     1.0000 0.07973  0.56005  0.99303  Biso   1.000  N
  H1435    1.0000 0.10653  0.51636  0.02757  Biso   1.000  H
  H1436    1.0000 0.10653  0.51636  0.02753  Biso   1.000  H
  C1332    1.0000 0.91358  0.45394  0.05863  Biso   1.000  C
  H1437    1.0000 0.95369  0.45815  0.10972  Biso   1.000  H
  H1438    1.0000 0.93706  0.50144  0.10672  Biso   1.000  H
  H1439    1.0000 0.95369  0.45815  0.10976  Biso   1.000  H
  H1440    1.0000 0.93709  0.50144  0.10672  Biso   1.000  H
  C1333    1.0000 0.08645  0.54608  0.94137  Biso   1.000  C
  C1334    1.0000 0.08645  0.54608  0.94134  Biso   1.000  C
  N845     1.0000 0.92027  0.43993  0.00693  Biso   1.000  N
  H1441    1.0000 0.89247  0.42052  0.07634  Biso   1.000  H
  H1442    1.0000 0.89148  0.47015  0.05593  Biso   1.000  H
  H1443    1.0000 0.89247  0.42052  0.07631  Biso   1.000  H
  H1444    1.0000 0.89148  0.47015  0.05597  Biso   1.000  H
  H1445    1.0000 0.10753  0.57946  0.92366  Biso   1.000  H
  H1446    1.0000 0.10854  0.52986  0.94407  Biso   1.000  H
  C1335    1.0000 0.05062  0.51825  0.91335  Biso   1.000  C
  H1447    1.0000 0.10854  0.52986  0.94403  Biso   1.000  H
  C1336    1.0000 0.88806  0.44803  0.96902  Biso   1.000  C
  N846     1.0000 0.99803  0.48015  0.93126  Biso   1.000  N
  H1448    1.0000 0.04634  0.54187  0.89028  Biso   1.000  H
  H1449    1.0000 0.06293  0.49857  0.89328  Biso   1.000  H
  H1450    1.0000 0.04634  0.54187  0.89024  Biso   1.000  H
  H1451    1.0000 0.06293  0.49857  0.89324  Biso   1.000  H
  C1337    1.0000 0.90198  0.44063  0.91665  Biso   1.000  C
  C1338    1.0000 0.90198  0.44063  0.91661  Biso   1.000  C
  H1452    1.0000 0.89346  0.48365  0.97243  Biso   1.000  H
  H1453    1.0000 0.85068  0.42304  0.97513  Biso   1.000  H
  H1454    1.0000 0.89350  0.48365  0.97243  Biso   1.000  H
  C1339    1.0000 0.95698  0.48204  0.90024  Biso   1.000  C
  C1340    1.0000 0.95698  0.48204  0.90021  Biso   1.000  C
  H1455    1.0000 0.89894  0.40592  0.91433  Biso   1.000  H
  H1456    1.0000 0.87637  0.44115  0.89343  Biso   1.000  H
  H1457    1.0000 0.89897  0.40592  0.91433  Biso   1.000  H
  H1458    1.0000 0.96056  0.51703  0.90305  Biso   1.000  H
  H1459    1.0000 0.96206  0.47625  0.86503  Biso   1.000  H
  H1460    1.0000 0.96056  0.51703  0.90302  Biso   1.000  H
  H1461    1.0000 0.96209  0.47625  0.86503  Biso   1.000  H
  C1341    1.0000 0.04305  0.51798  0.09979  Biso   1.000  C
  C1342    1.0000 0.09804  0.55938  0.08335  Biso   1.000  C
  C1343    1.0000 0.09804  0.55938  0.08339  Biso   1.000  C
  H1462    1.0000 0.03793  0.52376  0.13497  Biso   1.000  H
  H1463    1.0000 0.03943  0.48298  0.09695  Biso   1.000  H
  N847     1.0000 0.00195  0.51983  0.06874  Biso   1.000  N
  H1464    1.0000 0.03946  0.48298  0.09695  Biso   1.000  H
  N848     1.0000 0.00198  0.51983  0.06874  Biso   1.000  N
  C1344    1.0000 0.11193  0.55198  0.03098  Biso   1.000  C
  H1465    1.0000 0.10103  0.59406  0.08567  Biso   1.000  H
  H1466    1.0000 0.12363  0.55887  0.10657  Biso   1.000  H
  C1345    1.0000 0.04305  0.51798  0.09976  Biso   1.000  C
  C1346    1.0000 0.94935  0.48173  0.08665  Biso   1.000  C
  C1347    1.0000 0.94935  0.48173  0.08661  Biso   1.000  C
  H1467    1.0000 0.14935  0.57698  0.02487  Biso   1.000  H
  N849     1.0000 0.07973  0.56005  0.99307  Biso   1.000  N
  N850     1.0000 0.07973  0.56005  0.99303  Biso   1.000  N
  H1468    1.0000 0.10653  0.51636  0.02757  Biso   1.000  H
  H1469    1.0000 0.10653  0.51636  0.02753  Biso   1.000  H
  C1348    1.0000 0.91358  0.45394  0.05863  Biso   1.000  C
  H1470    1.0000 0.95369  0.45815  0.10972  Biso   1.000  H
  H1471    1.0000 0.93706  0.50144  0.10672  Biso   1.000  H
  H1472    1.0000 0.95369  0.45815  0.10976  Biso   1.000  H
  H1473    1.0000 0.93709  0.50144  0.10672  Biso   1.000  H
  C1349    1.0000 0.08645  0.54608  0.94137  Biso   1.000  C
  C1350    1.0000 0.08645  0.54608  0.94134  Biso   1.000  C
  N851     1.0000 0.92027  0.43993  0.00693  Biso   1.000  N
  H1474    1.0000 0.89247  0.42052  0.07634  Biso   1.000  H
  H1475    1.0000 0.89148  0.47015  0.05593  Biso   1.000  H
  H1476    1.0000 0.89247  0.42052  0.07631  Biso   1.000  H
  H1477    1.0000 0.89148  0.47015  0.05597  Biso   1.000  H
  H1478    1.0000 0.10753  0.57946  0.92366  Biso   1.000  H
  H1479    1.0000 0.10854  0.52986  0.94407  Biso   1.000  H
  C1351    1.0000 0.05062  0.51825  0.91335  Biso   1.000  C
  H1480    1.0000 0.10854  0.52986  0.94403  Biso   1.000  H
  C1352    1.0000 0.88806  0.44803  0.96902  Biso   1.000  C
  N852     1.0000 0.99803  0.48015  0.93126  Biso   1.000  N
  H1481    1.0000 0.04634  0.54187  0.89028  Biso   1.000  H
  H1482    1.0000 0.06293  0.49857  0.89328  Biso   1.000  H
  H1483    1.0000 0.04634  0.54187  0.89024  Biso   1.000  H
  H1484    1.0000 0.06293  0.49857  0.89324  Biso   1.000  H
  C1353    1.0000 0.90198  0.44063  0.91665  Biso   1.000  C
  C1354    1.0000 0.90198  0.44063  0.91661  Biso   1.000  C
  H1485    1.0000 0.89346  0.48365  0.97243  Biso   1.000  H
  H1486    1.0000 0.85068  0.42304  0.97513  Biso   1.000  H
  H1487    1.0000 0.89350  0.48365  0.97243  Biso   1.000  H
  C1355    1.0000 0.95698  0.48204  0.90024  Biso   1.000  C
  C1356    1.0000 0.95698  0.48204  0.90021  Biso   1.000  C
  H1488    1.0000 0.89894  0.40592  0.91433  Biso   1.000  H
  H1489    1.0000 0.87637  0.44115  0.89343  Biso   1.000  H
  H1490    1.0000 0.89897  0.40592  0.91433  Biso   1.000  H
  H1491    1.0000 0.96056  0.51703  0.90305  Biso   1.000  H
  H1492    1.0000 0.96206  0.47625  0.86503  Biso   1.000  H
  H1493    1.0000 0.96056  0.51703  0.90302  Biso   1.000  H
  H1494    1.0000 0.96209  0.47625  0.86503  Biso   1.000  H
  C1357    1.0000 0.46135  0.90197  0.08339  Biso   1.000  C
  C1358    1.0000 0.47492  0.95700  0.09976  Biso   1.000  C
  C1359    1.0000 0.44002  0.88808  0.03098  Biso   1.000  C
  H1495    1.0000 0.49302  0.89898  0.08567  Biso   1.000  H
  H1496    1.0000 0.43523  0.87639  0.10657  Biso   1.000  H
  C1360    1.0000 0.47492  0.95700  0.09979  Biso   1.000  C
  C1361    1.0000 0.47493  0.95696  0.09976  Biso   1.000  C
  C1362    1.0000 0.44005  0.88808  0.03098  Biso   1.000  C
  H1497    1.0000 0.49305  0.89898  0.08567  Biso   1.000  H
  C1363    1.0000 0.47493  0.95696  0.09979  Biso   1.000  C
  N853     1.0000 0.51787  0.99805  0.06874  Biso   1.000  N
  C1364    1.0000 0.46131  0.90197  0.08335  Biso   1.000  C
  H1498    1.0000 0.44351  0.96058  0.09695  Biso   1.000  H
  H1499    1.0000 0.48581  0.96207  0.13497  Biso   1.000  H
  C1365    1.0000 0.46131  0.90197  0.08339  Biso   1.000  C
  C1366    1.0000 0.46135  0.90197  0.08335  Biso   1.000  C
  H1500    1.0000 0.44354  0.96058  0.09695  Biso   1.000  H
  H1501    1.0000 0.48584  0.96207  0.13497  Biso   1.000  H
  H1502    1.0000 0.40982  0.89347  0.02757  Biso   1.000  H
  H1503    1.0000 0.42763  0.85068  0.02487  Biso   1.000  H
  H1504    1.0000 0.40982  0.89347  0.02753  Biso   1.000  H
  N854     1.0000 0.48032  0.92027  0.99307  Biso   1.000  N
  N855     1.0000 0.48032  0.92027  0.99303  Biso   1.000  N
  N856     1.0000 0.48035  0.92027  0.99307  Biso   1.000  N
  N857     1.0000 0.48035  0.92027  0.99303  Biso   1.000  N
  C1367    1.0000 0.53234  0.05063  0.08665  Biso   1.000  C
  C1368    1.0000 0.53234  0.05063  0.08661  Biso   1.000  C
  C1369    1.0000 0.53237  0.05063  0.08665  Biso   1.000  C
  C1370    1.0000 0.53237  0.05063  0.08661  Biso   1.000  C
  C1371    1.0000 0.45962  0.91358  0.94137  Biso   1.000  C
  C1372    1.0000 0.45962  0.91358  0.94134  Biso   1.000  C
  C1373    1.0000 0.45965  0.91358  0.94137  Biso   1.000  C
  C1374    1.0000 0.45965  0.91358  0.94134  Biso   1.000  C
  C1375    1.0000 0.54036  0.08645  0.05863  Biso   1.000  C
  H1505    1.0000 0.50449  0.04634  0.10972  Biso   1.000  H
  H1506    1.0000 0.56440  0.06295  0.10672  Biso   1.000  H
  H1507    1.0000 0.50449  0.04634  0.10976  Biso   1.000  H
  H1508    1.0000 0.47194  0.89249  0.92366  Biso   1.000  H
  H1509    1.0000 0.42134  0.89150  0.94407  Biso   1.000  H
  C1376    1.0000 0.46764  0.94940  0.91335  Biso   1.000  C
  H1510    1.0000 0.42134  0.89150  0.94403  Biso   1.000  H
  H1511    1.0000 0.42132  0.89146  0.94407  Biso   1.000  H
  C1377    1.0000 0.46762  0.94936  0.91335  Biso   1.000  C
  H1512    1.0000 0.42132  0.89146  0.94403  Biso   1.000  H
  H1513    1.0000 0.52811  0.10755  0.07634  Biso   1.000  H
  H1514    1.0000 0.57867  0.10853  0.05593  Biso   1.000  H
  N858     1.0000 0.51967  0.07976  0.00693  Biso   1.000  N
  H1515    1.0000 0.52811  0.10755  0.07631  Biso   1.000  H
  H1516    1.0000 0.57867  0.10853  0.05597  Biso   1.000  H
  H1517    1.0000 0.57871  0.10853  0.05593  Biso   1.000  H
  H1518    1.0000 0.57871  0.10853  0.05597  Biso   1.000  H
  H1519    1.0000 0.49552  0.95369  0.89028  Biso   1.000  H
  H1520    1.0000 0.43561  0.93708  0.89328  Biso   1.000  H
  H1521    1.0000 0.49552  0.95369  0.89024  Biso   1.000  H
  H1522    1.0000 0.43561  0.93708  0.89324  Biso   1.000  H
  H1523    1.0000 0.49556  0.95369  0.89028  Biso   1.000  H
  H1524    1.0000 0.43565  0.93708  0.89328  Biso   1.000  H
  H1525    1.0000 0.49556  0.95369  0.89024  Biso   1.000  H
  H1526    1.0000 0.43565  0.93708  0.89324  Biso   1.000  H
  N859     1.0000 0.48218  0.00198  0.93126  Biso   1.000  N
  C1378    1.0000 0.55997  0.11196  0.96902  Biso   1.000  C
  C1379    1.0000 0.52506  0.04304  0.90024  Biso   1.000  C
  C1380    1.0000 0.52506  0.04304  0.90021  Biso   1.000  C
  H1527    1.0000 0.59020  0.10656  0.97243  Biso   1.000  H
  H1528    1.0000 0.57236  0.14935  0.97513  Biso   1.000  H
  C1381    1.0000 0.53870  0.09806  0.91665  Biso   1.000  C
  C1382    1.0000 0.53870  0.09806  0.91661  Biso   1.000  C
  H1529    1.0000 0.59018  0.10652  0.97243  Biso   1.000  H
  H1530    1.0000 0.57239  0.14935  0.97513  Biso   1.000  H
  C1383    1.0000 0.53868  0.09802  0.91665  Biso   1.000  C
  C1384    1.0000 0.53868  0.09802  0.91661  Biso   1.000  C
  H1531    1.0000 0.55651  0.03945  0.90305  Biso   1.000  H
  H1532    1.0000 0.51417  0.03796  0.86503  Biso   1.000  H
  H1533    1.0000 0.55651  0.03945  0.90302  Biso   1.000  H
  H1534    1.0000 0.50696  0.10105  0.91433  Biso   1.000  H
  H1535    1.0000 0.56475  0.12365  0.89343  Biso   1.000  H
  H1536    1.0000 0.56479  0.12365  0.89343  Biso   1.000  H
  C1385    1.0000 0.46135  0.90197  0.08339  Biso   1.000  C
  C1386    1.0000 0.44005  0.88808  0.03098  Biso   1.000  C
  C1387    1.0000 0.44002  0.88808  0.03098  Biso   1.000  C
  H1537    1.0000 0.49302  0.89898  0.08567  Biso   1.000  H
  H1538    1.0000 0.43523  0.87639  0.10657  Biso   1.000  H
  H1539    1.0000 0.49305  0.89898  0.08567  Biso   1.000  H
  C1388    1.0000 0.47492  0.95700  0.09976  Biso   1.000  C
  C1389    1.0000 0.47492  0.95700  0.09979  Biso   1.000  C
  C1390    1.0000 0.47493  0.95696  0.09976  Biso   1.000  C
  C1391    1.0000 0.47493  0.95696  0.09979  Biso   1.000  C
  H1540    1.0000 0.42763  0.85068  0.02487  Biso   1.000  H
  H1541    1.0000 0.40982  0.89347  0.02757  Biso   1.000  H
  H1542    1.0000 0.40982  0.89347  0.02753  Biso   1.000  H
  N860     1.0000 0.48032  0.92027  0.99307  Biso   1.000  N
  N861     1.0000 0.48032  0.92027  0.99303  Biso   1.000  N
  N862     1.0000 0.48035  0.92027  0.99307  Biso   1.000  N
  N863     1.0000 0.48035  0.92027  0.99303  Biso   1.000  N
  C1392    1.0000 0.46131  0.90197  0.08335  Biso   1.000  C
  C1393    1.0000 0.46131  0.90197  0.08339  Biso   1.000  C
  C1394    1.0000 0.46135  0.90197  0.08335  Biso   1.000  C
  N864     1.0000 0.51787  0.99805  0.06874  Biso   1.000  N
  H1543    1.0000 0.44351  0.96058  0.09695  Biso   1.000  H
  H1544    1.0000 0.48581  0.96207  0.13497  Biso   1.000  H
  H1545    1.0000 0.44354  0.96058  0.09695  Biso   1.000  H
  H1546    1.0000 0.48584  0.96207  0.13497  Biso   1.000  H
  C1395    1.0000 0.45962  0.91358  0.94137  Biso   1.000  C
  C1396    1.0000 0.45962  0.91358  0.94134  Biso   1.000  C
  C1397    1.0000 0.45965  0.91358  0.94137  Biso   1.000  C
  C1398    1.0000 0.45965  0.91358  0.94134  Biso   1.000  C
  C1399    1.0000 0.53234  0.05063  0.08665  Biso   1.000  C
  C1400    1.0000 0.53234  0.05063  0.08661  Biso   1.000  C
  C1401    1.0000 0.53237  0.05063  0.08665  Biso   1.000  C
  C1402    1.0000 0.53237  0.05063  0.08661  Biso   1.000  C
  H1547    1.0000 0.47194  0.89249  0.92366  Biso   1.000  H
  H1548    1.0000 0.42134  0.89150  0.94407  Biso   1.000  H
  C1403    1.0000 0.46764  0.94940  0.91335  Biso   1.000  C
  H1549    1.0000 0.42134  0.89150  0.94403  Biso   1.000  H
  H1550    1.0000 0.42132  0.89146  0.94407  Biso   1.000  H
  C1404    1.0000 0.46762  0.94936  0.91335  Biso   1.000  C
  H1551    1.0000 0.42132  0.89146  0.94403  Biso   1.000  H
  C1405    1.0000 0.54036  0.08645  0.05863  Biso   1.000  C
  H1552    1.0000 0.50449  0.04634  0.10972  Biso   1.000  H
  H1553    1.0000 0.56440  0.06295  0.10672  Biso   1.000  H
  H1554    1.0000 0.50449  0.04634  0.10976  Biso   1.000  H
  H1555    1.0000 0.49552  0.95369  0.89028  Biso   1.000  H
  H1556    1.0000 0.43561  0.93708  0.89328  Biso   1.000  H
  H1557    1.0000 0.49552  0.95369  0.89024  Biso   1.000  H
  H1558    1.0000 0.43561  0.93708  0.89324  Biso   1.000  H
  H1559    1.0000 0.49556  0.95369  0.89028  Biso   1.000  H
  H1560    1.0000 0.43565  0.93708  0.89328  Biso   1.000  H
  H1561    1.0000 0.49556  0.95369  0.89024  Biso   1.000  H
  H1562    1.0000 0.43565  0.93708  0.89324  Biso   1.000  H
  N865     1.0000 0.48218  0.00198  0.93126  Biso   1.000  N
  H1563    1.0000 0.52811  0.10755  0.07634  Biso   1.000  H
  H1564    1.0000 0.57867  0.10853  0.05593  Biso   1.000  H
  N866     1.0000 0.51967  0.07976  0.00693  Biso   1.000  N
  H1565    1.0000 0.52811  0.10755  0.07631  Biso   1.000  H
  H1566    1.0000 0.57867  0.10853  0.05597  Biso   1.000  H
  H1567    1.0000 0.57871  0.10853  0.05593  Biso   1.000  H
  H1568    1.0000 0.57871  0.10853  0.05597  Biso   1.000  H
  C1406    1.0000 0.52506  0.04304  0.90024  Biso   1.000  C
  C1407    1.0000 0.52506  0.04304  0.90021  Biso   1.000  C
  C1408    1.0000 0.55997  0.11196  0.96902  Biso   1.000  C
  C1409    1.0000 0.53870  0.09806  0.91665  Biso   1.000  C
  H1569    1.0000 0.55651  0.03945  0.90305  Biso   1.000  H
  H1570    1.0000 0.51417  0.03796  0.86503  Biso   1.000  H
  C1410    1.0000 0.53870  0.09806  0.91661  Biso   1.000  C
  H1571    1.0000 0.55651  0.03945  0.90302  Biso   1.000  H
  C1411    1.0000 0.53868  0.09802  0.91665  Biso   1.000  C
  C1412    1.0000 0.53868  0.09802  0.91661  Biso   1.000  C
  H1572    1.0000 0.59020  0.10656  0.97243  Biso   1.000  H
  H1573    1.0000 0.57236  0.14935  0.97513  Biso   1.000  H
  H1574    1.0000 0.59018  0.10652  0.97243  Biso   1.000  H
  H1575    1.0000 0.57239  0.14935  0.97513  Biso   1.000  H
  H1576    1.0000 0.50696  0.10105  0.91433  Biso   1.000  H
  H1577    1.0000 0.56475  0.12365  0.89343  Biso   1.000  H
  H1578    1.0000 0.56479  0.12365  0.89343  Biso   1.000  H
  C1413    1.0000 0.46135  0.90197  0.08339  Biso   1.000  C
  C1414    1.0000 0.47492  0.95700  0.09976  Biso   1.000  C
  C1415    1.0000 0.47492  0.95700  0.09979  Biso   1.000  C
  C1416    1.0000 0.47493  0.95696  0.09976  Biso   1.000  C
  C1417    1.0000 0.47493  0.95696  0.09979  Biso   1.000  C
  H1579    1.0000 0.43523  0.87639  0.10657  Biso   1.000  H
  C1418    1.0000 0.44002  0.88808  0.03098  Biso   1.000  C
  H1580    1.0000 0.49302  0.89898  0.08567  Biso   1.000  H
  C1419    1.0000 0.44005  0.88808  0.03098  Biso   1.000  C
  H1581    1.0000 0.49305  0.89898  0.08567  Biso   1.000  H
  N867     1.0000 0.51787  0.99805  0.06874  Biso   1.000  N
  C1420    1.0000 0.46131  0.90197  0.08335  Biso   1.000  C
  H1582    1.0000 0.44351  0.96058  0.09695  Biso   1.000  H
  H1583    1.0000 0.48581  0.96207  0.13497  Biso   1.000  H
  C1421    1.0000 0.46131  0.90197  0.08339  Biso   1.000  C
  C1422    1.0000 0.46135  0.90197  0.08335  Biso   1.000  C
  H1584    1.0000 0.44354  0.96058  0.09695  Biso   1.000  H
  H1585    1.0000 0.48584  0.96207  0.13497  Biso   1.000  H
  H1586    1.0000 0.42763  0.85068  0.02487  Biso   1.000  H
  N868     1.0000 0.48032  0.92027  0.99307  Biso   1.000  N
  N869     1.0000 0.48032  0.92027  0.99303  Biso   1.000  N
  N870     1.0000 0.48035  0.92027  0.99307  Biso   1.000  N
  N871     1.0000 0.48035  0.92027  0.99303  Biso   1.000  N
  H1587    1.0000 0.40982  0.89347  0.02757  Biso   1.000  H
  H1588    1.0000 0.40982  0.89347  0.02753  Biso   1.000  H
  C1423    1.0000 0.53234  0.05063  0.08665  Biso   1.000  C
  C1424    1.0000 0.53234  0.05063  0.08661  Biso   1.000  C
  C1425    1.0000 0.53237  0.05063  0.08665  Biso   1.000  C
  C1426    1.0000 0.53237  0.05063  0.08661  Biso   1.000  C
  C1427    1.0000 0.45962  0.91358  0.94137  Biso   1.000  C
  C1428    1.0000 0.45962  0.91358  0.94134  Biso   1.000  C
  C1429    1.0000 0.45965  0.91358  0.94137  Biso   1.000  C
  C1430    1.0000 0.45965  0.91358  0.94134  Biso   1.000  C
  C1431    1.0000 0.54036  0.08645  0.05863  Biso   1.000  C
  H1589    1.0000 0.50449  0.04634  0.10972  Biso   1.000  H
  H1590    1.0000 0.56440  0.06295  0.10672  Biso   1.000  H
  H1591    1.0000 0.50449  0.04634  0.10976  Biso   1.000  H
  H1592    1.0000 0.47194  0.89249  0.92366  Biso   1.000  H
  H1593    1.0000 0.42134  0.89150  0.94407  Biso   1.000  H
  C1432    1.0000 0.46764  0.94940  0.91335  Biso   1.000  C
  H1594    1.0000 0.42134  0.89150  0.94403  Biso   1.000  H
  H1595    1.0000 0.42132  0.89146  0.94407  Biso   1.000  H
  C1433    1.0000 0.46762  0.94936  0.91335  Biso   1.000  C
  H1596    1.0000 0.42132  0.89146  0.94403  Biso   1.000  H
  H1597    1.0000 0.52811  0.10755  0.07634  Biso   1.000  H
  H1598    1.0000 0.57867  0.10853  0.05593  Biso   1.000  H
  N872     1.0000 0.51967  0.07976  0.00693  Biso   1.000  N
  H1599    1.0000 0.52811  0.10755  0.07631  Biso   1.000  H
  H1600    1.0000 0.57867  0.10853  0.05597  Biso   1.000  H
  H1601    1.0000 0.57871  0.10853  0.05593  Biso   1.000  H
  H1602    1.0000 0.57871  0.10853  0.05597  Biso   1.000  H
  H1603    1.0000 0.49552  0.95369  0.89028  Biso   1.000  H
  H1604    1.0000 0.43561  0.93708  0.89328  Biso   1.000  H
  H1605    1.0000 0.49552  0.95369  0.89024  Biso   1.000  H
  H1606    1.0000 0.43561  0.93708  0.89324  Biso   1.000  H
  H1607    1.0000 0.49556  0.95369  0.89028  Biso   1.000  H
  H1608    1.0000 0.43565  0.93708  0.89328  Biso   1.000  H
  H1609    1.0000 0.49556  0.95369  0.89024  Biso   1.000  H
  H1610    1.0000 0.43565  0.93708  0.89324  Biso   1.000  H
  N873     1.0000 0.48218  0.00198  0.93126  Biso   1.000  N
  C1434    1.0000 0.55997  0.11196  0.96902  Biso   1.000  C
  C1435    1.0000 0.52506  0.04304  0.90024  Biso   1.000  C
  C1436    1.0000 0.52506  0.04304  0.90021  Biso   1.000  C
  H1611    1.0000 0.59020  0.10656  0.97243  Biso   1.000  H
  H1612    1.0000 0.57236  0.14935  0.97513  Biso   1.000  H
  C1437    1.0000 0.53870  0.09806  0.91665  Biso   1.000  C
  C1438    1.0000 0.53870  0.09806  0.91661  Biso   1.000  C
  H1613    1.0000 0.59018  0.10652  0.97243  Biso   1.000  H
  H1614    1.0000 0.57239  0.14935  0.97513  Biso   1.000  H
  C1439    1.0000 0.53868  0.09802  0.91665  Biso   1.000  C
  C1440    1.0000 0.53868  0.09802  0.91661  Biso   1.000  C
  H1615    1.0000 0.55651  0.03945  0.90305  Biso   1.000  H
  H1616    1.0000 0.51417  0.03796  0.86503  Biso   1.000  H
  H1617    1.0000 0.55651  0.03945  0.90302  Biso   1.000  H
  H1618    1.0000 0.50696  0.10105  0.91433  Biso   1.000  H
  H1619    1.0000 0.56475  0.12365  0.89343  Biso   1.000  H
  H1620    1.0000 0.56479  0.12365  0.89343  Biso   1.000  H
  C1441    1.0000 0.46135  0.90197  0.08339  Biso   1.000  C
  C1442    1.0000 0.47492  0.95700  0.09976  Biso   1.000  C
  C1443    1.0000 0.47492  0.95700  0.09979  Biso   1.000  C
  C1444    1.0000 0.47493  0.95696  0.09976  Biso   1.000  C
  C1445    1.0000 0.47493  0.95696  0.09979  Biso   1.000  C
  H1621    1.0000 0.43523  0.87639  0.10657  Biso   1.000  H
  C1446    1.0000 0.44002  0.88808  0.03098  Biso   1.000  C
  H1622    1.0000 0.49302  0.89898  0.08567  Biso   1.000  H
  C1447    1.0000 0.44005  0.88808  0.03098  Biso   1.000  C
  H1623    1.0000 0.49305  0.89898  0.08567  Biso   1.000  H
  N874     1.0000 0.51787  0.99805  0.06874  Biso   1.000  N
  C1448    1.0000 0.46131  0.90197  0.08335  Biso   1.000  C
  H1624    1.0000 0.44351  0.96058  0.09695  Biso   1.000  H
  H1625    1.0000 0.48581  0.96207  0.13497  Biso   1.000  H
  C1449    1.0000 0.46131  0.90197  0.08339  Biso   1.000  C
  C1450    1.0000 0.46135  0.90197  0.08335  Biso   1.000  C
  H1626    1.0000 0.44354  0.96058  0.09695  Biso   1.000  H
  H1627    1.0000 0.48584  0.96207  0.13497  Biso   1.000  H
  H1628    1.0000 0.42763  0.85068  0.02487  Biso   1.000  H
  N875     1.0000 0.48032  0.92027  0.99307  Biso   1.000  N
  N876     1.0000 0.48032  0.92027  0.99303  Biso   1.000  N
  N877     1.0000 0.48035  0.92027  0.99307  Biso   1.000  N
  N878     1.0000 0.48035  0.92027  0.99303  Biso   1.000  N
  H1629    1.0000 0.40982  0.89347  0.02757  Biso   1.000  H
  H1630    1.0000 0.40982  0.89347  0.02753  Biso   1.000  H
  C1451    1.0000 0.53234  0.05063  0.08665  Biso   1.000  C
  C1452    1.0000 0.53234  0.05063  0.08661  Biso   1.000  C
  C1453    1.0000 0.53237  0.05063  0.08665  Biso   1.000  C
  C1454    1.0000 0.53237  0.05063  0.08661  Biso   1.000  C
  C1455    1.0000 0.45962  0.91358  0.94137  Biso   1.000  C
  C1456    1.0000 0.45962  0.91358  0.94134  Biso   1.000  C
  C1457    1.0000 0.45965  0.91358  0.94137  Biso   1.000  C
  C1458    1.0000 0.45965  0.91358  0.94134  Biso   1.000  C
  C1459    1.0000 0.54036  0.08645  0.05863  Biso   1.000  C
  H1631    1.0000 0.50449  0.04634  0.10972  Biso   1.000  H
  H1632    1.0000 0.56440  0.06295  0.10672  Biso   1.000  H
  H1633    1.0000 0.50449  0.04634  0.10976  Biso   1.000  H
  H1634    1.0000 0.47194  0.89249  0.92366  Biso   1.000  H
  H1635    1.0000 0.42134  0.89150  0.94407  Biso   1.000  H
  C1460    1.0000 0.46764  0.94940  0.91335  Biso   1.000  C
  H1636    1.0000 0.42134  0.89150  0.94403  Biso   1.000  H
  H1637    1.0000 0.42132  0.89146  0.94407  Biso   1.000  H
  C1461    1.0000 0.46762  0.94936  0.91335  Biso   1.000  C
  H1638    1.0000 0.42132  0.89146  0.94403  Biso   1.000  H
  H1639    1.0000 0.52811  0.10755  0.07634  Biso   1.000  H
  H1640    1.0000 0.57867  0.10853  0.05593  Biso   1.000  H
  N879     1.0000 0.51967  0.07976  0.00693  Biso   1.000  N
  H1641    1.0000 0.52811  0.10755  0.07631  Biso   1.000  H
  H1642    1.0000 0.57867  0.10853  0.05597  Biso   1.000  H
  H1643    1.0000 0.57871  0.10853  0.05593  Biso   1.000  H
  H1644    1.0000 0.57871  0.10853  0.05597  Biso   1.000  H
  H1645    1.0000 0.49552  0.95369  0.89028  Biso   1.000  H
  H1646    1.0000 0.43561  0.93708  0.89328  Biso   1.000  H
  H1647    1.0000 0.49552  0.95369  0.89024  Biso   1.000  H
  H1648    1.0000 0.43561  0.93708  0.89324  Biso   1.000  H
  H1649    1.0000 0.49556  0.95369  0.89028  Biso   1.000  H
  H1650    1.0000 0.43565  0.93708  0.89328  Biso   1.000  H
  H1651    1.0000 0.49556  0.95369  0.89024  Biso   1.000  H
  H1652    1.0000 0.43565  0.93708  0.89324  Biso   1.000  H
  N880     1.0000 0.48218  0.00198  0.93126  Biso   1.000  N
  C1462    1.0000 0.55997  0.11196  0.96902  Biso   1.000  C
  C1463    1.0000 0.52506  0.04304  0.90024  Biso   1.000  C
  C1464    1.0000 0.52506  0.04304  0.90021  Biso   1.000  C
  H1653    1.0000 0.59020  0.10656  0.97243  Biso   1.000  H
  H1654    1.0000 0.57236  0.14935  0.97513  Biso   1.000  H
  C1465    1.0000 0.53870  0.09806  0.91665  Biso   1.000  C
  C1466    1.0000 0.53870  0.09806  0.91661  Biso   1.000  C
  H1655    1.0000 0.59018  0.10652  0.97243  Biso   1.000  H
  H1656    1.0000 0.57239  0.14935  0.97513  Biso   1.000  H
  C1467    1.0000 0.53868  0.09802  0.91665  Biso   1.000  C
  C1468    1.0000 0.53868  0.09802  0.91661  Biso   1.000  C
  H1657    1.0000 0.55651  0.03945  0.90305  Biso   1.000  H
  H1658    1.0000 0.51417  0.03796  0.86503  Biso   1.000  H
  H1659    1.0000 0.55651  0.03945  0.90302  Biso   1.000  H
  H1660    1.0000 0.50696  0.10105  0.91433  Biso   1.000  H
  H1661    1.0000 0.56475  0.12365  0.89343  Biso   1.000  H
  H1662    1.0000 0.56479  0.12365  0.89343  Biso   1.000  H
