data_image0
_cell_length_a       12.205
_cell_length_b       16.042
_cell_length_c       18.428
_cell_angle_alpha    90
_cell_angle_beta     129.46
_cell_angle_gamma    90

_symmetry_space_group_name_H-M    "P 1"
_symmetry_int_tables_number       1

loop_
  _symmetry_equiv_pos_as_xyz
  'x, y, z'

loop_
  _atom_site_label
  _atom_site_occupancy
  _atom_site_fract_x
  _atom_site_fract_y
  _atom_site_fract_z
  _atom_site_thermal_displace_type
  _atom_site_B_iso_or_equiv
  _atom_site_type_symbol
  C1       1.0000 0.20477  0.75683  0.13825  Biso   1.000  C
  N1       1.0000 0.06949  0.72460  0.08301  Biso   1.000  N
  N2       1.0000 0.23514  0.78500  0.21943  Biso   1.000  N
  N3       1.0000 0.23508  0.78500  0.21936  Biso   1.000  N
  O1       1.0000 0.28487  0.75951  0.11970  Biso   1.000  O
  O2       1.0000 0.28495  0.75951  0.11970  Biso   1.000  O
  C2       1.0000 0.01352  0.71849  0.13277  Biso   1.000  C
  C3       1.0000 0.01343  0.71849  0.13277  Biso   1.000  C
  C4       1.0000 0.20483  0.75683  0.13832  Biso   1.000  C
  C5       1.0000 0.00741  0.68221  0.99543  Biso   1.000  C
  C6       1.0000 0.00735  0.68221  0.99536  Biso   1.000  C
  C7       1.0000 0.12433  0.76518  0.22519  Biso   1.000  C
  C8       1.0000 0.37415  0.81567  0.29752  Biso   1.000  C
  C9       1.0000 0.37408  0.81567  0.29745  Biso   1.000  C
  H1       1.0000 0.00200  0.65989  0.14373  Biso   1.000  H
  H2       1.0000 0.00201  0.65989  0.14366  Biso   1.000  H
  N4       1.0000 0.88585  0.76742  0.09151  Biso   1.000  N
  H3       1.0000 0.96850  0.62872  0.99543  Biso   1.000  H
  N5       1.0000 0.89784  0.72809  0.91411  Biso   1.000  N
  H4       1.0000 0.96851  0.62872  0.99536  Biso   1.000  H
  H5       1.0000 0.08228  0.67018  0.99157  Biso   1.000  H
  H6       1.0000 0.16113  0.72958  0.28037  Biso   1.000  H
  N6       1.0000 0.04821  0.83649  0.22161  Biso   1.000  N
  H7       1.0000 0.16121  0.72958  0.28037  Biso   1.000  H
  H8       1.0000 0.44200  0.79859  0.28873  Biso   1.000  H
  H9       1.0000 0.40301  0.78943  0.35543  Biso   1.000  H
  N7       1.0000 0.38217  0.90550  0.30947  Biso   1.000  N
  H10      1.0000 0.44201  0.79859  0.28866  Biso   1.000  H
  H11      1.0000 0.40302  0.78943  0.35536  Biso   1.000  H
  C10      1.0000 0.74705  0.74143  0.00963  Biso   1.000  C
  C11      1.0000 0.90946  0.83462  0.14507  Biso   1.000  C
  C12      1.0000 0.74698  0.74143  0.00956  Biso   1.000  C
  C13      1.0000 0.74973  0.72173  0.87342  Biso   1.000  C
  C14      1.0000 0.91182  0.76368  0.85303  Biso   1.000  C
  C15      1.0000 0.74966  0.72173  0.87335  Biso   1.000  C
  C16      1.0000 0.91175  0.76368  0.85296  Biso   1.000  C
  C17      1.0000 0.10456  0.89172  0.30040  Biso   1.000  C
  C18      1.0000 0.10465  0.89172  0.30040  Biso   1.000  C
  C19      1.0000 0.34105  0.95200  0.35593  Biso   1.000  C
  C20      1.0000 0.34098  0.95200  0.35586  Biso   1.000  C
  C21      1.0000 0.43008  0.95549  0.27461  Biso   1.000  C
  C22      1.0000 0.43016  0.95549  0.27461  Biso   1.000  C
  N8       1.0000 0.71120  0.76867  0.92240  Biso   1.000  N
  H12      1.0000 0.67628  0.76331  0.01392  Biso   1.000  H
  H13      1.0000 0.74204  0.68040  0.00928  Biso   1.000  H
  H14      1.0000 0.67629  0.76331  0.01385  Biso   1.000  H
  H15      1.0000 0.74213  0.68040  0.00928  Biso   1.000  H
  O3       1.0000 0.81815  0.88381  0.12778  Biso   1.000  O
  O4       1.0000 0.81823  0.88381  0.12778  Biso   1.000  O
  C23      1.0000 0.66987  0.76861  0.77909  Biso   1.000  C
  H16      1.0000 0.71870  0.66288  0.86379  Biso   1.000  H
  C24      1.0000 0.66995  0.76861  0.77909  Biso   1.000  C
  N9       1.0000 0.78132  0.79211  0.77663  Biso   1.000  N
  N10      1.0000 0.78125  0.79211  0.77656  Biso   1.000  N
  O5       1.0000 0.02204  0.76923  0.86407  Biso   1.000  O
  O6       1.0000 0.02212  0.76923  0.86407  Biso   1.000  O
  H17      1.0000 0.16322  0.85937  0.35888  Biso   1.000  H
  H18      1.0000 0.02605  0.91610  0.29492  Biso   1.000  H
  N11      1.0000 0.18999  0.95830  0.30490  Biso   1.000  N
  H19      1.0000 0.02599  0.91610  0.29485  Biso   1.000  H
  H20      1.0000 0.39141  0.93193  0.42087  Biso   1.000  H
  C25      1.0000 0.38491  0.04170  0.35501  Biso   1.000  C
  O7       1.0000 0.47468  0.93131  0.23511  Biso   1.000  O
  O8       1.0000 0.47476  0.93131  0.23511  Biso   1.000  O
  N12      1.0000 0.41932  0.03659  0.29183  Biso   1.000  N
  N13      1.0000 0.41925  0.03659  0.29176  Biso   1.000  N
  C26      1.0000 0.62725  0.83568  0.87257  Biso   1.000  C
  C27      1.0000 0.62733  0.83568  0.87257  Biso   1.000  C
  N14      1.0000 0.60494  0.83867  0.79041  Biso   1.000  N
  H21      1.0000 0.59792  0.73289  0.72511  Biso   1.000  H
  H22      1.0000 0.59785  0.73289  0.72504  Biso   1.000  H
  C28      1.0000 0.75595  0.82172  0.69299  Biso   1.000  C
  C29      1.0000 0.75604  0.82172  0.69299  Biso   1.000  C
  C30      1.0000 0.14800  0.03921  0.29161  Biso   1.000  C
  C31      1.0000 0.14793  0.03921  0.29154  Biso   1.000  C
  N15      1.0000 0.25961  0.08920  0.31973  Biso   1.000  N
  N16      1.0000 0.25955  0.08920  0.31966  Biso   1.000  N
  H23      1.0000 0.46773  0.06022  0.41869  Biso   1.000  H
  C32      1.0000 0.49094  0.10323  0.28381  Biso   1.000  C
  C33      1.0000 0.49087  0.10323  0.28374  Biso   1.000  C
  O9       1.0000 0.57677  0.88331  0.89647  Biso   1.000  O
  C34      1.0000 0.50906  0.89677  0.71619  Biso   1.000  C
  C35      1.0000 0.50914  0.89677  0.71619  Biso   1.000  C
  H24      1.0000 0.66970  0.79510  0.63803  Biso   1.000  H
  H25      1.0000 0.83510  0.80401  0.69538  Biso   1.000  H
  N17      1.0000 0.74039  0.91080  0.68027  Biso   1.000  N
  H26      1.0000 0.66972  0.79510  0.63796  Biso   1.000  H
  O10      1.0000 0.02936  0.06421  0.26020  Biso   1.000  O
  O11      1.0000 0.02944  0.06421  0.26020  Biso   1.000  O
  C36      1.0000 0.24405  0.17828  0.30701  Biso   1.000  C
  H27      1.0000 0.55129  0.13340  0.34363  Biso   1.000  H
  H28      1.0000 0.55251  0.07892  0.27250  Biso   1.000  H
  N18      1.0000 0.39506  0.16133  0.20959  Biso   1.000  N
  H29      1.0000 0.55130  0.13340  0.34356  Biso   1.000  H
  N19      1.0000 0.39514  0.16133  0.20959  Biso   1.000  N
  H30      1.0000 0.44871  0.86660  0.65637  Biso   1.000  H
  H31      1.0000 0.44749  0.92108  0.72750  Biso   1.000  H
  N20      1.0000 0.58068  0.96341  0.70817  Biso   1.000  N
  C37      1.0000 0.85200  0.96079  0.70839  Biso   1.000  C
  C38      1.0000 0.61509  0.95830  0.64499  Biso   1.000  C
  H32      1.0000 0.33030  0.20490  0.36197  Biso   1.000  H
  H33      1.0000 0.16490  0.19599  0.30462  Biso   1.000  H
  N21      1.0000 0.21868  0.20789  0.22337  Biso   1.000  N
  H34      1.0000 0.16483  0.19599  0.30455  Biso   1.000  H
  C39      1.0000 0.33013  0.23139  0.22091  Biso   1.000  C
  C40      1.0000 0.37275  0.16432  0.12743  Biso   1.000  C
  C41      1.0000 0.37268  0.16432  0.12736  Biso   1.000  C
  C42      1.0000 0.56992  0.04451  0.72539  Biso   1.000  C
  O12      1.0000 0.97064  0.93579  0.73980  Biso   1.000  O
  N22      1.0000 0.81001  0.04170  0.69510  Biso   1.000  N
  H35      1.0000 0.53227  0.93978  0.58131  Biso   1.000  H
  H36      1.0000 0.53236  0.93978  0.58131  Biso   1.000  H
  C43      1.0000 0.65895  0.04800  0.64407  Biso   1.000  C
  C44      1.0000 0.65903  0.04800  0.64407  Biso   1.000  C
  C45      1.0000 0.08818  0.23632  0.14697  Biso   1.000  C
  H37      1.0000 0.40208  0.26711  0.27489  Biso   1.000  H
  C46      1.0000 0.25027  0.27827  0.12658  Biso   1.000  C
  N23      1.0000 0.28880  0.23133  0.07760  Biso   1.000  N
  O13      1.0000 0.42323  0.11669  0.10353  Biso   1.000  O
  O14      1.0000 0.42316  0.11669  0.10346  Biso   1.000  O
  N24      1.0000 0.61783  0.09450  0.69053  Biso   1.000  N
  O15      1.0000 0.52532  0.06869  0.76489  Biso   1.000  O
  N25      1.0000 0.61776  0.09450  0.69046  Biso   1.000  N
  C47      1.0000 0.89544  0.10828  0.69960  Biso   1.000  C
  H38      1.0000 0.60859  0.06807  0.57913  Biso   1.000  H
  H39      1.0000 0.60861  0.06807  0.57906  Biso   1.000  H
  O16      1.0000 0.97796  0.23077  0.13593  Biso   1.000  O
  O17      1.0000 0.97789  0.23077  0.13586  Biso   1.000  O
  N26      1.0000 0.10216  0.27191  0.08589  Biso   1.000  N
  N27      1.0000 0.10225  0.27191  0.08589  Biso   1.000  N
  H40      1.0000 0.28130  0.33712  0.13621  Biso   1.000  H
  H41      1.0000 0.28123  0.33712  0.13614  Biso   1.000  H
  C48      1.0000 0.25295  0.25857  0.99037  Biso   1.000  C
  C49      1.0000 0.25303  0.25857  0.99037  Biso   1.000  C
  C50      1.0000 0.62585  0.18433  0.70248  Biso   1.000  C
  C51      1.0000 0.62594  0.18433  0.70248  Biso   1.000  C
  H42      1.0000 0.83678  0.14063  0.64112  Biso   1.000  H
  H43      1.0000 0.97395  0.08390  0.70508  Biso   1.000  H
  N28      1.0000 0.95179  0.16351  0.77839  Biso   1.000  N
  H44      1.0000 0.83680  0.14063  0.64105  Biso   1.000  H
  H45      1.0000 0.97403  0.08390  0.70508  Biso   1.000  H
  C52      1.0000 0.99259  0.31779  0.00457  Biso   1.000  C
  H46      1.0000 0.32372  0.23669  0.98608  Biso   1.000  H
  H47      1.0000 0.25796  0.31960  0.99072  Biso   1.000  H
  N29      1.0000 0.11415  0.23258  0.90849  Biso   1.000  N
  H48      1.0000 0.25789  0.31960  0.99065  Biso   1.000  H
  N30      1.0000 0.11424  0.23258  0.90849  Biso   1.000  N
  H49      1.0000 0.55800  0.20141  0.71127  Biso   1.000  H
  H50      1.0000 0.59699  0.21057  0.64457  Biso   1.000  H
  N31      1.0000 0.76486  0.21500  0.78057  Biso   1.000  N
  C53      1.0000 0.87567  0.23482  0.77481  Biso   1.000  C
  C54      1.0000 0.87575  0.23482  0.77481  Biso   1.000  C
  C55      1.0000 0.09054  0.16538  0.85493  Biso   1.000  C
  C56      1.0000 0.09047  0.16538  0.85486  Biso   1.000  C
  N32      1.0000 0.93051  0.27540  0.91699  Biso   1.000  N
  H51      1.0000 0.91772  0.32982  0.00843  Biso   1.000  H
  H52      1.0000 0.91765  0.32982  0.00836  Biso   1.000  H
  H53      1.0000 0.03150  0.37128  0.00457  Biso   1.000  H
  C57      1.0000 0.98657  0.28151  0.86723  Biso   1.000  C
  C58      1.0000 0.98650  0.28151  0.86716  Biso   1.000  C
  C59      1.0000 0.79517  0.24317  0.86168  Biso   1.000  C
  H54      1.0000 0.83887  0.27042  0.71963  Biso   1.000  H
  H55      1.0000 0.83880  0.27042  0.71956  Biso   1.000  H
  O18      1.0000 0.18185  0.11619  0.87222  Biso   1.000  O
  O19      1.0000 0.18178  0.11619  0.87215  Biso   1.000  O
  H56      1.0000 0.99800  0.34011  0.85627  Biso   1.000  H
  O20      1.0000 0.71513  0.24049  0.88030  Biso   1.000  O
  C60      1.0000 0.20477  0.75683  0.13825  Biso   1.000  C
  N33      1.0000 0.06949  0.72460  0.08301  Biso   1.000  N
  N34      1.0000 0.23514  0.78500  0.21943  Biso   1.000  N
  N35      1.0000 0.23508  0.78500  0.21936  Biso   1.000  N
  O21      1.0000 0.28487  0.75951  0.11970  Biso   1.000  O
  O22      1.0000 0.28495  0.75951  0.11970  Biso   1.000  O
  C61      1.0000 0.01352  0.71849  0.13277  Biso   1.000  C
  C62      1.0000 0.01343  0.71849  0.13277  Biso   1.000  C
  C63      1.0000 0.20483  0.75683  0.13832  Biso   1.000  C
  C64      1.0000 0.00741  0.68221  0.99543  Biso   1.000  C
  C65      1.0000 0.00735  0.68221  0.99536  Biso   1.000  C
  C66      1.0000 0.12433  0.76518  0.22519  Biso   1.000  C
  C67      1.0000 0.37415  0.81567  0.29752  Biso   1.000  C
  C68      1.0000 0.37408  0.81567  0.29745  Biso   1.000  C
  H57      1.0000 0.00200  0.65989  0.14373  Biso   1.000  H
  H58      1.0000 0.00201  0.65989  0.14366  Biso   1.000  H
  N36      1.0000 0.88585  0.76742  0.09151  Biso   1.000  N
  H59      1.0000 0.96850  0.62872  0.99543  Biso   1.000  H
  N37      1.0000 0.89784  0.72809  0.91411  Biso   1.000  N
  H60      1.0000 0.96851  0.62872  0.99536  Biso   1.000  H
  H61      1.0000 0.08228  0.67018  0.99157  Biso   1.000  H
  N38      1.0000 0.04821  0.83649  0.22161  Biso   1.000  N
  H62      1.0000 0.16113  0.72958  0.28037  Biso   1.000  H
  H63      1.0000 0.16121  0.72958  0.28037  Biso   1.000  H
  N39      1.0000 0.38217  0.90550  0.30947  Biso   1.000  N
  H64      1.0000 0.44200  0.79859  0.28873  Biso   1.000  H
  H65      1.0000 0.40301  0.78943  0.35543  Biso   1.000  H
  H66      1.0000 0.44201  0.79859  0.28866  Biso   1.000  H
  H67      1.0000 0.40302  0.78943  0.35536  Biso   1.000  H
  C69      1.0000 0.74705  0.74143  0.00963  Biso   1.000  C
  C70      1.0000 0.90946  0.83462  0.14507  Biso   1.000  C
  C71      1.0000 0.74698  0.74143  0.00956  Biso   1.000  C
  C72      1.0000 0.74973  0.72173  0.87342  Biso   1.000  C
  C73      1.0000 0.91182  0.76368  0.85303  Biso   1.000  C
  C74      1.0000 0.74966  0.72173  0.87335  Biso   1.000  C
  C75      1.0000 0.91175  0.76368  0.85296  Biso   1.000  C
  C76      1.0000 0.10456  0.89172  0.30040  Biso   1.000  C
  C77      1.0000 0.10465  0.89172  0.30040  Biso   1.000  C
  C78      1.0000 0.34105  0.95200  0.35593  Biso   1.000  C
  C79      1.0000 0.34098  0.95200  0.35586  Biso   1.000  C
  C80      1.0000 0.43008  0.95549  0.27461  Biso   1.000  C
  C81      1.0000 0.43016  0.95549  0.27461  Biso   1.000  C
  N40      1.0000 0.71120  0.76867  0.92240  Biso   1.000  N
  H68      1.0000 0.67628  0.76331  0.01392  Biso   1.000  H
  H69      1.0000 0.74204  0.68040  0.00928  Biso   1.000  H
  H70      1.0000 0.67629  0.76331  0.01385  Biso   1.000  H
  H71      1.0000 0.74213  0.68040  0.00928  Biso   1.000  H
  O23      1.0000 0.81815  0.88381  0.12778  Biso   1.000  O
  O24      1.0000 0.81823  0.88381  0.12778  Biso   1.000  O
  C82      1.0000 0.66987  0.76861  0.77909  Biso   1.000  C
  H72      1.0000 0.71870  0.66288  0.86379  Biso   1.000  H
  C83      1.0000 0.66995  0.76861  0.77909  Biso   1.000  C
  N41      1.0000 0.78132  0.79211  0.77663  Biso   1.000  N
  N42      1.0000 0.78125  0.79211  0.77656  Biso   1.000  N
  O25      1.0000 0.02204  0.76923  0.86407  Biso   1.000  O
  O26      1.0000 0.02212  0.76923  0.86407  Biso   1.000  O
  H73      1.0000 0.16322  0.85937  0.35888  Biso   1.000  H
  N43      1.0000 0.18999  0.95830  0.30490  Biso   1.000  N
  H74      1.0000 0.02605  0.91610  0.29492  Biso   1.000  H
  H75      1.0000 0.02599  0.91610  0.29485  Biso   1.000  H
  H76      1.0000 0.39141  0.93193  0.42087  Biso   1.000  H
  C84      1.0000 0.38491  0.04170  0.35501  Biso   1.000  C
  O27      1.0000 0.47468  0.93131  0.23511  Biso   1.000  O
  O28      1.0000 0.47476  0.93131  0.23511  Biso   1.000  O
  N44      1.0000 0.41932  0.03659  0.29183  Biso   1.000  N
  N45      1.0000 0.41925  0.03659  0.29176  Biso   1.000  N
  C85      1.0000 0.62725  0.83568  0.87257  Biso   1.000  C
  C86      1.0000 0.62733  0.83568  0.87257  Biso   1.000  C
  N46      1.0000 0.60494  0.83867  0.79041  Biso   1.000  N
  H77      1.0000 0.59792  0.73289  0.72511  Biso   1.000  H
  H78      1.0000 0.59785  0.73289  0.72504  Biso   1.000  H
  C87      1.0000 0.75595  0.82172  0.69299  Biso   1.000  C
  C88      1.0000 0.75604  0.82172  0.69299  Biso   1.000  C
  C89      1.0000 0.14800  0.03921  0.29161  Biso   1.000  C
  C90      1.0000 0.14793  0.03921  0.29154  Biso   1.000  C
  N47      1.0000 0.25961  0.08920  0.31973  Biso   1.000  N
  N48      1.0000 0.25955  0.08920  0.31966  Biso   1.000  N
  H79      1.0000 0.46773  0.06022  0.41869  Biso   1.000  H
  C91      1.0000 0.49094  0.10323  0.28381  Biso   1.000  C
  C92      1.0000 0.49087  0.10323  0.28374  Biso   1.000  C
  O29      1.0000 0.57677  0.88331  0.89647  Biso   1.000  O
  C93      1.0000 0.50906  0.89677  0.71619  Biso   1.000  C
  C94      1.0000 0.50914  0.89677  0.71619  Biso   1.000  C
  H80      1.0000 0.66970  0.79510  0.63803  Biso   1.000  H
  H81      1.0000 0.83510  0.80401  0.69538  Biso   1.000  H
  N49      1.0000 0.74039  0.91080  0.68027  Biso   1.000  N
  H82      1.0000 0.66972  0.79510  0.63796  Biso   1.000  H
  O30      1.0000 0.02936  0.06421  0.26020  Biso   1.000  O
  O31      1.0000 0.02944  0.06421  0.26020  Biso   1.000  O
  C95      1.0000 0.24405  0.17828  0.30701  Biso   1.000  C
  H83      1.0000 0.55129  0.13340  0.34363  Biso   1.000  H
  H84      1.0000 0.55251  0.07892  0.27250  Biso   1.000  H
  N50      1.0000 0.39506  0.16133  0.20959  Biso   1.000  N
  H85      1.0000 0.55130  0.13340  0.34356  Biso   1.000  H
  N51      1.0000 0.39514  0.16133  0.20959  Biso   1.000  N
  H86      1.0000 0.44871  0.86660  0.65637  Biso   1.000  H
  H87      1.0000 0.44749  0.92108  0.72750  Biso   1.000  H
  N52      1.0000 0.58068  0.96341  0.70817  Biso   1.000  N
  C96      1.0000 0.85200  0.96079  0.70839  Biso   1.000  C
  C97      1.0000 0.61509  0.95830  0.64499  Biso   1.000  C
  H88      1.0000 0.33030  0.20490  0.36197  Biso   1.000  H
  H89      1.0000 0.16490  0.19599  0.30462  Biso   1.000  H
  N53      1.0000 0.21868  0.20789  0.22337  Biso   1.000  N
  H90      1.0000 0.16483  0.19599  0.30455  Biso   1.000  H
  C98      1.0000 0.33013  0.23139  0.22091  Biso   1.000  C
  C99      1.0000 0.37275  0.16432  0.12743  Biso   1.000  C
  C100     1.0000 0.37268  0.16432  0.12736  Biso   1.000  C
  C101     1.0000 0.56992  0.04451  0.72539  Biso   1.000  C
  O32      1.0000 0.97064  0.93579  0.73980  Biso   1.000  O
  N54      1.0000 0.81001  0.04170  0.69510  Biso   1.000  N
  H91      1.0000 0.53227  0.93978  0.58131  Biso   1.000  H
  H92      1.0000 0.53236  0.93978  0.58131  Biso   1.000  H
  C102     1.0000 0.65895  0.04800  0.64407  Biso   1.000  C
  C103     1.0000 0.65903  0.04800  0.64407  Biso   1.000  C
  C104     1.0000 0.08818  0.23632  0.14697  Biso   1.000  C
  H93      1.0000 0.40208  0.26711  0.27489  Biso   1.000  H
  C105     1.0000 0.25027  0.27827  0.12658  Biso   1.000  C
  N55      1.0000 0.28880  0.23133  0.07760  Biso   1.000  N
  O33      1.0000 0.42323  0.11669  0.10353  Biso   1.000  O
  O34      1.0000 0.42316  0.11669  0.10346  Biso   1.000  O
  N56      1.0000 0.61783  0.09450  0.69053  Biso   1.000  N
  O35      1.0000 0.52532  0.06869  0.76489  Biso   1.000  O
  N57      1.0000 0.61776  0.09450  0.69046  Biso   1.000  N
  C106     1.0000 0.89544  0.10828  0.69960  Biso   1.000  C
  H94      1.0000 0.60859  0.06807  0.57913  Biso   1.000  H
  H95      1.0000 0.60861  0.06807  0.57906  Biso   1.000  H
  O36      1.0000 0.97796  0.23077  0.13593  Biso   1.000  O
  O37      1.0000 0.97789  0.23077  0.13586  Biso   1.000  O
  N58      1.0000 0.10216  0.27191  0.08589  Biso   1.000  N
  N59      1.0000 0.10225  0.27191  0.08589  Biso   1.000  N
  H96      1.0000 0.28130  0.33712  0.13621  Biso   1.000  H
  H97      1.0000 0.28123  0.33712  0.13614  Biso   1.000  H
  C107     1.0000 0.25295  0.25857  0.99037  Biso   1.000  C
  C108     1.0000 0.25303  0.25857  0.99037  Biso   1.000  C
  C109     1.0000 0.62585  0.18433  0.70248  Biso   1.000  C
  C110     1.0000 0.62594  0.18433  0.70248  Biso   1.000  C
  H98      1.0000 0.83678  0.14063  0.64112  Biso   1.000  H
  H99      1.0000 0.97395  0.08390  0.70508  Biso   1.000  H
  N60      1.0000 0.95179  0.16351  0.77839  Biso   1.000  N
  H100     1.0000 0.83680  0.14063  0.64105  Biso   1.000  H
  H101     1.0000 0.97403  0.08390  0.70508  Biso   1.000  H
  C111     1.0000 0.99259  0.31779  0.00457  Biso   1.000  C
  H102     1.0000 0.32372  0.23669  0.98608  Biso   1.000  H
  H103     1.0000 0.25796  0.31960  0.99072  Biso   1.000  H
  N61      1.0000 0.11415  0.23258  0.90849  Biso   1.000  N
  H104     1.0000 0.25789  0.31960  0.99065  Biso   1.000  H
  N62      1.0000 0.11424  0.23258  0.90849  Biso   1.000  N
  H105     1.0000 0.55800  0.20141  0.71127  Biso   1.000  H
  H106     1.0000 0.59699  0.21057  0.64457  Biso   1.000  H
  N63      1.0000 0.76486  0.21500  0.78057  Biso   1.000  N
  C112     1.0000 0.87567  0.23482  0.77481  Biso   1.000  C
  C113     1.0000 0.87575  0.23482  0.77481  Biso   1.000  C
  C114     1.0000 0.09054  0.16538  0.85493  Biso   1.000  C
  C115     1.0000 0.09047  0.16538  0.85486  Biso   1.000  C
  N64      1.0000 0.93051  0.27540  0.91699  Biso   1.000  N
  H107     1.0000 0.91772  0.32982  0.00843  Biso   1.000  H
  H108     1.0000 0.91765  0.32982  0.00836  Biso   1.000  H
  H109     1.0000 0.03150  0.37128  0.00457  Biso   1.000  H
  C116     1.0000 0.98657  0.28151  0.86723  Biso   1.000  C
  C117     1.0000 0.98650  0.28151  0.86716  Biso   1.000  C
  C118     1.0000 0.79517  0.24317  0.86168  Biso   1.000  C
  H110     1.0000 0.83887  0.27042  0.71963  Biso   1.000  H
  H111     1.0000 0.83880  0.27042  0.71956  Biso   1.000  H
  O38      1.0000 0.18185  0.11619  0.87222  Biso   1.000  O
  O39      1.0000 0.18178  0.11619  0.87215  Biso   1.000  O
  H112     1.0000 0.99800  0.34011  0.85627  Biso   1.000  H
  O40      1.0000 0.71513  0.24049  0.88030  Biso   1.000  O
  C119     1.0000 0.20477  0.75683  0.13825  Biso   1.000  C
  N65      1.0000 0.06949  0.72460  0.08301  Biso   1.000  N
  N66      1.0000 0.23514  0.78500  0.21943  Biso   1.000  N
  N67      1.0000 0.23508  0.78500  0.21936  Biso   1.000  N
  O41      1.0000 0.28487  0.75951  0.11970  Biso   1.000  O
  O42      1.0000 0.28495  0.75951  0.11970  Biso   1.000  O
  C120     1.0000 0.01352  0.71849  0.13277  Biso   1.000  C
  C121     1.0000 0.01343  0.71849  0.13277  Biso   1.000  C
  C122     1.0000 0.20483  0.75683  0.13832  Biso   1.000  C
  C123     1.0000 0.00741  0.68221  0.99543  Biso   1.000  C
  C124     1.0000 0.00735  0.68221  0.99536  Biso   1.000  C
  C125     1.0000 0.12433  0.76518  0.22519  Biso   1.000  C
  C126     1.0000 0.37415  0.81567  0.29752  Biso   1.000  C
  C127     1.0000 0.37408  0.81567  0.29745  Biso   1.000  C
  H113     1.0000 0.00200  0.65989  0.14373  Biso   1.000  H
  H114     1.0000 0.00201  0.65989  0.14366  Biso   1.000  H
  N68      1.0000 0.88585  0.76742  0.09151  Biso   1.000  N
  H115     1.0000 0.96850  0.62872  0.99543  Biso   1.000  H
  N69      1.0000 0.89784  0.72809  0.91411  Biso   1.000  N
  H116     1.0000 0.96851  0.62872  0.99536  Biso   1.000  H
  H117     1.0000 0.08228  0.67018  0.99157  Biso   1.000  H
  N70      1.0000 0.04821  0.83649  0.22161  Biso   1.000  N
  H118     1.0000 0.16113  0.72958  0.28037  Biso   1.000  H
  H119     1.0000 0.16121  0.72958  0.28037  Biso   1.000  H
  N71      1.0000 0.38217  0.90550  0.30947  Biso   1.000  N
  H120     1.0000 0.44200  0.79859  0.28873  Biso   1.000  H
  H121     1.0000 0.40301  0.78943  0.35543  Biso   1.000  H
  H122     1.0000 0.44201  0.79859  0.28866  Biso   1.000  H
  H123     1.0000 0.40302  0.78943  0.35536  Biso   1.000  H
  C128     1.0000 0.74705  0.74143  0.00963  Biso   1.000  C
  C129     1.0000 0.90946  0.83462  0.14507  Biso   1.000  C
  C130     1.0000 0.74698  0.74143  0.00956  Biso   1.000  C
  C131     1.0000 0.74973  0.72173  0.87342  Biso   1.000  C
  C132     1.0000 0.91182  0.76368  0.85303  Biso   1.000  C
  C133     1.0000 0.74966  0.72173  0.87335  Biso   1.000  C
  C134     1.0000 0.91175  0.76368  0.85296  Biso   1.000  C
  C135     1.0000 0.10456  0.89172  0.30040  Biso   1.000  C
  C136     1.0000 0.10465  0.89172  0.30040  Biso   1.000  C
  C137     1.0000 0.34105  0.95200  0.35593  Biso   1.000  C
  C138     1.0000 0.34098  0.95200  0.35586  Biso   1.000  C
  C139     1.0000 0.43008  0.95549  0.27461  Biso   1.000  C
  C140     1.0000 0.43016  0.95549  0.27461  Biso   1.000  C
  N72      1.0000 0.71120  0.76867  0.92240  Biso   1.000  N
  H124     1.0000 0.67628  0.76331  0.01392  Biso   1.000  H
  H125     1.0000 0.74204  0.68040  0.00928  Biso   1.000  H
  H126     1.0000 0.67629  0.76331  0.01385  Biso   1.000  H
  H127     1.0000 0.74213  0.68040  0.00928  Biso   1.000  H
  O43      1.0000 0.81815  0.88381  0.12778  Biso   1.000  O
  O44      1.0000 0.81823  0.88381  0.12778  Biso   1.000  O
  C141     1.0000 0.66987  0.76861  0.77909  Biso   1.000  C
  H128     1.0000 0.71870  0.66288  0.86379  Biso   1.000  H
  C142     1.0000 0.66995  0.76861  0.77909  Biso   1.000  C
  N73      1.0000 0.78132  0.79211  0.77663  Biso   1.000  N
  N74      1.0000 0.78125  0.79211  0.77656  Biso   1.000  N
  O45      1.0000 0.02204  0.76923  0.86407  Biso   1.000  O
  O46      1.0000 0.02212  0.76923  0.86407  Biso   1.000  O
  H129     1.0000 0.16322  0.85937  0.35888  Biso   1.000  H
  N75      1.0000 0.18999  0.95830  0.30490  Biso   1.000  N
  H130     1.0000 0.02605  0.91610  0.29492  Biso   1.000  H
  H131     1.0000 0.02599  0.91610  0.29485  Biso   1.000  H
  H132     1.0000 0.39141  0.93193  0.42087  Biso   1.000  H
  C143     1.0000 0.38491  0.04170  0.35501  Biso   1.000  C
  O47      1.0000 0.47468  0.93131  0.23511  Biso   1.000  O
  O48      1.0000 0.47476  0.93131  0.23511  Biso   1.000  O
  N76      1.0000 0.41932  0.03659  0.29183  Biso   1.000  N
  N77      1.0000 0.41925  0.03659  0.29176  Biso   1.000  N
  C144     1.0000 0.62725  0.83568  0.87257  Biso   1.000  C
  C145     1.0000 0.62733  0.83568  0.87257  Biso   1.000  C
  N78      1.0000 0.60494  0.83867  0.79041  Biso   1.000  N
  H133     1.0000 0.59792  0.73289  0.72511  Biso   1.000  H
  H134     1.0000 0.59785  0.73289  0.72504  Biso   1.000  H
  C146     1.0000 0.75595  0.82172  0.69299  Biso   1.000  C
  C147     1.0000 0.75604  0.82172  0.69299  Biso   1.000  C
  C148     1.0000 0.14800  0.03921  0.29161  Biso   1.000  C
  C149     1.0000 0.14793  0.03921  0.29154  Biso   1.000  C
  N79      1.0000 0.25961  0.08920  0.31973  Biso   1.000  N
  N80      1.0000 0.25955  0.08920  0.31966  Biso   1.000  N
  H135     1.0000 0.46773  0.06022  0.41869  Biso   1.000  H
  C150     1.0000 0.49094  0.10323  0.28381  Biso   1.000  C
  C151     1.0000 0.49087  0.10323  0.28374  Biso   1.000  C
  O49      1.0000 0.57677  0.88331  0.89647  Biso   1.000  O
  C152     1.0000 0.50906  0.89677  0.71619  Biso   1.000  C
  C153     1.0000 0.50914  0.89677  0.71619  Biso   1.000  C
  H136     1.0000 0.66970  0.79510  0.63803  Biso   1.000  H
  H137     1.0000 0.83510  0.80401  0.69538  Biso   1.000  H
  N81      1.0000 0.74039  0.91080  0.68027  Biso   1.000  N
  H138     1.0000 0.66972  0.79510  0.63796  Biso   1.000  H
  O50      1.0000 0.02936  0.06421  0.26020  Biso   1.000  O
  O51      1.0000 0.02944  0.06421  0.26020  Biso   1.000  O
  C154     1.0000 0.24405  0.17828  0.30701  Biso   1.000  C
  H139     1.0000 0.55129  0.13340  0.34363  Biso   1.000  H
  H140     1.0000 0.55251  0.07892  0.27250  Biso   1.000  H
  N82      1.0000 0.39506  0.16133  0.20959  Biso   1.000  N
  H141     1.0000 0.55130  0.13340  0.34356  Biso   1.000  H
  N83      1.0000 0.39514  0.16133  0.20959  Biso   1.000  N
  H142     1.0000 0.44871  0.86660  0.65637  Biso   1.000  H
  H143     1.0000 0.44749  0.92108  0.72750  Biso   1.000  H
  N84      1.0000 0.58068  0.96341  0.70817  Biso   1.000  N
  C155     1.0000 0.85200  0.96079  0.70839  Biso   1.000  C
  C156     1.0000 0.61509  0.95830  0.64499  Biso   1.000  C
  H144     1.0000 0.33030  0.20490  0.36197  Biso   1.000  H
  H145     1.0000 0.16490  0.19599  0.30462  Biso   1.000  H
  N85      1.0000 0.21868  0.20789  0.22337  Biso   1.000  N
  H146     1.0000 0.16483  0.19599  0.30455  Biso   1.000  H
  C157     1.0000 0.33013  0.23139  0.22091  Biso   1.000  C
  C158     1.0000 0.37275  0.16432  0.12743  Biso   1.000  C
  C159     1.0000 0.37268  0.16432  0.12736  Biso   1.000  C
  C160     1.0000 0.56992  0.04451  0.72539  Biso   1.000  C
  O52      1.0000 0.97064  0.93579  0.73980  Biso   1.000  O
  N86      1.0000 0.81001  0.04170  0.69510  Biso   1.000  N
  H147     1.0000 0.53227  0.93978  0.58131  Biso   1.000  H
  H148     1.0000 0.53236  0.93978  0.58131  Biso   1.000  H
  C161     1.0000 0.65895  0.04800  0.64407  Biso   1.000  C
  C162     1.0000 0.65903  0.04800  0.64407  Biso   1.000  C
  C163     1.0000 0.08818  0.23632  0.14697  Biso   1.000  C
  H149     1.0000 0.40208  0.26711  0.27489  Biso   1.000  H
  C164     1.0000 0.25027  0.27827  0.12658  Biso   1.000  C
  N87      1.0000 0.28880  0.23133  0.07760  Biso   1.000  N
  O53      1.0000 0.42323  0.11669  0.10353  Biso   1.000  O
  O54      1.0000 0.42316  0.11669  0.10346  Biso   1.000  O
  N88      1.0000 0.61783  0.09450  0.69053  Biso   1.000  N
  O55      1.0000 0.52532  0.06869  0.76489  Biso   1.000  O
  N89      1.0000 0.61776  0.09450  0.69046  Biso   1.000  N
  C165     1.0000 0.89544  0.10828  0.69960  Biso   1.000  C
  H150     1.0000 0.60859  0.06807  0.57913  Biso   1.000  H
  H151     1.0000 0.60861  0.06807  0.57906  Biso   1.000  H
  O56      1.0000 0.97796  0.23077  0.13593  Biso   1.000  O
  O57      1.0000 0.97789  0.23077  0.13586  Biso   1.000  O
  N90      1.0000 0.10216  0.27191  0.08589  Biso   1.000  N
  N91      1.0000 0.10225  0.27191  0.08589  Biso   1.000  N
  H152     1.0000 0.28130  0.33712  0.13621  Biso   1.000  H
  H153     1.0000 0.28123  0.33712  0.13614  Biso   1.000  H
  C166     1.0000 0.25295  0.25857  0.99037  Biso   1.000  C
  C167     1.0000 0.25303  0.25857  0.99037  Biso   1.000  C
  C168     1.0000 0.62585  0.18433  0.70248  Biso   1.000  C
  C169     1.0000 0.62594  0.18433  0.70248  Biso   1.000  C
  H154     1.0000 0.83678  0.14063  0.64112  Biso   1.000  H
  H155     1.0000 0.97395  0.08390  0.70508  Biso   1.000  H
  N92      1.0000 0.95179  0.16351  0.77839  Biso   1.000  N
  H156     1.0000 0.83680  0.14063  0.64105  Biso   1.000  H
  H157     1.0000 0.97403  0.08390  0.70508  Biso   1.000  H
  C170     1.0000 0.99259  0.31779  0.00457  Biso   1.000  C
  H158     1.0000 0.32372  0.23669  0.98608  Biso   1.000  H
  H159     1.0000 0.25796  0.31960  0.99072  Biso   1.000  H
  N93      1.0000 0.11415  0.23258  0.90849  Biso   1.000  N
  H160     1.0000 0.25789  0.31960  0.99065  Biso   1.000  H
  N94      1.0000 0.11424  0.23258  0.90849  Biso   1.000  N
  H161     1.0000 0.55800  0.20141  0.71127  Biso   1.000  H
  H162     1.0000 0.59699  0.21057  0.64457  Biso   1.000  H
  N95      1.0000 0.76486  0.21500  0.78057  Biso   1.000  N
  C171     1.0000 0.87567  0.23482  0.77481  Biso   1.000  C
  C172     1.0000 0.87575  0.23482  0.77481  Biso   1.000  C
  C173     1.0000 0.09054  0.16538  0.85493  Biso   1.000  C
  C174     1.0000 0.09047  0.16538  0.85486  Biso   1.000  C
  N96      1.0000 0.93051  0.27540  0.91699  Biso   1.000  N
  H163     1.0000 0.91772  0.32982  0.00843  Biso   1.000  H
  H164     1.0000 0.91765  0.32982  0.00836  Biso   1.000  H
  H165     1.0000 0.03150  0.37128  0.00457  Biso   1.000  H
  C175     1.0000 0.98657  0.28151  0.86723  Biso   1.000  C
  C176     1.0000 0.98650  0.28151  0.86716  Biso   1.000  C
  C177     1.0000 0.79517  0.24317  0.86168  Biso   1.000  C
  H166     1.0000 0.83887  0.27042  0.71963  Biso   1.000  H
  H167     1.0000 0.83880  0.27042  0.71956  Biso   1.000  H
  O58      1.0000 0.18185  0.11619  0.87222  Biso   1.000  O
  O59      1.0000 0.18178  0.11619  0.87215  Biso   1.000  O
  H168     1.0000 0.99800  0.34011  0.85627  Biso   1.000  H
  O60      1.0000 0.71513  0.24049  0.88030  Biso   1.000  O
  C178     1.0000 0.20477  0.75683  0.13825  Biso   1.000  C
  N97      1.0000 0.06949  0.72460  0.08301  Biso   1.000  N
  N98      1.0000 0.23514  0.78500  0.21943  Biso   1.000  N
  N99      1.0000 0.23508  0.78500  0.21936  Biso   1.000  N
  O61      1.0000 0.28487  0.75951  0.11970  Biso   1.000  O
  O62      1.0000 0.28495  0.75951  0.11970  Biso   1.000  O
  C179     1.0000 0.01352  0.71849  0.13277  Biso   1.000  C
  C180     1.0000 0.01343  0.71849  0.13277  Biso   1.000  C
  C181     1.0000 0.20483  0.75683  0.13832  Biso   1.000  C
  C182     1.0000 0.00741  0.68221  0.99543  Biso   1.000  C
  C183     1.0000 0.00735  0.68221  0.99536  Biso   1.000  C
  C184     1.0000 0.12433  0.76518  0.22519  Biso   1.000  C
  C185     1.0000 0.37415  0.81567  0.29752  Biso   1.000  C
  C186     1.0000 0.37408  0.81567  0.29745  Biso   1.000  C
  H169     1.0000 0.00200  0.65989  0.14373  Biso   1.000  H
  H170     1.0000 0.00201  0.65989  0.14366  Biso   1.000  H
  N100     1.0000 0.88585  0.76742  0.09151  Biso   1.000  N
  H171     1.0000 0.96850  0.62872  0.99543  Biso   1.000  H
  N101     1.0000 0.89784  0.72809  0.91411  Biso   1.000  N
  H172     1.0000 0.96851  0.62872  0.99536  Biso   1.000  H
  H173     1.0000 0.08228  0.67018  0.99157  Biso   1.000  H
  N102     1.0000 0.04821  0.83649  0.22161  Biso   1.000  N
  H174     1.0000 0.16113  0.72958  0.28037  Biso   1.000  H
  H175     1.0000 0.16121  0.72958  0.28037  Biso   1.000  H
  N103     1.0000 0.38217  0.90550  0.30947  Biso   1.000  N
  H176     1.0000 0.44200  0.79859  0.28873  Biso   1.000  H
  H177     1.0000 0.40301  0.78943  0.35543  Biso   1.000  H
  H178     1.0000 0.44201  0.79859  0.28866  Biso   1.000  H
  H179     1.0000 0.40302  0.78943  0.35536  Biso   1.000  H
  C187     1.0000 0.74705  0.74143  0.00963  Biso   1.000  C
  C188     1.0000 0.90946  0.83462  0.14507  Biso   1.000  C
  C189     1.0000 0.74698  0.74143  0.00956  Biso   1.000  C
  C190     1.0000 0.74973  0.72173  0.87342  Biso   1.000  C
  C191     1.0000 0.91182  0.76368  0.85303  Biso   1.000  C
  C192     1.0000 0.74966  0.72173  0.87335  Biso   1.000  C
  C193     1.0000 0.91175  0.76368  0.85296  Biso   1.000  C
  C194     1.0000 0.10456  0.89172  0.30040  Biso   1.000  C
  C195     1.0000 0.10465  0.89172  0.30040  Biso   1.000  C
  C196     1.0000 0.34105  0.95200  0.35593  Biso   1.000  C
  C197     1.0000 0.34098  0.95200  0.35586  Biso   1.000  C
  C198     1.0000 0.43008  0.95549  0.27461  Biso   1.000  C
  C199     1.0000 0.43016  0.95549  0.27461  Biso   1.000  C
  N104     1.0000 0.71120  0.76867  0.92240  Biso   1.000  N
  H180     1.0000 0.67628  0.76331  0.01392  Biso   1.000  H
  H181     1.0000 0.74204  0.68040  0.00928  Biso   1.000  H
  H182     1.0000 0.67629  0.76331  0.01385  Biso   1.000  H
  H183     1.0000 0.74213  0.68040  0.00928  Biso   1.000  H
  O63      1.0000 0.81815  0.88381  0.12778  Biso   1.000  O
  O64      1.0000 0.81823  0.88381  0.12778  Biso   1.000  O
  C200     1.0000 0.66987  0.76861  0.77909  Biso   1.000  C
  H184     1.0000 0.71870  0.66288  0.86379  Biso   1.000  H
  C201     1.0000 0.66995  0.76861  0.77909  Biso   1.000  C
  N105     1.0000 0.78132  0.79211  0.77663  Biso   1.000  N
  N106     1.0000 0.78125  0.79211  0.77656  Biso   1.000  N
  O65      1.0000 0.02204  0.76923  0.86407  Biso   1.000  O
  O66      1.0000 0.02212  0.76923  0.86407  Biso   1.000  O
  H185     1.0000 0.16322  0.85937  0.35888  Biso   1.000  H
  N107     1.0000 0.18999  0.95830  0.30490  Biso   1.000  N
  H186     1.0000 0.02605  0.91610  0.29492  Biso   1.000  H
  H187     1.0000 0.02599  0.91610  0.29485  Biso   1.000  H
  H188     1.0000 0.39141  0.93193  0.42087  Biso   1.000  H
  C202     1.0000 0.38491  0.04170  0.35501  Biso   1.000  C
  O67      1.0000 0.47468  0.93131  0.23511  Biso   1.000  O
  O68      1.0000 0.47476  0.93131  0.23511  Biso   1.000  O
  N108     1.0000 0.41932  0.03659  0.29183  Biso   1.000  N
  N109     1.0000 0.41925  0.03659  0.29176  Biso   1.000  N
  C203     1.0000 0.62725  0.83568  0.87257  Biso   1.000  C
  C204     1.0000 0.62733  0.83568  0.87257  Biso   1.000  C
  N110     1.0000 0.60494  0.83867  0.79041  Biso   1.000  N
  H189     1.0000 0.59792  0.73289  0.72511  Biso   1.000  H
  H190     1.0000 0.59785  0.73289  0.72504  Biso   1.000  H
  C205     1.0000 0.75595  0.82172  0.69299  Biso   1.000  C
  C206     1.0000 0.75604  0.82172  0.69299  Biso   1.000  C
  C207     1.0000 0.14800  0.03921  0.29161  Biso   1.000  C
  C208     1.0000 0.14793  0.03921  0.29154  Biso   1.000  C
  N111     1.0000 0.25961  0.08920  0.31973  Biso   1.000  N
  N112     1.0000 0.25955  0.08920  0.31966  Biso   1.000  N
  H191     1.0000 0.46773  0.06022  0.41869  Biso   1.000  H
  C209     1.0000 0.49094  0.10323  0.28381  Biso   1.000  C
  C210     1.0000 0.49087  0.10323  0.28374  Biso   1.000  C
  O69      1.0000 0.57677  0.88331  0.89647  Biso   1.000  O
  C211     1.0000 0.50906  0.89677  0.71619  Biso   1.000  C
  C212     1.0000 0.50914  0.89677  0.71619  Biso   1.000  C
  H192     1.0000 0.66970  0.79510  0.63803  Biso   1.000  H
  H193     1.0000 0.83510  0.80401  0.69538  Biso   1.000  H
  N113     1.0000 0.74039  0.91080  0.68027  Biso   1.000  N
  H194     1.0000 0.66972  0.79510  0.63796  Biso   1.000  H
  O70      1.0000 0.02936  0.06421  0.26020  Biso   1.000  O
  O71      1.0000 0.02944  0.06421  0.26020  Biso   1.000  O
  C213     1.0000 0.24405  0.17828  0.30701  Biso   1.000  C
  H195     1.0000 0.55129  0.13340  0.34363  Biso   1.000  H
  H196     1.0000 0.55251  0.07892  0.27250  Biso   1.000  H
  N114     1.0000 0.39506  0.16133  0.20959  Biso   1.000  N
  H197     1.0000 0.55130  0.13340  0.34356  Biso   1.000  H
  N115     1.0000 0.39514  0.16133  0.20959  Biso   1.000  N
  H198     1.0000 0.44871  0.86660  0.65637  Biso   1.000  H
  H199     1.0000 0.44749  0.92108  0.72750  Biso   1.000  H
  N116     1.0000 0.58068  0.96341  0.70817  Biso   1.000  N
  C214     1.0000 0.85200  0.96079  0.70839  Biso   1.000  C
  C215     1.0000 0.61509  0.95830  0.64499  Biso   1.000  C
  H200     1.0000 0.33030  0.20490  0.36197  Biso   1.000  H
  H201     1.0000 0.16490  0.19599  0.30462  Biso   1.000  H
  N117     1.0000 0.21868  0.20789  0.22337  Biso   1.000  N
  H202     1.0000 0.16483  0.19599  0.30455  Biso   1.000  H
  C216     1.0000 0.33013  0.23139  0.22091  Biso   1.000  C
  C217     1.0000 0.37275  0.16432  0.12743  Biso   1.000  C
  C218     1.0000 0.37268  0.16432  0.12736  Biso   1.000  C
  C219     1.0000 0.56992  0.04451  0.72539  Biso   1.000  C
  O72      1.0000 0.97064  0.93579  0.73980  Biso   1.000  O
  N118     1.0000 0.81001  0.04170  0.69510  Biso   1.000  N
  H203     1.0000 0.53227  0.93978  0.58131  Biso   1.000  H
  H204     1.0000 0.53236  0.93978  0.58131  Biso   1.000  H
  C220     1.0000 0.65895  0.04800  0.64407  Biso   1.000  C
  C221     1.0000 0.65903  0.04800  0.64407  Biso   1.000  C
  C222     1.0000 0.08818  0.23632  0.14697  Biso   1.000  C
  H205     1.0000 0.40208  0.26711  0.27489  Biso   1.000  H
  C223     1.0000 0.25027  0.27827  0.12658  Biso   1.000  C
  N119     1.0000 0.28880  0.23133  0.07760  Biso   1.000  N
  O73      1.0000 0.42323  0.11669  0.10353  Biso   1.000  O
  O74      1.0000 0.42316  0.11669  0.10346  Biso   1.000  O
  N120     1.0000 0.61783  0.09450  0.69053  Biso   1.000  N
  O75      1.0000 0.52532  0.06869  0.76489  Biso   1.000  O
  N121     1.0000 0.61776  0.09450  0.69046  Biso   1.000  N
  C224     1.0000 0.89544  0.10828  0.69960  Biso   1.000  C
  H206     1.0000 0.60859  0.06807  0.57913  Biso   1.000  H
  H207     1.0000 0.60861  0.06807  0.57906  Biso   1.000  H
  O76      1.0000 0.97796  0.23077  0.13593  Biso   1.000  O
  O77      1.0000 0.97789  0.23077  0.13586  Biso   1.000  O
  N122     1.0000 0.10216  0.27191  0.08589  Biso   1.000  N
  N123     1.0000 0.10225  0.27191  0.08589  Biso   1.000  N
  H208     1.0000 0.28130  0.33712  0.13621  Biso   1.000  H
  H209     1.0000 0.28123  0.33712  0.13614  Biso   1.000  H
  C225     1.0000 0.25295  0.25857  0.99037  Biso   1.000  C
  C226     1.0000 0.25303  0.25857  0.99037  Biso   1.000  C
  C227     1.0000 0.62585  0.18433  0.70248  Biso   1.000  C
  C228     1.0000 0.62594  0.18433  0.70248  Biso   1.000  C
  H210     1.0000 0.83678  0.14063  0.64112  Biso   1.000  H
  H211     1.0000 0.97395  0.08390  0.70508  Biso   1.000  H
  N124     1.0000 0.95179  0.16351  0.77839  Biso   1.000  N
  H212     1.0000 0.83680  0.14063  0.64105  Biso   1.000  H
  H213     1.0000 0.97403  0.08390  0.70508  Biso   1.000  H
  C229     1.0000 0.99259  0.31779  0.00457  Biso   1.000  C
  H214     1.0000 0.32372  0.23669  0.98608  Biso   1.000  H
  H215     1.0000 0.25796  0.31960  0.99072  Biso   1.000  H
  N125     1.0000 0.11415  0.23258  0.90849  Biso   1.000  N
  H216     1.0000 0.25789  0.31960  0.99065  Biso   1.000  H
  N126     1.0000 0.11424  0.23258  0.90849  Biso   1.000  N
  H217     1.0000 0.55800  0.20141  0.71127  Biso   1.000  H
  H218     1.0000 0.59699  0.21057  0.64457  Biso   1.000  H
  N127     1.0000 0.76486  0.21500  0.78057  Biso   1.000  N
  C230     1.0000 0.87567  0.23482  0.77481  Biso   1.000  C
  C231     1.0000 0.87575  0.23482  0.77481  Biso   1.000  C
  C232     1.0000 0.09054  0.16538  0.85493  Biso   1.000  C
  C233     1.0000 0.09047  0.16538  0.85486  Biso   1.000  C
  N128     1.0000 0.93051  0.27540  0.91699  Biso   1.000  N
  H219     1.0000 0.91772  0.32982  0.00843  Biso   1.000  H
  H220     1.0000 0.91765  0.32982  0.00836  Biso   1.000  H
  H221     1.0000 0.03150  0.37128  0.00457  Biso   1.000  H
  C234     1.0000 0.98657  0.28151  0.86723  Biso   1.000  C
  C235     1.0000 0.98650  0.28151  0.86716  Biso   1.000  C
  C236     1.0000 0.79517  0.24317  0.86168  Biso   1.000  C
  H222     1.0000 0.83887  0.27042  0.71963  Biso   1.000  H
  H223     1.0000 0.83880  0.27042  0.71956  Biso   1.000  H
  O78      1.0000 0.18185  0.11619  0.87222  Biso   1.000  O
  O79      1.0000 0.18178  0.11619  0.87215  Biso   1.000  O
  H224     1.0000 0.99800  0.34011  0.85627  Biso   1.000  H
  O80      1.0000 0.71513  0.24049  0.88030  Biso   1.000  O
  C237     1.0000 0.20477  0.75683  0.13825  Biso   1.000  C
  N129     1.0000 0.06949  0.72460  0.08301  Biso   1.000  N
  N130     1.0000 0.23514  0.78500  0.21943  Biso   1.000  N
  O81      1.0000 0.28487  0.75951  0.11970  Biso   1.000  O
  N131     1.0000 0.23508  0.78500  0.21936  Biso   1.000  N
  O82      1.0000 0.28495  0.75951  0.11970  Biso   1.000  O
  C238     1.0000 0.00741  0.68221  0.99543  Biso   1.000  C
  C239     1.0000 0.00735  0.68221  0.99536  Biso   1.000  C
  C240     1.0000 0.01343  0.71849  0.13277  Biso   1.000  C
  C241     1.0000 0.20483  0.75683  0.13832  Biso   1.000  C
  C242     1.0000 0.01352  0.71849  0.13277  Biso   1.000  C
  C243     1.0000 0.12433  0.76518  0.22519  Biso   1.000  C
  C244     1.0000 0.37415  0.81567  0.29752  Biso   1.000  C
  C245     1.0000 0.37408  0.81567  0.29745  Biso   1.000  C
  H225     1.0000 0.96850  0.62872  0.99543  Biso   1.000  H
  N132     1.0000 0.89784  0.72809  0.91411  Biso   1.000  N
  H226     1.0000 0.96851  0.62872  0.99536  Biso   1.000  H
  H227     1.0000 0.08228  0.67018  0.99157  Biso   1.000  H
  N133     1.0000 0.88585  0.76742  0.09151  Biso   1.000  N
  H228     1.0000 0.00200  0.65989  0.14373  Biso   1.000  H
  H229     1.0000 0.00201  0.65989  0.14366  Biso   1.000  H
  N134     1.0000 0.04821  0.83649  0.22161  Biso   1.000  N
  H230     1.0000 0.16113  0.72958  0.28037  Biso   1.000  H
  H231     1.0000 0.16121  0.72958  0.28037  Biso   1.000  H
  N135     1.0000 0.38217  0.90550  0.30947  Biso   1.000  N
  H232     1.0000 0.44200  0.79859  0.28873  Biso   1.000  H
  H233     1.0000 0.40301  0.78943  0.35543  Biso   1.000  H
  H234     1.0000 0.44201  0.79859  0.28866  Biso   1.000  H
  H235     1.0000 0.40302  0.78943  0.35536  Biso   1.000  H
  C246     1.0000 0.74973  0.72173  0.87342  Biso   1.000  C
  C247     1.0000 0.91182  0.76368  0.85303  Biso   1.000  C
  C248     1.0000 0.74966  0.72173  0.87335  Biso   1.000  C
  C249     1.0000 0.91175  0.76368  0.85296  Biso   1.000  C
  C250     1.0000 0.74705  0.74143  0.00963  Biso   1.000  C
  C251     1.0000 0.90946  0.83462  0.14507  Biso   1.000  C
  C252     1.0000 0.74698  0.74143  0.00956  Biso   1.000  C
  C253     1.0000 0.10456  0.89172  0.30040  Biso   1.000  C
  C254     1.0000 0.10465  0.89172  0.30040  Biso   1.000  C
  C255     1.0000 0.34105  0.95200  0.35593  Biso   1.000  C
  C256     1.0000 0.43008  0.95549  0.27461  Biso   1.000  C
  C257     1.0000 0.34098  0.95200  0.35586  Biso   1.000  C
  C258     1.0000 0.43016  0.95549  0.27461  Biso   1.000  C
  C259     1.0000 0.66987  0.76861  0.77909  Biso   1.000  C
  H236     1.0000 0.71870  0.66288  0.86379  Biso   1.000  H
  N136     1.0000 0.71120  0.76867  0.92240  Biso   1.000  N
  C260     1.0000 0.66995  0.76861  0.77909  Biso   1.000  C
  N137     1.0000 0.78132  0.79211  0.77663  Biso   1.000  N
  N138     1.0000 0.78125  0.79211  0.77656  Biso   1.000  N
  O83      1.0000 0.02204  0.76923  0.86407  Biso   1.000  O
  O84      1.0000 0.02212  0.76923  0.86407  Biso   1.000  O
  H237     1.0000 0.67628  0.76331  0.01392  Biso   1.000  H
  H238     1.0000 0.74204  0.68040  0.00928  Biso   1.000  H
  H239     1.0000 0.67629  0.76331  0.01385  Biso   1.000  H
  H240     1.0000 0.74213  0.68040  0.00928  Biso   1.000  H
  O85      1.0000 0.81815  0.88381  0.12778  Biso   1.000  O
  O86      1.0000 0.81823  0.88381  0.12778  Biso   1.000  O
  H241     1.0000 0.16322  0.85937  0.35888  Biso   1.000  H
  N139     1.0000 0.18999  0.95830  0.30490  Biso   1.000  N
  H242     1.0000 0.02605  0.91610  0.29492  Biso   1.000  H
  H243     1.0000 0.02599  0.91610  0.29485  Biso   1.000  H
  H244     1.0000 0.39141  0.93193  0.42087  Biso   1.000  H
  C261     1.0000 0.38491  0.04170  0.35501  Biso   1.000  C
  O87      1.0000 0.47468  0.93131  0.23511  Biso   1.000  O
  O88      1.0000 0.47476  0.93131  0.23511  Biso   1.000  O
  N140     1.0000 0.41932  0.03659  0.29183  Biso   1.000  N
  N141     1.0000 0.41925  0.03659  0.29176  Biso   1.000  N
  H245     1.0000 0.59792  0.73289  0.72511  Biso   1.000  H
  N142     1.0000 0.60494  0.83867  0.79041  Biso   1.000  N
  H246     1.0000 0.59785  0.73289  0.72504  Biso   1.000  H
  C262     1.0000 0.62725  0.83568  0.87257  Biso   1.000  C
  C263     1.0000 0.62733  0.83568  0.87257  Biso   1.000  C
  C264     1.0000 0.75595  0.82172  0.69299  Biso   1.000  C
  C265     1.0000 0.75604  0.82172  0.69299  Biso   1.000  C
  C266     1.0000 0.14800  0.03921  0.29161  Biso   1.000  C
  C267     1.0000 0.14793  0.03921  0.29154  Biso   1.000  C
  N143     1.0000 0.25961  0.08920  0.31973  Biso   1.000  N
  N144     1.0000 0.25955  0.08920  0.31966  Biso   1.000  N
  H247     1.0000 0.46773  0.06022  0.41869  Biso   1.000  H
  C268     1.0000 0.49094  0.10323  0.28381  Biso   1.000  C
  C269     1.0000 0.49087  0.10323  0.28374  Biso   1.000  C
  C270     1.0000 0.50906  0.89677  0.71619  Biso   1.000  C
  C271     1.0000 0.50914  0.89677  0.71619  Biso   1.000  C
  O89      1.0000 0.57677  0.88331  0.89647  Biso   1.000  O
  H248     1.0000 0.66970  0.79510  0.63803  Biso   1.000  H
  H249     1.0000 0.83510  0.80401  0.69538  Biso   1.000  H
  N145     1.0000 0.74039  0.91080  0.68027  Biso   1.000  N
  H250     1.0000 0.66972  0.79510  0.63796  Biso   1.000  H
  O90      1.0000 0.02936  0.06421  0.26020  Biso   1.000  O
  O91      1.0000 0.02944  0.06421  0.26020  Biso   1.000  O
  C272     1.0000 0.24405  0.17828  0.30701  Biso   1.000  C
  H251     1.0000 0.55129  0.13340  0.34363  Biso   1.000  H
  H252     1.0000 0.55251  0.07892  0.27250  Biso   1.000  H
  N146     1.0000 0.39506  0.16133  0.20959  Biso   1.000  N
  H253     1.0000 0.55130  0.13340  0.34356  Biso   1.000  H
  N147     1.0000 0.39514  0.16133  0.20959  Biso   1.000  N
  H254     1.0000 0.44871  0.86660  0.65637  Biso   1.000  H
  H255     1.0000 0.44749  0.92108  0.72750  Biso   1.000  H
  N148     1.0000 0.58068  0.96341  0.70817  Biso   1.000  N
  C273     1.0000 0.85200  0.96079  0.70839  Biso   1.000  C
  C274     1.0000 0.61509  0.95830  0.64499  Biso   1.000  C
  H256     1.0000 0.33030  0.20490  0.36197  Biso   1.000  H
  H257     1.0000 0.16490  0.19599  0.30462  Biso   1.000  H
  N149     1.0000 0.21868  0.20789  0.22337  Biso   1.000  N
  H258     1.0000 0.16483  0.19599  0.30455  Biso   1.000  H
  C275     1.0000 0.37275  0.16432  0.12743  Biso   1.000  C
  C276     1.0000 0.33013  0.23139  0.22091  Biso   1.000  C
  C277     1.0000 0.37268  0.16432  0.12736  Biso   1.000  C
  C278     1.0000 0.56992  0.04451  0.72539  Biso   1.000  C
  O92      1.0000 0.97064  0.93579  0.73980  Biso   1.000  O
  N150     1.0000 0.81001  0.04170  0.69510  Biso   1.000  N
  H259     1.0000 0.53227  0.93978  0.58131  Biso   1.000  H
  H260     1.0000 0.53236  0.93978  0.58131  Biso   1.000  H
  C279     1.0000 0.65895  0.04800  0.64407  Biso   1.000  C
  C280     1.0000 0.65903  0.04800  0.64407  Biso   1.000  C
  C281     1.0000 0.08818  0.23632  0.14697  Biso   1.000  C
  N151     1.0000 0.28880  0.23133  0.07760  Biso   1.000  N
  O93      1.0000 0.42323  0.11669  0.10353  Biso   1.000  O
  O94      1.0000 0.42316  0.11669  0.10346  Biso   1.000  O
  H261     1.0000 0.40208  0.26711  0.27489  Biso   1.000  H
  C282     1.0000 0.25027  0.27827  0.12658  Biso   1.000  C
  N152     1.0000 0.61783  0.09450  0.69053  Biso   1.000  N
  O95      1.0000 0.52532  0.06869  0.76489  Biso   1.000  O
  N153     1.0000 0.61776  0.09450  0.69046  Biso   1.000  N
  C283     1.0000 0.89544  0.10828  0.69960  Biso   1.000  C
  H262     1.0000 0.60859  0.06807  0.57913  Biso   1.000  H
  H263     1.0000 0.60861  0.06807  0.57906  Biso   1.000  H
  O96      1.0000 0.97796  0.23077  0.13593  Biso   1.000  O
  O97      1.0000 0.97789  0.23077  0.13586  Biso   1.000  O
  N154     1.0000 0.10216  0.27191  0.08589  Biso   1.000  N
  N155     1.0000 0.10225  0.27191  0.08589  Biso   1.000  N
  C284     1.0000 0.25295  0.25857  0.99037  Biso   1.000  C
  C285     1.0000 0.25303  0.25857  0.99037  Biso   1.000  C
  H264     1.0000 0.28130  0.33712  0.13621  Biso   1.000  H
  H265     1.0000 0.28123  0.33712  0.13614  Biso   1.000  H
  C286     1.0000 0.62585  0.18433  0.70248  Biso   1.000  C
  C287     1.0000 0.62594  0.18433  0.70248  Biso   1.000  C
  H266     1.0000 0.83678  0.14063  0.64112  Biso   1.000  H
  H267     1.0000 0.97395  0.08390  0.70508  Biso   1.000  H
  N156     1.0000 0.95179  0.16351  0.77839  Biso   1.000  N
  H268     1.0000 0.83680  0.14063  0.64105  Biso   1.000  H
  H269     1.0000 0.97403  0.08390  0.70508  Biso   1.000  H
  C288     1.0000 0.99259  0.31779  0.00457  Biso   1.000  C
  N157     1.0000 0.11415  0.23258  0.90849  Biso   1.000  N
  N158     1.0000 0.11424  0.23258  0.90849  Biso   1.000  N
  H270     1.0000 0.32372  0.23669  0.98608  Biso   1.000  H
  H271     1.0000 0.25796  0.31960  0.99072  Biso   1.000  H
  H272     1.0000 0.25789  0.31960  0.99065  Biso   1.000  H
  H273     1.0000 0.55800  0.20141  0.71127  Biso   1.000  H
  H274     1.0000 0.59699  0.21057  0.64457  Biso   1.000  H
  N159     1.0000 0.76486  0.21500  0.78057  Biso   1.000  N
  C289     1.0000 0.87567  0.23482  0.77481  Biso   1.000  C
  C290     1.0000 0.87575  0.23482  0.77481  Biso   1.000  C
  C291     1.0000 0.09054  0.16538  0.85493  Biso   1.000  C
  C292     1.0000 0.09047  0.16538  0.85486  Biso   1.000  C
  N160     1.0000 0.93051  0.27540  0.91699  Biso   1.000  N
  H275     1.0000 0.91772  0.32982  0.00843  Biso   1.000  H
  H276     1.0000 0.91765  0.32982  0.00836  Biso   1.000  H
  H277     1.0000 0.03150  0.37128  0.00457  Biso   1.000  H
  C293     1.0000 0.98657  0.28151  0.86723  Biso   1.000  C
  C294     1.0000 0.98650  0.28151  0.86716  Biso   1.000  C
  C295     1.0000 0.79517  0.24317  0.86168  Biso   1.000  C
  H278     1.0000 0.83887  0.27042  0.71963  Biso   1.000  H
  H279     1.0000 0.83880  0.27042  0.71956  Biso   1.000  H
  O98      1.0000 0.18185  0.11619  0.87222  Biso   1.000  O
  O99      1.0000 0.18178  0.11619  0.87215  Biso   1.000  O
  H280     1.0000 0.99800  0.34011  0.85627  Biso   1.000  H
  O100     1.0000 0.71513  0.24049  0.88030  Biso   1.000  O
  C296     1.0000 0.20477  0.75683  0.13825  Biso   1.000  C
  N161     1.0000 0.06949  0.72460  0.08301  Biso   1.000  N
  N162     1.0000 0.23514  0.78500  0.21943  Biso   1.000  N
  O101     1.0000 0.28487  0.75951  0.11970  Biso   1.000  O
  N163     1.0000 0.23508  0.78500  0.21936  Biso   1.000  N
  O102     1.0000 0.28495  0.75951  0.11970  Biso   1.000  O
  C297     1.0000 0.00741  0.68221  0.99543  Biso   1.000  C
  C298     1.0000 0.00735  0.68221  0.99536  Biso   1.000  C
  C299     1.0000 0.01343  0.71849  0.13277  Biso   1.000  C
  C300     1.0000 0.20483  0.75683  0.13832  Biso   1.000  C
  C301     1.0000 0.01352  0.71849  0.13277  Biso   1.000  C
  C302     1.0000 0.12433  0.76518  0.22519  Biso   1.000  C
  C303     1.0000 0.37415  0.81567  0.29752  Biso   1.000  C
  C304     1.0000 0.37408  0.81567  0.29745  Biso   1.000  C
  H281     1.0000 0.96850  0.62872  0.99543  Biso   1.000  H
  N164     1.0000 0.89784  0.72809  0.91411  Biso   1.000  N
  H282     1.0000 0.96851  0.62872  0.99536  Biso   1.000  H
  H283     1.0000 0.08228  0.67018  0.99157  Biso   1.000  H
  N165     1.0000 0.88585  0.76742  0.09151  Biso   1.000  N
  H284     1.0000 0.00200  0.65989  0.14373  Biso   1.000  H
  H285     1.0000 0.00201  0.65989  0.14366  Biso   1.000  H
  N166     1.0000 0.04821  0.83649  0.22161  Biso   1.000  N
  H286     1.0000 0.16113  0.72958  0.28037  Biso   1.000  H
  H287     1.0000 0.16121  0.72958  0.28037  Biso   1.000  H
  N167     1.0000 0.38217  0.90550  0.30947  Biso   1.000  N
  H288     1.0000 0.44200  0.79859  0.28873  Biso   1.000  H
  H289     1.0000 0.40301  0.78943  0.35543  Biso   1.000  H
  H290     1.0000 0.44201  0.79859  0.28866  Biso   1.000  H
  H291     1.0000 0.40302  0.78943  0.35536  Biso   1.000  H
  C305     1.0000 0.74973  0.72173  0.87342  Biso   1.000  C
  C306     1.0000 0.91182  0.76368  0.85303  Biso   1.000  C
  C307     1.0000 0.74966  0.72173  0.87335  Biso   1.000  C
  C308     1.0000 0.91175  0.76368  0.85296  Biso   1.000  C
  C309     1.0000 0.74705  0.74143  0.00963  Biso   1.000  C
  C310     1.0000 0.90946  0.83462  0.14507  Biso   1.000  C
  C311     1.0000 0.74698  0.74143  0.00956  Biso   1.000  C
  C312     1.0000 0.10456  0.89172  0.30040  Biso   1.000  C
  C313     1.0000 0.10465  0.89172  0.30040  Biso   1.000  C
  C314     1.0000 0.34105  0.95200  0.35593  Biso   1.000  C
  C315     1.0000 0.43008  0.95549  0.27461  Biso   1.000  C
  C316     1.0000 0.34098  0.95200  0.35586  Biso   1.000  C
  C317     1.0000 0.43016  0.95549  0.27461  Biso   1.000  C
  C318     1.0000 0.66987  0.76861  0.77909  Biso   1.000  C
  H292     1.0000 0.71870  0.66288  0.86379  Biso   1.000  H
  N168     1.0000 0.71120  0.76867  0.92240  Biso   1.000  N
  C319     1.0000 0.66995  0.76861  0.77909  Biso   1.000  C
  N169     1.0000 0.78132  0.79211  0.77663  Biso   1.000  N
  N170     1.0000 0.78125  0.79211  0.77656  Biso   1.000  N
  O103     1.0000 0.02204  0.76923  0.86407  Biso   1.000  O
  O104     1.0000 0.02212  0.76923  0.86407  Biso   1.000  O
  H293     1.0000 0.67628  0.76331  0.01392  Biso   1.000  H
  H294     1.0000 0.74204  0.68040  0.00928  Biso   1.000  H
  H295     1.0000 0.67629  0.76331  0.01385  Biso   1.000  H
  H296     1.0000 0.74213  0.68040  0.00928  Biso   1.000  H
  O105     1.0000 0.81815  0.88381  0.12778  Biso   1.000  O
  O106     1.0000 0.81823  0.88381  0.12778  Biso   1.000  O
  H297     1.0000 0.16322  0.85937  0.35888  Biso   1.000  H
  N171     1.0000 0.18999  0.95830  0.30490  Biso   1.000  N
  H298     1.0000 0.02605  0.91610  0.29492  Biso   1.000  H
  H299     1.0000 0.02599  0.91610  0.29485  Biso   1.000  H
  H300     1.0000 0.39141  0.93193  0.42087  Biso   1.000  H
  C320     1.0000 0.38491  0.04170  0.35501  Biso   1.000  C
  O107     1.0000 0.47468  0.93131  0.23511  Biso   1.000  O
  O108     1.0000 0.47476  0.93131  0.23511  Biso   1.000  O
  N172     1.0000 0.41932  0.03659  0.29183  Biso   1.000  N
  N173     1.0000 0.41925  0.03659  0.29176  Biso   1.000  N
  H301     1.0000 0.59792  0.73289  0.72511  Biso   1.000  H
  N174     1.0000 0.60494  0.83867  0.79041  Biso   1.000  N
  H302     1.0000 0.59785  0.73289  0.72504  Biso   1.000  H
  C321     1.0000 0.62725  0.83568  0.87257  Biso   1.000  C
  C322     1.0000 0.62733  0.83568  0.87257  Biso   1.000  C
  C323     1.0000 0.75595  0.82172  0.69299  Biso   1.000  C
  C324     1.0000 0.75604  0.82172  0.69299  Biso   1.000  C
  C325     1.0000 0.14800  0.03921  0.29161  Biso   1.000  C
  C326     1.0000 0.14793  0.03921  0.29154  Biso   1.000  C
  N175     1.0000 0.25961  0.08920  0.31973  Biso   1.000  N
  N176     1.0000 0.25955  0.08920  0.31966  Biso   1.000  N
  H303     1.0000 0.46773  0.06022  0.41869  Biso   1.000  H
  C327     1.0000 0.49094  0.10323  0.28381  Biso   1.000  C
  C328     1.0000 0.49087  0.10323  0.28374  Biso   1.000  C
  C329     1.0000 0.50906  0.89677  0.71619  Biso   1.000  C
  C330     1.0000 0.50914  0.89677  0.71619  Biso   1.000  C
  O109     1.0000 0.57677  0.88331  0.89647  Biso   1.000  O
  H304     1.0000 0.66970  0.79510  0.63803  Biso   1.000  H
  H305     1.0000 0.83510  0.80401  0.69538  Biso   1.000  H
  N177     1.0000 0.74039  0.91080  0.68027  Biso   1.000  N
  H306     1.0000 0.66972  0.79510  0.63796  Biso   1.000  H
  O110     1.0000 0.02936  0.06421  0.26020  Biso   1.000  O
  O111     1.0000 0.02944  0.06421  0.26020  Biso   1.000  O
  C331     1.0000 0.24405  0.17828  0.30701  Biso   1.000  C
  H307     1.0000 0.55129  0.13340  0.34363  Biso   1.000  H
  H308     1.0000 0.55251  0.07892  0.27250  Biso   1.000  H
  N178     1.0000 0.39506  0.16133  0.20959  Biso   1.000  N
  H309     1.0000 0.55130  0.13340  0.34356  Biso   1.000  H
  N179     1.0000 0.39514  0.16133  0.20959  Biso   1.000  N
  H310     1.0000 0.44871  0.86660  0.65637  Biso   1.000  H
  H311     1.0000 0.44749  0.92108  0.72750  Biso   1.000  H
  N180     1.0000 0.58068  0.96341  0.70817  Biso   1.000  N
  C332     1.0000 0.85200  0.96079  0.70839  Biso   1.000  C
  C333     1.0000 0.61509  0.95830  0.64499  Biso   1.000  C
  H312     1.0000 0.33030  0.20490  0.36197  Biso   1.000  H
  H313     1.0000 0.16490  0.19599  0.30462  Biso   1.000  H
  N181     1.0000 0.21868  0.20789  0.22337  Biso   1.000  N
  H314     1.0000 0.16483  0.19599  0.30455  Biso   1.000  H
  C334     1.0000 0.37275  0.16432  0.12743  Biso   1.000  C
  C335     1.0000 0.33013  0.23139  0.22091  Biso   1.000  C
  C336     1.0000 0.37268  0.16432  0.12736  Biso   1.000  C
  C337     1.0000 0.56992  0.04451  0.72539  Biso   1.000  C
  O112     1.0000 0.97064  0.93579  0.73980  Biso   1.000  O
  N182     1.0000 0.81001  0.04170  0.69510  Biso   1.000  N
  H315     1.0000 0.53227  0.93978  0.58131  Biso   1.000  H
  H316     1.0000 0.53236  0.93978  0.58131  Biso   1.000  H
  C338     1.0000 0.65895  0.04800  0.64407  Biso   1.000  C
  C339     1.0000 0.65903  0.04800  0.64407  Biso   1.000  C
  C340     1.0000 0.08818  0.23632  0.14697  Biso   1.000  C
  N183     1.0000 0.28880  0.23133  0.07760  Biso   1.000  N
  O113     1.0000 0.42323  0.11669  0.10353  Biso   1.000  O
  O114     1.0000 0.42316  0.11669  0.10346  Biso   1.000  O
  H317     1.0000 0.40208  0.26711  0.27489  Biso   1.000  H
  C341     1.0000 0.25027  0.27827  0.12658  Biso   1.000  C
  N184     1.0000 0.61783  0.09450  0.69053  Biso   1.000  N
  O115     1.0000 0.52532  0.06869  0.76489  Biso   1.000  O
  N185     1.0000 0.61776  0.09450  0.69046  Biso   1.000  N
  C342     1.0000 0.89544  0.10828  0.69960  Biso   1.000  C
  H318     1.0000 0.60859  0.06807  0.57913  Biso   1.000  H
  H319     1.0000 0.60861  0.06807  0.57906  Biso   1.000  H
  O116     1.0000 0.97796  0.23077  0.13593  Biso   1.000  O
  O117     1.0000 0.97789  0.23077  0.13586  Biso   1.000  O
  N186     1.0000 0.10216  0.27191  0.08589  Biso   1.000  N
  N187     1.0000 0.10225  0.27191  0.08589  Biso   1.000  N
  C343     1.0000 0.25295  0.25857  0.99037  Biso   1.000  C
  C344     1.0000 0.25303  0.25857  0.99037  Biso   1.000  C
  H320     1.0000 0.28130  0.33712  0.13621  Biso   1.000  H
  H321     1.0000 0.28123  0.33712  0.13614  Biso   1.000  H
  C345     1.0000 0.62585  0.18433  0.70248  Biso   1.000  C
  C346     1.0000 0.62594  0.18433  0.70248  Biso   1.000  C
  H322     1.0000 0.83678  0.14063  0.64112  Biso   1.000  H
  H323     1.0000 0.97395  0.08390  0.70508  Biso   1.000  H
  N188     1.0000 0.95179  0.16351  0.77839  Biso   1.000  N
  H324     1.0000 0.83680  0.14063  0.64105  Biso   1.000  H
  H325     1.0000 0.97403  0.08390  0.70508  Biso   1.000  H
  C347     1.0000 0.99259  0.31779  0.00457  Biso   1.000  C
  N189     1.0000 0.11415  0.23258  0.90849  Biso   1.000  N
  N190     1.0000 0.11424  0.23258  0.90849  Biso   1.000  N
  H326     1.0000 0.32372  0.23669  0.98608  Biso   1.000  H
  H327     1.0000 0.25796  0.31960  0.99072  Biso   1.000  H
  H328     1.0000 0.25789  0.31960  0.99065  Biso   1.000  H
  H329     1.0000 0.55800  0.20141  0.71127  Biso   1.000  H
  H330     1.0000 0.59699  0.21057  0.64457  Biso   1.000  H
  N191     1.0000 0.76486  0.21500  0.78057  Biso   1.000  N
  C348     1.0000 0.87567  0.23482  0.77481  Biso   1.000  C
  C349     1.0000 0.87575  0.23482  0.77481  Biso   1.000  C
  C350     1.0000 0.09054  0.16538  0.85493  Biso   1.000  C
  C351     1.0000 0.09047  0.16538  0.85486  Biso   1.000  C
  N192     1.0000 0.93051  0.27540  0.91699  Biso   1.000  N
  H331     1.0000 0.91772  0.32982  0.00843  Biso   1.000  H
  H332     1.0000 0.91765  0.32982  0.00836  Biso   1.000  H
  H333     1.0000 0.03150  0.37128  0.00457  Biso   1.000  H
  C352     1.0000 0.98657  0.28151  0.86723  Biso   1.000  C
  C353     1.0000 0.98650  0.28151  0.86716  Biso   1.000  C
  C354     1.0000 0.79517  0.24317  0.86168  Biso   1.000  C
  H334     1.0000 0.83887  0.27042  0.71963  Biso   1.000  H
  H335     1.0000 0.83880  0.27042  0.71956  Biso   1.000  H
  O118     1.0000 0.18185  0.11619  0.87222  Biso   1.000  O
  O119     1.0000 0.18178  0.11619  0.87215  Biso   1.000  O
  H336     1.0000 0.99800  0.34011  0.85627  Biso   1.000  H
  O120     1.0000 0.71513  0.24049  0.88030  Biso   1.000  O
  C355     1.0000 0.20477  0.75683  0.13825  Biso   1.000  C
  N193     1.0000 0.06949  0.72460  0.08301  Biso   1.000  N
  N194     1.0000 0.23514  0.78500  0.21943  Biso   1.000  N
  O121     1.0000 0.28487  0.75951  0.11970  Biso   1.000  O
  N195     1.0000 0.23508  0.78500  0.21936  Biso   1.000  N
  O122     1.0000 0.28495  0.75951  0.11970  Biso   1.000  O
  C356     1.0000 0.00741  0.68221  0.99543  Biso   1.000  C
  C357     1.0000 0.00735  0.68221  0.99536  Biso   1.000  C
  C358     1.0000 0.01343  0.71849  0.13277  Biso   1.000  C
  C359     1.0000 0.20483  0.75683  0.13832  Biso   1.000  C
  C360     1.0000 0.01352  0.71849  0.13277  Biso   1.000  C
  C361     1.0000 0.12433  0.76518  0.22519  Biso   1.000  C
  C362     1.0000 0.37415  0.81567  0.29752  Biso   1.000  C
  C363     1.0000 0.37408  0.81567  0.29745  Biso   1.000  C
  H337     1.0000 0.96850  0.62872  0.99543  Biso   1.000  H
  N196     1.0000 0.89784  0.72809  0.91411  Biso   1.000  N
  H338     1.0000 0.96851  0.62872  0.99536  Biso   1.000  H
  H339     1.0000 0.08228  0.67018  0.99157  Biso   1.000  H
  N197     1.0000 0.88585  0.76742  0.09151  Biso   1.000  N
  H340     1.0000 0.00200  0.65989  0.14373  Biso   1.000  H
  H341     1.0000 0.00201  0.65989  0.14366  Biso   1.000  H
  N198     1.0000 0.04821  0.83649  0.22161  Biso   1.000  N
  H342     1.0000 0.16113  0.72958  0.28037  Biso   1.000  H
  H343     1.0000 0.16121  0.72958  0.28037  Biso   1.000  H
  N199     1.0000 0.38217  0.90550  0.30947  Biso   1.000  N
  H344     1.0000 0.44200  0.79859  0.28873  Biso   1.000  H
  H345     1.0000 0.40301  0.78943  0.35543  Biso   1.000  H
  H346     1.0000 0.44201  0.79859  0.28866  Biso   1.000  H
  H347     1.0000 0.40302  0.78943  0.35536  Biso   1.000  H
  C364     1.0000 0.74973  0.72173  0.87342  Biso   1.000  C
  C365     1.0000 0.91182  0.76368  0.85303  Biso   1.000  C
  C366     1.0000 0.74966  0.72173  0.87335  Biso   1.000  C
  C367     1.0000 0.91175  0.76368  0.85296  Biso   1.000  C
  C368     1.0000 0.74705  0.74143  0.00963  Biso   1.000  C
  C369     1.0000 0.90946  0.83462  0.14507  Biso   1.000  C
  C370     1.0000 0.74698  0.74143  0.00956  Biso   1.000  C
  C371     1.0000 0.10456  0.89172  0.30040  Biso   1.000  C
  C372     1.0000 0.10465  0.89172  0.30040  Biso   1.000  C
  C373     1.0000 0.34105  0.95200  0.35593  Biso   1.000  C
  C374     1.0000 0.43008  0.95549  0.27461  Biso   1.000  C
  C375     1.0000 0.34098  0.95200  0.35586  Biso   1.000  C
  C376     1.0000 0.43016  0.95549  0.27461  Biso   1.000  C
  C377     1.0000 0.66987  0.76861  0.77909  Biso   1.000  C
  H348     1.0000 0.71870  0.66288  0.86379  Biso   1.000  H
  N200     1.0000 0.71120  0.76867  0.92240  Biso   1.000  N
  C378     1.0000 0.66995  0.76861  0.77909  Biso   1.000  C
  N201     1.0000 0.78132  0.79211  0.77663  Biso   1.000  N
  N202     1.0000 0.78125  0.79211  0.77656  Biso   1.000  N
  O123     1.0000 0.02204  0.76923  0.86407  Biso   1.000  O
  O124     1.0000 0.02212  0.76923  0.86407  Biso   1.000  O
  H349     1.0000 0.67628  0.76331  0.01392  Biso   1.000  H
  H350     1.0000 0.74204  0.68040  0.00928  Biso   1.000  H
  H351     1.0000 0.67629  0.76331  0.01385  Biso   1.000  H
  H352     1.0000 0.74213  0.68040  0.00928  Biso   1.000  H
  O125     1.0000 0.81815  0.88381  0.12778  Biso   1.000  O
  O126     1.0000 0.81823  0.88381  0.12778  Biso   1.000  O
  H353     1.0000 0.16322  0.85937  0.35888  Biso   1.000  H
  N203     1.0000 0.18999  0.95830  0.30490  Biso   1.000  N
  H354     1.0000 0.02605  0.91610  0.29492  Biso   1.000  H
  H355     1.0000 0.02599  0.91610  0.29485  Biso   1.000  H
  H356     1.0000 0.39141  0.93193  0.42087  Biso   1.000  H
  C379     1.0000 0.38491  0.04170  0.35501  Biso   1.000  C
  O127     1.0000 0.47468  0.93131  0.23511  Biso   1.000  O
  O128     1.0000 0.47476  0.93131  0.23511  Biso   1.000  O
  N204     1.0000 0.41932  0.03659  0.29183  Biso   1.000  N
  N205     1.0000 0.41925  0.03659  0.29176  Biso   1.000  N
  H357     1.0000 0.59792  0.73289  0.72511  Biso   1.000  H
  N206     1.0000 0.60494  0.83867  0.79041  Biso   1.000  N
  H358     1.0000 0.59785  0.73289  0.72504  Biso   1.000  H
  C380     1.0000 0.62725  0.83568  0.87257  Biso   1.000  C
  C381     1.0000 0.62733  0.83568  0.87257  Biso   1.000  C
  C382     1.0000 0.75595  0.82172  0.69299  Biso   1.000  C
  C383     1.0000 0.75604  0.82172  0.69299  Biso   1.000  C
  C384     1.0000 0.14800  0.03921  0.29161  Biso   1.000  C
  C385     1.0000 0.14793  0.03921  0.29154  Biso   1.000  C
  N207     1.0000 0.25961  0.08920  0.31973  Biso   1.000  N
  N208     1.0000 0.25955  0.08920  0.31966  Biso   1.000  N
  H359     1.0000 0.46773  0.06022  0.41869  Biso   1.000  H
  C386     1.0000 0.49094  0.10323  0.28381  Biso   1.000  C
  C387     1.0000 0.49087  0.10323  0.28374  Biso   1.000  C
  C388     1.0000 0.50906  0.89677  0.71619  Biso   1.000  C
  C389     1.0000 0.50914  0.89677  0.71619  Biso   1.000  C
  O129     1.0000 0.57677  0.88331  0.89647  Biso   1.000  O
  H360     1.0000 0.66970  0.79510  0.63803  Biso   1.000  H
  H361     1.0000 0.83510  0.80401  0.69538  Biso   1.000  H
  N209     1.0000 0.74039  0.91080  0.68027  Biso   1.000  N
  H362     1.0000 0.66972  0.79510  0.63796  Biso   1.000  H
  O130     1.0000 0.02936  0.06421  0.26020  Biso   1.000  O
  O131     1.0000 0.02944  0.06421  0.26020  Biso   1.000  O
  C390     1.0000 0.24405  0.17828  0.30701  Biso   1.000  C
  H363     1.0000 0.55129  0.13340  0.34363  Biso   1.000  H
  H364     1.0000 0.55251  0.07892  0.27250  Biso   1.000  H
  N210     1.0000 0.39506  0.16133  0.20959  Biso   1.000  N
  H365     1.0000 0.55130  0.13340  0.34356  Biso   1.000  H
  N211     1.0000 0.39514  0.16133  0.20959  Biso   1.000  N
  H366     1.0000 0.44871  0.86660  0.65637  Biso   1.000  H
  H367     1.0000 0.44749  0.92108  0.72750  Biso   1.000  H
  N212     1.0000 0.58068  0.96341  0.70817  Biso   1.000  N
  C391     1.0000 0.85200  0.96079  0.70839  Biso   1.000  C
  C392     1.0000 0.61509  0.95830  0.64499  Biso   1.000  C
  H368     1.0000 0.33030  0.20490  0.36197  Biso   1.000  H
  H369     1.0000 0.16490  0.19599  0.30462  Biso   1.000  H
  N213     1.0000 0.21868  0.20789  0.22337  Biso   1.000  N
  H370     1.0000 0.16483  0.19599  0.30455  Biso   1.000  H
  C393     1.0000 0.37275  0.16432  0.12743  Biso   1.000  C
  C394     1.0000 0.33013  0.23139  0.22091  Biso   1.000  C
  C395     1.0000 0.37268  0.16432  0.12736  Biso   1.000  C
  C396     1.0000 0.56992  0.04451  0.72539  Biso   1.000  C
  O132     1.0000 0.97064  0.93579  0.73980  Biso   1.000  O
  N214     1.0000 0.81001  0.04170  0.69510  Biso   1.000  N
  H371     1.0000 0.53227  0.93978  0.58131  Biso   1.000  H
  H372     1.0000 0.53236  0.93978  0.58131  Biso   1.000  H
  C397     1.0000 0.65895  0.04800  0.64407  Biso   1.000  C
  C398     1.0000 0.65903  0.04800  0.64407  Biso   1.000  C
  C399     1.0000 0.08818  0.23632  0.14697  Biso   1.000  C
  N215     1.0000 0.28880  0.23133  0.07760  Biso   1.000  N
  O133     1.0000 0.42323  0.11669  0.10353  Biso   1.000  O
  O134     1.0000 0.42316  0.11669  0.10346  Biso   1.000  O
  H373     1.0000 0.40208  0.26711  0.27489  Biso   1.000  H
  C400     1.0000 0.25027  0.27827  0.12658  Biso   1.000  C
  N216     1.0000 0.61783  0.09450  0.69053  Biso   1.000  N
  O135     1.0000 0.52532  0.06869  0.76489  Biso   1.000  O
  N217     1.0000 0.61776  0.09450  0.69046  Biso   1.000  N
  C401     1.0000 0.89544  0.10828  0.69960  Biso   1.000  C
  H374     1.0000 0.60859  0.06807  0.57913  Biso   1.000  H
  H375     1.0000 0.60861  0.06807  0.57906  Biso   1.000  H
  O136     1.0000 0.97796  0.23077  0.13593  Biso   1.000  O
  O137     1.0000 0.97789  0.23077  0.13586  Biso   1.000  O
  N218     1.0000 0.10216  0.27191  0.08589  Biso   1.000  N
  N219     1.0000 0.10225  0.27191  0.08589  Biso   1.000  N
  C402     1.0000 0.25295  0.25857  0.99037  Biso   1.000  C
  C403     1.0000 0.25303  0.25857  0.99037  Biso   1.000  C
  H376     1.0000 0.28130  0.33712  0.13621  Biso   1.000  H
  H377     1.0000 0.28123  0.33712  0.13614  Biso   1.000  H
  C404     1.0000 0.62585  0.18433  0.70248  Biso   1.000  C
  C405     1.0000 0.62594  0.18433  0.70248  Biso   1.000  C
  H378     1.0000 0.83678  0.14063  0.64112  Biso   1.000  H
  H379     1.0000 0.97395  0.08390  0.70508  Biso   1.000  H
  N220     1.0000 0.95179  0.16351  0.77839  Biso   1.000  N
  H380     1.0000 0.83680  0.14063  0.64105  Biso   1.000  H
  H381     1.0000 0.97403  0.08390  0.70508  Biso   1.000  H
  C406     1.0000 0.99259  0.31779  0.00457  Biso   1.000  C
  N221     1.0000 0.11415  0.23258  0.90849  Biso   1.000  N
  N222     1.0000 0.11424  0.23258  0.90849  Biso   1.000  N
  H382     1.0000 0.32372  0.23669  0.98608  Biso   1.000  H
  H383     1.0000 0.25796  0.31960  0.99072  Biso   1.000  H
  H384     1.0000 0.25789  0.31960  0.99065  Biso   1.000  H
  H385     1.0000 0.55800  0.20141  0.71127  Biso   1.000  H
  H386     1.0000 0.59699  0.21057  0.64457  Biso   1.000  H
  N223     1.0000 0.76486  0.21500  0.78057  Biso   1.000  N
  C407     1.0000 0.87567  0.23482  0.77481  Biso   1.000  C
  C408     1.0000 0.87575  0.23482  0.77481  Biso   1.000  C
  C409     1.0000 0.09054  0.16538  0.85493  Biso   1.000  C
  C410     1.0000 0.09047  0.16538  0.85486  Biso   1.000  C
  N224     1.0000 0.93051  0.27540  0.91699  Biso   1.000  N
  H387     1.0000 0.91772  0.32982  0.00843  Biso   1.000  H
  H388     1.0000 0.91765  0.32982  0.00836  Biso   1.000  H
  H389     1.0000 0.03150  0.37128  0.00457  Biso   1.000  H
  C411     1.0000 0.98657  0.28151  0.86723  Biso   1.000  C
  C412     1.0000 0.98650  0.28151  0.86716  Biso   1.000  C
  C413     1.0000 0.79517  0.24317  0.86168  Biso   1.000  C
  H390     1.0000 0.83887  0.27042  0.71963  Biso   1.000  H
  H391     1.0000 0.83880  0.27042  0.71956  Biso   1.000  H
  O138     1.0000 0.18185  0.11619  0.87222  Biso   1.000  O
  O139     1.0000 0.18178  0.11619  0.87215  Biso   1.000  O
  H392     1.0000 0.99800  0.34011  0.85627  Biso   1.000  H
  O140     1.0000 0.71513  0.24049  0.88030  Biso   1.000  O
  C414     1.0000 0.20477  0.75683  0.13825  Biso   1.000  C
  N225     1.0000 0.06949  0.72460  0.08301  Biso   1.000  N
  N226     1.0000 0.23514  0.78500  0.21943  Biso   1.000  N
  O141     1.0000 0.28487  0.75951  0.11970  Biso   1.000  O
  N227     1.0000 0.23508  0.78500  0.21936  Biso   1.000  N
  O142     1.0000 0.28495  0.75951  0.11970  Biso   1.000  O
  C415     1.0000 0.00741  0.68221  0.99543  Biso   1.000  C
  C416     1.0000 0.00735  0.68221  0.99536  Biso   1.000  C
  C417     1.0000 0.01343  0.71849  0.13277  Biso   1.000  C
  C418     1.0000 0.20483  0.75683  0.13832  Biso   1.000  C
  C419     1.0000 0.01352  0.71849  0.13277  Biso   1.000  C
  C420     1.0000 0.12433  0.76518  0.22519  Biso   1.000  C
  C421     1.0000 0.37415  0.81567  0.29752  Biso   1.000  C
  C422     1.0000 0.37408  0.81567  0.29745  Biso   1.000  C
  H393     1.0000 0.96850  0.62872  0.99543  Biso   1.000  H
  N228     1.0000 0.89784  0.72809  0.91411  Biso   1.000  N
  H394     1.0000 0.96851  0.62872  0.99536  Biso   1.000  H
  H395     1.0000 0.08228  0.67018  0.99157  Biso   1.000  H
  N229     1.0000 0.88585  0.76742  0.09151  Biso   1.000  N
  H396     1.0000 0.00200  0.65989  0.14373  Biso   1.000  H
  H397     1.0000 0.00201  0.65989  0.14366  Biso   1.000  H
  N230     1.0000 0.04821  0.83649  0.22161  Biso   1.000  N
  H398     1.0000 0.16113  0.72958  0.28037  Biso   1.000  H
  H399     1.0000 0.16121  0.72958  0.28037  Biso   1.000  H
  N231     1.0000 0.38217  0.90550  0.30947  Biso   1.000  N
  H400     1.0000 0.44200  0.79859  0.28873  Biso   1.000  H
  H401     1.0000 0.40301  0.78943  0.35543  Biso   1.000  H
  H402     1.0000 0.44201  0.79859  0.28866  Biso   1.000  H
  H403     1.0000 0.40302  0.78943  0.35536  Biso   1.000  H
  C423     1.0000 0.74973  0.72173  0.87342  Biso   1.000  C
  C424     1.0000 0.91182  0.76368  0.85303  Biso   1.000  C
  C425     1.0000 0.74966  0.72173  0.87335  Biso   1.000  C
  C426     1.0000 0.91175  0.76368  0.85296  Biso   1.000  C
  C427     1.0000 0.74705  0.74143  0.00963  Biso   1.000  C
  C428     1.0000 0.90946  0.83462  0.14507  Biso   1.000  C
  C429     1.0000 0.74698  0.74143  0.00956  Biso   1.000  C
  C430     1.0000 0.10456  0.89172  0.30040  Biso   1.000  C
  C431     1.0000 0.10465  0.89172  0.30040  Biso   1.000  C
  C432     1.0000 0.34105  0.95200  0.35593  Biso   1.000  C
  C433     1.0000 0.43008  0.95549  0.27461  Biso   1.000  C
  C434     1.0000 0.34098  0.95200  0.35586  Biso   1.000  C
  C435     1.0000 0.43016  0.95549  0.27461  Biso   1.000  C
  C436     1.0000 0.66987  0.76861  0.77909  Biso   1.000  C
  H404     1.0000 0.71870  0.66288  0.86379  Biso   1.000  H
  N232     1.0000 0.71120  0.76867  0.92240  Biso   1.000  N
  C437     1.0000 0.66995  0.76861  0.77909  Biso   1.000  C
  N233     1.0000 0.78132  0.79211  0.77663  Biso   1.000  N
  N234     1.0000 0.78125  0.79211  0.77656  Biso   1.000  N
  O143     1.0000 0.02204  0.76923  0.86407  Biso   1.000  O
  O144     1.0000 0.02212  0.76923  0.86407  Biso   1.000  O
  H405     1.0000 0.67628  0.76331  0.01392  Biso   1.000  H
  H406     1.0000 0.74204  0.68040  0.00928  Biso   1.000  H
  H407     1.0000 0.67629  0.76331  0.01385  Biso   1.000  H
  H408     1.0000 0.74213  0.68040  0.00928  Biso   1.000  H
  O145     1.0000 0.81815  0.88381  0.12778  Biso   1.000  O
  O146     1.0000 0.81823  0.88381  0.12778  Biso   1.000  O
  H409     1.0000 0.16322  0.85937  0.35888  Biso   1.000  H
  N235     1.0000 0.18999  0.95830  0.30490  Biso   1.000  N
  H410     1.0000 0.02605  0.91610  0.29492  Biso   1.000  H
  H411     1.0000 0.02599  0.91610  0.29485  Biso   1.000  H
  H412     1.0000 0.39141  0.93193  0.42087  Biso   1.000  H
  C438     1.0000 0.38491  0.04170  0.35501  Biso   1.000  C
  O147     1.0000 0.47468  0.93131  0.23511  Biso   1.000  O
  O148     1.0000 0.47476  0.93131  0.23511  Biso   1.000  O
  N236     1.0000 0.41932  0.03659  0.29183  Biso   1.000  N
  N237     1.0000 0.41925  0.03659  0.29176  Biso   1.000  N
  H413     1.0000 0.59792  0.73289  0.72511  Biso   1.000  H
  N238     1.0000 0.60494  0.83867  0.79041  Biso   1.000  N
  H414     1.0000 0.59785  0.73289  0.72504  Biso   1.000  H
  C439     1.0000 0.62725  0.83568  0.87257  Biso   1.000  C
  C440     1.0000 0.62733  0.83568  0.87257  Biso   1.000  C
  C441     1.0000 0.75595  0.82172  0.69299  Biso   1.000  C
  C442     1.0000 0.75604  0.82172  0.69299  Biso   1.000  C
  C443     1.0000 0.14800  0.03921  0.29161  Biso   1.000  C
  C444     1.0000 0.14793  0.03921  0.29154  Biso   1.000  C
  N239     1.0000 0.25961  0.08920  0.31973  Biso   1.000  N
  N240     1.0000 0.25955  0.08920  0.31966  Biso   1.000  N
  H415     1.0000 0.46773  0.06022  0.41869  Biso   1.000  H
  C445     1.0000 0.49094  0.10323  0.28381  Biso   1.000  C
  C446     1.0000 0.49087  0.10323  0.28374  Biso   1.000  C
  C447     1.0000 0.50906  0.89677  0.71619  Biso   1.000  C
  C448     1.0000 0.50914  0.89677  0.71619  Biso   1.000  C
  O149     1.0000 0.57677  0.88331  0.89647  Biso   1.000  O
  H416     1.0000 0.66970  0.79510  0.63803  Biso   1.000  H
  H417     1.0000 0.83510  0.80401  0.69538  Biso   1.000  H
  N241     1.0000 0.74039  0.91080  0.68027  Biso   1.000  N
  H418     1.0000 0.66972  0.79510  0.63796  Biso   1.000  H
  O150     1.0000 0.02936  0.06421  0.26020  Biso   1.000  O
  O151     1.0000 0.02944  0.06421  0.26020  Biso   1.000  O
  C449     1.0000 0.24405  0.17828  0.30701  Biso   1.000  C
  H419     1.0000 0.55129  0.13340  0.34363  Biso   1.000  H
  H420     1.0000 0.55251  0.07892  0.27250  Biso   1.000  H
  N242     1.0000 0.39506  0.16133  0.20959  Biso   1.000  N
  H421     1.0000 0.55130  0.13340  0.34356  Biso   1.000  H
  N243     1.0000 0.39514  0.16133  0.20959  Biso   1.000  N
  H422     1.0000 0.44871  0.86660  0.65637  Biso   1.000  H
  H423     1.0000 0.44749  0.92108  0.72750  Biso   1.000  H
  N244     1.0000 0.58068  0.96341  0.70817  Biso   1.000  N
  C450     1.0000 0.85200  0.96079  0.70839  Biso   1.000  C
  C451     1.0000 0.61509  0.95830  0.64499  Biso   1.000  C
  H424     1.0000 0.33030  0.20490  0.36197  Biso   1.000  H
  H425     1.0000 0.16490  0.19599  0.30462  Biso   1.000  H
  N245     1.0000 0.21868  0.20789  0.22337  Biso   1.000  N
  H426     1.0000 0.16483  0.19599  0.30455  Biso   1.000  H
  C452     1.0000 0.37275  0.16432  0.12743  Biso   1.000  C
  C453     1.0000 0.33013  0.23139  0.22091  Biso   1.000  C
  C454     1.0000 0.37268  0.16432  0.12736  Biso   1.000  C
  C455     1.0000 0.56992  0.04451  0.72539  Biso   1.000  C
  O152     1.0000 0.97064  0.93579  0.73980  Biso   1.000  O
  N246     1.0000 0.81001  0.04170  0.69510  Biso   1.000  N
  H427     1.0000 0.53227  0.93978  0.58131  Biso   1.000  H
  H428     1.0000 0.53236  0.93978  0.58131  Biso   1.000  H
  C456     1.0000 0.65895  0.04800  0.64407  Biso   1.000  C
  C457     1.0000 0.65903  0.04800  0.64407  Biso   1.000  C
  C458     1.0000 0.08818  0.23632  0.14697  Biso   1.000  C
  N247     1.0000 0.28880  0.23133  0.07760  Biso   1.000  N
  O153     1.0000 0.42323  0.11669  0.10353  Biso   1.000  O
  O154     1.0000 0.42316  0.11669  0.10346  Biso   1.000  O
  H429     1.0000 0.40208  0.26711  0.27489  Biso   1.000  H
  C459     1.0000 0.25027  0.27827  0.12658  Biso   1.000  C
  N248     1.0000 0.61783  0.09450  0.69053  Biso   1.000  N
  O155     1.0000 0.52532  0.06869  0.76489  Biso   1.000  O
  N249     1.0000 0.61776  0.09450  0.69046  Biso   1.000  N
  C460     1.0000 0.89544  0.10828  0.69960  Biso   1.000  C
  H430     1.0000 0.60859  0.06807  0.57913  Biso   1.000  H
  H431     1.0000 0.60861  0.06807  0.57906  Biso   1.000  H
  O156     1.0000 0.97796  0.23077  0.13593  Biso   1.000  O
  O157     1.0000 0.97789  0.23077  0.13586  Biso   1.000  O
  N250     1.0000 0.10216  0.27191  0.08589  Biso   1.000  N
  N251     1.0000 0.10225  0.27191  0.08589  Biso   1.000  N
  C461     1.0000 0.25295  0.25857  0.99037  Biso   1.000  C
  C462     1.0000 0.25303  0.25857  0.99037  Biso   1.000  C
  H432     1.0000 0.28130  0.33712  0.13621  Biso   1.000  H
  H433     1.0000 0.28123  0.33712  0.13614  Biso   1.000  H
  C463     1.0000 0.62585  0.18433  0.70248  Biso   1.000  C
  C464     1.0000 0.62594  0.18433  0.70248  Biso   1.000  C
  H434     1.0000 0.83678  0.14063  0.64112  Biso   1.000  H
  H435     1.0000 0.97395  0.08390  0.70508  Biso   1.000  H
  N252     1.0000 0.95179  0.16351  0.77839  Biso   1.000  N
  H436     1.0000 0.83680  0.14063  0.64105  Biso   1.000  H
  H437     1.0000 0.97403  0.08390  0.70508  Biso   1.000  H
  C465     1.0000 0.99259  0.31779  0.00457  Biso   1.000  C
  N253     1.0000 0.11415  0.23258  0.90849  Biso   1.000  N
  N254     1.0000 0.11424  0.23258  0.90849  Biso   1.000  N
  H438     1.0000 0.32372  0.23669  0.98608  Biso   1.000  H
  H439     1.0000 0.25796  0.31960  0.99072  Biso   1.000  H
  H440     1.0000 0.25789  0.31960  0.99065  Biso   1.000  H
  H441     1.0000 0.55800  0.20141  0.71127  Biso   1.000  H
  H442     1.0000 0.59699  0.21057  0.64457  Biso   1.000  H
  N255     1.0000 0.76486  0.21500  0.78057  Biso   1.000  N
  C466     1.0000 0.87567  0.23482  0.77481  Biso   1.000  C
  C467     1.0000 0.87575  0.23482  0.77481  Biso   1.000  C
  C468     1.0000 0.09054  0.16538  0.85493  Biso   1.000  C
  C469     1.0000 0.09047  0.16538  0.85486  Biso   1.000  C
  N256     1.0000 0.93051  0.27540  0.91699  Biso   1.000  N
  H443     1.0000 0.91772  0.32982  0.00843  Biso   1.000  H
  H444     1.0000 0.91765  0.32982  0.00836  Biso   1.000  H
  H445     1.0000 0.03150  0.37128  0.00457  Biso   1.000  H
  C470     1.0000 0.98657  0.28151  0.86723  Biso   1.000  C
  C471     1.0000 0.98650  0.28151  0.86716  Biso   1.000  C
  C472     1.0000 0.79517  0.24317  0.86168  Biso   1.000  C
  H446     1.0000 0.83887  0.27042  0.71963  Biso   1.000  H
  H447     1.0000 0.83880  0.27042  0.71956  Biso   1.000  H
  O158     1.0000 0.18185  0.11619  0.87222  Biso   1.000  O
  O159     1.0000 0.18178  0.11619  0.87215  Biso   1.000  O
  H448     1.0000 0.99800  0.34011  0.85627  Biso   1.000  H
  O160     1.0000 0.71513  0.24049  0.88030  Biso   1.000  O
  C473     1.0000 0.66987  0.73139  0.27910  Biso   1.000  C
  N257     1.0000 0.60494  0.66133  0.29042  Biso   1.000  N
  N258     1.0000 0.78125  0.70789  0.27657  Biso   1.000  N
  H449     1.0000 0.59792  0.76711  0.22512  Biso   1.000  H
  C474     1.0000 0.74973  0.77827  0.37343  Biso   1.000  C
  C475     1.0000 0.50906  0.60323  0.21620  Biso   1.000  C
  C476     1.0000 0.62725  0.66432  0.37258  Biso   1.000  C
  C477     1.0000 0.75604  0.67828  0.19300  Biso   1.000  C
  C478     1.0000 0.91175  0.73632  0.35297  Biso   1.000  C
  N259     1.0000 0.71120  0.73133  0.42242  Biso   1.000  N
  H450     1.0000 0.71870  0.83712  0.36380  Biso   1.000  H
  N260     1.0000 0.89784  0.77191  0.41412  Biso   1.000  N
  N261     1.0000 0.58068  0.53659  0.20819  Biso   1.000  N
  H451     1.0000 0.44871  0.63340  0.15639  Biso   1.000  H
  H452     1.0000 0.44749  0.57892  0.22751  Biso   1.000  H
  O161     1.0000 0.57677  0.61669  0.39648  Biso   1.000  O
  N262     1.0000 0.74039  0.58920  0.18028  Biso   1.000  N
  H453     1.0000 0.66963  0.70490  0.13797  Biso   1.000  H
  H454     1.0000 0.83510  0.69599  0.19539  Biso   1.000  H
  O162     1.0000 0.02204  0.73077  0.36408  Biso   1.000  O
  C479     1.0000 0.74698  0.75857  0.50957  Biso   1.000  C
  C480     1.0000 0.00735  0.81779  0.49537  Biso   1.000  C
  C481     1.0000 0.56992  0.45549  0.22541  Biso   1.000  C
  C482     1.0000 0.61509  0.54170  0.14500  Biso   1.000  C
  C483     1.0000 0.85200  0.53921  0.20840  Biso   1.000  C
  H455     1.0000 0.67636  0.73669  0.51393  Biso   1.000  H
  H456     1.0000 0.74213  0.81960  0.50929  Biso   1.000  H
  N263     1.0000 0.88585  0.73258  0.59152  Biso   1.000  N
  H457     1.0000 0.96851  0.87128  0.49537  Biso   1.000  H
  H458     1.0000 0.08228  0.82982  0.49158  Biso   1.000  H
  N264     1.0000 0.06949  0.77540  0.58302  Biso   1.000  N
  O163     1.0000 0.52532  0.43131  0.26491  Biso   1.000  O
  N265     1.0000 0.61776  0.40550  0.19047  Biso   1.000  N
  C484     1.0000 0.65895  0.45200  0.14409  Biso   1.000  C
  H459     1.0000 0.53236  0.56022  0.08132  Biso   1.000  H
  N266     1.0000 0.81000  0.45830  0.19511  Biso   1.000  N
  O164     1.0000 0.97064  0.56421  0.23981  Biso   1.000  O
  C485     1.0000 0.90946  0.66538  0.64508  Biso   1.000  C
  C486     1.0000 0.01351  0.78151  0.63278  Biso   1.000  C
  C487     1.0000 0.20483  0.74317  0.63833  Biso   1.000  C
  C488     1.0000 0.62585  0.31567  0.20249  Biso   1.000  C
  H460     1.0000 0.60861  0.43193  0.07907  Biso   1.000  H
  C489     1.0000 0.89544  0.39172  0.19961  Biso   1.000  C
  O165     1.0000 0.81823  0.61619  0.62779  Biso   1.000  O
  N267     1.0000 0.04821  0.66351  0.72162  Biso   1.000  N
  H461     1.0000 0.00201  0.84011  0.64367  Biso   1.000  H
  C490     1.0000 0.12433  0.73482  0.72521  Biso   1.000  C
  N268     1.0000 0.23507  0.71500  0.71937  Biso   1.000  N
  O166     1.0000 0.28487  0.74049  0.61971  Biso   1.000  O
  H462     1.0000 0.55800  0.29859  0.21128  Biso   1.000  H
  H463     1.0000 0.59699  0.28943  0.14458  Biso   1.000  H
  N269     1.0000 0.76486  0.28500  0.28058  Biso   1.000  N
  N270     1.0000 0.95179  0.33649  0.27840  Biso   1.000  N
  H464     1.0000 0.83686  0.35937  0.14113  Biso   1.000  H
  H465     1.0000 0.97403  0.41610  0.20509  Biso   1.000  H
  C491     1.0000 0.10465  0.60828  0.80041  Biso   1.000  C
  H466     1.0000 0.16121  0.77042  0.78038  Biso   1.000  H
  C492     1.0000 0.37415  0.68433  0.79753  Biso   1.000  C
  C493     1.0000 0.87575  0.26518  0.27482  Biso   1.000  C
  C494     1.0000 0.79517  0.25683  0.36169  Biso   1.000  C
  C495     1.0000 0.09047  0.33462  0.35487  Biso   1.000  C
  H467     1.0000 0.16322  0.64063  0.85889  Biso   1.000  H
  H468     1.0000 0.02605  0.58390  0.79493  Biso   1.000  H
  N271     1.0000 0.18999  0.54170  0.80491  Biso   1.000  N
  H469     1.0000 0.44201  0.70141  0.78867  Biso   1.000  H
  H470     1.0000 0.40294  0.71057  0.85538  Biso   1.000  H
  N272     1.0000 0.38217  0.59450  0.80948  Biso   1.000  N
  C496     1.0000 0.98650  0.21849  0.36717  Biso   1.000  C
  H471     1.0000 0.83880  0.22958  0.21957  Biso   1.000  H
  N273     1.0000 0.93051  0.22460  0.41700  Biso   1.000  N
  O167     1.0000 0.71513  0.25951  0.38032  Biso   1.000  O
  N274     1.0000 0.11423  0.26742  0.40850  Biso   1.000  N
  O168     1.0000 0.18185  0.38381  0.37223  Biso   1.000  O
  C497     1.0000 0.14800  0.46079  0.79163  Biso   1.000  C
  C498     1.0000 0.34098  0.54800  0.85587  Biso   1.000  C
  C499     1.0000 0.43008  0.54451  0.77462  Biso   1.000  C
  H472     1.0000 0.99800  0.15989  0.35628  Biso   1.000  H
  C500     1.0000 0.99258  0.18221  0.50458  Biso   1.000  C
  C501     1.0000 0.25295  0.24143  0.49038  Biso   1.000  C
  N275     1.0000 0.25954  0.41080  0.81967  Biso   1.000  N
  O169     1.0000 0.02944  0.43579  0.76021  Biso   1.000  O
  C502     1.0000 0.38491  0.45830  0.85502  Biso   1.000  C
  H473     1.0000 0.39141  0.56807  0.92088  Biso   1.000  H
  N276     1.0000 0.41925  0.46341  0.79177  Biso   1.000  N
  O170     1.0000 0.47468  0.56869  0.73512  Biso   1.000  O
  H474     1.0000 0.91765  0.17018  0.50838  Biso   1.000  H
  H475     1.0000 0.03150  0.12872  0.50458  Biso   1.000  H
  N277     1.0000 0.10216  0.22809  0.58590  Biso   1.000  N
  H476     1.0000 0.32372  0.26331  0.48609  Biso   1.000  H
  H477     1.0000 0.25795  0.18040  0.49073  Biso   1.000  H
  N278     1.0000 0.28880  0.26867  0.57761  Biso   1.000  N
  C503     1.0000 0.24405  0.32172  0.80702  Biso   1.000  C
  H478     1.0000 0.46772  0.43978  0.91870  Biso   1.000  H
  C504     1.0000 0.49094  0.39677  0.78382  Biso   1.000  C
  C505     1.0000 0.25027  0.22173  0.62660  Biso   1.000  C
  C506     1.0000 0.08818  0.26368  0.64698  Biso   1.000  C
  C507     1.0000 0.37268  0.33568  0.62737  Biso   1.000  C
  N279     1.0000 0.21868  0.29211  0.72338  Biso   1.000  N
  H479     1.0000 0.33030  0.29510  0.86198  Biso   1.000  H
  H480     1.0000 0.16490  0.30401  0.80463  Biso   1.000  H
  N280     1.0000 0.39514  0.33867  0.70960  Biso   1.000  N
  H481     1.0000 0.55130  0.36660  0.84357  Biso   1.000  H
  H482     1.0000 0.55251  0.42108  0.77251  Biso   1.000  H
  C508     1.0000 0.33013  0.26861  0.72092  Biso   1.000  C
  H483     1.0000 0.28130  0.16288  0.63622  Biso   1.000  H
  O171     1.0000 0.97789  0.26923  0.63587  Biso   1.000  O
  O172     1.0000 0.42316  0.38331  0.60347  Biso   1.000  O
  H484     1.0000 0.40208  0.23289  0.77490  Biso   1.000  H
  C509     1.0000 0.66987  0.73139  0.27910  Biso   1.000  C
  N281     1.0000 0.60494  0.66133  0.29042  Biso   1.000  N
  N282     1.0000 0.78125  0.70789  0.27657  Biso   1.000  N
  H485     1.0000 0.59792  0.76711  0.22512  Biso   1.000  H
  C510     1.0000 0.74973  0.77827  0.37343  Biso   1.000  C
  C511     1.0000 0.50906  0.60323  0.21620  Biso   1.000  C
  C512     1.0000 0.62725  0.66432  0.37258  Biso   1.000  C
  C513     1.0000 0.75604  0.67828  0.19300  Biso   1.000  C
  C514     1.0000 0.91175  0.73632  0.35297  Biso   1.000  C
  N283     1.0000 0.71120  0.73133  0.42242  Biso   1.000  N
  H486     1.0000 0.71870  0.83712  0.36380  Biso   1.000  H
  N284     1.0000 0.89784  0.77191  0.41412  Biso   1.000  N
  N285     1.0000 0.58068  0.53659  0.20819  Biso   1.000  N
  H487     1.0000 0.44871  0.63340  0.15639  Biso   1.000  H
  H488     1.0000 0.44749  0.57892  0.22751  Biso   1.000  H
  O173     1.0000 0.57677  0.61669  0.39648  Biso   1.000  O
  N286     1.0000 0.74039  0.58920  0.18028  Biso   1.000  N
  H489     1.0000 0.66963  0.70490  0.13797  Biso   1.000  H
  H490     1.0000 0.83510  0.69599  0.19539  Biso   1.000  H
  O174     1.0000 0.02204  0.73077  0.36408  Biso   1.000  O
  C515     1.0000 0.74698  0.75857  0.50957  Biso   1.000  C
  C516     1.0000 0.00735  0.81779  0.49537  Biso   1.000  C
  C517     1.0000 0.56992  0.45549  0.22541  Biso   1.000  C
  C518     1.0000 0.61509  0.54170  0.14500  Biso   1.000  C
  C519     1.0000 0.85200  0.53921  0.20840  Biso   1.000  C
  H491     1.0000 0.67636  0.73669  0.51393  Biso   1.000  H
  H492     1.0000 0.74213  0.81960  0.50929  Biso   1.000  H
  N287     1.0000 0.88585  0.73258  0.59152  Biso   1.000  N
  H493     1.0000 0.96851  0.87128  0.49537  Biso   1.000  H
  H494     1.0000 0.08228  0.82982  0.49158  Biso   1.000  H
  N288     1.0000 0.06949  0.77540  0.58302  Biso   1.000  N
  O175     1.0000 0.52532  0.43131  0.26491  Biso   1.000  O
  N289     1.0000 0.61776  0.40550  0.19047  Biso   1.000  N
  C520     1.0000 0.65895  0.45200  0.14409  Biso   1.000  C
  H495     1.0000 0.53236  0.56022  0.08132  Biso   1.000  H
  N290     1.0000 0.81000  0.45830  0.19511  Biso   1.000  N
  O176     1.0000 0.97064  0.56421  0.23981  Biso   1.000  O
  C521     1.0000 0.90946  0.66538  0.64508  Biso   1.000  C
  C522     1.0000 0.01351  0.78151  0.63278  Biso   1.000  C
  C523     1.0000 0.20483  0.74317  0.63833  Biso   1.000  C
  C524     1.0000 0.62585  0.31567  0.20249  Biso   1.000  C
  H496     1.0000 0.60861  0.43193  0.07907  Biso   1.000  H
  C525     1.0000 0.89544  0.39172  0.19961  Biso   1.000  C
  O177     1.0000 0.81823  0.61619  0.62779  Biso   1.000  O
  N291     1.0000 0.04821  0.66351  0.72162  Biso   1.000  N
  H497     1.0000 0.00201  0.84011  0.64367  Biso   1.000  H
  C526     1.0000 0.12433  0.73482  0.72521  Biso   1.000  C
  N292     1.0000 0.23507  0.71500  0.71937  Biso   1.000  N
  O178     1.0000 0.28487  0.74049  0.61971  Biso   1.000  O
  H498     1.0000 0.55800  0.29859  0.21128  Biso   1.000  H
  H499     1.0000 0.59699  0.28943  0.14458  Biso   1.000  H
  N293     1.0000 0.76486  0.28500  0.28058  Biso   1.000  N
  N294     1.0000 0.95179  0.33649  0.27840  Biso   1.000  N
  H500     1.0000 0.83686  0.35937  0.14113  Biso   1.000  H
  H501     1.0000 0.97403  0.41610  0.20509  Biso   1.000  H
  C527     1.0000 0.10465  0.60828  0.80041  Biso   1.000  C
  H502     1.0000 0.16121  0.77042  0.78038  Biso   1.000  H
  C528     1.0000 0.37415  0.68433  0.79753  Biso   1.000  C
  C529     1.0000 0.87575  0.26518  0.27482  Biso   1.000  C
  C530     1.0000 0.79517  0.25683  0.36169  Biso   1.000  C
  C531     1.0000 0.09047  0.33462  0.35487  Biso   1.000  C
  H503     1.0000 0.16322  0.64063  0.85889  Biso   1.000  H
  H504     1.0000 0.02605  0.58390  0.79493  Biso   1.000  H
  N295     1.0000 0.18999  0.54170  0.80491  Biso   1.000  N
  H505     1.0000 0.44201  0.70141  0.78867  Biso   1.000  H
  H506     1.0000 0.40294  0.71057  0.85538  Biso   1.000  H
  N296     1.0000 0.38217  0.59450  0.80948  Biso   1.000  N
  C532     1.0000 0.98650  0.21849  0.36717  Biso   1.000  C
  H507     1.0000 0.83880  0.22958  0.21957  Biso   1.000  H
  N297     1.0000 0.93051  0.22460  0.41700  Biso   1.000  N
  O179     1.0000 0.71513  0.25951  0.38032  Biso   1.000  O
  N298     1.0000 0.11423  0.26742  0.40850  Biso   1.000  N
  O180     1.0000 0.18185  0.38381  0.37223  Biso   1.000  O
  C533     1.0000 0.14800  0.46079  0.79163  Biso   1.000  C
  C534     1.0000 0.34098  0.54800  0.85587  Biso   1.000  C
  C535     1.0000 0.43008  0.54451  0.77462  Biso   1.000  C
  H508     1.0000 0.99800  0.15989  0.35628  Biso   1.000  H
  C536     1.0000 0.99258  0.18221  0.50458  Biso   1.000  C
  C537     1.0000 0.25295  0.24143  0.49038  Biso   1.000  C
  N299     1.0000 0.25954  0.41080  0.81967  Biso   1.000  N
  O181     1.0000 0.02944  0.43579  0.76021  Biso   1.000  O
  C538     1.0000 0.38491  0.45830  0.85502  Biso   1.000  C
  H509     1.0000 0.39141  0.56807  0.92088  Biso   1.000  H
  N300     1.0000 0.41925  0.46341  0.79177  Biso   1.000  N
  O182     1.0000 0.47468  0.56869  0.73512  Biso   1.000  O
  H510     1.0000 0.91765  0.17018  0.50838  Biso   1.000  H
  H511     1.0000 0.03150  0.12872  0.50458  Biso   1.000  H
  N301     1.0000 0.10216  0.22809  0.58590  Biso   1.000  N
  H512     1.0000 0.32372  0.26331  0.48609  Biso   1.000  H
  H513     1.0000 0.25795  0.18040  0.49073  Biso   1.000  H
  N302     1.0000 0.28880  0.26867  0.57761  Biso   1.000  N
  C539     1.0000 0.24405  0.32172  0.80702  Biso   1.000  C
  H514     1.0000 0.46772  0.43978  0.91870  Biso   1.000  H
  C540     1.0000 0.49094  0.39677  0.78382  Biso   1.000  C
  C541     1.0000 0.25027  0.22173  0.62660  Biso   1.000  C
  C542     1.0000 0.08818  0.26368  0.64698  Biso   1.000  C
  C543     1.0000 0.37268  0.33568  0.62737  Biso   1.000  C
  N303     1.0000 0.21868  0.29211  0.72338  Biso   1.000  N
  H515     1.0000 0.33030  0.29510  0.86198  Biso   1.000  H
  H516     1.0000 0.16490  0.30401  0.80463  Biso   1.000  H
  N304     1.0000 0.39514  0.33867  0.70960  Biso   1.000  N
  H517     1.0000 0.55130  0.36660  0.84357  Biso   1.000  H
  H518     1.0000 0.55251  0.42108  0.77251  Biso   1.000  H
  C544     1.0000 0.33013  0.26861  0.72092  Biso   1.000  C
  H519     1.0000 0.28130  0.16288  0.63622  Biso   1.000  H
  O183     1.0000 0.97789  0.26923  0.63587  Biso   1.000  O
  O184     1.0000 0.42316  0.38331  0.60347  Biso   1.000  O
  H520     1.0000 0.40208  0.23289  0.77490  Biso   1.000  H
