data_image0
_cell_length_a       12.393
_cell_length_b       22.795
_cell_length_c       17.545
_cell_angle_alpha    90
_cell_angle_beta     102.41
_cell_angle_gamma    90

_symmetry_space_group_name_H-M    "P 1"
_symmetry_int_tables_number       1

loop_
  _symmetry_equiv_pos_as_xyz
  'x, y, z'

loop_
  _atom_site_label
  _atom_site_occupancy
  _atom_site_fract_x
  _atom_site_fract_y
  _atom_site_fract_z
  _atom_site_thermal_displace_type
  _atom_site_B_iso_or_equiv
  _atom_site_type_symbol
  C1       1.0000 0.97265  0.14389  0.21617  Biso   1.000  C
  C2       1.0000 0.03101  0.18008  0.17619  Biso   1.000  C
  C3       1.0000 0.03093  0.18008  0.17619  Biso   1.000  C
  H1       1.0000 0.89639  0.14788  0.20899  Biso   1.000  H
  C4       1.0000 0.02746  0.10182  0.26688  Biso   1.000  C
  C5       1.0000 0.02754  0.10182  0.26688  Biso   1.000  C
  O1       1.0000 0.98183  0.22329  0.12460  Biso   1.000  O
  C6       1.0000 0.97259  0.14389  0.21622  Biso   1.000  C
  C7       1.0000 0.97257  0.14389  0.21617  Biso   1.000  C
  C8       1.0000 0.14522  0.17328  0.18529  Biso   1.000  C
  C9       1.0000 0.14513  0.17328  0.18529  Biso   1.000  C
  C10      1.0000 0.97327  0.05699  0.31129  Biso   1.000  C
  C11      1.0000 0.97335  0.05699  0.31129  Biso   1.000  C
  C12      1.0000 0.14178  0.09739  0.27902  Biso   1.000  C
  C13      1.0000 0.14176  0.09739  0.27896  Biso   1.000  C
  C14      1.0000 0.14186  0.09739  0.27902  Biso   1.000  C
  C15      1.0000 0.89286  0.25291  0.14619  Biso   1.000  C
  C16      1.0000 0.89294  0.25291  0.14619  Biso   1.000  C
  O2       1.0000 0.19471  0.20978  0.14030  Biso   1.000  O
  C17      1.0000 0.20008  0.13218  0.23752  Biso   1.000  C
  O3       1.0000 0.19463  0.20978  0.14030  Biso   1.000  O
  C18      1.0000 0.20006  0.13218  0.23747  Biso   1.000  C
  C19      1.0000 0.20016  0.13218  0.23752  Biso   1.000  C
  C20      1.0000 0.84875  0.06089  0.29559  Biso   1.000  C
  C21      1.0000 0.84883  0.06089  0.29559  Biso   1.000  C
  C22      1.0000 0.01759  0.99741  0.28987  Biso   1.000  C
  C23      1.0000 0.01751  0.99741  0.28987  Biso   1.000  C
  C24      1.0000 0.02985  0.06580  0.39702  Biso   1.000  C
  C25      1.0000 0.02984  0.06580  0.39696  Biso   1.000  C
  C26      1.0000 0.02993  0.06580  0.39702  Biso   1.000  C
  C27      1.0000 0.19125  0.04962  0.33820  Biso   1.000  C
  C28      1.0000 0.19133  0.04962  0.33820  Biso   1.000  C
  C29      1.0000 0.84289  0.29770  0.09279  Biso   1.000  C
  C30      1.0000 0.84297  0.29770  0.09279  Biso   1.000  C
  H2       1.0000 0.91908  0.27050  0.19708  Biso   1.000  H
  H3       1.0000 0.83666  0.22430  0.15109  Biso   1.000  H
  H4       1.0000 0.91916  0.27050  0.19708  Biso   1.000  H
  H5       1.0000 0.83674  0.22430  0.15109  Biso   1.000  H
  C31      1.0000 0.31290  0.20719  0.15191  Biso   1.000  C
  H6       1.0000 0.27630  0.12801  0.24459  Biso   1.000  H
  H7       1.0000 0.27622  0.12801  0.24459  Biso   1.000  H
  H8       1.0000 0.82748  0.09919  0.30977  Biso   1.000  H
  H9       1.0000 0.81885  0.05431  0.24108  Biso   1.000  H
  H10      1.0000 0.82085  0.03181  0.32588  Biso   1.000  H
  H11      1.0000 0.81893  0.05431  0.24108  Biso   1.000  H
  H12      1.0000 0.82093  0.03181  0.32588  Biso   1.000  H
  C32      1.0000 0.95377  0.94942  0.25912  Biso   1.000  C
  C33      1.0000 0.95385  0.94942  0.25912  Biso   1.000  C
  C34      1.0000 0.13130  0.99390  0.30318  Biso   1.000  C
  C35      1.0000 0.13121  0.99390  0.30318  Biso   1.000  C
  C36      1.0000 0.97640  0.07611  0.45789  Biso   1.000  C
  C37      1.0000 0.14354  0.06199  0.41080  Biso   1.000  C
  C38      1.0000 0.14362  0.06199  0.41080  Biso   1.000  C
  C39      1.0000 0.31670  0.04619  0.35349  Biso   1.000  C
  C40      1.0000 0.31662  0.04619  0.35349  Biso   1.000  C
  O4       1.0000 0.80829  0.28361  0.01833  Biso   1.000  O
  H13      1.0000 0.78017  0.31309  0.11129  Biso   1.000  H
  H14      1.0000 0.89577  0.32941  0.09583  Biso   1.000  H
  O5       1.0000 0.80835  0.28361  0.01827  Biso   1.000  O
  H15      1.0000 0.78025  0.31309  0.11129  Biso   1.000  H
  H16      1.0000 0.89584  0.32941  0.09577  Biso   1.000  H
  O6       1.0000 0.80837  0.28361  0.01833  Biso   1.000  O
  H17      1.0000 0.89585  0.32941  0.09583  Biso   1.000  H
  O7       1.0000 0.80827  0.28361  0.01827  Biso   1.000  O
  H18      1.0000 0.89576  0.32941  0.09577  Biso   1.000  H
  C41      1.0000 0.34860  0.25199  0.10032  Biso   1.000  C
  H19      1.0000 0.33561  0.16841  0.13878  Biso   1.000  H
  H20      1.0000 0.34671  0.21509  0.20601  Biso   1.000  H
  C42      1.0000 0.34859  0.25199  0.10026  Biso   1.000  C
  H21      1.0000 0.33553  0.16841  0.13878  Biso   1.000  H
  H22      1.0000 0.34663  0.21509  0.20601  Biso   1.000  H
  H23      1.0000 0.87715  0.95109  0.25077  Biso   1.000  H
  H24      1.0000 0.87723  0.95109  0.25077  Biso   1.000  H
  C43      1.0000 0.00471  0.89919  0.24091  Biso   1.000  C
  C44      1.0000 0.00463  0.89919  0.24091  Biso   1.000  C
  C45      1.0000 0.18240  0.94411  0.28392  Biso   1.000  C
  C46      1.0000 0.18231  0.94411  0.28386  Biso   1.000  C
  C47      1.0000 0.18239  0.94411  0.28386  Biso   1.000  C
  H25      1.0000 0.89987  0.07971  0.44797  Biso   1.000  H
  C48      1.0000 0.03769  0.08089  0.53259  Biso   1.000  C
  C49      1.0000 0.03761  0.08089  0.53259  Biso   1.000  C
  C50      1.0000 0.20567  0.06769  0.48742  Biso   1.000  C
  C51      1.0000 0.20565  0.06769  0.48736  Biso   1.000  C
  C52      1.0000 0.20575  0.06769  0.48742  Biso   1.000  C
  H26      1.0000 0.34221  0.01461  0.38909  Biso   1.000  H
  H27      1.0000 0.33921  0.03922  0.30522  Biso   1.000  H
  H28      1.0000 0.34777  0.08252  0.37578  Biso   1.000  H
  H29      1.0000 0.34213  0.01461  0.38909  Biso   1.000  H
  H30      1.0000 0.33911  0.03922  0.30516  Biso   1.000  H
  H31      1.0000 0.34785  0.08252  0.37578  Biso   1.000  H
  H32      1.0000 0.33919  0.03922  0.30516  Biso   1.000  H
  C53      1.0000 0.70121  0.26822  0.99341  Biso   1.000  C
  C54      1.0000 0.70113  0.26822  0.99341  Biso   1.000  C
  O8       1.0000 0.31523  0.23259  0.02218  Biso   1.000  O
  H33      1.0000 0.31479  0.28958  0.10668  Biso   1.000  H
  H34      1.0000 0.42821  0.25668  0.11398  Biso   1.000  H
  O9       1.0000 0.31515  0.23259  0.02218  Biso   1.000  O
  H35      1.0000 0.42812  0.25668  0.11398  Biso   1.000  H
  O10      1.0000 0.94372  0.85058  0.20940  Biso   1.000  O
  O11      1.0000 0.94364  0.85058  0.20940  Biso   1.000  O
  C55      1.0000 0.11858  0.89581  0.25211  Biso   1.000  C
  H36      1.0000 0.25901  0.94262  0.29197  Biso   1.000  H
  H37      1.0000 0.25893  0.94262  0.29197  Biso   1.000  H
  H38      1.0000 0.00237  0.08730  0.57350  Biso   1.000  H
  C56      1.0000 0.15009  0.07651  0.54742  Biso   1.000  C
  H39      1.0000 0.00229  0.08730  0.57350  Biso   1.000  H
  C57      1.0000 0.14999  0.07651  0.54736  Biso   1.000  C
  C58      1.0000 0.15007  0.07651  0.54736  Biso   1.000  C
  H40      1.0000 0.28235  0.06558  0.49787  Biso   1.000  H
  H41      1.0000 0.28244  0.06558  0.49787  Biso   1.000  H
  H42      1.0000 0.65459  0.29721  0.01097  Biso   1.000  H
  H43      1.0000 0.68840  0.23071  0.01599  Biso   1.000  H
  C59      1.0000 0.67106  0.26401  0.90808  Biso   1.000  C
  C60      1.0000 0.67114  0.26401  0.90808  Biso   1.000  C
  C61      1.0000 0.34990  0.27028  0.96930  Biso   1.000  C
  C62      1.0000 0.87680  0.82790  0.24511  Biso   1.000  C
  O12      1.0000 0.16127  0.84466  0.22877  Biso   1.000  O
  O13      1.0000 0.16135  0.84466  0.22877  Biso   1.000  O
  H44      1.0000 0.19019  0.07940  0.59860  Biso   1.000  H
  H45      1.0000 0.19011  0.07940  0.59860  Biso   1.000  H
  O14      1.0000 0.72433  0.21242  0.88480  Biso   1.000  O
  H46      1.0000 0.59157  0.26089  0.89081  Biso   1.000  H
  H47      1.0000 0.69552  0.29879  0.88480  Biso   1.000  H
  O15      1.0000 0.72425  0.21242  0.88480  Biso   1.000  O
  H48      1.0000 0.69544  0.29879  0.88480  Biso   1.000  H
  H49      1.0000 0.59165  0.26089  0.89081  Biso   1.000  H
  C63      1.0000 0.33403  0.24308  0.89168  Biso   1.000  C
  H50      1.0000 0.42751  0.27958  0.98809  Biso   1.000  H
  H51      1.0000 0.30832  0.30660  0.96551  Biso   1.000  H
  C64      1.0000 0.33395  0.24308  0.89168  Biso   1.000  C
  H52      1.0000 0.42743  0.27958  0.98809  Biso   1.000  H
  H53      1.0000 0.30823  0.30660  0.96551  Biso   1.000  H
  H54      1.0000 0.92140  0.81141  0.29250  Biso   1.000  H
  H55      1.0000 0.83629  0.86041  0.26128  Biso   1.000  H
  C65      1.0000 0.79705  0.78500  0.21558  Biso   1.000  C
  C66      1.0000 0.79713  0.78500  0.21558  Biso   1.000  C
  C67      1.0000 0.27647  0.84510  0.22790  Biso   1.000  C
  C68      1.0000 0.27655  0.84510  0.22790  Biso   1.000  C
  C69      1.0000 0.69093  0.20930  0.80683  Biso   1.000  C
  C70      1.0000 0.69083  0.20930  0.80677  Biso   1.000  C
  C71      1.0000 0.69091  0.20930  0.80677  Biso   1.000  C
  O16      1.0000 0.22473  0.22742  0.86210  Biso   1.000  O
  H56      1.0000 0.35739  0.27041  0.85603  Biso   1.000  H
  H57      1.0000 0.38019  0.20851  0.89489  Biso   1.000  H
  O17      1.0000 0.22465  0.22742  0.86210  Biso   1.000  O
  H58      1.0000 0.35737  0.27041  0.85597  Biso   1.000  H
  O18      1.0000 0.77527  0.77258  0.13790  Biso   1.000  O
  H59      1.0000 0.72820  0.79689  0.22877  Biso   1.000  H
  H60      1.0000 0.81974  0.74880  0.24348  Biso   1.000  H
  O19      1.0000 0.77535  0.77258  0.13790  Biso   1.000  O
  H61      1.0000 0.81982  0.74880  0.24348  Biso   1.000  H
  H62      1.0000 0.29257  0.87861  0.19807  Biso   1.000  H
  H63      1.0000 0.31930  0.84909  0.28089  Biso   1.000  H
  C72      1.0000 0.30907  0.79070  0.19317  Biso   1.000  C
  H64      1.0000 0.31922  0.84909  0.28089  Biso   1.000  H
  H65      1.0000 0.29265  0.87861  0.19807  Biso   1.000  H
  C73      1.0000 0.30915  0.79070  0.19317  Biso   1.000  C
  C74      1.0000 0.72353  0.15490  0.77210  Biso   1.000  C
  H66      1.0000 0.72119  0.24251  0.78378  Biso   1.000  H
  H67      1.0000 0.61110  0.21259  0.79323  Biso   1.000  H
  C75      1.0000 0.72345  0.15490  0.77210  Biso   1.000  C
  H68      1.0000 0.61108  0.21259  0.79317  Biso   1.000  H
  H69      1.0000 0.72127  0.24251  0.78378  Biso   1.000  H
  H70      1.0000 0.61118  0.21259  0.79323  Biso   1.000  H
  C76      1.0000 0.20295  0.21500  0.78442  Biso   1.000  C
  C77      1.0000 0.20287  0.21500  0.78442  Biso   1.000  C
  C78      1.0000 0.66597  0.75692  0.10832  Biso   1.000  C
  C79      1.0000 0.66605  0.75692  0.10832  Biso   1.000  C
  O20      1.0000 0.27567  0.78758  0.11520  Biso   1.000  O
  H71      1.0000 0.27881  0.75749  0.21622  Biso   1.000  H
  H72      1.0000 0.38890  0.78741  0.20677  Biso   1.000  H
  H73      1.0000 0.27871  0.75749  0.21617  Biso   1.000  H
  H74      1.0000 0.38882  0.78741  0.20677  Biso   1.000  H
  O21      1.0000 0.27575  0.78758  0.11520  Biso   1.000  O
  H75      1.0000 0.27879  0.75749  0.21617  Biso   1.000  H
  O22      1.0000 0.83873  0.15534  0.77123  Biso   1.000  O
  H76      1.0000 0.70743  0.12139  0.80193  Biso   1.000  H
  H77      1.0000 0.68070  0.15091  0.71911  Biso   1.000  H
  O23      1.0000 0.83863  0.15534  0.77117  Biso   1.000  O
  H78      1.0000 0.70733  0.12139  0.80187  Biso   1.000  H
  H79      1.0000 0.68078  0.15091  0.71911  Biso   1.000  H
  O24      1.0000 0.83871  0.15534  0.77117  Biso   1.000  O
  H80      1.0000 0.70741  0.12139  0.80187  Biso   1.000  H
  C80      1.0000 0.12320  0.17210  0.75489  Biso   1.000  C
  H81      1.0000 0.27180  0.20311  0.77123  Biso   1.000  H
  H82      1.0000 0.18026  0.25120  0.75652  Biso   1.000  H
  H83      1.0000 0.27178  0.20311  0.77117  Biso   1.000  H
  H84      1.0000 0.18018  0.25120  0.75652  Biso   1.000  H
  H85      1.0000 0.64261  0.72959  0.14397  Biso   1.000  H
  H86      1.0000 0.61981  0.79149  0.10511  Biso   1.000  H
  C81      1.0000 0.65010  0.72972  0.03070  Biso   1.000  C
  H87      1.0000 0.64253  0.72959  0.14397  Biso   1.000  H
  C82      1.0000 0.32894  0.73599  0.09192  Biso   1.000  C
  C83      1.0000 0.32886  0.73599  0.09192  Biso   1.000  C
  C84      1.0000 0.88142  0.10419  0.74789  Biso   1.000  C
  C85      1.0000 0.88134  0.10419  0.74789  Biso   1.000  C
  O25      1.0000 0.05628  0.14942  0.79060  Biso   1.000  O
  H88      1.0000 0.07860  0.18859  0.70750  Biso   1.000  H
  H89      1.0000 0.16371  0.13959  0.73872  Biso   1.000  H
  O26      1.0000 0.68477  0.76741  0.97782  Biso   1.000  O
  O27      1.0000 0.68475  0.76741  0.97776  Biso   1.000  O
  O28      1.0000 0.68485  0.76741  0.97782  Biso   1.000  O
  H90      1.0000 0.57249  0.72042  0.01191  Biso   1.000  H
  H91      1.0000 0.69168  0.69340  0.03449  Biso   1.000  H
  H92      1.0000 0.57257  0.72042  0.01191  Biso   1.000  H
  H93      1.0000 0.69177  0.69340  0.03449  Biso   1.000  H
  H94      1.0000 0.40843  0.73911  0.10919  Biso   1.000  H
  H95      1.0000 0.30448  0.70121  0.11520  Biso   1.000  H
  C86      1.0000 0.29879  0.73178  0.00659  Biso   1.000  C
  H96      1.0000 0.40835  0.73911  0.10919  Biso   1.000  H
  H97      1.0000 0.30456  0.70121  0.11520  Biso   1.000  H
  C87      1.0000 0.29887  0.73178  0.00659  Biso   1.000  C
  C88      1.0000 0.81760  0.05589  0.71608  Biso   1.000  C
  C89      1.0000 0.99529  0.10081  0.75909  Biso   1.000  C
  C90      1.0000 0.81768  0.05589  0.71608  Biso   1.000  C
  C91      1.0000 0.99537  0.10081  0.75909  Biso   1.000  C
  C92      1.0000 0.65140  0.74801  0.89968  Biso   1.000  C
  O29      1.0000 0.19171  0.71639  0.98167  Biso   1.000  O
  H98      1.0000 0.34541  0.70279  0.98903  Biso   1.000  H
  H99      1.0000 0.31160  0.76929  0.98401  Biso   1.000  H
  O30      1.0000 0.19163  0.71639  0.98167  Biso   1.000  O
  H100     1.0000 0.34539  0.70279  0.98897  Biso   1.000  H
  C93      1.0000 0.86870  0.00610  0.69682  Biso   1.000  C
  H101     1.0000 0.74099  0.05738  0.70803  Biso   1.000  H
  H102     1.0000 0.74097  0.05738  0.70797  Biso   1.000  H
  C94      1.0000 0.86879  0.00610  0.69682  Biso   1.000  C
  H103     1.0000 0.74107  0.05738  0.70803  Biso   1.000  H
  C95      1.0000 0.04623  0.05058  0.74088  Biso   1.000  C
  C96      1.0000 0.04615  0.05058  0.74088  Biso   1.000  C
  C97      1.0000 0.68710  0.79281  0.84809  Biso   1.000  C
  H104     1.0000 0.68521  0.71042  0.89332  Biso   1.000  H
  H105     1.0000 0.57179  0.74332  0.88602  Biso   1.000  H
  H106     1.0000 0.57178  0.74332  0.88596  Biso   1.000  H
  C98      1.0000 0.15711  0.70230  0.90721  Biso   1.000  C
  C99      1.0000 0.15703  0.70230  0.90721  Biso   1.000  C
  C100     1.0000 0.80875  0.95038  0.66180  Biso   1.000  C
  C101     1.0000 0.80867  0.95038  0.66180  Biso   1.000  C
  C102     1.0000 0.98241  0.00259  0.71013  Biso   1.000  C
  C103     1.0000 0.98239  0.00259  0.71007  Biso   1.000  C
  C104     1.0000 0.98249  0.00259  0.71013  Biso   1.000  C
  H107     1.0000 0.12285  0.04891  0.74923  Biso   1.000  H
  H108     1.0000 0.12275  0.04891  0.74917  Biso   1.000  H
  H109     1.0000 0.12277  0.04891  0.74923  Biso   1.000  H
  H110     1.0000 0.12283  0.04891  0.74917  Biso   1.000  H
  O31      1.0000 0.80529  0.79022  0.85970  Biso   1.000  O
  O32      1.0000 0.80537  0.79022  0.85970  Biso   1.000  O
  H111     1.0000 0.66439  0.83159  0.86122  Biso   1.000  H
  H112     1.0000 0.65329  0.78491  0.79399  Biso   1.000  H
  H113     1.0000 0.66447  0.83159  0.86122  Biso   1.000  H
  H114     1.0000 0.65337  0.78491  0.79399  Biso   1.000  H
  C105     1.0000 0.10714  0.74709  0.85381  Biso   1.000  C
  C106     1.0000 0.10706  0.74709  0.85381  Biso   1.000  C
  H115     1.0000 0.21983  0.68691  0.88871  Biso   1.000  H
  H116     1.0000 0.10423  0.67059  0.90417  Biso   1.000  H
  H117     1.0000 0.21975  0.68691  0.88871  Biso   1.000  H
  H118     1.0000 0.10415  0.67059  0.90417  Biso   1.000  H
  C107     1.0000 0.85822  0.90261  0.72098  Biso   1.000  C
  C108     1.0000 0.85646  0.93801  0.58920  Biso   1.000  C
  C109     1.0000 0.68330  0.95381  0.64651  Biso   1.000  C
  C110     1.0000 0.85814  0.90261  0.72098  Biso   1.000  C
  C111     1.0000 0.85638  0.93801  0.58920  Biso   1.000  C
  C112     1.0000 0.68338  0.95381  0.64651  Biso   1.000  C
  C113     1.0000 0.02673  0.94301  0.68871  Biso   1.000  C
  C114     1.0000 0.02665  0.94301  0.68871  Biso   1.000  C
  C115     1.0000 0.85478  0.82672  0.81471  Biso   1.000  C
  C116     1.0000 0.85487  0.82672  0.81471  Biso   1.000  C
  O33      1.0000 0.01817  0.77671  0.87540  Biso   1.000  O
  H119     1.0000 0.08092  0.72950  0.80292  Biso   1.000  H
  H120     1.0000 0.16334  0.77570  0.84891  Biso   1.000  H
  H121     1.0000 0.16326  0.77570  0.84891  Biso   1.000  H
  H122     1.0000 0.08084  0.72950  0.80292  Biso   1.000  H
  C117     1.0000 0.97254  0.89818  0.73312  Biso   1.000  C
  C118     1.0000 0.79992  0.86782  0.76248  Biso   1.000  C
  C119     1.0000 0.97246  0.89818  0.73312  Biso   1.000  C
  C120     1.0000 0.79984  0.86782  0.76248  Biso   1.000  C
  C121     1.0000 0.97015  0.93420  0.60298  Biso   1.000  C
  C122     1.0000 0.79433  0.93231  0.51258  Biso   1.000  C
  C123     1.0000 0.97007  0.93420  0.60298  Biso   1.000  C
  C124     1.0000 0.79425  0.93231  0.51258  Biso   1.000  C
  H123     1.0000 0.65779  0.98539  0.61091  Biso   1.000  H
  H124     1.0000 0.66079  0.96078  0.69478  Biso   1.000  H
  H125     1.0000 0.65223  0.91748  0.62422  Biso   1.000  H
  H126     1.0000 0.65215  0.91748  0.62422  Biso   1.000  H
  H127     1.0000 0.65787  0.98539  0.61091  Biso   1.000  H
  H128     1.0000 0.66087  0.96078  0.69478  Biso   1.000  H
  C125     1.0000 0.15125  0.93911  0.70441  Biso   1.000  C
  C126     1.0000 0.15117  0.93911  0.70441  Biso   1.000  C
  C127     1.0000 0.96899  0.81992  0.82381  Biso   1.000  C
  C128     1.0000 0.96907  0.81992  0.82381  Biso   1.000  C
  C129     1.0000 0.02741  0.85611  0.78378  Biso   1.000  C
  C130     1.0000 0.02733  0.85611  0.78378  Biso   1.000  C
  H129     1.0000 0.72370  0.87199  0.75541  Biso   1.000  H
  H130     1.0000 0.72378  0.87199  0.75541  Biso   1.000  H
  C131     1.0000 0.02360  0.92389  0.54211  Biso   1.000  C
  C132     1.0000 0.84991  0.92349  0.45258  Biso   1.000  C
  H131     1.0000 0.71765  0.93442  0.50213  Biso   1.000  H
  H132     1.0000 0.71755  0.93442  0.50207  Biso   1.000  H
  C133     1.0000 0.84999  0.92349  0.45258  Biso   1.000  C
  H133     1.0000 0.71763  0.93442  0.50207  Biso   1.000  H
  H134     1.0000 0.17252  0.90081  0.69023  Biso   1.000  H
  H135     1.0000 0.18115  0.94569  0.75892  Biso   1.000  H
  H136     1.0000 0.17915  0.96819  0.67412  Biso   1.000  H
  H137     1.0000 0.17250  0.90081  0.69017  Biso   1.000  H
  H138     1.0000 0.18107  0.94569  0.75892  Biso   1.000  H
  H139     1.0000 0.17907  0.96819  0.67412  Biso   1.000  H
  H140     1.0000 0.10361  0.85212  0.79101  Biso   1.000  H
  C134     1.0000 0.96231  0.91911  0.46741  Biso   1.000  C
  C135     1.0000 0.96239  0.91911  0.46741  Biso   1.000  C
  H141     1.0000 0.10013  0.92029  0.55203  Biso   1.000  H
  H142     1.0000 0.10011  0.92029  0.55197  Biso   1.000  H
  H143     1.0000 0.80981  0.92060  0.40140  Biso   1.000  H
  H144     1.0000 0.80989  0.92060  0.40140  Biso   1.000  H
  H145     1.0000 0.99763  0.91270  0.42650  Biso   1.000  H
  H146     1.0000 0.99771  0.91270  0.42650  Biso   1.000  H
  C136     1.0000 0.97265  0.14389  0.21617  Biso   1.000  C
  C137     1.0000 0.03101  0.18008  0.17619  Biso   1.000  C
  C138     1.0000 0.03093  0.18008  0.17619  Biso   1.000  C
  H147     1.0000 0.89639  0.14788  0.20899  Biso   1.000  H
  C139     1.0000 0.02746  0.10182  0.26688  Biso   1.000  C
  C140     1.0000 0.02754  0.10182  0.26688  Biso   1.000  C
  O34      1.0000 0.98183  0.22329  0.12460  Biso   1.000  O
  C141     1.0000 0.97259  0.14389  0.21622  Biso   1.000  C
  C142     1.0000 0.97257  0.14389  0.21617  Biso   1.000  C
  C143     1.0000 0.14522  0.17328  0.18529  Biso   1.000  C
  C144     1.0000 0.14513  0.17328  0.18529  Biso   1.000  C
  C145     1.0000 0.97327  0.05699  0.31129  Biso   1.000  C
  C146     1.0000 0.97335  0.05699  0.31129  Biso   1.000  C
  C147     1.0000 0.14178  0.09739  0.27902  Biso   1.000  C
  C148     1.0000 0.14176  0.09739  0.27896  Biso   1.000  C
  C149     1.0000 0.14186  0.09739  0.27902  Biso   1.000  C
  C150     1.0000 0.89286  0.25291  0.14619  Biso   1.000  C
  C151     1.0000 0.89294  0.25291  0.14619  Biso   1.000  C
  O35      1.0000 0.19471  0.20978  0.14030  Biso   1.000  O
  C152     1.0000 0.20008  0.13218  0.23752  Biso   1.000  C
  O36      1.0000 0.19463  0.20978  0.14030  Biso   1.000  O
  C153     1.0000 0.20006  0.13218  0.23747  Biso   1.000  C
  C154     1.0000 0.20016  0.13218  0.23752  Biso   1.000  C
  C155     1.0000 0.84875  0.06089  0.29559  Biso   1.000  C
  C156     1.0000 0.84883  0.06089  0.29559  Biso   1.000  C
  C157     1.0000 0.01759  0.99741  0.28987  Biso   1.000  C
  C158     1.0000 0.01751  0.99741  0.28987  Biso   1.000  C
  C159     1.0000 0.02985  0.06580  0.39702  Biso   1.000  C
  C160     1.0000 0.02984  0.06580  0.39696  Biso   1.000  C
  C161     1.0000 0.02993  0.06580  0.39702  Biso   1.000  C
  C162     1.0000 0.19125  0.04962  0.33820  Biso   1.000  C
  C163     1.0000 0.19133  0.04962  0.33820  Biso   1.000  C
  C164     1.0000 0.84289  0.29770  0.09279  Biso   1.000  C
  C165     1.0000 0.84297  0.29770  0.09279  Biso   1.000  C
  H148     1.0000 0.91908  0.27050  0.19708  Biso   1.000  H
  H149     1.0000 0.83666  0.22430  0.15109  Biso   1.000  H
  H150     1.0000 0.91916  0.27050  0.19708  Biso   1.000  H
  H151     1.0000 0.83674  0.22430  0.15109  Biso   1.000  H
  C166     1.0000 0.31290  0.20719  0.15191  Biso   1.000  C
  H152     1.0000 0.27630  0.12801  0.24459  Biso   1.000  H
  H153     1.0000 0.27622  0.12801  0.24459  Biso   1.000  H
  H154     1.0000 0.82748  0.09919  0.30977  Biso   1.000  H
  H155     1.0000 0.81885  0.05431  0.24108  Biso   1.000  H
  H156     1.0000 0.82085  0.03181  0.32588  Biso   1.000  H
  H157     1.0000 0.81893  0.05431  0.24108  Biso   1.000  H
  H158     1.0000 0.82093  0.03181  0.32588  Biso   1.000  H
  C167     1.0000 0.95377  0.94942  0.25912  Biso   1.000  C
  C168     1.0000 0.95385  0.94942  0.25912  Biso   1.000  C
  C169     1.0000 0.13130  0.99390  0.30318  Biso   1.000  C
  C170     1.0000 0.13121  0.99390  0.30318  Biso   1.000  C
  C171     1.0000 0.97640  0.07611  0.45789  Biso   1.000  C
  C172     1.0000 0.14354  0.06199  0.41080  Biso   1.000  C
  C173     1.0000 0.14362  0.06199  0.41080  Biso   1.000  C
  C174     1.0000 0.31670  0.04619  0.35349  Biso   1.000  C
  C175     1.0000 0.31662  0.04619  0.35349  Biso   1.000  C
  O37      1.0000 0.80829  0.28361  0.01833  Biso   1.000  O
  H159     1.0000 0.78017  0.31309  0.11129  Biso   1.000  H
  H160     1.0000 0.89577  0.32941  0.09583  Biso   1.000  H
  O38      1.0000 0.80835  0.28361  0.01827  Biso   1.000  O
  H161     1.0000 0.78025  0.31309  0.11129  Biso   1.000  H
  H162     1.0000 0.89584  0.32941  0.09577  Biso   1.000  H
  O39      1.0000 0.80837  0.28361  0.01833  Biso   1.000  O
  H163     1.0000 0.89585  0.32941  0.09583  Biso   1.000  H
  O40      1.0000 0.80827  0.28361  0.01827  Biso   1.000  O
  H164     1.0000 0.89576  0.32941  0.09577  Biso   1.000  H
  C176     1.0000 0.34860  0.25199  0.10032  Biso   1.000  C
  H165     1.0000 0.33561  0.16841  0.13878  Biso   1.000  H
  H166     1.0000 0.34671  0.21509  0.20601  Biso   1.000  H
  C177     1.0000 0.34859  0.25199  0.10026  Biso   1.000  C
  H167     1.0000 0.33553  0.16841  0.13878  Biso   1.000  H
  H168     1.0000 0.34663  0.21509  0.20601  Biso   1.000  H
  H169     1.0000 0.87715  0.95109  0.25077  Biso   1.000  H
  H170     1.0000 0.87723  0.95109  0.25077  Biso   1.000  H
  C178     1.0000 0.00471  0.89919  0.24091  Biso   1.000  C
  C179     1.0000 0.00463  0.89919  0.24091  Biso   1.000  C
  C180     1.0000 0.18240  0.94411  0.28392  Biso   1.000  C
  C181     1.0000 0.18231  0.94411  0.28386  Biso   1.000  C
  C182     1.0000 0.18239  0.94411  0.28386  Biso   1.000  C
  H171     1.0000 0.89987  0.07971  0.44797  Biso   1.000  H
  C183     1.0000 0.03769  0.08089  0.53259  Biso   1.000  C
  C184     1.0000 0.03761  0.08089  0.53259  Biso   1.000  C
  C185     1.0000 0.20567  0.06769  0.48742  Biso   1.000  C
  C186     1.0000 0.20565  0.06769  0.48736  Biso   1.000  C
  C187     1.0000 0.20575  0.06769  0.48742  Biso   1.000  C
  H172     1.0000 0.34221  0.01461  0.38909  Biso   1.000  H
  H173     1.0000 0.33921  0.03922  0.30522  Biso   1.000  H
  H174     1.0000 0.34777  0.08252  0.37578  Biso   1.000  H
  H175     1.0000 0.34213  0.01461  0.38909  Biso   1.000  H
  H176     1.0000 0.33911  0.03922  0.30516  Biso   1.000  H
  H177     1.0000 0.34785  0.08252  0.37578  Biso   1.000  H
  H178     1.0000 0.33919  0.03922  0.30516  Biso   1.000  H
  C188     1.0000 0.70121  0.26822  0.99341  Biso   1.000  C
  C189     1.0000 0.70113  0.26822  0.99341  Biso   1.000  C
  O41      1.0000 0.31523  0.23259  0.02218  Biso   1.000  O
  H179     1.0000 0.31479  0.28958  0.10668  Biso   1.000  H
  H180     1.0000 0.42821  0.25668  0.11398  Biso   1.000  H
  O42      1.0000 0.31515  0.23259  0.02218  Biso   1.000  O
  H181     1.0000 0.42812  0.25668  0.11398  Biso   1.000  H
  O43      1.0000 0.94372  0.85058  0.20940  Biso   1.000  O
  O44      1.0000 0.94364  0.85058  0.20940  Biso   1.000  O
  C190     1.0000 0.11858  0.89581  0.25211  Biso   1.000  C
  H182     1.0000 0.25901  0.94262  0.29197  Biso   1.000  H
  H183     1.0000 0.25893  0.94262  0.29197  Biso   1.000  H
  H184     1.0000 0.00237  0.08730  0.57350  Biso   1.000  H
  C191     1.0000 0.15009  0.07651  0.54742  Biso   1.000  C
  H185     1.0000 0.00229  0.08730  0.57350  Biso   1.000  H
  C192     1.0000 0.14999  0.07651  0.54736  Biso   1.000  C
  C193     1.0000 0.15007  0.07651  0.54736  Biso   1.000  C
  H186     1.0000 0.28235  0.06558  0.49787  Biso   1.000  H
  H187     1.0000 0.28244  0.06558  0.49787  Biso   1.000  H
  H188     1.0000 0.65459  0.29721  0.01097  Biso   1.000  H
  H189     1.0000 0.68840  0.23071  0.01599  Biso   1.000  H
  C194     1.0000 0.67106  0.26401  0.90808  Biso   1.000  C
  C195     1.0000 0.67114  0.26401  0.90808  Biso   1.000  C
  C196     1.0000 0.34990  0.27028  0.96930  Biso   1.000  C
  C197     1.0000 0.87680  0.82790  0.24511  Biso   1.000  C
  O45      1.0000 0.16127  0.84466  0.22877  Biso   1.000  O
  O46      1.0000 0.16135  0.84466  0.22877  Biso   1.000  O
  H190     1.0000 0.19019  0.07940  0.59860  Biso   1.000  H
  H191     1.0000 0.19011  0.07940  0.59860  Biso   1.000  H
  O47      1.0000 0.72433  0.21242  0.88480  Biso   1.000  O
  H192     1.0000 0.59157  0.26089  0.89081  Biso   1.000  H
  H193     1.0000 0.69552  0.29879  0.88480  Biso   1.000  H
  O48      1.0000 0.72425  0.21242  0.88480  Biso   1.000  O
  H194     1.0000 0.69544  0.29879  0.88480  Biso   1.000  H
  H195     1.0000 0.59165  0.26089  0.89081  Biso   1.000  H
  C198     1.0000 0.33403  0.24308  0.89168  Biso   1.000  C
  H196     1.0000 0.42751  0.27958  0.98809  Biso   1.000  H
  H197     1.0000 0.30832  0.30660  0.96551  Biso   1.000  H
  C199     1.0000 0.33395  0.24308  0.89168  Biso   1.000  C
  H198     1.0000 0.42743  0.27958  0.98809  Biso   1.000  H
  H199     1.0000 0.30823  0.30660  0.96551  Biso   1.000  H
  H200     1.0000 0.92140  0.81141  0.29250  Biso   1.000  H
  H201     1.0000 0.83629  0.86041  0.26128  Biso   1.000  H
  C200     1.0000 0.79705  0.78500  0.21558  Biso   1.000  C
  C201     1.0000 0.79713  0.78500  0.21558  Biso   1.000  C
  C202     1.0000 0.27647  0.84510  0.22790  Biso   1.000  C
  C203     1.0000 0.27655  0.84510  0.22790  Biso   1.000  C
  C204     1.0000 0.69093  0.20930  0.80683  Biso   1.000  C
  C205     1.0000 0.69083  0.20930  0.80677  Biso   1.000  C
  C206     1.0000 0.69091  0.20930  0.80677  Biso   1.000  C
  O49      1.0000 0.22473  0.22742  0.86210  Biso   1.000  O
  H202     1.0000 0.35739  0.27041  0.85603  Biso   1.000  H
  H203     1.0000 0.38019  0.20851  0.89489  Biso   1.000  H
  O50      1.0000 0.22465  0.22742  0.86210  Biso   1.000  O
  H204     1.0000 0.35737  0.27041  0.85597  Biso   1.000  H
  O51      1.0000 0.77527  0.77258  0.13790  Biso   1.000  O
  H205     1.0000 0.72820  0.79689  0.22877  Biso   1.000  H
  H206     1.0000 0.81974  0.74880  0.24348  Biso   1.000  H
  O52      1.0000 0.77535  0.77258  0.13790  Biso   1.000  O
  H207     1.0000 0.81982  0.74880  0.24348  Biso   1.000  H
  H208     1.0000 0.29257  0.87861  0.19807  Biso   1.000  H
  H209     1.0000 0.31930  0.84909  0.28089  Biso   1.000  H
  C207     1.0000 0.30907  0.79070  0.19317  Biso   1.000  C
  H210     1.0000 0.31922  0.84909  0.28089  Biso   1.000  H
  H211     1.0000 0.29265  0.87861  0.19807  Biso   1.000  H
  C208     1.0000 0.30915  0.79070  0.19317  Biso   1.000  C
  C209     1.0000 0.72353  0.15490  0.77210  Biso   1.000  C
  H212     1.0000 0.72119  0.24251  0.78378  Biso   1.000  H
  H213     1.0000 0.61110  0.21259  0.79323  Biso   1.000  H
  C210     1.0000 0.72345  0.15490  0.77210  Biso   1.000  C
  H214     1.0000 0.61108  0.21259  0.79317  Biso   1.000  H
  H215     1.0000 0.72127  0.24251  0.78378  Biso   1.000  H
  H216     1.0000 0.61118  0.21259  0.79323  Biso   1.000  H
  C211     1.0000 0.20295  0.21500  0.78442  Biso   1.000  C
  C212     1.0000 0.20287  0.21500  0.78442  Biso   1.000  C
  C213     1.0000 0.66597  0.75692  0.10832  Biso   1.000  C
  C214     1.0000 0.66605  0.75692  0.10832  Biso   1.000  C
  O53      1.0000 0.27567  0.78758  0.11520  Biso   1.000  O
  H217     1.0000 0.27881  0.75749  0.21622  Biso   1.000  H
  H218     1.0000 0.38890  0.78741  0.20677  Biso   1.000  H
  H219     1.0000 0.27871  0.75749  0.21617  Biso   1.000  H
  H220     1.0000 0.38882  0.78741  0.20677  Biso   1.000  H
  O54      1.0000 0.27575  0.78758  0.11520  Biso   1.000  O
  H221     1.0000 0.27879  0.75749  0.21617  Biso   1.000  H
  O55      1.0000 0.83873  0.15534  0.77123  Biso   1.000  O
  H222     1.0000 0.70743  0.12139  0.80193  Biso   1.000  H
  H223     1.0000 0.68070  0.15091  0.71911  Biso   1.000  H
  O56      1.0000 0.83863  0.15534  0.77117  Biso   1.000  O
  H224     1.0000 0.70733  0.12139  0.80187  Biso   1.000  H
  H225     1.0000 0.68078  0.15091  0.71911  Biso   1.000  H
  O57      1.0000 0.83871  0.15534  0.77117  Biso   1.000  O
  H226     1.0000 0.70741  0.12139  0.80187  Biso   1.000  H
  C215     1.0000 0.12320  0.17210  0.75489  Biso   1.000  C
  H227     1.0000 0.27180  0.20311  0.77123  Biso   1.000  H
  H228     1.0000 0.18026  0.25120  0.75652  Biso   1.000  H
  H229     1.0000 0.27178  0.20311  0.77117  Biso   1.000  H
  H230     1.0000 0.18018  0.25120  0.75652  Biso   1.000  H
  H231     1.0000 0.64261  0.72959  0.14397  Biso   1.000  H
  H232     1.0000 0.61981  0.79149  0.10511  Biso   1.000  H
  C216     1.0000 0.65010  0.72972  0.03070  Biso   1.000  C
  H233     1.0000 0.64253  0.72959  0.14397  Biso   1.000  H
  C217     1.0000 0.32894  0.73599  0.09192  Biso   1.000  C
  C218     1.0000 0.32886  0.73599  0.09192  Biso   1.000  C
  C219     1.0000 0.88142  0.10419  0.74789  Biso   1.000  C
  C220     1.0000 0.88134  0.10419  0.74789  Biso   1.000  C
  O58      1.0000 0.05628  0.14942  0.79060  Biso   1.000  O
  H234     1.0000 0.07860  0.18859  0.70750  Biso   1.000  H
  H235     1.0000 0.16371  0.13959  0.73872  Biso   1.000  H
  O59      1.0000 0.68477  0.76741  0.97782  Biso   1.000  O
  O60      1.0000 0.68475  0.76741  0.97776  Biso   1.000  O
  O61      1.0000 0.68485  0.76741  0.97782  Biso   1.000  O
  H236     1.0000 0.57249  0.72042  0.01191  Biso   1.000  H
  H237     1.0000 0.69168  0.69340  0.03449  Biso   1.000  H
  H238     1.0000 0.57257  0.72042  0.01191  Biso   1.000  H
  H239     1.0000 0.69177  0.69340  0.03449  Biso   1.000  H
  H240     1.0000 0.40843  0.73911  0.10919  Biso   1.000  H
  H241     1.0000 0.30448  0.70121  0.11520  Biso   1.000  H
  C221     1.0000 0.29879  0.73178  0.00659  Biso   1.000  C
  H242     1.0000 0.40835  0.73911  0.10919  Biso   1.000  H
  H243     1.0000 0.30456  0.70121  0.11520  Biso   1.000  H
  C222     1.0000 0.29887  0.73178  0.00659  Biso   1.000  C
  C223     1.0000 0.81760  0.05589  0.71608  Biso   1.000  C
  C224     1.0000 0.99529  0.10081  0.75909  Biso   1.000  C
  C225     1.0000 0.81768  0.05589  0.71608  Biso   1.000  C
  C226     1.0000 0.99537  0.10081  0.75909  Biso   1.000  C
  C227     1.0000 0.65140  0.74801  0.89968  Biso   1.000  C
  O62      1.0000 0.19171  0.71639  0.98167  Biso   1.000  O
  H244     1.0000 0.34541  0.70279  0.98903  Biso   1.000  H
  H245     1.0000 0.31160  0.76929  0.98401  Biso   1.000  H
  O63      1.0000 0.19163  0.71639  0.98167  Biso   1.000  O
  H246     1.0000 0.34539  0.70279  0.98897  Biso   1.000  H
  C228     1.0000 0.86870  0.00610  0.69682  Biso   1.000  C
  H247     1.0000 0.74099  0.05738  0.70803  Biso   1.000  H
  H248     1.0000 0.74097  0.05738  0.70797  Biso   1.000  H
  C229     1.0000 0.86879  0.00610  0.69682  Biso   1.000  C
  H249     1.0000 0.74107  0.05738  0.70803  Biso   1.000  H
  C230     1.0000 0.04623  0.05058  0.74088  Biso   1.000  C
  C231     1.0000 0.04615  0.05058  0.74088  Biso   1.000  C
  C232     1.0000 0.68710  0.79281  0.84809  Biso   1.000  C
  H250     1.0000 0.68521  0.71042  0.89332  Biso   1.000  H
  H251     1.0000 0.57179  0.74332  0.88602  Biso   1.000  H
  H252     1.0000 0.57178  0.74332  0.88596  Biso   1.000  H
  C233     1.0000 0.15711  0.70230  0.90721  Biso   1.000  C
  C234     1.0000 0.15703  0.70230  0.90721  Biso   1.000  C
  C235     1.0000 0.80875  0.95038  0.66180  Biso   1.000  C
  C236     1.0000 0.80867  0.95038  0.66180  Biso   1.000  C
  C237     1.0000 0.98241  0.00259  0.71013  Biso   1.000  C
  C238     1.0000 0.98239  0.00259  0.71007  Biso   1.000  C
  C239     1.0000 0.98249  0.00259  0.71013  Biso   1.000  C
  H253     1.0000 0.12285  0.04891  0.74923  Biso   1.000  H
  H254     1.0000 0.12275  0.04891  0.74917  Biso   1.000  H
  H255     1.0000 0.12277  0.04891  0.74923  Biso   1.000  H
  H256     1.0000 0.12283  0.04891  0.74917  Biso   1.000  H
  O64      1.0000 0.80529  0.79022  0.85970  Biso   1.000  O
  O65      1.0000 0.80537  0.79022  0.85970  Biso   1.000  O
  H257     1.0000 0.66439  0.83159  0.86122  Biso   1.000  H
  H258     1.0000 0.65329  0.78491  0.79399  Biso   1.000  H
  H259     1.0000 0.66447  0.83159  0.86122  Biso   1.000  H
  H260     1.0000 0.65337  0.78491  0.79399  Biso   1.000  H
  C240     1.0000 0.10714  0.74709  0.85381  Biso   1.000  C
  C241     1.0000 0.10706  0.74709  0.85381  Biso   1.000  C
  H261     1.0000 0.21983  0.68691  0.88871  Biso   1.000  H
  H262     1.0000 0.10423  0.67059  0.90417  Biso   1.000  H
  H263     1.0000 0.21975  0.68691  0.88871  Biso   1.000  H
  H264     1.0000 0.10415  0.67059  0.90417  Biso   1.000  H
  C242     1.0000 0.85822  0.90261  0.72098  Biso   1.000  C
  C243     1.0000 0.85646  0.93801  0.58920  Biso   1.000  C
  C244     1.0000 0.68330  0.95381  0.64651  Biso   1.000  C
  C245     1.0000 0.85814  0.90261  0.72098  Biso   1.000  C
  C246     1.0000 0.85638  0.93801  0.58920  Biso   1.000  C
  C247     1.0000 0.68338  0.95381  0.64651  Biso   1.000  C
  C248     1.0000 0.02673  0.94301  0.68871  Biso   1.000  C
  C249     1.0000 0.02665  0.94301  0.68871  Biso   1.000  C
  C250     1.0000 0.85478  0.82672  0.81471  Biso   1.000  C
  C251     1.0000 0.85487  0.82672  0.81471  Biso   1.000  C
  O66      1.0000 0.01817  0.77671  0.87540  Biso   1.000  O
  H265     1.0000 0.08092  0.72950  0.80292  Biso   1.000  H
  H266     1.0000 0.16334  0.77570  0.84891  Biso   1.000  H
  H267     1.0000 0.16326  0.77570  0.84891  Biso   1.000  H
  H268     1.0000 0.08084  0.72950  0.80292  Biso   1.000  H
  C252     1.0000 0.97254  0.89818  0.73312  Biso   1.000  C
  C253     1.0000 0.79992  0.86782  0.76248  Biso   1.000  C
  C254     1.0000 0.97246  0.89818  0.73312  Biso   1.000  C
  C255     1.0000 0.79984  0.86782  0.76248  Biso   1.000  C
  C256     1.0000 0.97015  0.93420  0.60298  Biso   1.000  C
  C257     1.0000 0.79433  0.93231  0.51258  Biso   1.000  C
  C258     1.0000 0.97007  0.93420  0.60298  Biso   1.000  C
  C259     1.0000 0.79425  0.93231  0.51258  Biso   1.000  C
  H269     1.0000 0.65779  0.98539  0.61091  Biso   1.000  H
  H270     1.0000 0.66079  0.96078  0.69478  Biso   1.000  H
  H271     1.0000 0.65223  0.91748  0.62422  Biso   1.000  H
  H272     1.0000 0.65215  0.91748  0.62422  Biso   1.000  H
  H273     1.0000 0.65787  0.98539  0.61091  Biso   1.000  H
  H274     1.0000 0.66087  0.96078  0.69478  Biso   1.000  H
  C260     1.0000 0.15125  0.93911  0.70441  Biso   1.000  C
  C261     1.0000 0.15117  0.93911  0.70441  Biso   1.000  C
  C262     1.0000 0.96899  0.81992  0.82381  Biso   1.000  C
  C263     1.0000 0.96907  0.81992  0.82381  Biso   1.000  C
  C264     1.0000 0.02741  0.85611  0.78378  Biso   1.000  C
  C265     1.0000 0.02733  0.85611  0.78378  Biso   1.000  C
  H275     1.0000 0.72370  0.87199  0.75541  Biso   1.000  H
  H276     1.0000 0.72378  0.87199  0.75541  Biso   1.000  H
  C266     1.0000 0.02360  0.92389  0.54211  Biso   1.000  C
  C267     1.0000 0.84991  0.92349  0.45258  Biso   1.000  C
  H277     1.0000 0.71765  0.93442  0.50213  Biso   1.000  H
  H278     1.0000 0.71755  0.93442  0.50207  Biso   1.000  H
  C268     1.0000 0.84999  0.92349  0.45258  Biso   1.000  C
  H279     1.0000 0.71763  0.93442  0.50207  Biso   1.000  H
  H280     1.0000 0.17252  0.90081  0.69023  Biso   1.000  H
  H281     1.0000 0.18115  0.94569  0.75892  Biso   1.000  H
  H282     1.0000 0.17915  0.96819  0.67412  Biso   1.000  H
  H283     1.0000 0.17250  0.90081  0.69017  Biso   1.000  H
  H284     1.0000 0.18107  0.94569  0.75892  Biso   1.000  H
  H285     1.0000 0.17907  0.96819  0.67412  Biso   1.000  H
  H286     1.0000 0.10361  0.85212  0.79101  Biso   1.000  H
  C269     1.0000 0.96231  0.91911  0.46741  Biso   1.000  C
  C270     1.0000 0.96239  0.91911  0.46741  Biso   1.000  C
  H287     1.0000 0.10013  0.92029  0.55203  Biso   1.000  H
  H288     1.0000 0.10011  0.92029  0.55197  Biso   1.000  H
  H289     1.0000 0.80981  0.92060  0.40140  Biso   1.000  H
  H290     1.0000 0.80989  0.92060  0.40140  Biso   1.000  H
  H291     1.0000 0.99763  0.91270  0.42650  Biso   1.000  H
  H292     1.0000 0.99771  0.91270  0.42650  Biso   1.000  H
  C271     1.0000 0.97265  0.14389  0.21617  Biso   1.000  C
  C272     1.0000 0.03101  0.18008  0.17619  Biso   1.000  C
  C273     1.0000 0.03093  0.18008  0.17619  Biso   1.000  C
  H293     1.0000 0.89639  0.14788  0.20899  Biso   1.000  H
  C274     1.0000 0.02746  0.10182  0.26688  Biso   1.000  C
  C275     1.0000 0.02754  0.10182  0.26688  Biso   1.000  C
  O67      1.0000 0.98183  0.22329  0.12460  Biso   1.000  O
  C276     1.0000 0.97259  0.14389  0.21622  Biso   1.000  C
  C277     1.0000 0.97257  0.14389  0.21617  Biso   1.000  C
  C278     1.0000 0.14522  0.17328  0.18529  Biso   1.000  C
  C279     1.0000 0.14513  0.17328  0.18529  Biso   1.000  C
  C280     1.0000 0.97327  0.05699  0.31129  Biso   1.000  C
  C281     1.0000 0.97335  0.05699  0.31129  Biso   1.000  C
  C282     1.0000 0.14178  0.09739  0.27902  Biso   1.000  C
  C283     1.0000 0.14176  0.09739  0.27896  Biso   1.000  C
  C284     1.0000 0.14186  0.09739  0.27902  Biso   1.000  C
  C285     1.0000 0.89294  0.25291  0.14619  Biso   1.000  C
  C286     1.0000 0.89286  0.25291  0.14619  Biso   1.000  C
  O68      1.0000 0.19471  0.20978  0.14030  Biso   1.000  O
  C287     1.0000 0.20008  0.13218  0.23752  Biso   1.000  C
  O69      1.0000 0.19463  0.20978  0.14030  Biso   1.000  O
  C288     1.0000 0.20006  0.13218  0.23747  Biso   1.000  C
  C289     1.0000 0.20016  0.13218  0.23752  Biso   1.000  C
  C290     1.0000 0.84883  0.06089  0.29559  Biso   1.000  C
  C291     1.0000 0.84875  0.06089  0.29559  Biso   1.000  C
  C292     1.0000 0.01759  0.99741  0.28987  Biso   1.000  C
  C293     1.0000 0.01751  0.99741  0.28987  Biso   1.000  C
  C294     1.0000 0.02985  0.06580  0.39702  Biso   1.000  C
  C295     1.0000 0.02984  0.06580  0.39696  Biso   1.000  C
  C296     1.0000 0.02993  0.06580  0.39702  Biso   1.000  C
  C297     1.0000 0.19125  0.04962  0.33820  Biso   1.000  C
  C298     1.0000 0.19133  0.04962  0.33820  Biso   1.000  C
  C299     1.0000 0.84289  0.29770  0.09279  Biso   1.000  C
  H294     1.0000 0.91908  0.27050  0.19708  Biso   1.000  H
  H295     1.0000 0.83674  0.22430  0.15109  Biso   1.000  H
  H296     1.0000 0.83666  0.22430  0.15109  Biso   1.000  H
  C300     1.0000 0.84297  0.29770  0.09279  Biso   1.000  C
  H297     1.0000 0.91916  0.27050  0.19708  Biso   1.000  H
  C301     1.0000 0.31290  0.20719  0.15191  Biso   1.000  C
  H298     1.0000 0.27630  0.12801  0.24459  Biso   1.000  H
  H299     1.0000 0.27622  0.12801  0.24459  Biso   1.000  H
  H300     1.0000 0.82748  0.09919  0.30977  Biso   1.000  H
  H301     1.0000 0.81893  0.05431  0.24108  Biso   1.000  H
  H302     1.0000 0.82093  0.03181  0.32588  Biso   1.000  H
  H303     1.0000 0.81885  0.05431  0.24108  Biso   1.000  H
  H304     1.0000 0.82085  0.03181  0.32588  Biso   1.000  H
  C302     1.0000 0.95377  0.94942  0.25912  Biso   1.000  C
  C303     1.0000 0.95385  0.94942  0.25912  Biso   1.000  C
  C304     1.0000 0.13130  0.99390  0.30318  Biso   1.000  C
  C305     1.0000 0.13121  0.99390  0.30318  Biso   1.000  C
  C306     1.0000 0.97640  0.07611  0.45789  Biso   1.000  C
  C307     1.0000 0.14354  0.06199  0.41080  Biso   1.000  C
  C308     1.0000 0.14362  0.06199  0.41080  Biso   1.000  C
  C309     1.0000 0.31670  0.04619  0.35349  Biso   1.000  C
  C310     1.0000 0.31662  0.04619  0.35349  Biso   1.000  C
  H305     1.0000 0.78025  0.31309  0.11129  Biso   1.000  H
  H306     1.0000 0.78017  0.31309  0.11129  Biso   1.000  H
  O70      1.0000 0.80829  0.28361  0.01833  Biso   1.000  O
  H307     1.0000 0.89577  0.32941  0.09583  Biso   1.000  H
  O71      1.0000 0.80835  0.28361  0.01827  Biso   1.000  O
  H308     1.0000 0.89584  0.32941  0.09577  Biso   1.000  H
  O72      1.0000 0.80837  0.28361  0.01833  Biso   1.000  O
  H309     1.0000 0.89585  0.32941  0.09583  Biso   1.000  H
  O73      1.0000 0.80827  0.28361  0.01827  Biso   1.000  O
  H310     1.0000 0.89576  0.32941  0.09577  Biso   1.000  H
  C311     1.0000 0.34860  0.25199  0.10032  Biso   1.000  C
  H311     1.0000 0.33561  0.16841  0.13878  Biso   1.000  H
  H312     1.0000 0.34671  0.21509  0.20601  Biso   1.000  H
  C312     1.0000 0.34859  0.25199  0.10026  Biso   1.000  C
  H313     1.0000 0.33553  0.16841  0.13878  Biso   1.000  H
  H314     1.0000 0.34663  0.21509  0.20601  Biso   1.000  H
  H315     1.0000 0.87715  0.95109  0.25077  Biso   1.000  H
  H316     1.0000 0.87723  0.95109  0.25077  Biso   1.000  H
  C313     1.0000 0.00471  0.89919  0.24091  Biso   1.000  C
  C314     1.0000 0.00463  0.89919  0.24091  Biso   1.000  C
  C315     1.0000 0.18240  0.94411  0.28392  Biso   1.000  C
  C316     1.0000 0.18231  0.94411  0.28386  Biso   1.000  C
  C317     1.0000 0.18239  0.94411  0.28386  Biso   1.000  C
  H317     1.0000 0.89987  0.07971  0.44797  Biso   1.000  H
  C318     1.0000 0.03769  0.08089  0.53259  Biso   1.000  C
  C319     1.0000 0.03761  0.08089  0.53259  Biso   1.000  C
  C320     1.0000 0.20567  0.06769  0.48742  Biso   1.000  C
  C321     1.0000 0.20565  0.06769  0.48736  Biso   1.000  C
  C322     1.0000 0.20575  0.06769  0.48742  Biso   1.000  C
  H318     1.0000 0.34221  0.01461  0.38909  Biso   1.000  H
  H319     1.0000 0.33921  0.03922  0.30522  Biso   1.000  H
  H320     1.0000 0.34777  0.08252  0.37578  Biso   1.000  H
  H321     1.0000 0.34213  0.01461  0.38909  Biso   1.000  H
  H322     1.0000 0.33911  0.03922  0.30516  Biso   1.000  H
  H323     1.0000 0.34785  0.08252  0.37578  Biso   1.000  H
  H324     1.0000 0.33919  0.03922  0.30516  Biso   1.000  H
  C323     1.0000 0.70121  0.26822  0.99341  Biso   1.000  C
  C324     1.0000 0.70113  0.26822  0.99341  Biso   1.000  C
  O74      1.0000 0.31523  0.23259  0.02218  Biso   1.000  O
  H325     1.0000 0.31479  0.28958  0.10668  Biso   1.000  H
  H326     1.0000 0.42821  0.25668  0.11398  Biso   1.000  H
  O75      1.0000 0.31515  0.23259  0.02218  Biso   1.000  O
  H327     1.0000 0.42812  0.25668  0.11398  Biso   1.000  H
  O76      1.0000 0.94372  0.85058  0.20940  Biso   1.000  O
  O77      1.0000 0.94364  0.85058  0.20940  Biso   1.000  O
  C325     1.0000 0.11858  0.89581  0.25211  Biso   1.000  C
  H328     1.0000 0.25901  0.94262  0.29197  Biso   1.000  H
  H329     1.0000 0.25893  0.94262  0.29197  Biso   1.000  H
  H330     1.0000 0.00237  0.08730  0.57350  Biso   1.000  H
  C326     1.0000 0.15009  0.07651  0.54742  Biso   1.000  C
  H331     1.0000 0.00229  0.08730  0.57350  Biso   1.000  H
  C327     1.0000 0.14999  0.07651  0.54736  Biso   1.000  C
  C328     1.0000 0.15007  0.07651  0.54736  Biso   1.000  C
  H332     1.0000 0.28235  0.06558  0.49787  Biso   1.000  H
  H333     1.0000 0.28244  0.06558  0.49787  Biso   1.000  H
  H334     1.0000 0.65459  0.29721  0.01097  Biso   1.000  H
  H335     1.0000 0.68840  0.23071  0.01599  Biso   1.000  H
  C329     1.0000 0.67106  0.26401  0.90808  Biso   1.000  C
  C330     1.0000 0.67114  0.26401  0.90808  Biso   1.000  C
  C331     1.0000 0.34990  0.27028  0.96930  Biso   1.000  C
  C332     1.0000 0.87680  0.82790  0.24511  Biso   1.000  C
  O78      1.0000 0.16127  0.84466  0.22877  Biso   1.000  O
  O79      1.0000 0.16135  0.84466  0.22877  Biso   1.000  O
  H336     1.0000 0.19019  0.07940  0.59860  Biso   1.000  H
  H337     1.0000 0.19011  0.07940  0.59860  Biso   1.000  H
  O80      1.0000 0.72433  0.21242  0.88480  Biso   1.000  O
  H338     1.0000 0.59157  0.26089  0.89081  Biso   1.000  H
  H339     1.0000 0.69552  0.29879  0.88480  Biso   1.000  H
  O81      1.0000 0.72425  0.21242  0.88480  Biso   1.000  O
  H340     1.0000 0.69544  0.29879  0.88480  Biso   1.000  H
  H341     1.0000 0.59165  0.26089  0.89081  Biso   1.000  H
  C333     1.0000 0.33403  0.24308  0.89168  Biso   1.000  C
  H342     1.0000 0.42751  0.27958  0.98809  Biso   1.000  H
  H343     1.0000 0.30832  0.30660  0.96551  Biso   1.000  H
  C334     1.0000 0.33395  0.24308  0.89168  Biso   1.000  C
  H344     1.0000 0.42743  0.27958  0.98809  Biso   1.000  H
  H345     1.0000 0.30823  0.30660  0.96551  Biso   1.000  H
  H346     1.0000 0.92140  0.81141  0.29250  Biso   1.000  H
  H347     1.0000 0.83629  0.86041  0.26128  Biso   1.000  H
  C335     1.0000 0.79705  0.78500  0.21558  Biso   1.000  C
  C336     1.0000 0.79713  0.78500  0.21558  Biso   1.000  C
  C337     1.0000 0.27647  0.84510  0.22790  Biso   1.000  C
  C338     1.0000 0.27655  0.84510  0.22790  Biso   1.000  C
  C339     1.0000 0.69093  0.20930  0.80683  Biso   1.000  C
  C340     1.0000 0.69083  0.20930  0.80677  Biso   1.000  C
  C341     1.0000 0.69091  0.20930  0.80677  Biso   1.000  C
  O82      1.0000 0.22473  0.22742  0.86210  Biso   1.000  O
  H348     1.0000 0.35739  0.27041  0.85603  Biso   1.000  H
  H349     1.0000 0.38019  0.20851  0.89489  Biso   1.000  H
  O83      1.0000 0.22465  0.22742  0.86210  Biso   1.000  O
  H350     1.0000 0.35737  0.27041  0.85597  Biso   1.000  H
  O84      1.0000 0.77527  0.77258  0.13790  Biso   1.000  O
  H351     1.0000 0.72820  0.79689  0.22877  Biso   1.000  H
  H352     1.0000 0.81974  0.74880  0.24348  Biso   1.000  H
  O85      1.0000 0.77535  0.77258  0.13790  Biso   1.000  O
  H353     1.0000 0.81982  0.74880  0.24348  Biso   1.000  H
  H354     1.0000 0.29257  0.87861  0.19807  Biso   1.000  H
  H355     1.0000 0.31930  0.84909  0.28089  Biso   1.000  H
  C342     1.0000 0.30907  0.79070  0.19317  Biso   1.000  C
  H356     1.0000 0.31922  0.84909  0.28089  Biso   1.000  H
  H357     1.0000 0.29265  0.87861  0.19807  Biso   1.000  H
  C343     1.0000 0.30915  0.79070  0.19317  Biso   1.000  C
  C344     1.0000 0.72353  0.15490  0.77210  Biso   1.000  C
  H358     1.0000 0.72119  0.24251  0.78378  Biso   1.000  H
  H359     1.0000 0.61110  0.21259  0.79323  Biso   1.000  H
  C345     1.0000 0.72345  0.15490  0.77210  Biso   1.000  C
  H360     1.0000 0.61108  0.21259  0.79317  Biso   1.000  H
  H361     1.0000 0.72127  0.24251  0.78378  Biso   1.000  H
  H362     1.0000 0.61118  0.21259  0.79323  Biso   1.000  H
  C346     1.0000 0.20295  0.21500  0.78442  Biso   1.000  C
  C347     1.0000 0.20287  0.21500  0.78442  Biso   1.000  C
  C348     1.0000 0.66597  0.75692  0.10832  Biso   1.000  C
  C349     1.0000 0.66605  0.75692  0.10832  Biso   1.000  C
  O86      1.0000 0.27567  0.78758  0.11520  Biso   1.000  O
  H363     1.0000 0.27881  0.75749  0.21622  Biso   1.000  H
  H364     1.0000 0.38890  0.78741  0.20677  Biso   1.000  H
  H365     1.0000 0.27871  0.75749  0.21617  Biso   1.000  H
  H366     1.0000 0.38882  0.78741  0.20677  Biso   1.000  H
  O87      1.0000 0.27575  0.78758  0.11520  Biso   1.000  O
  H367     1.0000 0.27879  0.75749  0.21617  Biso   1.000  H
  O88      1.0000 0.83873  0.15534  0.77123  Biso   1.000  O
  H368     1.0000 0.70743  0.12139  0.80193  Biso   1.000  H
  H369     1.0000 0.68070  0.15091  0.71911  Biso   1.000  H
  O89      1.0000 0.83863  0.15534  0.77117  Biso   1.000  O
  H370     1.0000 0.70733  0.12139  0.80187  Biso   1.000  H
  H371     1.0000 0.68078  0.15091  0.71911  Biso   1.000  H
  O90      1.0000 0.83871  0.15534  0.77117  Biso   1.000  O
  H372     1.0000 0.70741  0.12139  0.80187  Biso   1.000  H
  C350     1.0000 0.12320  0.17210  0.75489  Biso   1.000  C
  H373     1.0000 0.27180  0.20311  0.77123  Biso   1.000  H
  H374     1.0000 0.18026  0.25120  0.75652  Biso   1.000  H
  H375     1.0000 0.27178  0.20311  0.77117  Biso   1.000  H
  H376     1.0000 0.18018  0.25120  0.75652  Biso   1.000  H
  H377     1.0000 0.64261  0.72959  0.14397  Biso   1.000  H
  H378     1.0000 0.61981  0.79149  0.10511  Biso   1.000  H
  C351     1.0000 0.65010  0.72972  0.03070  Biso   1.000  C
  H379     1.0000 0.64253  0.72959  0.14397  Biso   1.000  H
  C352     1.0000 0.32894  0.73599  0.09192  Biso   1.000  C
  C353     1.0000 0.32886  0.73599  0.09192  Biso   1.000  C
  C354     1.0000 0.88142  0.10419  0.74789  Biso   1.000  C
  C355     1.0000 0.88134  0.10419  0.74789  Biso   1.000  C
  O91      1.0000 0.05628  0.14942  0.79060  Biso   1.000  O
  H380     1.0000 0.07860  0.18859  0.70750  Biso   1.000  H
  H381     1.0000 0.16371  0.13959  0.73872  Biso   1.000  H
  O92      1.0000 0.68477  0.76741  0.97782  Biso   1.000  O
  O93      1.0000 0.68475  0.76741  0.97776  Biso   1.000  O
  O94      1.0000 0.68485  0.76741  0.97782  Biso   1.000  O
  H382     1.0000 0.57249  0.72042  0.01191  Biso   1.000  H
  H383     1.0000 0.69168  0.69340  0.03449  Biso   1.000  H
  H384     1.0000 0.57257  0.72042  0.01191  Biso   1.000  H
  H385     1.0000 0.69177  0.69340  0.03449  Biso   1.000  H
  H386     1.0000 0.40843  0.73911  0.10919  Biso   1.000  H
  H387     1.0000 0.30448  0.70121  0.11520  Biso   1.000  H
  C356     1.0000 0.29879  0.73178  0.00659  Biso   1.000  C
  H388     1.0000 0.40835  0.73911  0.10919  Biso   1.000  H
  H389     1.0000 0.30456  0.70121  0.11520  Biso   1.000  H
  C357     1.0000 0.29887  0.73178  0.00659  Biso   1.000  C
  C358     1.0000 0.81760  0.05589  0.71608  Biso   1.000  C
  C359     1.0000 0.99529  0.10081  0.75909  Biso   1.000  C
  C360     1.0000 0.81768  0.05589  0.71608  Biso   1.000  C
  C361     1.0000 0.99537  0.10081  0.75909  Biso   1.000  C
  C362     1.0000 0.65140  0.74801  0.89968  Biso   1.000  C
  O95      1.0000 0.19171  0.71639  0.98167  Biso   1.000  O
  H390     1.0000 0.34541  0.70279  0.98903  Biso   1.000  H
  H391     1.0000 0.31160  0.76929  0.98401  Biso   1.000  H
  O96      1.0000 0.19163  0.71639  0.98167  Biso   1.000  O
  H392     1.0000 0.34539  0.70279  0.98897  Biso   1.000  H
  C363     1.0000 0.86870  0.00610  0.69682  Biso   1.000  C
  H393     1.0000 0.74099  0.05738  0.70803  Biso   1.000  H
  H394     1.0000 0.74097  0.05738  0.70797  Biso   1.000  H
  C364     1.0000 0.86879  0.00610  0.69682  Biso   1.000  C
  H395     1.0000 0.74107  0.05738  0.70803  Biso   1.000  H
  C365     1.0000 0.04623  0.05058  0.74088  Biso   1.000  C
  C366     1.0000 0.04615  0.05058  0.74088  Biso   1.000  C
  C367     1.0000 0.68710  0.79281  0.84809  Biso   1.000  C
  H396     1.0000 0.68521  0.71042  0.89332  Biso   1.000  H
  H397     1.0000 0.57179  0.74332  0.88602  Biso   1.000  H
  H398     1.0000 0.57178  0.74332  0.88596  Biso   1.000  H
  C368     1.0000 0.15711  0.70230  0.90721  Biso   1.000  C
  C369     1.0000 0.15703  0.70230  0.90721  Biso   1.000  C
  C370     1.0000 0.80875  0.95038  0.66180  Biso   1.000  C
  C371     1.0000 0.80867  0.95038  0.66180  Biso   1.000  C
  C372     1.0000 0.98241  0.00259  0.71013  Biso   1.000  C
  C373     1.0000 0.98239  0.00259  0.71007  Biso   1.000  C
  C374     1.0000 0.98249  0.00259  0.71013  Biso   1.000  C
  H399     1.0000 0.12285  0.04891  0.74923  Biso   1.000  H
  H400     1.0000 0.12275  0.04891  0.74917  Biso   1.000  H
  H401     1.0000 0.12277  0.04891  0.74923  Biso   1.000  H
  H402     1.0000 0.12283  0.04891  0.74917  Biso   1.000  H
  O97      1.0000 0.80529  0.79022  0.85970  Biso   1.000  O
  O98      1.0000 0.80537  0.79022  0.85970  Biso   1.000  O
  H403     1.0000 0.66439  0.83159  0.86122  Biso   1.000  H
  H404     1.0000 0.65329  0.78491  0.79399  Biso   1.000  H
  H405     1.0000 0.66447  0.83159  0.86122  Biso   1.000  H
  H406     1.0000 0.65337  0.78491  0.79399  Biso   1.000  H
  C375     1.0000 0.10714  0.74709  0.85381  Biso   1.000  C
  C376     1.0000 0.10706  0.74709  0.85381  Biso   1.000  C
  H407     1.0000 0.21983  0.68691  0.88871  Biso   1.000  H
  H408     1.0000 0.10423  0.67059  0.90417  Biso   1.000  H
  H409     1.0000 0.21975  0.68691  0.88871  Biso   1.000  H
  H410     1.0000 0.10415  0.67059  0.90417  Biso   1.000  H
  C377     1.0000 0.85822  0.90261  0.72098  Biso   1.000  C
  C378     1.0000 0.85646  0.93801  0.58920  Biso   1.000  C
  C379     1.0000 0.68330  0.95381  0.64651  Biso   1.000  C
  C380     1.0000 0.85814  0.90261  0.72098  Biso   1.000  C
  C381     1.0000 0.85638  0.93801  0.58920  Biso   1.000  C
  C382     1.0000 0.68338  0.95381  0.64651  Biso   1.000  C
  C383     1.0000 0.02673  0.94301  0.68871  Biso   1.000  C
  C384     1.0000 0.02665  0.94301  0.68871  Biso   1.000  C
  C385     1.0000 0.85478  0.82672  0.81471  Biso   1.000  C
  C386     1.0000 0.85487  0.82672  0.81471  Biso   1.000  C
  O99      1.0000 0.01817  0.77671  0.87540  Biso   1.000  O
  H411     1.0000 0.08092  0.72950  0.80292  Biso   1.000  H
  H412     1.0000 0.16334  0.77570  0.84891  Biso   1.000  H
  H413     1.0000 0.16326  0.77570  0.84891  Biso   1.000  H
  H414     1.0000 0.08084  0.72950  0.80292  Biso   1.000  H
  C387     1.0000 0.97254  0.89818  0.73312  Biso   1.000  C
  C388     1.0000 0.79992  0.86782  0.76248  Biso   1.000  C
  C389     1.0000 0.97246  0.89818  0.73312  Biso   1.000  C
  C390     1.0000 0.79984  0.86782  0.76248  Biso   1.000  C
  C391     1.0000 0.97015  0.93420  0.60298  Biso   1.000  C
  C392     1.0000 0.79433  0.93231  0.51258  Biso   1.000  C
  C393     1.0000 0.97007  0.93420  0.60298  Biso   1.000  C
  C394     1.0000 0.79425  0.93231  0.51258  Biso   1.000  C
  H415     1.0000 0.65779  0.98539  0.61091  Biso   1.000  H
  H416     1.0000 0.66079  0.96078  0.69478  Biso   1.000  H
  H417     1.0000 0.65223  0.91748  0.62422  Biso   1.000  H
  H418     1.0000 0.65215  0.91748  0.62422  Biso   1.000  H
  H419     1.0000 0.65787  0.98539  0.61091  Biso   1.000  H
  H420     1.0000 0.66087  0.96078  0.69478  Biso   1.000  H
  C395     1.0000 0.15125  0.93911  0.70441  Biso   1.000  C
  C396     1.0000 0.15117  0.93911  0.70441  Biso   1.000  C
  C397     1.0000 0.96899  0.81992  0.82381  Biso   1.000  C
  C398     1.0000 0.96907  0.81992  0.82381  Biso   1.000  C
  C399     1.0000 0.02741  0.85611  0.78378  Biso   1.000  C
  C400     1.0000 0.02733  0.85611  0.78378  Biso   1.000  C
  H421     1.0000 0.72370  0.87199  0.75541  Biso   1.000  H
  H422     1.0000 0.72378  0.87199  0.75541  Biso   1.000  H
  C401     1.0000 0.02360  0.92389  0.54211  Biso   1.000  C
  C402     1.0000 0.84991  0.92349  0.45258  Biso   1.000  C
  H423     1.0000 0.71765  0.93442  0.50213  Biso   1.000  H
  H424     1.0000 0.71755  0.93442  0.50207  Biso   1.000  H
  C403     1.0000 0.84999  0.92349  0.45258  Biso   1.000  C
  H425     1.0000 0.71763  0.93442  0.50207  Biso   1.000  H
  H426     1.0000 0.17252  0.90081  0.69023  Biso   1.000  H
  H427     1.0000 0.18115  0.94569  0.75892  Biso   1.000  H
  H428     1.0000 0.17915  0.96819  0.67412  Biso   1.000  H
  H429     1.0000 0.17250  0.90081  0.69017  Biso   1.000  H
  H430     1.0000 0.18107  0.94569  0.75892  Biso   1.000  H
  H431     1.0000 0.17907  0.96819  0.67412  Biso   1.000  H
  H432     1.0000 0.10361  0.85212  0.79101  Biso   1.000  H
  C404     1.0000 0.96231  0.91911  0.46741  Biso   1.000  C
  C405     1.0000 0.96239  0.91911  0.46741  Biso   1.000  C
  H433     1.0000 0.10013  0.92029  0.55203  Biso   1.000  H
  H434     1.0000 0.10011  0.92029  0.55197  Biso   1.000  H
  H435     1.0000 0.80981  0.92060  0.40140  Biso   1.000  H
  H436     1.0000 0.80989  0.92060  0.40140  Biso   1.000  H
  H437     1.0000 0.99763  0.91270  0.42650  Biso   1.000  H
  H438     1.0000 0.99771  0.91270  0.42650  Biso   1.000  H
  C406     1.0000 0.97265  0.14389  0.21617  Biso   1.000  C
  C407     1.0000 0.03101  0.18008  0.17619  Biso   1.000  C
  C408     1.0000 0.03093  0.18008  0.17619  Biso   1.000  C
  H439     1.0000 0.89639  0.14788  0.20899  Biso   1.000  H
  C409     1.0000 0.02746  0.10182  0.26688  Biso   1.000  C
  C410     1.0000 0.02754  0.10182  0.26688  Biso   1.000  C
  O100     1.0000 0.98183  0.22329  0.12460  Biso   1.000  O
  C411     1.0000 0.97259  0.14389  0.21622  Biso   1.000  C
  C412     1.0000 0.97257  0.14389  0.21617  Biso   1.000  C
  C413     1.0000 0.14522  0.17328  0.18529  Biso   1.000  C
  C414     1.0000 0.14513  0.17328  0.18529  Biso   1.000  C
  C415     1.0000 0.97327  0.05699  0.31129  Biso   1.000  C
  C416     1.0000 0.97335  0.05699  0.31129  Biso   1.000  C
  C417     1.0000 0.14178  0.09739  0.27902  Biso   1.000  C
  C418     1.0000 0.14176  0.09739  0.27896  Biso   1.000  C
  C419     1.0000 0.14186  0.09739  0.27902  Biso   1.000  C
  C420     1.0000 0.89294  0.25291  0.14619  Biso   1.000  C
  C421     1.0000 0.89286  0.25291  0.14619  Biso   1.000  C
  O101     1.0000 0.19471  0.20978  0.14030  Biso   1.000  O
  C422     1.0000 0.20008  0.13218  0.23752  Biso   1.000  C
  O102     1.0000 0.19463  0.20978  0.14030  Biso   1.000  O
  C423     1.0000 0.20006  0.13218  0.23747  Biso   1.000  C
  C424     1.0000 0.20016  0.13218  0.23752  Biso   1.000  C
  C425     1.0000 0.84883  0.06089  0.29559  Biso   1.000  C
  C426     1.0000 0.84875  0.06089  0.29559  Biso   1.000  C
  C427     1.0000 0.01759  0.99741  0.28987  Biso   1.000  C
  C428     1.0000 0.01751  0.99741  0.28987  Biso   1.000  C
  C429     1.0000 0.02985  0.06580  0.39702  Biso   1.000  C
  C430     1.0000 0.02984  0.06580  0.39696  Biso   1.000  C
  C431     1.0000 0.02993  0.06580  0.39702  Biso   1.000  C
  C432     1.0000 0.19125  0.04962  0.33820  Biso   1.000  C
  C433     1.0000 0.19133  0.04962  0.33820  Biso   1.000  C
  C434     1.0000 0.84289  0.29770  0.09279  Biso   1.000  C
  H440     1.0000 0.91908  0.27050  0.19708  Biso   1.000  H
  H441     1.0000 0.83674  0.22430  0.15109  Biso   1.000  H
  H442     1.0000 0.83666  0.22430  0.15109  Biso   1.000  H
  C435     1.0000 0.84297  0.29770  0.09279  Biso   1.000  C
  H443     1.0000 0.91916  0.27050  0.19708  Biso   1.000  H
  C436     1.0000 0.31290  0.20719  0.15191  Biso   1.000  C
  H444     1.0000 0.27630  0.12801  0.24459  Biso   1.000  H
  H445     1.0000 0.27622  0.12801  0.24459  Biso   1.000  H
  H446     1.0000 0.82748  0.09919  0.30977  Biso   1.000  H
  H447     1.0000 0.81893  0.05431  0.24108  Biso   1.000  H
  H448     1.0000 0.82093  0.03181  0.32588  Biso   1.000  H
  H449     1.0000 0.81885  0.05431  0.24108  Biso   1.000  H
  H450     1.0000 0.82085  0.03181  0.32588  Biso   1.000  H
  C437     1.0000 0.95377  0.94942  0.25912  Biso   1.000  C
  C438     1.0000 0.95385  0.94942  0.25912  Biso   1.000  C
  C439     1.0000 0.13130  0.99390  0.30318  Biso   1.000  C
  C440     1.0000 0.13121  0.99390  0.30318  Biso   1.000  C
  C441     1.0000 0.97640  0.07611  0.45789  Biso   1.000  C
  C442     1.0000 0.14354  0.06199  0.41080  Biso   1.000  C
  C443     1.0000 0.14362  0.06199  0.41080  Biso   1.000  C
  C444     1.0000 0.31670  0.04619  0.35349  Biso   1.000  C
  C445     1.0000 0.31662  0.04619  0.35349  Biso   1.000  C
  H451     1.0000 0.78025  0.31309  0.11129  Biso   1.000  H
  H452     1.0000 0.78017  0.31309  0.11129  Biso   1.000  H
  O103     1.0000 0.80829  0.28361  0.01833  Biso   1.000  O
  H453     1.0000 0.89577  0.32941  0.09583  Biso   1.000  H
  O104     1.0000 0.80835  0.28361  0.01827  Biso   1.000  O
  H454     1.0000 0.89584  0.32941  0.09577  Biso   1.000  H
  O105     1.0000 0.80837  0.28361  0.01833  Biso   1.000  O
  H455     1.0000 0.89585  0.32941  0.09583  Biso   1.000  H
  O106     1.0000 0.80827  0.28361  0.01827  Biso   1.000  O
  H456     1.0000 0.89576  0.32941  0.09577  Biso   1.000  H
  C446     1.0000 0.34860  0.25199  0.10032  Biso   1.000  C
  H457     1.0000 0.33561  0.16841  0.13878  Biso   1.000  H
  H458     1.0000 0.34671  0.21509  0.20601  Biso   1.000  H
  C447     1.0000 0.34859  0.25199  0.10026  Biso   1.000  C
  H459     1.0000 0.33553  0.16841  0.13878  Biso   1.000  H
  H460     1.0000 0.34663  0.21509  0.20601  Biso   1.000  H
  H461     1.0000 0.87715  0.95109  0.25077  Biso   1.000  H
  H462     1.0000 0.87723  0.95109  0.25077  Biso   1.000  H
  C448     1.0000 0.00471  0.89919  0.24091  Biso   1.000  C
  C449     1.0000 0.00463  0.89919  0.24091  Biso   1.000  C
  C450     1.0000 0.18240  0.94411  0.28392  Biso   1.000  C
  C451     1.0000 0.18231  0.94411  0.28386  Biso   1.000  C
  C452     1.0000 0.18239  0.94411  0.28386  Biso   1.000  C
  H463     1.0000 0.89987  0.07971  0.44797  Biso   1.000  H
  C453     1.0000 0.03769  0.08089  0.53259  Biso   1.000  C
  C454     1.0000 0.03761  0.08089  0.53259  Biso   1.000  C
  C455     1.0000 0.20567  0.06769  0.48742  Biso   1.000  C
  C456     1.0000 0.20565  0.06769  0.48736  Biso   1.000  C
  C457     1.0000 0.20575  0.06769  0.48742  Biso   1.000  C
  H464     1.0000 0.34221  0.01461  0.38909  Biso   1.000  H
  H465     1.0000 0.33921  0.03922  0.30522  Biso   1.000  H
  H466     1.0000 0.34777  0.08252  0.37578  Biso   1.000  H
  H467     1.0000 0.34213  0.01461  0.38909  Biso   1.000  H
  H468     1.0000 0.33911  0.03922  0.30516  Biso   1.000  H
  H469     1.0000 0.34785  0.08252  0.37578  Biso   1.000  H
  H470     1.0000 0.33919  0.03922  0.30516  Biso   1.000  H
  C458     1.0000 0.70121  0.26822  0.99341  Biso   1.000  C
  C459     1.0000 0.70113  0.26822  0.99341  Biso   1.000  C
  O107     1.0000 0.31523  0.23259  0.02218  Biso   1.000  O
  H471     1.0000 0.31479  0.28958  0.10668  Biso   1.000  H
  H472     1.0000 0.42821  0.25668  0.11398  Biso   1.000  H
  O108     1.0000 0.31515  0.23259  0.02218  Biso   1.000  O
  H473     1.0000 0.42812  0.25668  0.11398  Biso   1.000  H
  O109     1.0000 0.94372  0.85058  0.20940  Biso   1.000  O
  O110     1.0000 0.94364  0.85058  0.20940  Biso   1.000  O
  C460     1.0000 0.11858  0.89581  0.25211  Biso   1.000  C
  H474     1.0000 0.25901  0.94262  0.29197  Biso   1.000  H
  H475     1.0000 0.25893  0.94262  0.29197  Biso   1.000  H
  H476     1.0000 0.00237  0.08730  0.57350  Biso   1.000  H
  C461     1.0000 0.15009  0.07651  0.54742  Biso   1.000  C
  H477     1.0000 0.00229  0.08730  0.57350  Biso   1.000  H
  C462     1.0000 0.14999  0.07651  0.54736  Biso   1.000  C
  C463     1.0000 0.15007  0.07651  0.54736  Biso   1.000  C
  H478     1.0000 0.28235  0.06558  0.49787  Biso   1.000  H
  H479     1.0000 0.28244  0.06558  0.49787  Biso   1.000  H
  H480     1.0000 0.65459  0.29721  0.01097  Biso   1.000  H
  H481     1.0000 0.68840  0.23071  0.01599  Biso   1.000  H
  C464     1.0000 0.67106  0.26401  0.90808  Biso   1.000  C
  C465     1.0000 0.67114  0.26401  0.90808  Biso   1.000  C
  C466     1.0000 0.34990  0.27028  0.96930  Biso   1.000  C
  C467     1.0000 0.87680  0.82790  0.24511  Biso   1.000  C
  O111     1.0000 0.16127  0.84466  0.22877  Biso   1.000  O
  O112     1.0000 0.16135  0.84466  0.22877  Biso   1.000  O
  H482     1.0000 0.19019  0.07940  0.59860  Biso   1.000  H
  H483     1.0000 0.19011  0.07940  0.59860  Biso   1.000  H
  O113     1.0000 0.72433  0.21242  0.88480  Biso   1.000  O
  H484     1.0000 0.59157  0.26089  0.89081  Biso   1.000  H
  H485     1.0000 0.69552  0.29879  0.88480  Biso   1.000  H
  O114     1.0000 0.72425  0.21242  0.88480  Biso   1.000  O
  H486     1.0000 0.69544  0.29879  0.88480  Biso   1.000  H
  H487     1.0000 0.59165  0.26089  0.89081  Biso   1.000  H
  C468     1.0000 0.33403  0.24308  0.89168  Biso   1.000  C
  H488     1.0000 0.42751  0.27958  0.98809  Biso   1.000  H
  H489     1.0000 0.30832  0.30660  0.96551  Biso   1.000  H
  C469     1.0000 0.33395  0.24308  0.89168  Biso   1.000  C
  H490     1.0000 0.42743  0.27958  0.98809  Biso   1.000  H
  H491     1.0000 0.30823  0.30660  0.96551  Biso   1.000  H
  H492     1.0000 0.92140  0.81141  0.29250  Biso   1.000  H
  H493     1.0000 0.83629  0.86041  0.26128  Biso   1.000  H
  C470     1.0000 0.79705  0.78500  0.21558  Biso   1.000  C
  C471     1.0000 0.79713  0.78500  0.21558  Biso   1.000  C
  C472     1.0000 0.27647  0.84510  0.22790  Biso   1.000  C
  C473     1.0000 0.27655  0.84510  0.22790  Biso   1.000  C
  C474     1.0000 0.69093  0.20930  0.80683  Biso   1.000  C
  C475     1.0000 0.69083  0.20930  0.80677  Biso   1.000  C
  C476     1.0000 0.69091  0.20930  0.80677  Biso   1.000  C
  O115     1.0000 0.22473  0.22742  0.86210  Biso   1.000  O
  H494     1.0000 0.35739  0.27041  0.85603  Biso   1.000  H
  H495     1.0000 0.38019  0.20851  0.89489  Biso   1.000  H
  O116     1.0000 0.22465  0.22742  0.86210  Biso   1.000  O
  H496     1.0000 0.35737  0.27041  0.85597  Biso   1.000  H
  O117     1.0000 0.77527  0.77258  0.13790  Biso   1.000  O
  H497     1.0000 0.72820  0.79689  0.22877  Biso   1.000  H
  H498     1.0000 0.81974  0.74880  0.24348  Biso   1.000  H
  O118     1.0000 0.77535  0.77258  0.13790  Biso   1.000  O
  H499     1.0000 0.81982  0.74880  0.24348  Biso   1.000  H
  H500     1.0000 0.29257  0.87861  0.19807  Biso   1.000  H
  H501     1.0000 0.31930  0.84909  0.28089  Biso   1.000  H
  C477     1.0000 0.30907  0.79070  0.19317  Biso   1.000  C
  H502     1.0000 0.31922  0.84909  0.28089  Biso   1.000  H
  H503     1.0000 0.29265  0.87861  0.19807  Biso   1.000  H
  C478     1.0000 0.30915  0.79070  0.19317  Biso   1.000  C
  C479     1.0000 0.72353  0.15490  0.77210  Biso   1.000  C
  H504     1.0000 0.72119  0.24251  0.78378  Biso   1.000  H
  H505     1.0000 0.61110  0.21259  0.79323  Biso   1.000  H
  C480     1.0000 0.72345  0.15490  0.77210  Biso   1.000  C
  H506     1.0000 0.61108  0.21259  0.79317  Biso   1.000  H
  H507     1.0000 0.72127  0.24251  0.78378  Biso   1.000  H
  H508     1.0000 0.61118  0.21259  0.79323  Biso   1.000  H
  C481     1.0000 0.20295  0.21500  0.78442  Biso   1.000  C
  C482     1.0000 0.20287  0.21500  0.78442  Biso   1.000  C
  C483     1.0000 0.66597  0.75692  0.10832  Biso   1.000  C
  C484     1.0000 0.66605  0.75692  0.10832  Biso   1.000  C
  O119     1.0000 0.27567  0.78758  0.11520  Biso   1.000  O
  H509     1.0000 0.27881  0.75749  0.21622  Biso   1.000  H
  H510     1.0000 0.38890  0.78741  0.20677  Biso   1.000  H
  H511     1.0000 0.27871  0.75749  0.21617  Biso   1.000  H
  H512     1.0000 0.38882  0.78741  0.20677  Biso   1.000  H
  O120     1.0000 0.27575  0.78758  0.11520  Biso   1.000  O
  H513     1.0000 0.27879  0.75749  0.21617  Biso   1.000  H
  O121     1.0000 0.83873  0.15534  0.77123  Biso   1.000  O
  H514     1.0000 0.70743  0.12139  0.80193  Biso   1.000  H
  H515     1.0000 0.68070  0.15091  0.71911  Biso   1.000  H
  O122     1.0000 0.83863  0.15534  0.77117  Biso   1.000  O
  H516     1.0000 0.70733  0.12139  0.80187  Biso   1.000  H
  H517     1.0000 0.68078  0.15091  0.71911  Biso   1.000  H
  O123     1.0000 0.83871  0.15534  0.77117  Biso   1.000  O
  H518     1.0000 0.70741  0.12139  0.80187  Biso   1.000  H
  C485     1.0000 0.12320  0.17210  0.75489  Biso   1.000  C
  H519     1.0000 0.27180  0.20311  0.77123  Biso   1.000  H
  H520     1.0000 0.18026  0.25120  0.75652  Biso   1.000  H
  H521     1.0000 0.27178  0.20311  0.77117  Biso   1.000  H
  H522     1.0000 0.18018  0.25120  0.75652  Biso   1.000  H
  H523     1.0000 0.64261  0.72959  0.14397  Biso   1.000  H
  H524     1.0000 0.61981  0.79149  0.10511  Biso   1.000  H
  C486     1.0000 0.65010  0.72972  0.03070  Biso   1.000  C
  H525     1.0000 0.64253  0.72959  0.14397  Biso   1.000  H
  C487     1.0000 0.32894  0.73599  0.09192  Biso   1.000  C
  C488     1.0000 0.32886  0.73599  0.09192  Biso   1.000  C
  C489     1.0000 0.88142  0.10419  0.74789  Biso   1.000  C
  C490     1.0000 0.88134  0.10419  0.74789  Biso   1.000  C
  O124     1.0000 0.05628  0.14942  0.79060  Biso   1.000  O
  H526     1.0000 0.07860  0.18859  0.70750  Biso   1.000  H
  H527     1.0000 0.16371  0.13959  0.73872  Biso   1.000  H
  O125     1.0000 0.68477  0.76741  0.97782  Biso   1.000  O
  O126     1.0000 0.68475  0.76741  0.97776  Biso   1.000  O
  O127     1.0000 0.68485  0.76741  0.97782  Biso   1.000  O
  H528     1.0000 0.57249  0.72042  0.01191  Biso   1.000  H
  H529     1.0000 0.69168  0.69340  0.03449  Biso   1.000  H
  H530     1.0000 0.57257  0.72042  0.01191  Biso   1.000  H
  H531     1.0000 0.69177  0.69340  0.03449  Biso   1.000  H
  H532     1.0000 0.40843  0.73911  0.10919  Biso   1.000  H
  H533     1.0000 0.30448  0.70121  0.11520  Biso   1.000  H
  C491     1.0000 0.29879  0.73178  0.00659  Biso   1.000  C
  H534     1.0000 0.40835  0.73911  0.10919  Biso   1.000  H
  H535     1.0000 0.30456  0.70121  0.11520  Biso   1.000  H
  C492     1.0000 0.29887  0.73178  0.00659  Biso   1.000  C
  C493     1.0000 0.81760  0.05589  0.71608  Biso   1.000  C
  C494     1.0000 0.99529  0.10081  0.75909  Biso   1.000  C
  C495     1.0000 0.81768  0.05589  0.71608  Biso   1.000  C
  C496     1.0000 0.99537  0.10081  0.75909  Biso   1.000  C
  C497     1.0000 0.65140  0.74801  0.89968  Biso   1.000  C
  O128     1.0000 0.19171  0.71639  0.98167  Biso   1.000  O
  H536     1.0000 0.34541  0.70279  0.98903  Biso   1.000  H
  H537     1.0000 0.31160  0.76929  0.98401  Biso   1.000  H
  O129     1.0000 0.19163  0.71639  0.98167  Biso   1.000  O
  H538     1.0000 0.34539  0.70279  0.98897  Biso   1.000  H
  C498     1.0000 0.86870  0.00610  0.69682  Biso   1.000  C
  H539     1.0000 0.74099  0.05738  0.70803  Biso   1.000  H
  H540     1.0000 0.74097  0.05738  0.70797  Biso   1.000  H
  C499     1.0000 0.86879  0.00610  0.69682  Biso   1.000  C
  H541     1.0000 0.74107  0.05738  0.70803  Biso   1.000  H
  C500     1.0000 0.04623  0.05058  0.74088  Biso   1.000  C
  C501     1.0000 0.04615  0.05058  0.74088  Biso   1.000  C
  C502     1.0000 0.68710  0.79281  0.84809  Biso   1.000  C
  H542     1.0000 0.68521  0.71042  0.89332  Biso   1.000  H
  H543     1.0000 0.57179  0.74332  0.88602  Biso   1.000  H
  H544     1.0000 0.57178  0.74332  0.88596  Biso   1.000  H
  C503     1.0000 0.15711  0.70230  0.90721  Biso   1.000  C
  C504     1.0000 0.15703  0.70230  0.90721  Biso   1.000  C
  C505     1.0000 0.80875  0.95038  0.66180  Biso   1.000  C
  C506     1.0000 0.80867  0.95038  0.66180  Biso   1.000  C
  C507     1.0000 0.98241  0.00259  0.71013  Biso   1.000  C
  C508     1.0000 0.98239  0.00259  0.71007  Biso   1.000  C
  C509     1.0000 0.98249  0.00259  0.71013  Biso   1.000  C
  H545     1.0000 0.12285  0.04891  0.74923  Biso   1.000  H
  H546     1.0000 0.12275  0.04891  0.74917  Biso   1.000  H
  H547     1.0000 0.12277  0.04891  0.74923  Biso   1.000  H
  H548     1.0000 0.12283  0.04891  0.74917  Biso   1.000  H
  O130     1.0000 0.80529  0.79022  0.85970  Biso   1.000  O
  O131     1.0000 0.80537  0.79022  0.85970  Biso   1.000  O
  H549     1.0000 0.66439  0.83159  0.86122  Biso   1.000  H
  H550     1.0000 0.65329  0.78491  0.79399  Biso   1.000  H
  H551     1.0000 0.66447  0.83159  0.86122  Biso   1.000  H
  H552     1.0000 0.65337  0.78491  0.79399  Biso   1.000  H
  C510     1.0000 0.10714  0.74709  0.85381  Biso   1.000  C
  C511     1.0000 0.10706  0.74709  0.85381  Biso   1.000  C
  H553     1.0000 0.21983  0.68691  0.88871  Biso   1.000  H
  H554     1.0000 0.10423  0.67059  0.90417  Biso   1.000  H
  H555     1.0000 0.21975  0.68691  0.88871  Biso   1.000  H
  H556     1.0000 0.10415  0.67059  0.90417  Biso   1.000  H
  C512     1.0000 0.85822  0.90261  0.72098  Biso   1.000  C
  C513     1.0000 0.85646  0.93801  0.58920  Biso   1.000  C
  C514     1.0000 0.68330  0.95381  0.64651  Biso   1.000  C
  C515     1.0000 0.85814  0.90261  0.72098  Biso   1.000  C
  C516     1.0000 0.85638  0.93801  0.58920  Biso   1.000  C
  C517     1.0000 0.68338  0.95381  0.64651  Biso   1.000  C
  C518     1.0000 0.02673  0.94301  0.68871  Biso   1.000  C
  C519     1.0000 0.02665  0.94301  0.68871  Biso   1.000  C
  C520     1.0000 0.85478  0.82672  0.81471  Biso   1.000  C
  C521     1.0000 0.85487  0.82672  0.81471  Biso   1.000  C
  O132     1.0000 0.01817  0.77671  0.87540  Biso   1.000  O
  H557     1.0000 0.08092  0.72950  0.80292  Biso   1.000  H
  H558     1.0000 0.16334  0.77570  0.84891  Biso   1.000  H
  H559     1.0000 0.16326  0.77570  0.84891  Biso   1.000  H
  H560     1.0000 0.08084  0.72950  0.80292  Biso   1.000  H
  C522     1.0000 0.97254  0.89818  0.73312  Biso   1.000  C
  C523     1.0000 0.79992  0.86782  0.76248  Biso   1.000  C
  C524     1.0000 0.97246  0.89818  0.73312  Biso   1.000  C
  C525     1.0000 0.79984  0.86782  0.76248  Biso   1.000  C
  C526     1.0000 0.97015  0.93420  0.60298  Biso   1.000  C
  C527     1.0000 0.79433  0.93231  0.51258  Biso   1.000  C
  C528     1.0000 0.97007  0.93420  0.60298  Biso   1.000  C
  C529     1.0000 0.79425  0.93231  0.51258  Biso   1.000  C
  H561     1.0000 0.65779  0.98539  0.61091  Biso   1.000  H
  H562     1.0000 0.66079  0.96078  0.69478  Biso   1.000  H
  H563     1.0000 0.65223  0.91748  0.62422  Biso   1.000  H
  H564     1.0000 0.65215  0.91748  0.62422  Biso   1.000  H
  H565     1.0000 0.65787  0.98539  0.61091  Biso   1.000  H
  H566     1.0000 0.66087  0.96078  0.69478  Biso   1.000  H
  C530     1.0000 0.15125  0.93911  0.70441  Biso   1.000  C
  C531     1.0000 0.15117  0.93911  0.70441  Biso   1.000  C
  C532     1.0000 0.96899  0.81992  0.82381  Biso   1.000  C
  C533     1.0000 0.96907  0.81992  0.82381  Biso   1.000  C
  C534     1.0000 0.02741  0.85611  0.78378  Biso   1.000  C
  C535     1.0000 0.02733  0.85611  0.78378  Biso   1.000  C
  H567     1.0000 0.72370  0.87199  0.75541  Biso   1.000  H
  H568     1.0000 0.72378  0.87199  0.75541  Biso   1.000  H
  C536     1.0000 0.02360  0.92389  0.54211  Biso   1.000  C
  C537     1.0000 0.84991  0.92349  0.45258  Biso   1.000  C
  H569     1.0000 0.71765  0.93442  0.50213  Biso   1.000  H
  H570     1.0000 0.71755  0.93442  0.50207  Biso   1.000  H
  C538     1.0000 0.84999  0.92349  0.45258  Biso   1.000  C
  H571     1.0000 0.71763  0.93442  0.50207  Biso   1.000  H
  H572     1.0000 0.17252  0.90081  0.69023  Biso   1.000  H
  H573     1.0000 0.18115  0.94569  0.75892  Biso   1.000  H
  H574     1.0000 0.17915  0.96819  0.67412  Biso   1.000  H
  H575     1.0000 0.17250  0.90081  0.69017  Biso   1.000  H
  H576     1.0000 0.18107  0.94569  0.75892  Biso   1.000  H
  H577     1.0000 0.17907  0.96819  0.67412  Biso   1.000  H
  H578     1.0000 0.10361  0.85212  0.79101  Biso   1.000  H
  C539     1.0000 0.96231  0.91911  0.46741  Biso   1.000  C
  C540     1.0000 0.96239  0.91911  0.46741  Biso   1.000  C
  H579     1.0000 0.10013  0.92029  0.55203  Biso   1.000  H
  H580     1.0000 0.10011  0.92029  0.55197  Biso   1.000  H
  H581     1.0000 0.80981  0.92060  0.40140  Biso   1.000  H
  H582     1.0000 0.80989  0.92060  0.40140  Biso   1.000  H
  H583     1.0000 0.99763  0.91270  0.42650  Biso   1.000  H
  H584     1.0000 0.99771  0.91270  0.42650  Biso   1.000  H
  C541     1.0000 0.97265  0.14389  0.21617  Biso   1.000  C
  C542     1.0000 0.03101  0.18008  0.17619  Biso   1.000  C
  C543     1.0000 0.03093  0.18008  0.17619  Biso   1.000  C
  H585     1.0000 0.89639  0.14788  0.20899  Biso   1.000  H
  C544     1.0000 0.02746  0.10182  0.26688  Biso   1.000  C
  C545     1.0000 0.02754  0.10182  0.26688  Biso   1.000  C
  O133     1.0000 0.98183  0.22329  0.12460  Biso   1.000  O
  C546     1.0000 0.97259  0.14389  0.21622  Biso   1.000  C
  C547     1.0000 0.97257  0.14389  0.21617  Biso   1.000  C
  C548     1.0000 0.14522  0.17328  0.18529  Biso   1.000  C
  C549     1.0000 0.14513  0.17328  0.18529  Biso   1.000  C
  C550     1.0000 0.97327  0.05699  0.31129  Biso   1.000  C
  C551     1.0000 0.97335  0.05699  0.31129  Biso   1.000  C
  C552     1.0000 0.14178  0.09739  0.27902  Biso   1.000  C
  C553     1.0000 0.14176  0.09739  0.27896  Biso   1.000  C
  C554     1.0000 0.14186  0.09739  0.27902  Biso   1.000  C
  C555     1.0000 0.89286  0.25291  0.14619  Biso   1.000  C
  C556     1.0000 0.89294  0.25291  0.14619  Biso   1.000  C
  O134     1.0000 0.19471  0.20978  0.14030  Biso   1.000  O
  C557     1.0000 0.20008  0.13218  0.23752  Biso   1.000  C
  O135     1.0000 0.19463  0.20978  0.14030  Biso   1.000  O
  C558     1.0000 0.20006  0.13218  0.23747  Biso   1.000  C
  C559     1.0000 0.20016  0.13218  0.23752  Biso   1.000  C
  C560     1.0000 0.84875  0.06089  0.29559  Biso   1.000  C
  C561     1.0000 0.84883  0.06089  0.29559  Biso   1.000  C
  C562     1.0000 0.01759  0.99741  0.28987  Biso   1.000  C
  C563     1.0000 0.01751  0.99741  0.28987  Biso   1.000  C
  C564     1.0000 0.02985  0.06580  0.39702  Biso   1.000  C
  C565     1.0000 0.02984  0.06580  0.39696  Biso   1.000  C
  C566     1.0000 0.02993  0.06580  0.39702  Biso   1.000  C
  C567     1.0000 0.19125  0.04962  0.33820  Biso   1.000  C
  C568     1.0000 0.19133  0.04962  0.33820  Biso   1.000  C
  C569     1.0000 0.84289  0.29770  0.09279  Biso   1.000  C
  C570     1.0000 0.84297  0.29770  0.09279  Biso   1.000  C
  H586     1.0000 0.91908  0.27050  0.19708  Biso   1.000  H
  H587     1.0000 0.83666  0.22430  0.15109  Biso   1.000  H
  H588     1.0000 0.91916  0.27050  0.19708  Biso   1.000  H
  H589     1.0000 0.83674  0.22430  0.15109  Biso   1.000  H
  C571     1.0000 0.31290  0.20719  0.15191  Biso   1.000  C
  H590     1.0000 0.27630  0.12801  0.24459  Biso   1.000  H
  H591     1.0000 0.27622  0.12801  0.24459  Biso   1.000  H
  H592     1.0000 0.82748  0.09919  0.30977  Biso   1.000  H
  H593     1.0000 0.81885  0.05431  0.24108  Biso   1.000  H
  H594     1.0000 0.82085  0.03181  0.32588  Biso   1.000  H
  H595     1.0000 0.81893  0.05431  0.24108  Biso   1.000  H
  H596     1.0000 0.82093  0.03181  0.32588  Biso   1.000  H
  C572     1.0000 0.95377  0.94942  0.25912  Biso   1.000  C
  C573     1.0000 0.95385  0.94942  0.25912  Biso   1.000  C
  C574     1.0000 0.13130  0.99390  0.30318  Biso   1.000  C
  C575     1.0000 0.13121  0.99390  0.30318  Biso   1.000  C
  C576     1.0000 0.97640  0.07611  0.45789  Biso   1.000  C
  C577     1.0000 0.14354  0.06199  0.41080  Biso   1.000  C
  C578     1.0000 0.14362  0.06199  0.41080  Biso   1.000  C
  C579     1.0000 0.31670  0.04619  0.35349  Biso   1.000  C
  C580     1.0000 0.31662  0.04619  0.35349  Biso   1.000  C
  O136     1.0000 0.80829  0.28361  0.01833  Biso   1.000  O
  H597     1.0000 0.78017  0.31309  0.11129  Biso   1.000  H
  H598     1.0000 0.89577  0.32941  0.09583  Biso   1.000  H
  O137     1.0000 0.80835  0.28361  0.01827  Biso   1.000  O
  H599     1.0000 0.78025  0.31309  0.11129  Biso   1.000  H
  H600     1.0000 0.89584  0.32941  0.09577  Biso   1.000  H
  O138     1.0000 0.80837  0.28361  0.01833  Biso   1.000  O
  H601     1.0000 0.89585  0.32941  0.09583  Biso   1.000  H
  O139     1.0000 0.80827  0.28361  0.01827  Biso   1.000  O
  H602     1.0000 0.89576  0.32941  0.09577  Biso   1.000  H
  C581     1.0000 0.34860  0.25199  0.10032  Biso   1.000  C
  H603     1.0000 0.33561  0.16841  0.13878  Biso   1.000  H
  H604     1.0000 0.34671  0.21509  0.20601  Biso   1.000  H
  C582     1.0000 0.34859  0.25199  0.10026  Biso   1.000  C
  H605     1.0000 0.33553  0.16841  0.13878  Biso   1.000  H
  H606     1.0000 0.34663  0.21509  0.20601  Biso   1.000  H
  H607     1.0000 0.87715  0.95109  0.25077  Biso   1.000  H
  H608     1.0000 0.87723  0.95109  0.25077  Biso   1.000  H
  C583     1.0000 0.00471  0.89919  0.24091  Biso   1.000  C
  C584     1.0000 0.00463  0.89919  0.24091  Biso   1.000  C
  C585     1.0000 0.18240  0.94411  0.28392  Biso   1.000  C
  C586     1.0000 0.18231  0.94411  0.28386  Biso   1.000  C
  C587     1.0000 0.18239  0.94411  0.28386  Biso   1.000  C
  H609     1.0000 0.89987  0.07971  0.44797  Biso   1.000  H
  C588     1.0000 0.03769  0.08089  0.53259  Biso   1.000  C
  C589     1.0000 0.03761  0.08089  0.53259  Biso   1.000  C
  C590     1.0000 0.20567  0.06769  0.48742  Biso   1.000  C
  C591     1.0000 0.20565  0.06769  0.48736  Biso   1.000  C
  C592     1.0000 0.20575  0.06769  0.48742  Biso   1.000  C
  H610     1.0000 0.34221  0.01461  0.38909  Biso   1.000  H
  H611     1.0000 0.33921  0.03922  0.30522  Biso   1.000  H
  H612     1.0000 0.34777  0.08252  0.37578  Biso   1.000  H
  H613     1.0000 0.34213  0.01461  0.38909  Biso   1.000  H
  H614     1.0000 0.33911  0.03922  0.30516  Biso   1.000  H
  H615     1.0000 0.34785  0.08252  0.37578  Biso   1.000  H
  H616     1.0000 0.33919  0.03922  0.30516  Biso   1.000  H
  C593     1.0000 0.70121  0.26822  0.99341  Biso   1.000  C
  C594     1.0000 0.70113  0.26822  0.99341  Biso   1.000  C
  O140     1.0000 0.31523  0.23259  0.02218  Biso   1.000  O
  H617     1.0000 0.31479  0.28958  0.10668  Biso   1.000  H
  H618     1.0000 0.42821  0.25668  0.11398  Biso   1.000  H
  O141     1.0000 0.31515  0.23259  0.02218  Biso   1.000  O
  H619     1.0000 0.42812  0.25668  0.11398  Biso   1.000  H
  O142     1.0000 0.94372  0.85058  0.20940  Biso   1.000  O
  O143     1.0000 0.94364  0.85058  0.20940  Biso   1.000  O
  C595     1.0000 0.11858  0.89581  0.25211  Biso   1.000  C
  H620     1.0000 0.25901  0.94262  0.29197  Biso   1.000  H
  H621     1.0000 0.25893  0.94262  0.29197  Biso   1.000  H
  H622     1.0000 0.00237  0.08730  0.57350  Biso   1.000  H
  C596     1.0000 0.15009  0.07651  0.54742  Biso   1.000  C
  H623     1.0000 0.00229  0.08730  0.57350  Biso   1.000  H
  C597     1.0000 0.14999  0.07651  0.54736  Biso   1.000  C
  C598     1.0000 0.15007  0.07651  0.54736  Biso   1.000  C
  H624     1.0000 0.28235  0.06558  0.49787  Biso   1.000  H
  H625     1.0000 0.28244  0.06558  0.49787  Biso   1.000  H
  H626     1.0000 0.65459  0.29721  0.01097  Biso   1.000  H
  H627     1.0000 0.68840  0.23071  0.01599  Biso   1.000  H
  C599     1.0000 0.67106  0.26401  0.90808  Biso   1.000  C
  C600     1.0000 0.67114  0.26401  0.90808  Biso   1.000  C
  C601     1.0000 0.34990  0.27028  0.96930  Biso   1.000  C
  C602     1.0000 0.87680  0.82790  0.24511  Biso   1.000  C
  O144     1.0000 0.16127  0.84466  0.22877  Biso   1.000  O
  O145     1.0000 0.16135  0.84466  0.22877  Biso   1.000  O
  H628     1.0000 0.19019  0.07940  0.59860  Biso   1.000  H
  H629     1.0000 0.19011  0.07940  0.59860  Biso   1.000  H
  O146     1.0000 0.72433  0.21242  0.88480  Biso   1.000  O
  H630     1.0000 0.59157  0.26089  0.89081  Biso   1.000  H
  H631     1.0000 0.69552  0.29879  0.88480  Biso   1.000  H
  O147     1.0000 0.72425  0.21242  0.88480  Biso   1.000  O
  H632     1.0000 0.69544  0.29879  0.88480  Biso   1.000  H
  H633     1.0000 0.59165  0.26089  0.89081  Biso   1.000  H
  C603     1.0000 0.33403  0.24308  0.89168  Biso   1.000  C
  H634     1.0000 0.42751  0.27958  0.98809  Biso   1.000  H
  H635     1.0000 0.30832  0.30660  0.96551  Biso   1.000  H
  C604     1.0000 0.33395  0.24308  0.89168  Biso   1.000  C
  H636     1.0000 0.42743  0.27958  0.98809  Biso   1.000  H
  H637     1.0000 0.30823  0.30660  0.96551  Biso   1.000  H
  H638     1.0000 0.92140  0.81141  0.29250  Biso   1.000  H
  H639     1.0000 0.83629  0.86041  0.26128  Biso   1.000  H
  C605     1.0000 0.79705  0.78500  0.21558  Biso   1.000  C
  C606     1.0000 0.79713  0.78500  0.21558  Biso   1.000  C
  C607     1.0000 0.27647  0.84510  0.22790  Biso   1.000  C
  C608     1.0000 0.27655  0.84510  0.22790  Biso   1.000  C
  C609     1.0000 0.69093  0.20930  0.80683  Biso   1.000  C
  C610     1.0000 0.69083  0.20930  0.80677  Biso   1.000  C
  C611     1.0000 0.69091  0.20930  0.80677  Biso   1.000  C
  O148     1.0000 0.22473  0.22742  0.86210  Biso   1.000  O
  H640     1.0000 0.35739  0.27041  0.85603  Biso   1.000  H
  H641     1.0000 0.38019  0.20851  0.89489  Biso   1.000  H
  O149     1.0000 0.22465  0.22742  0.86210  Biso   1.000  O
  H642     1.0000 0.35737  0.27041  0.85597  Biso   1.000  H
  O150     1.0000 0.77527  0.77258  0.13790  Biso   1.000  O
  H643     1.0000 0.72820  0.79689  0.22877  Biso   1.000  H
  H644     1.0000 0.81974  0.74880  0.24348  Biso   1.000  H
  O151     1.0000 0.77535  0.77258  0.13790  Biso   1.000  O
  H645     1.0000 0.81982  0.74880  0.24348  Biso   1.000  H
  H646     1.0000 0.29257  0.87861  0.19807  Biso   1.000  H
  H647     1.0000 0.31930  0.84909  0.28089  Biso   1.000  H
  C612     1.0000 0.30907  0.79070  0.19317  Biso   1.000  C
  H648     1.0000 0.31922  0.84909  0.28089  Biso   1.000  H
  H649     1.0000 0.29265  0.87861  0.19807  Biso   1.000  H
  C613     1.0000 0.30915  0.79070  0.19317  Biso   1.000  C
  C614     1.0000 0.72353  0.15490  0.77210  Biso   1.000  C
  H650     1.0000 0.72119  0.24251  0.78378  Biso   1.000  H
  H651     1.0000 0.61110  0.21259  0.79323  Biso   1.000  H
  C615     1.0000 0.72345  0.15490  0.77210  Biso   1.000  C
  H652     1.0000 0.61108  0.21259  0.79317  Biso   1.000  H
  H653     1.0000 0.72127  0.24251  0.78378  Biso   1.000  H
  H654     1.0000 0.61118  0.21259  0.79323  Biso   1.000  H
  C616     1.0000 0.20295  0.21500  0.78442  Biso   1.000  C
  C617     1.0000 0.20287  0.21500  0.78442  Biso   1.000  C
  C618     1.0000 0.66597  0.75692  0.10832  Biso   1.000  C
  C619     1.0000 0.66605  0.75692  0.10832  Biso   1.000  C
  O152     1.0000 0.27567  0.78758  0.11520  Biso   1.000  O
  H655     1.0000 0.27881  0.75749  0.21622  Biso   1.000  H
  H656     1.0000 0.38890  0.78741  0.20677  Biso   1.000  H
  H657     1.0000 0.27871  0.75749  0.21617  Biso   1.000  H
  H658     1.0000 0.38882  0.78741  0.20677  Biso   1.000  H
  O153     1.0000 0.27575  0.78758  0.11520  Biso   1.000  O
  H659     1.0000 0.27879  0.75749  0.21617  Biso   1.000  H
  O154     1.0000 0.83873  0.15534  0.77123  Biso   1.000  O
  H660     1.0000 0.70743  0.12139  0.80193  Biso   1.000  H
  H661     1.0000 0.68070  0.15091  0.71911  Biso   1.000  H
  O155     1.0000 0.83863  0.15534  0.77117  Biso   1.000  O
  H662     1.0000 0.70733  0.12139  0.80187  Biso   1.000  H
  H663     1.0000 0.68078  0.15091  0.71911  Biso   1.000  H
  O156     1.0000 0.83871  0.15534  0.77117  Biso   1.000  O
  H664     1.0000 0.70741  0.12139  0.80187  Biso   1.000  H
  C620     1.0000 0.12320  0.17210  0.75489  Biso   1.000  C
  H665     1.0000 0.27180  0.20311  0.77123  Biso   1.000  H
  H666     1.0000 0.18026  0.25120  0.75652  Biso   1.000  H
  H667     1.0000 0.27178  0.20311  0.77117  Biso   1.000  H
  H668     1.0000 0.18018  0.25120  0.75652  Biso   1.000  H
  H669     1.0000 0.64261  0.72959  0.14397  Biso   1.000  H
  H670     1.0000 0.61981  0.79149  0.10511  Biso   1.000  H
  C621     1.0000 0.65010  0.72972  0.03070  Biso   1.000  C
  H671     1.0000 0.64253  0.72959  0.14397  Biso   1.000  H
  C622     1.0000 0.32894  0.73599  0.09192  Biso   1.000  C
  C623     1.0000 0.32886  0.73599  0.09192  Biso   1.000  C
  C624     1.0000 0.88142  0.10419  0.74789  Biso   1.000  C
  C625     1.0000 0.88134  0.10419  0.74789  Biso   1.000  C
  O157     1.0000 0.05628  0.14942  0.79060  Biso   1.000  O
  H672     1.0000 0.07860  0.18859  0.70750  Biso   1.000  H
  H673     1.0000 0.16371  0.13959  0.73872  Biso   1.000  H
  O158     1.0000 0.68477  0.76741  0.97782  Biso   1.000  O
  O159     1.0000 0.68475  0.76741  0.97776  Biso   1.000  O
  O160     1.0000 0.68485  0.76741  0.97782  Biso   1.000  O
  H674     1.0000 0.57249  0.72042  0.01191  Biso   1.000  H
  H675     1.0000 0.69168  0.69340  0.03449  Biso   1.000  H
  H676     1.0000 0.57257  0.72042  0.01191  Biso   1.000  H
  H677     1.0000 0.69177  0.69340  0.03449  Biso   1.000  H
  H678     1.0000 0.40843  0.73911  0.10919  Biso   1.000  H
  H679     1.0000 0.30448  0.70121  0.11520  Biso   1.000  H
  C626     1.0000 0.29879  0.73178  0.00659  Biso   1.000  C
  H680     1.0000 0.40835  0.73911  0.10919  Biso   1.000  H
  H681     1.0000 0.30456  0.70121  0.11520  Biso   1.000  H
  C627     1.0000 0.29887  0.73178  0.00659  Biso   1.000  C
  C628     1.0000 0.81760  0.05589  0.71608  Biso   1.000  C
  C629     1.0000 0.99529  0.10081  0.75909  Biso   1.000  C
  C630     1.0000 0.81768  0.05589  0.71608  Biso   1.000  C
  C631     1.0000 0.99537  0.10081  0.75909  Biso   1.000  C
  C632     1.0000 0.65140  0.74801  0.89968  Biso   1.000  C
  O161     1.0000 0.19171  0.71639  0.98167  Biso   1.000  O
  H682     1.0000 0.34541  0.70279  0.98903  Biso   1.000  H
  H683     1.0000 0.31160  0.76929  0.98401  Biso   1.000  H
  O162     1.0000 0.19163  0.71639  0.98167  Biso   1.000  O
  H684     1.0000 0.34539  0.70279  0.98897  Biso   1.000  H
  C633     1.0000 0.86870  0.00610  0.69682  Biso   1.000  C
  H685     1.0000 0.74099  0.05738  0.70803  Biso   1.000  H
  H686     1.0000 0.74097  0.05738  0.70797  Biso   1.000  H
  C634     1.0000 0.86879  0.00610  0.69682  Biso   1.000  C
  H687     1.0000 0.74107  0.05738  0.70803  Biso   1.000  H
  C635     1.0000 0.04623  0.05058  0.74088  Biso   1.000  C
  C636     1.0000 0.04615  0.05058  0.74088  Biso   1.000  C
  C637     1.0000 0.68710  0.79281  0.84809  Biso   1.000  C
  H688     1.0000 0.68521  0.71042  0.89332  Biso   1.000  H
  H689     1.0000 0.57179  0.74332  0.88602  Biso   1.000  H
  H690     1.0000 0.57178  0.74332  0.88596  Biso   1.000  H
  C638     1.0000 0.15711  0.70230  0.90721  Biso   1.000  C
  C639     1.0000 0.15703  0.70230  0.90721  Biso   1.000  C
  C640     1.0000 0.80875  0.95038  0.66180  Biso   1.000  C
  C641     1.0000 0.80867  0.95038  0.66180  Biso   1.000  C
  C642     1.0000 0.98241  0.00259  0.71013  Biso   1.000  C
  C643     1.0000 0.98239  0.00259  0.71007  Biso   1.000  C
  C644     1.0000 0.98249  0.00259  0.71013  Biso   1.000  C
  H691     1.0000 0.12285  0.04891  0.74923  Biso   1.000  H
  H692     1.0000 0.12275  0.04891  0.74917  Biso   1.000  H
  H693     1.0000 0.12277  0.04891  0.74923  Biso   1.000  H
  H694     1.0000 0.12283  0.04891  0.74917  Biso   1.000  H
  O163     1.0000 0.80529  0.79022  0.85970  Biso   1.000  O
  O164     1.0000 0.80537  0.79022  0.85970  Biso   1.000  O
  H695     1.0000 0.66439  0.83159  0.86122  Biso   1.000  H
  H696     1.0000 0.65329  0.78491  0.79399  Biso   1.000  H
  H697     1.0000 0.66447  0.83159  0.86122  Biso   1.000  H
  H698     1.0000 0.65337  0.78491  0.79399  Biso   1.000  H
  C645     1.0000 0.10714  0.74709  0.85381  Biso   1.000  C
  C646     1.0000 0.10706  0.74709  0.85381  Biso   1.000  C
  H699     1.0000 0.21983  0.68691  0.88871  Biso   1.000  H
  H700     1.0000 0.10423  0.67059  0.90417  Biso   1.000  H
  H701     1.0000 0.21975  0.68691  0.88871  Biso   1.000  H
  H702     1.0000 0.10415  0.67059  0.90417  Biso   1.000  H
  C647     1.0000 0.85822  0.90261  0.72098  Biso   1.000  C
  C648     1.0000 0.85646  0.93801  0.58920  Biso   1.000  C
  C649     1.0000 0.68330  0.95381  0.64651  Biso   1.000  C
  C650     1.0000 0.85814  0.90261  0.72098  Biso   1.000  C
  C651     1.0000 0.85638  0.93801  0.58920  Biso   1.000  C
  C652     1.0000 0.68338  0.95381  0.64651  Biso   1.000  C
  C653     1.0000 0.02673  0.94301  0.68871  Biso   1.000  C
  C654     1.0000 0.02665  0.94301  0.68871  Biso   1.000  C
  C655     1.0000 0.85478  0.82672  0.81471  Biso   1.000  C
  C656     1.0000 0.85487  0.82672  0.81471  Biso   1.000  C
  O165     1.0000 0.01817  0.77671  0.87540  Biso   1.000  O
  H703     1.0000 0.08092  0.72950  0.80292  Biso   1.000  H
  H704     1.0000 0.16334  0.77570  0.84891  Biso   1.000  H
  H705     1.0000 0.16326  0.77570  0.84891  Biso   1.000  H
  H706     1.0000 0.08084  0.72950  0.80292  Biso   1.000  H
  C657     1.0000 0.97254  0.89818  0.73312  Biso   1.000  C
  C658     1.0000 0.79992  0.86782  0.76248  Biso   1.000  C
  C659     1.0000 0.97246  0.89818  0.73312  Biso   1.000  C
  C660     1.0000 0.79984  0.86782  0.76248  Biso   1.000  C
  C661     1.0000 0.97015  0.93420  0.60298  Biso   1.000  C
  C662     1.0000 0.79433  0.93231  0.51258  Biso   1.000  C
  C663     1.0000 0.97007  0.93420  0.60298  Biso   1.000  C
  C664     1.0000 0.79425  0.93231  0.51258  Biso   1.000  C
  H707     1.0000 0.65779  0.98539  0.61091  Biso   1.000  H
  H708     1.0000 0.66079  0.96078  0.69478  Biso   1.000  H
  H709     1.0000 0.65223  0.91748  0.62422  Biso   1.000  H
  H710     1.0000 0.65215  0.91748  0.62422  Biso   1.000  H
  H711     1.0000 0.65787  0.98539  0.61091  Biso   1.000  H
  H712     1.0000 0.66087  0.96078  0.69478  Biso   1.000  H
  C665     1.0000 0.15125  0.93911  0.70441  Biso   1.000  C
  C666     1.0000 0.15117  0.93911  0.70441  Biso   1.000  C
  C667     1.0000 0.96899  0.81992  0.82381  Biso   1.000  C
  C668     1.0000 0.96907  0.81992  0.82381  Biso   1.000  C
  C669     1.0000 0.02741  0.85611  0.78378  Biso   1.000  C
  C670     1.0000 0.02733  0.85611  0.78378  Biso   1.000  C
  H713     1.0000 0.72370  0.87199  0.75541  Biso   1.000  H
  H714     1.0000 0.72378  0.87199  0.75541  Biso   1.000  H
  C671     1.0000 0.02360  0.92389  0.54211  Biso   1.000  C
  C672     1.0000 0.84991  0.92349  0.45258  Biso   1.000  C
  H715     1.0000 0.71765  0.93442  0.50213  Biso   1.000  H
  H716     1.0000 0.71755  0.93442  0.50207  Biso   1.000  H
  C673     1.0000 0.84999  0.92349  0.45258  Biso   1.000  C
  H717     1.0000 0.71763  0.93442  0.50207  Biso   1.000  H
  H718     1.0000 0.17252  0.90081  0.69023  Biso   1.000  H
  H719     1.0000 0.18115  0.94569  0.75892  Biso   1.000  H
  H720     1.0000 0.17915  0.96819  0.67412  Biso   1.000  H
  H721     1.0000 0.17250  0.90081  0.69017  Biso   1.000  H
  H722     1.0000 0.18107  0.94569  0.75892  Biso   1.000  H
  H723     1.0000 0.17907  0.96819  0.67412  Biso   1.000  H
  H724     1.0000 0.10361  0.85212  0.79101  Biso   1.000  H
  C674     1.0000 0.96231  0.91911  0.46741  Biso   1.000  C
  C675     1.0000 0.96239  0.91911  0.46741  Biso   1.000  C
  H725     1.0000 0.10013  0.92029  0.55203  Biso   1.000  H
  H726     1.0000 0.10011  0.92029  0.55197  Biso   1.000  H
  H727     1.0000 0.80981  0.92060  0.40140  Biso   1.000  H
  H728     1.0000 0.80989  0.92060  0.40140  Biso   1.000  H
  H729     1.0000 0.99763  0.91270  0.42650  Biso   1.000  H
  H730     1.0000 0.99771  0.91270  0.42650  Biso   1.000  H
  C676     1.0000 0.97265  0.14389  0.21617  Biso   1.000  C
  C677     1.0000 0.03101  0.18008  0.17619  Biso   1.000  C
  C678     1.0000 0.03093  0.18008  0.17619  Biso   1.000  C
  H731     1.0000 0.89639  0.14788  0.20899  Biso   1.000  H
  C679     1.0000 0.02746  0.10182  0.26688  Biso   1.000  C
  C680     1.0000 0.02754  0.10182  0.26688  Biso   1.000  C
  O166     1.0000 0.98183  0.22329  0.12460  Biso   1.000  O
  C681     1.0000 0.97259  0.14389  0.21622  Biso   1.000  C
  C682     1.0000 0.97257  0.14389  0.21617  Biso   1.000  C
  C683     1.0000 0.14522  0.17328  0.18529  Biso   1.000  C
  C684     1.0000 0.14513  0.17328  0.18529  Biso   1.000  C
  C685     1.0000 0.97327  0.05699  0.31129  Biso   1.000  C
  C686     1.0000 0.97335  0.05699  0.31129  Biso   1.000  C
  C687     1.0000 0.14178  0.09739  0.27902  Biso   1.000  C
  C688     1.0000 0.14176  0.09739  0.27896  Biso   1.000  C
  C689     1.0000 0.14186  0.09739  0.27902  Biso   1.000  C
  C690     1.0000 0.89286  0.25291  0.14619  Biso   1.000  C
  C691     1.0000 0.89294  0.25291  0.14619  Biso   1.000  C
  O167     1.0000 0.19471  0.20978  0.14030  Biso   1.000  O
  C692     1.0000 0.20008  0.13218  0.23752  Biso   1.000  C
  O168     1.0000 0.19463  0.20978  0.14030  Biso   1.000  O
  C693     1.0000 0.20006  0.13218  0.23747  Biso   1.000  C
  C694     1.0000 0.20016  0.13218  0.23752  Biso   1.000  C
  C695     1.0000 0.84875  0.06089  0.29559  Biso   1.000  C
  C696     1.0000 0.84883  0.06089  0.29559  Biso   1.000  C
  C697     1.0000 0.01759  0.99741  0.28987  Biso   1.000  C
  C698     1.0000 0.01751  0.99741  0.28987  Biso   1.000  C
  C699     1.0000 0.02985  0.06580  0.39702  Biso   1.000  C
  C700     1.0000 0.02984  0.06580  0.39696  Biso   1.000  C
  C701     1.0000 0.02993  0.06580  0.39702  Biso   1.000  C
  C702     1.0000 0.19125  0.04962  0.33820  Biso   1.000  C
  C703     1.0000 0.19133  0.04962  0.33820  Biso   1.000  C
  C704     1.0000 0.84289  0.29770  0.09279  Biso   1.000  C
  C705     1.0000 0.84297  0.29770  0.09279  Biso   1.000  C
  H732     1.0000 0.91908  0.27050  0.19708  Biso   1.000  H
  H733     1.0000 0.83666  0.22430  0.15109  Biso   1.000  H
  H734     1.0000 0.91916  0.27050  0.19708  Biso   1.000  H
  H735     1.0000 0.83674  0.22430  0.15109  Biso   1.000  H
  C706     1.0000 0.31290  0.20719  0.15191  Biso   1.000  C
  H736     1.0000 0.27630  0.12801  0.24459  Biso   1.000  H
  H737     1.0000 0.27622  0.12801  0.24459  Biso   1.000  H
  H738     1.0000 0.82748  0.09919  0.30977  Biso   1.000  H
  H739     1.0000 0.81885  0.05431  0.24108  Biso   1.000  H
  H740     1.0000 0.82085  0.03181  0.32588  Biso   1.000  H
  H741     1.0000 0.81893  0.05431  0.24108  Biso   1.000  H
  H742     1.0000 0.82093  0.03181  0.32588  Biso   1.000  H
  C707     1.0000 0.95377  0.94942  0.25912  Biso   1.000  C
  C708     1.0000 0.95385  0.94942  0.25912  Biso   1.000  C
  C709     1.0000 0.13130  0.99390  0.30318  Biso   1.000  C
  C710     1.0000 0.13121  0.99390  0.30318  Biso   1.000  C
  C711     1.0000 0.97640  0.07611  0.45789  Biso   1.000  C
  C712     1.0000 0.14354  0.06199  0.41080  Biso   1.000  C
  C713     1.0000 0.14362  0.06199  0.41080  Biso   1.000  C
  C714     1.0000 0.31670  0.04619  0.35349  Biso   1.000  C
  C715     1.0000 0.31662  0.04619  0.35349  Biso   1.000  C
  O169     1.0000 0.80829  0.28361  0.01833  Biso   1.000  O
  H743     1.0000 0.78017  0.31309  0.11129  Biso   1.000  H
  H744     1.0000 0.89577  0.32941  0.09583  Biso   1.000  H
  O170     1.0000 0.80835  0.28361  0.01827  Biso   1.000  O
  H745     1.0000 0.78025  0.31309  0.11129  Biso   1.000  H
  H746     1.0000 0.89584  0.32941  0.09577  Biso   1.000  H
  O171     1.0000 0.80837  0.28361  0.01833  Biso   1.000  O
  H747     1.0000 0.89585  0.32941  0.09583  Biso   1.000  H
  O172     1.0000 0.80827  0.28361  0.01827  Biso   1.000  O
  H748     1.0000 0.89576  0.32941  0.09577  Biso   1.000  H
  C716     1.0000 0.34860  0.25199  0.10032  Biso   1.000  C
  H749     1.0000 0.33561  0.16841  0.13878  Biso   1.000  H
  H750     1.0000 0.34671  0.21509  0.20601  Biso   1.000  H
  C717     1.0000 0.34859  0.25199  0.10026  Biso   1.000  C
  H751     1.0000 0.33553  0.16841  0.13878  Biso   1.000  H
  H752     1.0000 0.34663  0.21509  0.20601  Biso   1.000  H
  H753     1.0000 0.87715  0.95109  0.25077  Biso   1.000  H
  H754     1.0000 0.87723  0.95109  0.25077  Biso   1.000  H
  C718     1.0000 0.00471  0.89919  0.24091  Biso   1.000  C
  C719     1.0000 0.00463  0.89919  0.24091  Biso   1.000  C
  C720     1.0000 0.18240  0.94411  0.28392  Biso   1.000  C
  C721     1.0000 0.18231  0.94411  0.28386  Biso   1.000  C
  C722     1.0000 0.18239  0.94411  0.28386  Biso   1.000  C
  H755     1.0000 0.89987  0.07971  0.44797  Biso   1.000  H
  C723     1.0000 0.03769  0.08089  0.53259  Biso   1.000  C
  C724     1.0000 0.03761  0.08089  0.53259  Biso   1.000  C
  C725     1.0000 0.20567  0.06769  0.48742  Biso   1.000  C
  C726     1.0000 0.20565  0.06769  0.48736  Biso   1.000  C
  C727     1.0000 0.20575  0.06769  0.48742  Biso   1.000  C
  H756     1.0000 0.34221  0.01461  0.38909  Biso   1.000  H
  H757     1.0000 0.33921  0.03922  0.30522  Biso   1.000  H
  H758     1.0000 0.34777  0.08252  0.37578  Biso   1.000  H
  H759     1.0000 0.34213  0.01461  0.38909  Biso   1.000  H
  H760     1.0000 0.33911  0.03922  0.30516  Biso   1.000  H
  H761     1.0000 0.34785  0.08252  0.37578  Biso   1.000  H
  H762     1.0000 0.33919  0.03922  0.30516  Biso   1.000  H
  C728     1.0000 0.70121  0.26822  0.99341  Biso   1.000  C
  C729     1.0000 0.70113  0.26822  0.99341  Biso   1.000  C
  O173     1.0000 0.31523  0.23259  0.02218  Biso   1.000  O
  H763     1.0000 0.31479  0.28958  0.10668  Biso   1.000  H
  H764     1.0000 0.42821  0.25668  0.11398  Biso   1.000  H
  O174     1.0000 0.31515  0.23259  0.02218  Biso   1.000  O
  H765     1.0000 0.42812  0.25668  0.11398  Biso   1.000  H
  O175     1.0000 0.94372  0.85058  0.20940  Biso   1.000  O
  O176     1.0000 0.94364  0.85058  0.20940  Biso   1.000  O
  C730     1.0000 0.11858  0.89581  0.25211  Biso   1.000  C
  H766     1.0000 0.25901  0.94262  0.29197  Biso   1.000  H
  H767     1.0000 0.25893  0.94262  0.29197  Biso   1.000  H
  H768     1.0000 0.00237  0.08730  0.57350  Biso   1.000  H
  C731     1.0000 0.15009  0.07651  0.54742  Biso   1.000  C
  H769     1.0000 0.00229  0.08730  0.57350  Biso   1.000  H
  C732     1.0000 0.14999  0.07651  0.54736  Biso   1.000  C
  C733     1.0000 0.15007  0.07651  0.54736  Biso   1.000  C
  H770     1.0000 0.28235  0.06558  0.49787  Biso   1.000  H
  H771     1.0000 0.28244  0.06558  0.49787  Biso   1.000  H
  H772     1.0000 0.65459  0.29721  0.01097  Biso   1.000  H
  H773     1.0000 0.68840  0.23071  0.01599  Biso   1.000  H
  C734     1.0000 0.67106  0.26401  0.90808  Biso   1.000  C
  C735     1.0000 0.67114  0.26401  0.90808  Biso   1.000  C
  C736     1.0000 0.34990  0.27028  0.96930  Biso   1.000  C
  C737     1.0000 0.87680  0.82790  0.24511  Biso   1.000  C
  O177     1.0000 0.16127  0.84466  0.22877  Biso   1.000  O
  O178     1.0000 0.16135  0.84466  0.22877  Biso   1.000  O
  H774     1.0000 0.19019  0.07940  0.59860  Biso   1.000  H
  H775     1.0000 0.19011  0.07940  0.59860  Biso   1.000  H
  O179     1.0000 0.72433  0.21242  0.88480  Biso   1.000  O
  H776     1.0000 0.59157  0.26089  0.89081  Biso   1.000  H
  H777     1.0000 0.69552  0.29879  0.88480  Biso   1.000  H
  O180     1.0000 0.72425  0.21242  0.88480  Biso   1.000  O
  H778     1.0000 0.69544  0.29879  0.88480  Biso   1.000  H
  H779     1.0000 0.59165  0.26089  0.89081  Biso   1.000  H
  C738     1.0000 0.33403  0.24308  0.89168  Biso   1.000  C
  H780     1.0000 0.42751  0.27958  0.98809  Biso   1.000  H
  H781     1.0000 0.30832  0.30660  0.96551  Biso   1.000  H
  C739     1.0000 0.33395  0.24308  0.89168  Biso   1.000  C
  H782     1.0000 0.42743  0.27958  0.98809  Biso   1.000  H
  H783     1.0000 0.30823  0.30660  0.96551  Biso   1.000  H
  H784     1.0000 0.92140  0.81141  0.29250  Biso   1.000  H
  H785     1.0000 0.83629  0.86041  0.26128  Biso   1.000  H
  C740     1.0000 0.79705  0.78500  0.21558  Biso   1.000  C
  C741     1.0000 0.79713  0.78500  0.21558  Biso   1.000  C
  C742     1.0000 0.27647  0.84510  0.22790  Biso   1.000  C
  C743     1.0000 0.27655  0.84510  0.22790  Biso   1.000  C
  C744     1.0000 0.69093  0.20930  0.80683  Biso   1.000  C
  C745     1.0000 0.69083  0.20930  0.80677  Biso   1.000  C
  C746     1.0000 0.69091  0.20930  0.80677  Biso   1.000  C
  O181     1.0000 0.22473  0.22742  0.86210  Biso   1.000  O
  H786     1.0000 0.35739  0.27041  0.85603  Biso   1.000  H
  H787     1.0000 0.38019  0.20851  0.89489  Biso   1.000  H
  O182     1.0000 0.22465  0.22742  0.86210  Biso   1.000  O
  H788     1.0000 0.35737  0.27041  0.85597  Biso   1.000  H
  O183     1.0000 0.77527  0.77258  0.13790  Biso   1.000  O
  H789     1.0000 0.72820  0.79689  0.22877  Biso   1.000  H
  H790     1.0000 0.81974  0.74880  0.24348  Biso   1.000  H
  O184     1.0000 0.77535  0.77258  0.13790  Biso   1.000  O
  H791     1.0000 0.81982  0.74880  0.24348  Biso   1.000  H
  H792     1.0000 0.29257  0.87861  0.19807  Biso   1.000  H
  H793     1.0000 0.31930  0.84909  0.28089  Biso   1.000  H
  C747     1.0000 0.30907  0.79070  0.19317  Biso   1.000  C
  H794     1.0000 0.31922  0.84909  0.28089  Biso   1.000  H
  H795     1.0000 0.29265  0.87861  0.19807  Biso   1.000  H
  C748     1.0000 0.30915  0.79070  0.19317  Biso   1.000  C
  C749     1.0000 0.72353  0.15490  0.77210  Biso   1.000  C
  H796     1.0000 0.72119  0.24251  0.78378  Biso   1.000  H
  H797     1.0000 0.61110  0.21259  0.79323  Biso   1.000  H
  C750     1.0000 0.72345  0.15490  0.77210  Biso   1.000  C
  H798     1.0000 0.61108  0.21259  0.79317  Biso   1.000  H
  H799     1.0000 0.72127  0.24251  0.78378  Biso   1.000  H
  H800     1.0000 0.61118  0.21259  0.79323  Biso   1.000  H
  C751     1.0000 0.20295  0.21500  0.78442  Biso   1.000  C
  C752     1.0000 0.20287  0.21500  0.78442  Biso   1.000  C
  C753     1.0000 0.66597  0.75692  0.10832  Biso   1.000  C
  C754     1.0000 0.66605  0.75692  0.10832  Biso   1.000  C
  O185     1.0000 0.27567  0.78758  0.11520  Biso   1.000  O
  H801     1.0000 0.27881  0.75749  0.21622  Biso   1.000  H
  H802     1.0000 0.38890  0.78741  0.20677  Biso   1.000  H
  H803     1.0000 0.27871  0.75749  0.21617  Biso   1.000  H
  H804     1.0000 0.38882  0.78741  0.20677  Biso   1.000  H
  O186     1.0000 0.27575  0.78758  0.11520  Biso   1.000  O
  H805     1.0000 0.27879  0.75749  0.21617  Biso   1.000  H
  O187     1.0000 0.83873  0.15534  0.77123  Biso   1.000  O
  H806     1.0000 0.70743  0.12139  0.80193  Biso   1.000  H
  H807     1.0000 0.68070  0.15091  0.71911  Biso   1.000  H
  O188     1.0000 0.83863  0.15534  0.77117  Biso   1.000  O
  H808     1.0000 0.70733  0.12139  0.80187  Biso   1.000  H
  H809     1.0000 0.68078  0.15091  0.71911  Biso   1.000  H
  O189     1.0000 0.83871  0.15534  0.77117  Biso   1.000  O
  H810     1.0000 0.70741  0.12139  0.80187  Biso   1.000  H
  C755     1.0000 0.12320  0.17210  0.75489  Biso   1.000  C
  H811     1.0000 0.27180  0.20311  0.77123  Biso   1.000  H
  H812     1.0000 0.18026  0.25120  0.75652  Biso   1.000  H
  H813     1.0000 0.27178  0.20311  0.77117  Biso   1.000  H
  H814     1.0000 0.18018  0.25120  0.75652  Biso   1.000  H
  H815     1.0000 0.64261  0.72959  0.14397  Biso   1.000  H
  H816     1.0000 0.61981  0.79149  0.10511  Biso   1.000  H
  C756     1.0000 0.65010  0.72972  0.03070  Biso   1.000  C
  H817     1.0000 0.64253  0.72959  0.14397  Biso   1.000  H
  C757     1.0000 0.32894  0.73599  0.09192  Biso   1.000  C
  C758     1.0000 0.32886  0.73599  0.09192  Biso   1.000  C
  C759     1.0000 0.88142  0.10419  0.74789  Biso   1.000  C
  C760     1.0000 0.88134  0.10419  0.74789  Biso   1.000  C
  O190     1.0000 0.05628  0.14942  0.79060  Biso   1.000  O
  H818     1.0000 0.07860  0.18859  0.70750  Biso   1.000  H
  H819     1.0000 0.16371  0.13959  0.73872  Biso   1.000  H
  O191     1.0000 0.68477  0.76741  0.97782  Biso   1.000  O
  O192     1.0000 0.68475  0.76741  0.97776  Biso   1.000  O
  O193     1.0000 0.68485  0.76741  0.97782  Biso   1.000  O
  H820     1.0000 0.57249  0.72042  0.01191  Biso   1.000  H
  H821     1.0000 0.69168  0.69340  0.03449  Biso   1.000  H
  H822     1.0000 0.57257  0.72042  0.01191  Biso   1.000  H
  H823     1.0000 0.69177  0.69340  0.03449  Biso   1.000  H
  H824     1.0000 0.40843  0.73911  0.10919  Biso   1.000  H
  H825     1.0000 0.30448  0.70121  0.11520  Biso   1.000  H
  C761     1.0000 0.29879  0.73178  0.00659  Biso   1.000  C
  H826     1.0000 0.40835  0.73911  0.10919  Biso   1.000  H
  H827     1.0000 0.30456  0.70121  0.11520  Biso   1.000  H
  C762     1.0000 0.29887  0.73178  0.00659  Biso   1.000  C
  C763     1.0000 0.81760  0.05589  0.71608  Biso   1.000  C
  C764     1.0000 0.99529  0.10081  0.75909  Biso   1.000  C
  C765     1.0000 0.81768  0.05589  0.71608  Biso   1.000  C
  C766     1.0000 0.99537  0.10081  0.75909  Biso   1.000  C
  C767     1.0000 0.65140  0.74801  0.89968  Biso   1.000  C
  O194     1.0000 0.19171  0.71639  0.98167  Biso   1.000  O
  H828     1.0000 0.34541  0.70279  0.98903  Biso   1.000  H
  H829     1.0000 0.31160  0.76929  0.98401  Biso   1.000  H
  O195     1.0000 0.19163  0.71639  0.98167  Biso   1.000  O
  H830     1.0000 0.34539  0.70279  0.98897  Biso   1.000  H
  C768     1.0000 0.86870  0.00610  0.69682  Biso   1.000  C
  H831     1.0000 0.74099  0.05738  0.70803  Biso   1.000  H
  H832     1.0000 0.74097  0.05738  0.70797  Biso   1.000  H
  C769     1.0000 0.86879  0.00610  0.69682  Biso   1.000  C
  H833     1.0000 0.74107  0.05738  0.70803  Biso   1.000  H
  C770     1.0000 0.04623  0.05058  0.74088  Biso   1.000  C
  C771     1.0000 0.04615  0.05058  0.74088  Biso   1.000  C
  C772     1.0000 0.68710  0.79281  0.84809  Biso   1.000  C
  H834     1.0000 0.68521  0.71042  0.89332  Biso   1.000  H
  H835     1.0000 0.57179  0.74332  0.88602  Biso   1.000  H
  H836     1.0000 0.57178  0.74332  0.88596  Biso   1.000  H
  C773     1.0000 0.15711  0.70230  0.90721  Biso   1.000  C
  C774     1.0000 0.15703  0.70230  0.90721  Biso   1.000  C
  C775     1.0000 0.80875  0.95038  0.66180  Biso   1.000  C
  C776     1.0000 0.80867  0.95038  0.66180  Biso   1.000  C
  C777     1.0000 0.98241  0.00259  0.71013  Biso   1.000  C
  C778     1.0000 0.98239  0.00259  0.71007  Biso   1.000  C
  C779     1.0000 0.98249  0.00259  0.71013  Biso   1.000  C
  H837     1.0000 0.12285  0.04891  0.74923  Biso   1.000  H
  H838     1.0000 0.12275  0.04891  0.74917  Biso   1.000  H
  H839     1.0000 0.12277  0.04891  0.74923  Biso   1.000  H
  H840     1.0000 0.12283  0.04891  0.74917  Biso   1.000  H
  O196     1.0000 0.80529  0.79022  0.85970  Biso   1.000  O
  O197     1.0000 0.80537  0.79022  0.85970  Biso   1.000  O
  H841     1.0000 0.66439  0.83159  0.86122  Biso   1.000  H
  H842     1.0000 0.65329  0.78491  0.79399  Biso   1.000  H
  H843     1.0000 0.66447  0.83159  0.86122  Biso   1.000  H
  H844     1.0000 0.65337  0.78491  0.79399  Biso   1.000  H
  C780     1.0000 0.10714  0.74709  0.85381  Biso   1.000  C
  C781     1.0000 0.10706  0.74709  0.85381  Biso   1.000  C
  H845     1.0000 0.21983  0.68691  0.88871  Biso   1.000  H
  H846     1.0000 0.10423  0.67059  0.90417  Biso   1.000  H
  H847     1.0000 0.21975  0.68691  0.88871  Biso   1.000  H
  H848     1.0000 0.10415  0.67059  0.90417  Biso   1.000  H
  C782     1.0000 0.85822  0.90261  0.72098  Biso   1.000  C
  C783     1.0000 0.85646  0.93801  0.58920  Biso   1.000  C
  C784     1.0000 0.68330  0.95381  0.64651  Biso   1.000  C
  C785     1.0000 0.85814  0.90261  0.72098  Biso   1.000  C
  C786     1.0000 0.85638  0.93801  0.58920  Biso   1.000  C
  C787     1.0000 0.68338  0.95381  0.64651  Biso   1.000  C
  C788     1.0000 0.02673  0.94301  0.68871  Biso   1.000  C
  C789     1.0000 0.02665  0.94301  0.68871  Biso   1.000  C
  C790     1.0000 0.85478  0.82672  0.81471  Biso   1.000  C
  C791     1.0000 0.85487  0.82672  0.81471  Biso   1.000  C
  O198     1.0000 0.01817  0.77671  0.87540  Biso   1.000  O
  H849     1.0000 0.08092  0.72950  0.80292  Biso   1.000  H
  H850     1.0000 0.16334  0.77570  0.84891  Biso   1.000  H
  H851     1.0000 0.16326  0.77570  0.84891  Biso   1.000  H
  H852     1.0000 0.08084  0.72950  0.80292  Biso   1.000  H
  C792     1.0000 0.97254  0.89818  0.73312  Biso   1.000  C
  C793     1.0000 0.79992  0.86782  0.76248  Biso   1.000  C
  C794     1.0000 0.97246  0.89818  0.73312  Biso   1.000  C
  C795     1.0000 0.79984  0.86782  0.76248  Biso   1.000  C
  C796     1.0000 0.97015  0.93420  0.60298  Biso   1.000  C
  C797     1.0000 0.79433  0.93231  0.51258  Biso   1.000  C
  C798     1.0000 0.97007  0.93420  0.60298  Biso   1.000  C
  C799     1.0000 0.79425  0.93231  0.51258  Biso   1.000  C
  H853     1.0000 0.65779  0.98539  0.61091  Biso   1.000  H
  H854     1.0000 0.66079  0.96078  0.69478  Biso   1.000  H
  H855     1.0000 0.65223  0.91748  0.62422  Biso   1.000  H
  H856     1.0000 0.65215  0.91748  0.62422  Biso   1.000  H
  H857     1.0000 0.65787  0.98539  0.61091  Biso   1.000  H
  H858     1.0000 0.66087  0.96078  0.69478  Biso   1.000  H
  C800     1.0000 0.15125  0.93911  0.70441  Biso   1.000  C
  C801     1.0000 0.15117  0.93911  0.70441  Biso   1.000  C
  C802     1.0000 0.96899  0.81992  0.82381  Biso   1.000  C
  C803     1.0000 0.96907  0.81992  0.82381  Biso   1.000  C
  C804     1.0000 0.02741  0.85611  0.78378  Biso   1.000  C
  C805     1.0000 0.02733  0.85611  0.78378  Biso   1.000  C
  H859     1.0000 0.72370  0.87199  0.75541  Biso   1.000  H
  H860     1.0000 0.72378  0.87199  0.75541  Biso   1.000  H
  C806     1.0000 0.02360  0.92389  0.54211  Biso   1.000  C
  C807     1.0000 0.84991  0.92349  0.45258  Biso   1.000  C
  H861     1.0000 0.71765  0.93442  0.50213  Biso   1.000  H
  H862     1.0000 0.71755  0.93442  0.50207  Biso   1.000  H
  C808     1.0000 0.84999  0.92349  0.45258  Biso   1.000  C
  H863     1.0000 0.71763  0.93442  0.50207  Biso   1.000  H
  H864     1.0000 0.17252  0.90081  0.69023  Biso   1.000  H
  H865     1.0000 0.18115  0.94569  0.75892  Biso   1.000  H
  H866     1.0000 0.17915  0.96819  0.67412  Biso   1.000  H
  H867     1.0000 0.17250  0.90081  0.69017  Biso   1.000  H
  H868     1.0000 0.18107  0.94569  0.75892  Biso   1.000  H
  H869     1.0000 0.17907  0.96819  0.67412  Biso   1.000  H
  H870     1.0000 0.10361  0.85212  0.79101  Biso   1.000  H
  C809     1.0000 0.96231  0.91911  0.46741  Biso   1.000  C
  C810     1.0000 0.96239  0.91911  0.46741  Biso   1.000  C
  H871     1.0000 0.10013  0.92029  0.55203  Biso   1.000  H
  H872     1.0000 0.10011  0.92029  0.55197  Biso   1.000  H
  H873     1.0000 0.80981  0.92060  0.40140  Biso   1.000  H
  H874     1.0000 0.80989  0.92060  0.40140  Biso   1.000  H
  H875     1.0000 0.99763  0.91270  0.42650  Biso   1.000  H
  H876     1.0000 0.99771  0.91270  0.42650  Biso   1.000  H
  C811     1.0000 0.97265  0.14389  0.21617  Biso   1.000  C
  C812     1.0000 0.03101  0.18008  0.17619  Biso   1.000  C
  C813     1.0000 0.03093  0.18008  0.17619  Biso   1.000  C
  H877     1.0000 0.89639  0.14788  0.20899  Biso   1.000  H
  C814     1.0000 0.02746  0.10182  0.26688  Biso   1.000  C
  C815     1.0000 0.02754  0.10182  0.26688  Biso   1.000  C
  O199     1.0000 0.98183  0.22329  0.12460  Biso   1.000  O
  C816     1.0000 0.97259  0.14389  0.21622  Biso   1.000  C
  C817     1.0000 0.97257  0.14389  0.21617  Biso   1.000  C
  C818     1.0000 0.14522  0.17328  0.18529  Biso   1.000  C
  C819     1.0000 0.14513  0.17328  0.18529  Biso   1.000  C
  C820     1.0000 0.97327  0.05699  0.31129  Biso   1.000  C
  C821     1.0000 0.97335  0.05699  0.31129  Biso   1.000  C
  C822     1.0000 0.14178  0.09739  0.27902  Biso   1.000  C
  C823     1.0000 0.14176  0.09739  0.27896  Biso   1.000  C
  C824     1.0000 0.14186  0.09739  0.27902  Biso   1.000  C
  C825     1.0000 0.89286  0.25291  0.14619  Biso   1.000  C
  C826     1.0000 0.89294  0.25291  0.14619  Biso   1.000  C
  O200     1.0000 0.19471  0.20978  0.14030  Biso   1.000  O
  C827     1.0000 0.20008  0.13218  0.23752  Biso   1.000  C
  O201     1.0000 0.19463  0.20978  0.14030  Biso   1.000  O
  C828     1.0000 0.20006  0.13218  0.23747  Biso   1.000  C
  C829     1.0000 0.20016  0.13218  0.23752  Biso   1.000  C
  C830     1.0000 0.84875  0.06089  0.29559  Biso   1.000  C
  C831     1.0000 0.84883  0.06089  0.29559  Biso   1.000  C
  C832     1.0000 0.01759  0.99741  0.28987  Biso   1.000  C
  C833     1.0000 0.01751  0.99741  0.28987  Biso   1.000  C
  C834     1.0000 0.02985  0.06580  0.39702  Biso   1.000  C
  C835     1.0000 0.02984  0.06580  0.39696  Biso   1.000  C
  C836     1.0000 0.02993  0.06580  0.39702  Biso   1.000  C
  C837     1.0000 0.19125  0.04962  0.33820  Biso   1.000  C
  C838     1.0000 0.19133  0.04962  0.33820  Biso   1.000  C
  C839     1.0000 0.84289  0.29770  0.09279  Biso   1.000  C
  H878     1.0000 0.91908  0.27050  0.19708  Biso   1.000  H
  H879     1.0000 0.83666  0.22430  0.15109  Biso   1.000  H
  C840     1.0000 0.84297  0.29770  0.09279  Biso   1.000  C
  H880     1.0000 0.91916  0.27050  0.19708  Biso   1.000  H
  H881     1.0000 0.83674  0.22430  0.15109  Biso   1.000  H
  C841     1.0000 0.31290  0.20719  0.15191  Biso   1.000  C
  H882     1.0000 0.27630  0.12801  0.24459  Biso   1.000  H
  H883     1.0000 0.27622  0.12801  0.24459  Biso   1.000  H
  H884     1.0000 0.82748  0.09919  0.30977  Biso   1.000  H
  H885     1.0000 0.81885  0.05431  0.24108  Biso   1.000  H
  H886     1.0000 0.82085  0.03181  0.32588  Biso   1.000  H
  H887     1.0000 0.81893  0.05431  0.24108  Biso   1.000  H
  H888     1.0000 0.82093  0.03181  0.32588  Biso   1.000  H
  C842     1.0000 0.95377  0.94942  0.25912  Biso   1.000  C
  C843     1.0000 0.95385  0.94942  0.25912  Biso   1.000  C
  C844     1.0000 0.13130  0.99390  0.30318  Biso   1.000  C
  C845     1.0000 0.13121  0.99390  0.30318  Biso   1.000  C
  C846     1.0000 0.97640  0.07611  0.45789  Biso   1.000  C
  C847     1.0000 0.14354  0.06199  0.41080  Biso   1.000  C
  C848     1.0000 0.14362  0.06199  0.41080  Biso   1.000  C
  C849     1.0000 0.31670  0.04619  0.35349  Biso   1.000  C
  C850     1.0000 0.31662  0.04619  0.35349  Biso   1.000  C
  O202     1.0000 0.80829  0.28361  0.01833  Biso   1.000  O
  H889     1.0000 0.78017  0.31309  0.11129  Biso   1.000  H
  H890     1.0000 0.89577  0.32941  0.09583  Biso   1.000  H
  O203     1.0000 0.80835  0.28361  0.01827  Biso   1.000  O
  H891     1.0000 0.78025  0.31309  0.11129  Biso   1.000  H
  H892     1.0000 0.89584  0.32941  0.09577  Biso   1.000  H
  O204     1.0000 0.80837  0.28361  0.01833  Biso   1.000  O
  H893     1.0000 0.89585  0.32941  0.09583  Biso   1.000  H
  O205     1.0000 0.80827  0.28361  0.01827  Biso   1.000  O
  H894     1.0000 0.89576  0.32941  0.09577  Biso   1.000  H
  C851     1.0000 0.34860  0.25199  0.10032  Biso   1.000  C
  H895     1.0000 0.33561  0.16841  0.13878  Biso   1.000  H
  H896     1.0000 0.34671  0.21509  0.20601  Biso   1.000  H
  C852     1.0000 0.34859  0.25199  0.10026  Biso   1.000  C
  H897     1.0000 0.33553  0.16841  0.13878  Biso   1.000  H
  H898     1.0000 0.34663  0.21509  0.20601  Biso   1.000  H
  H899     1.0000 0.87715  0.95109  0.25077  Biso   1.000  H
  H900     1.0000 0.87723  0.95109  0.25077  Biso   1.000  H
  C853     1.0000 0.00471  0.89919  0.24091  Biso   1.000  C
  C854     1.0000 0.00463  0.89919  0.24091  Biso   1.000  C
  C855     1.0000 0.18240  0.94411  0.28392  Biso   1.000  C
  C856     1.0000 0.18231  0.94411  0.28386  Biso   1.000  C
  C857     1.0000 0.18239  0.94411  0.28386  Biso   1.000  C
  H901     1.0000 0.89987  0.07971  0.44797  Biso   1.000  H
  C858     1.0000 0.03769  0.08089  0.53259  Biso   1.000  C
  C859     1.0000 0.03761  0.08089  0.53259  Biso   1.000  C
  C860     1.0000 0.20567  0.06769  0.48742  Biso   1.000  C
  C861     1.0000 0.20565  0.06769  0.48736  Biso   1.000  C
  C862     1.0000 0.20575  0.06769  0.48742  Biso   1.000  C
  H902     1.0000 0.34221  0.01461  0.38909  Biso   1.000  H
  H903     1.0000 0.33921  0.03922  0.30522  Biso   1.000  H
  H904     1.0000 0.34777  0.08252  0.37578  Biso   1.000  H
  H905     1.0000 0.34213  0.01461  0.38909  Biso   1.000  H
  H906     1.0000 0.33911  0.03922  0.30516  Biso   1.000  H
  H907     1.0000 0.34785  0.08252  0.37578  Biso   1.000  H
  H908     1.0000 0.33919  0.03922  0.30516  Biso   1.000  H
  C863     1.0000 0.70121  0.26822  0.99341  Biso   1.000  C
  C864     1.0000 0.70113  0.26822  0.99341  Biso   1.000  C
  O206     1.0000 0.31523  0.23259  0.02218  Biso   1.000  O
  H909     1.0000 0.31479  0.28958  0.10668  Biso   1.000  H
  H910     1.0000 0.42821  0.25668  0.11398  Biso   1.000  H
  O207     1.0000 0.31515  0.23259  0.02218  Biso   1.000  O
  H911     1.0000 0.42812  0.25668  0.11398  Biso   1.000  H
  O208     1.0000 0.94372  0.85058  0.20940  Biso   1.000  O
  O209     1.0000 0.94364  0.85058  0.20940  Biso   1.000  O
  C865     1.0000 0.11858  0.89581  0.25211  Biso   1.000  C
  H912     1.0000 0.25901  0.94262  0.29197  Biso   1.000  H
  H913     1.0000 0.25893  0.94262  0.29197  Biso   1.000  H
  H914     1.0000 0.00237  0.08730  0.57350  Biso   1.000  H
  C866     1.0000 0.15009  0.07651  0.54742  Biso   1.000  C
  H915     1.0000 0.00229  0.08730  0.57350  Biso   1.000  H
  C867     1.0000 0.14999  0.07651  0.54736  Biso   1.000  C
  C868     1.0000 0.15007  0.07651  0.54736  Biso   1.000  C
  H916     1.0000 0.28235  0.06558  0.49787  Biso   1.000  H
  H917     1.0000 0.28244  0.06558  0.49787  Biso   1.000  H
  H918     1.0000 0.65459  0.29721  0.01097  Biso   1.000  H
  H919     1.0000 0.68840  0.23071  0.01599  Biso   1.000  H
  C869     1.0000 0.67106  0.26401  0.90808  Biso   1.000  C
  C870     1.0000 0.67114  0.26401  0.90808  Biso   1.000  C
  C871     1.0000 0.34990  0.27028  0.96930  Biso   1.000  C
  C872     1.0000 0.87680  0.82790  0.24511  Biso   1.000  C
  O210     1.0000 0.16127  0.84466  0.22877  Biso   1.000  O
  O211     1.0000 0.16135  0.84466  0.22877  Biso   1.000  O
  H920     1.0000 0.19019  0.07940  0.59860  Biso   1.000  H
  H921     1.0000 0.19011  0.07940  0.59860  Biso   1.000  H
  O212     1.0000 0.72433  0.21242  0.88480  Biso   1.000  O
  H922     1.0000 0.59157  0.26089  0.89081  Biso   1.000  H
  H923     1.0000 0.69552  0.29879  0.88480  Biso   1.000  H
  O213     1.0000 0.72425  0.21242  0.88480  Biso   1.000  O
  H924     1.0000 0.69544  0.29879  0.88480  Biso   1.000  H
  H925     1.0000 0.59165  0.26089  0.89081  Biso   1.000  H
  C873     1.0000 0.33403  0.24308  0.89168  Biso   1.000  C
  H926     1.0000 0.42751  0.27958  0.98809  Biso   1.000  H
  H927     1.0000 0.30832  0.30660  0.96551  Biso   1.000  H
  C874     1.0000 0.33395  0.24308  0.89168  Biso   1.000  C
  H928     1.0000 0.42743  0.27958  0.98809  Biso   1.000  H
  H929     1.0000 0.30823  0.30660  0.96551  Biso   1.000  H
  H930     1.0000 0.92140  0.81141  0.29250  Biso   1.000  H
  H931     1.0000 0.83629  0.86041  0.26128  Biso   1.000  H
  C875     1.0000 0.79705  0.78500  0.21558  Biso   1.000  C
  C876     1.0000 0.79713  0.78500  0.21558  Biso   1.000  C
  C877     1.0000 0.27647  0.84510  0.22790  Biso   1.000  C
  C878     1.0000 0.27655  0.84510  0.22790  Biso   1.000  C
  C879     1.0000 0.69093  0.20930  0.80683  Biso   1.000  C
  C880     1.0000 0.69083  0.20930  0.80677  Biso   1.000  C
  C881     1.0000 0.69091  0.20930  0.80677  Biso   1.000  C
  O214     1.0000 0.22473  0.22742  0.86210  Biso   1.000  O
  H932     1.0000 0.35739  0.27041  0.85603  Biso   1.000  H
  H933     1.0000 0.38019  0.20851  0.89489  Biso   1.000  H
  O215     1.0000 0.22465  0.22742  0.86210  Biso   1.000  O
  H934     1.0000 0.35737  0.27041  0.85597  Biso   1.000  H
  O216     1.0000 0.77527  0.77258  0.13790  Biso   1.000  O
  H935     1.0000 0.72820  0.79689  0.22877  Biso   1.000  H
  H936     1.0000 0.81974  0.74880  0.24348  Biso   1.000  H
  O217     1.0000 0.77535  0.77258  0.13790  Biso   1.000  O
  H937     1.0000 0.81982  0.74880  0.24348  Biso   1.000  H
  H938     1.0000 0.29257  0.87861  0.19807  Biso   1.000  H
  H939     1.0000 0.31930  0.84909  0.28089  Biso   1.000  H
  C882     1.0000 0.30907  0.79070  0.19317  Biso   1.000  C
  H940     1.0000 0.31922  0.84909  0.28089  Biso   1.000  H
  H941     1.0000 0.29265  0.87861  0.19807  Biso   1.000  H
  C883     1.0000 0.30915  0.79070  0.19317  Biso   1.000  C
  C884     1.0000 0.72353  0.15490  0.77210  Biso   1.000  C
  H942     1.0000 0.72119  0.24251  0.78378  Biso   1.000  H
  H943     1.0000 0.61110  0.21259  0.79323  Biso   1.000  H
  C885     1.0000 0.72345  0.15490  0.77210  Biso   1.000  C
  H944     1.0000 0.61108  0.21259  0.79317  Biso   1.000  H
  H945     1.0000 0.72127  0.24251  0.78378  Biso   1.000  H
  H946     1.0000 0.61118  0.21259  0.79323  Biso   1.000  H
  C886     1.0000 0.20295  0.21500  0.78442  Biso   1.000  C
  C887     1.0000 0.20287  0.21500  0.78442  Biso   1.000  C
  C888     1.0000 0.66597  0.75692  0.10832  Biso   1.000  C
  C889     1.0000 0.66605  0.75692  0.10832  Biso   1.000  C
  O218     1.0000 0.27567  0.78758  0.11520  Biso   1.000  O
  H947     1.0000 0.27881  0.75749  0.21622  Biso   1.000  H
  H948     1.0000 0.38890  0.78741  0.20677  Biso   1.000  H
  H949     1.0000 0.27871  0.75749  0.21617  Biso   1.000  H
  H950     1.0000 0.38882  0.78741  0.20677  Biso   1.000  H
  O219     1.0000 0.27575  0.78758  0.11520  Biso   1.000  O
  H951     1.0000 0.27879  0.75749  0.21617  Biso   1.000  H
  O220     1.0000 0.83873  0.15534  0.77123  Biso   1.000  O
  H952     1.0000 0.70743  0.12139  0.80193  Biso   1.000  H
  H953     1.0000 0.68070  0.15091  0.71911  Biso   1.000  H
  O221     1.0000 0.83863  0.15534  0.77117  Biso   1.000  O
  H954     1.0000 0.70733  0.12139  0.80187  Biso   1.000  H
  H955     1.0000 0.68078  0.15091  0.71911  Biso   1.000  H
  O222     1.0000 0.83871  0.15534  0.77117  Biso   1.000  O
  H956     1.0000 0.70741  0.12139  0.80187  Biso   1.000  H
  C890     1.0000 0.12320  0.17210  0.75489  Biso   1.000  C
  H957     1.0000 0.27180  0.20311  0.77123  Biso   1.000  H
  H958     1.0000 0.18026  0.25120  0.75652  Biso   1.000  H
  H959     1.0000 0.27178  0.20311  0.77117  Biso   1.000  H
  H960     1.0000 0.18018  0.25120  0.75652  Biso   1.000  H
  H961     1.0000 0.64261  0.72959  0.14397  Biso   1.000  H
  H962     1.0000 0.61981  0.79149  0.10511  Biso   1.000  H
  C891     1.0000 0.65010  0.72972  0.03070  Biso   1.000  C
  H963     1.0000 0.64253  0.72959  0.14397  Biso   1.000  H
  C892     1.0000 0.32894  0.73599  0.09192  Biso   1.000  C
  C893     1.0000 0.32886  0.73599  0.09192  Biso   1.000  C
  C894     1.0000 0.88142  0.10419  0.74789  Biso   1.000  C
  C895     1.0000 0.88134  0.10419  0.74789  Biso   1.000  C
  O223     1.0000 0.05628  0.14942  0.79060  Biso   1.000  O
  H964     1.0000 0.07860  0.18859  0.70750  Biso   1.000  H
  H965     1.0000 0.16371  0.13959  0.73872  Biso   1.000  H
  O224     1.0000 0.68477  0.76741  0.97782  Biso   1.000  O
  O225     1.0000 0.68475  0.76741  0.97776  Biso   1.000  O
  O226     1.0000 0.68485  0.76741  0.97782  Biso   1.000  O
  H966     1.0000 0.57249  0.72042  0.01191  Biso   1.000  H
  H967     1.0000 0.69168  0.69340  0.03449  Biso   1.000  H
  H968     1.0000 0.57257  0.72042  0.01191  Biso   1.000  H
  H969     1.0000 0.69177  0.69340  0.03449  Biso   1.000  H
  H970     1.0000 0.40843  0.73911  0.10919  Biso   1.000  H
  H971     1.0000 0.30448  0.70121  0.11520  Biso   1.000  H
  C896     1.0000 0.29879  0.73178  0.00659  Biso   1.000  C
  H972     1.0000 0.40835  0.73911  0.10919  Biso   1.000  H
  H973     1.0000 0.30456  0.70121  0.11520  Biso   1.000  H
  C897     1.0000 0.29887  0.73178  0.00659  Biso   1.000  C
  C898     1.0000 0.81760  0.05589  0.71608  Biso   1.000  C
  C899     1.0000 0.99529  0.10081  0.75909  Biso   1.000  C
  C900     1.0000 0.81768  0.05589  0.71608  Biso   1.000  C
  C901     1.0000 0.99537  0.10081  0.75909  Biso   1.000  C
  C902     1.0000 0.65140  0.74801  0.89968  Biso   1.000  C
  O227     1.0000 0.19171  0.71639  0.98167  Biso   1.000  O
  H974     1.0000 0.34541  0.70279  0.98903  Biso   1.000  H
  H975     1.0000 0.31160  0.76929  0.98401  Biso   1.000  H
  O228     1.0000 0.19163  0.71639  0.98167  Biso   1.000  O
  H976     1.0000 0.34539  0.70279  0.98897  Biso   1.000  H
  C903     1.0000 0.86870  0.00610  0.69682  Biso   1.000  C
  H977     1.0000 0.74099  0.05738  0.70803  Biso   1.000  H
  H978     1.0000 0.74097  0.05738  0.70797  Biso   1.000  H
  C904     1.0000 0.86879  0.00610  0.69682  Biso   1.000  C
  H979     1.0000 0.74107  0.05738  0.70803  Biso   1.000  H
  C905     1.0000 0.04623  0.05058  0.74088  Biso   1.000  C
  C906     1.0000 0.04615  0.05058  0.74088  Biso   1.000  C
  C907     1.0000 0.68710  0.79281  0.84809  Biso   1.000  C
  H980     1.0000 0.68521  0.71042  0.89332  Biso   1.000  H
  H981     1.0000 0.57179  0.74332  0.88602  Biso   1.000  H
  H982     1.0000 0.57178  0.74332  0.88596  Biso   1.000  H
  C908     1.0000 0.15711  0.70230  0.90721  Biso   1.000  C
  C909     1.0000 0.15703  0.70230  0.90721  Biso   1.000  C
  C910     1.0000 0.80875  0.95038  0.66180  Biso   1.000  C
  C911     1.0000 0.80867  0.95038  0.66180  Biso   1.000  C
  C912     1.0000 0.98241  0.00259  0.71013  Biso   1.000  C
  C913     1.0000 0.98239  0.00259  0.71007  Biso   1.000  C
  C914     1.0000 0.98249  0.00259  0.71013  Biso   1.000  C
  H983     1.0000 0.12285  0.04891  0.74923  Biso   1.000  H
  H984     1.0000 0.12275  0.04891  0.74917  Biso   1.000  H
  H985     1.0000 0.12277  0.04891  0.74923  Biso   1.000  H
  H986     1.0000 0.12283  0.04891  0.74917  Biso   1.000  H
  O229     1.0000 0.80529  0.79022  0.85970  Biso   1.000  O
  O230     1.0000 0.80537  0.79022  0.85970  Biso   1.000  O
  H987     1.0000 0.66439  0.83159  0.86122  Biso   1.000  H
  H988     1.0000 0.65329  0.78491  0.79399  Biso   1.000  H
  H989     1.0000 0.66447  0.83159  0.86122  Biso   1.000  H
  H990     1.0000 0.65337  0.78491  0.79399  Biso   1.000  H
  C915     1.0000 0.10714  0.74709  0.85381  Biso   1.000  C
  H991     1.0000 0.21983  0.68691  0.88871  Biso   1.000  H
  H992     1.0000 0.10423  0.67059  0.90417  Biso   1.000  H
  C916     1.0000 0.10706  0.74709  0.85381  Biso   1.000  C
  H993     1.0000 0.21975  0.68691  0.88871  Biso   1.000  H
  H994     1.0000 0.10415  0.67059  0.90417  Biso   1.000  H
  C917     1.0000 0.85822  0.90261  0.72098  Biso   1.000  C
  C918     1.0000 0.85646  0.93801  0.58920  Biso   1.000  C
  C919     1.0000 0.68330  0.95381  0.64651  Biso   1.000  C
  C920     1.0000 0.85814  0.90261  0.72098  Biso   1.000  C
  C921     1.0000 0.85638  0.93801  0.58920  Biso   1.000  C
  C922     1.0000 0.68338  0.95381  0.64651  Biso   1.000  C
  C923     1.0000 0.02673  0.94301  0.68871  Biso   1.000  C
  C924     1.0000 0.02665  0.94301  0.68871  Biso   1.000  C
  C925     1.0000 0.85478  0.82672  0.81471  Biso   1.000  C
  C926     1.0000 0.85487  0.82672  0.81471  Biso   1.000  C
  O231     1.0000 0.01817  0.77671  0.87540  Biso   1.000  O
  H995     1.0000 0.08092  0.72950  0.80292  Biso   1.000  H
  H996     1.0000 0.16334  0.77570  0.84891  Biso   1.000  H
  H997     1.0000 0.16326  0.77570  0.84891  Biso   1.000  H
  H998     1.0000 0.08084  0.72950  0.80292  Biso   1.000  H
  C927     1.0000 0.97254  0.89818  0.73312  Biso   1.000  C
  C928     1.0000 0.79992  0.86782  0.76248  Biso   1.000  C
  C929     1.0000 0.97246  0.89818  0.73312  Biso   1.000  C
  C930     1.0000 0.79984  0.86782  0.76248  Biso   1.000  C
  C931     1.0000 0.97015  0.93420  0.60298  Biso   1.000  C
  C932     1.0000 0.79433  0.93231  0.51258  Biso   1.000  C
  C933     1.0000 0.97007  0.93420  0.60298  Biso   1.000  C
  C934     1.0000 0.79425  0.93231  0.51258  Biso   1.000  C
  H999     1.0000 0.65779  0.98539  0.61091  Biso   1.000  H
  H1000    1.0000 0.66079  0.96078  0.69478  Biso   1.000  H
  H1001    1.0000 0.65223  0.91748  0.62422  Biso   1.000  H
  H1002    1.0000 0.65215  0.91748  0.62422  Biso   1.000  H
  H1003    1.0000 0.65787  0.98539  0.61091  Biso   1.000  H
  H1004    1.0000 0.66087  0.96078  0.69478  Biso   1.000  H
  C935     1.0000 0.15125  0.93911  0.70441  Biso   1.000  C
  C936     1.0000 0.15117  0.93911  0.70441  Biso   1.000  C
  C937     1.0000 0.96899  0.81992  0.82381  Biso   1.000  C
  C938     1.0000 0.96907  0.81992  0.82381  Biso   1.000  C
  C939     1.0000 0.02741  0.85611  0.78378  Biso   1.000  C
  C940     1.0000 0.02733  0.85611  0.78378  Biso   1.000  C
  H1005    1.0000 0.72370  0.87199  0.75541  Biso   1.000  H
  H1006    1.0000 0.72378  0.87199  0.75541  Biso   1.000  H
  C941     1.0000 0.02360  0.92389  0.54211  Biso   1.000  C
  C942     1.0000 0.84991  0.92349  0.45258  Biso   1.000  C
  H1007    1.0000 0.71765  0.93442  0.50213  Biso   1.000  H
  H1008    1.0000 0.71755  0.93442  0.50207  Biso   1.000  H
  C943     1.0000 0.84999  0.92349  0.45258  Biso   1.000  C
  H1009    1.0000 0.71763  0.93442  0.50207  Biso   1.000  H
  H1010    1.0000 0.17252  0.90081  0.69023  Biso   1.000  H
  H1011    1.0000 0.18115  0.94569  0.75892  Biso   1.000  H
  H1012    1.0000 0.17915  0.96819  0.67412  Biso   1.000  H
  H1013    1.0000 0.17250  0.90081  0.69017  Biso   1.000  H
  H1014    1.0000 0.18107  0.94569  0.75892  Biso   1.000  H
  H1015    1.0000 0.17907  0.96819  0.67412  Biso   1.000  H
  H1016    1.0000 0.10361  0.85212  0.79101  Biso   1.000  H
  C944     1.0000 0.96231  0.91911  0.46741  Biso   1.000  C
  C945     1.0000 0.96239  0.91911  0.46741  Biso   1.000  C
  H1017    1.0000 0.10013  0.92029  0.55203  Biso   1.000  H
  H1018    1.0000 0.10011  0.92029  0.55197  Biso   1.000  H
  H1019    1.0000 0.80981  0.92060  0.40140  Biso   1.000  H
  H1020    1.0000 0.80989  0.92060  0.40140  Biso   1.000  H
  H1021    1.0000 0.99763  0.91270  0.42650  Biso   1.000  H
  H1022    1.0000 0.99771  0.91270  0.42650  Biso   1.000  H
  C946     1.0000 0.97265  0.14389  0.21617  Biso   1.000  C
  C947     1.0000 0.03101  0.18008  0.17619  Biso   1.000  C
  C948     1.0000 0.03093  0.18008  0.17619  Biso   1.000  C
  H1023    1.0000 0.89639  0.14788  0.20899  Biso   1.000  H
  C949     1.0000 0.02746  0.10182  0.26688  Biso   1.000  C
  C950     1.0000 0.02754  0.10182  0.26688  Biso   1.000  C
  O232     1.0000 0.98183  0.22329  0.12460  Biso   1.000  O
  C951     1.0000 0.97259  0.14389  0.21622  Biso   1.000  C
  C952     1.0000 0.97257  0.14389  0.21617  Biso   1.000  C
  C953     1.0000 0.14522  0.17328  0.18529  Biso   1.000  C
  C954     1.0000 0.14513  0.17328  0.18529  Biso   1.000  C
  C955     1.0000 0.97327  0.05699  0.31129  Biso   1.000  C
  C956     1.0000 0.97335  0.05699  0.31129  Biso   1.000  C
  C957     1.0000 0.14178  0.09739  0.27902  Biso   1.000  C
  C958     1.0000 0.14176  0.09739  0.27896  Biso   1.000  C
  C959     1.0000 0.14186  0.09739  0.27902  Biso   1.000  C
  C960     1.0000 0.89286  0.25291  0.14619  Biso   1.000  C
  C961     1.0000 0.89294  0.25291  0.14619  Biso   1.000  C
  O233     1.0000 0.19471  0.20978  0.14030  Biso   1.000  O
  C962     1.0000 0.20008  0.13218  0.23752  Biso   1.000  C
  O234     1.0000 0.19463  0.20978  0.14030  Biso   1.000  O
  C963     1.0000 0.20006  0.13218  0.23747  Biso   1.000  C
  C964     1.0000 0.20016  0.13218  0.23752  Biso   1.000  C
  C965     1.0000 0.84875  0.06089  0.29559  Biso   1.000  C
  C966     1.0000 0.84883  0.06089  0.29559  Biso   1.000  C
  C967     1.0000 0.01759  0.99741  0.28987  Biso   1.000  C
  C968     1.0000 0.01751  0.99741  0.28987  Biso   1.000  C
  C969     1.0000 0.02985  0.06580  0.39702  Biso   1.000  C
  C970     1.0000 0.02984  0.06580  0.39696  Biso   1.000  C
  C971     1.0000 0.02993  0.06580  0.39702  Biso   1.000  C
  C972     1.0000 0.19125  0.04962  0.33820  Biso   1.000  C
  C973     1.0000 0.19133  0.04962  0.33820  Biso   1.000  C
  C974     1.0000 0.84289  0.29770  0.09279  Biso   1.000  C
  H1024    1.0000 0.91908  0.27050  0.19708  Biso   1.000  H
  H1025    1.0000 0.83666  0.22430  0.15109  Biso   1.000  H
  C975     1.0000 0.84297  0.29770  0.09279  Biso   1.000  C
  H1026    1.0000 0.91916  0.27050  0.19708  Biso   1.000  H
  H1027    1.0000 0.83674  0.22430  0.15109  Biso   1.000  H
  C976     1.0000 0.31290  0.20719  0.15191  Biso   1.000  C
  H1028    1.0000 0.27630  0.12801  0.24459  Biso   1.000  H
  H1029    1.0000 0.27622  0.12801  0.24459  Biso   1.000  H
  H1030    1.0000 0.82748  0.09919  0.30977  Biso   1.000  H
  H1031    1.0000 0.81885  0.05431  0.24108  Biso   1.000  H
  H1032    1.0000 0.82085  0.03181  0.32588  Biso   1.000  H
  H1033    1.0000 0.81893  0.05431  0.24108  Biso   1.000  H
  H1034    1.0000 0.82093  0.03181  0.32588  Biso   1.000  H
  C977     1.0000 0.95377  0.94942  0.25912  Biso   1.000  C
  C978     1.0000 0.95385  0.94942  0.25912  Biso   1.000  C
  C979     1.0000 0.13130  0.99390  0.30318  Biso   1.000  C
  C980     1.0000 0.13121  0.99390  0.30318  Biso   1.000  C
  C981     1.0000 0.97640  0.07611  0.45789  Biso   1.000  C
  C982     1.0000 0.14354  0.06199  0.41080  Biso   1.000  C
  C983     1.0000 0.14362  0.06199  0.41080  Biso   1.000  C
  C984     1.0000 0.31670  0.04619  0.35349  Biso   1.000  C
  C985     1.0000 0.31662  0.04619  0.35349  Biso   1.000  C
  O235     1.0000 0.80829  0.28361  0.01833  Biso   1.000  O
  H1035    1.0000 0.78017  0.31309  0.11129  Biso   1.000  H
  H1036    1.0000 0.89577  0.32941  0.09583  Biso   1.000  H
  O236     1.0000 0.80835  0.28361  0.01827  Biso   1.000  O
  H1037    1.0000 0.78025  0.31309  0.11129  Biso   1.000  H
  H1038    1.0000 0.89584  0.32941  0.09577  Biso   1.000  H
  O237     1.0000 0.80837  0.28361  0.01833  Biso   1.000  O
  H1039    1.0000 0.89585  0.32941  0.09583  Biso   1.000  H
  O238     1.0000 0.80827  0.28361  0.01827  Biso   1.000  O
  H1040    1.0000 0.89576  0.32941  0.09577  Biso   1.000  H
  C986     1.0000 0.34860  0.25199  0.10032  Biso   1.000  C
  H1041    1.0000 0.33561  0.16841  0.13878  Biso   1.000  H
  H1042    1.0000 0.34671  0.21509  0.20601  Biso   1.000  H
  C987     1.0000 0.34859  0.25199  0.10026  Biso   1.000  C
  H1043    1.0000 0.33553  0.16841  0.13878  Biso   1.000  H
  H1044    1.0000 0.34663  0.21509  0.20601  Biso   1.000  H
  H1045    1.0000 0.87715  0.95109  0.25077  Biso   1.000  H
  H1046    1.0000 0.87723  0.95109  0.25077  Biso   1.000  H
  C988     1.0000 0.00471  0.89919  0.24091  Biso   1.000  C
  C989     1.0000 0.00463  0.89919  0.24091  Biso   1.000  C
  C990     1.0000 0.18240  0.94411  0.28392  Biso   1.000  C
  C991     1.0000 0.18231  0.94411  0.28386  Biso   1.000  C
  C992     1.0000 0.18239  0.94411  0.28386  Biso   1.000  C
  H1047    1.0000 0.89987  0.07971  0.44797  Biso   1.000  H
  C993     1.0000 0.03769  0.08089  0.53259  Biso   1.000  C
  C994     1.0000 0.03761  0.08089  0.53259  Biso   1.000  C
  C995     1.0000 0.20567  0.06769  0.48742  Biso   1.000  C
  C996     1.0000 0.20565  0.06769  0.48736  Biso   1.000  C
  C997     1.0000 0.20575  0.06769  0.48742  Biso   1.000  C
  H1048    1.0000 0.34221  0.01461  0.38909  Biso   1.000  H
  H1049    1.0000 0.33921  0.03922  0.30522  Biso   1.000  H
  H1050    1.0000 0.34777  0.08252  0.37578  Biso   1.000  H
  H1051    1.0000 0.34213  0.01461  0.38909  Biso   1.000  H
  H1052    1.0000 0.33911  0.03922  0.30516  Biso   1.000  H
  H1053    1.0000 0.34785  0.08252  0.37578  Biso   1.000  H
  H1054    1.0000 0.33919  0.03922  0.30516  Biso   1.000  H
  C998     1.0000 0.70121  0.26822  0.99341  Biso   1.000  C
  C999     1.0000 0.70113  0.26822  0.99341  Biso   1.000  C
  O239     1.0000 0.31523  0.23259  0.02218  Biso   1.000  O
  H1055    1.0000 0.31479  0.28958  0.10668  Biso   1.000  H
  H1056    1.0000 0.42821  0.25668  0.11398  Biso   1.000  H
  O240     1.0000 0.31515  0.23259  0.02218  Biso   1.000  O
  H1057    1.0000 0.42812  0.25668  0.11398  Biso   1.000  H
  O241     1.0000 0.94372  0.85058  0.20940  Biso   1.000  O
  O242     1.0000 0.94364  0.85058  0.20940  Biso   1.000  O
  C1000    1.0000 0.11858  0.89581  0.25211  Biso   1.000  C
  H1058    1.0000 0.25901  0.94262  0.29197  Biso   1.000  H
  H1059    1.0000 0.25893  0.94262  0.29197  Biso   1.000  H
  H1060    1.0000 0.00237  0.08730  0.57350  Biso   1.000  H
  C1001    1.0000 0.15009  0.07651  0.54742  Biso   1.000  C
  H1061    1.0000 0.00229  0.08730  0.57350  Biso   1.000  H
  C1002    1.0000 0.14999  0.07651  0.54736  Biso   1.000  C
  C1003    1.0000 0.15007  0.07651  0.54736  Biso   1.000  C
  H1062    1.0000 0.28235  0.06558  0.49787  Biso   1.000  H
  H1063    1.0000 0.28244  0.06558  0.49787  Biso   1.000  H
  H1064    1.0000 0.65459  0.29721  0.01097  Biso   1.000  H
  H1065    1.0000 0.68840  0.23071  0.01599  Biso   1.000  H
  C1004    1.0000 0.67106  0.26401  0.90808  Biso   1.000  C
  C1005    1.0000 0.67114  0.26401  0.90808  Biso   1.000  C
  C1006    1.0000 0.34990  0.27028  0.96930  Biso   1.000  C
  C1007    1.0000 0.87680  0.82790  0.24511  Biso   1.000  C
  O243     1.0000 0.16127  0.84466  0.22877  Biso   1.000  O
  O244     1.0000 0.16135  0.84466  0.22877  Biso   1.000  O
  H1066    1.0000 0.19019  0.07940  0.59860  Biso   1.000  H
  H1067    1.0000 0.19011  0.07940  0.59860  Biso   1.000  H
  O245     1.0000 0.72433  0.21242  0.88480  Biso   1.000  O
  H1068    1.0000 0.59157  0.26089  0.89081  Biso   1.000  H
  H1069    1.0000 0.69552  0.29879  0.88480  Biso   1.000  H
  O246     1.0000 0.72425  0.21242  0.88480  Biso   1.000  O
  H1070    1.0000 0.69544  0.29879  0.88480  Biso   1.000  H
  H1071    1.0000 0.59165  0.26089  0.89081  Biso   1.000  H
  C1008    1.0000 0.33403  0.24308  0.89168  Biso   1.000  C
  H1072    1.0000 0.42751  0.27958  0.98809  Biso   1.000  H
  H1073    1.0000 0.30832  0.30660  0.96551  Biso   1.000  H
  C1009    1.0000 0.33395  0.24308  0.89168  Biso   1.000  C
  H1074    1.0000 0.42743  0.27958  0.98809  Biso   1.000  H
  H1075    1.0000 0.30823  0.30660  0.96551  Biso   1.000  H
  H1076    1.0000 0.92140  0.81141  0.29250  Biso   1.000  H
  H1077    1.0000 0.83629  0.86041  0.26128  Biso   1.000  H
  C1010    1.0000 0.79705  0.78500  0.21558  Biso   1.000  C
  C1011    1.0000 0.79713  0.78500  0.21558  Biso   1.000  C
  C1012    1.0000 0.27647  0.84510  0.22790  Biso   1.000  C
  C1013    1.0000 0.27655  0.84510  0.22790  Biso   1.000  C
  C1014    1.0000 0.69093  0.20930  0.80683  Biso   1.000  C
  C1015    1.0000 0.69083  0.20930  0.80677  Biso   1.000  C
  C1016    1.0000 0.69091  0.20930  0.80677  Biso   1.000  C
  O247     1.0000 0.22473  0.22742  0.86210  Biso   1.000  O
  H1078    1.0000 0.35739  0.27041  0.85603  Biso   1.000  H
  H1079    1.0000 0.38019  0.20851  0.89489  Biso   1.000  H
  O248     1.0000 0.22465  0.22742  0.86210  Biso   1.000  O
  H1080    1.0000 0.35737  0.27041  0.85597  Biso   1.000  H
  O249     1.0000 0.77527  0.77258  0.13790  Biso   1.000  O
  H1081    1.0000 0.72820  0.79689  0.22877  Biso   1.000  H
  H1082    1.0000 0.81974  0.74880  0.24348  Biso   1.000  H
  O250     1.0000 0.77535  0.77258  0.13790  Biso   1.000  O
  H1083    1.0000 0.81982  0.74880  0.24348  Biso   1.000  H
  H1084    1.0000 0.29257  0.87861  0.19807  Biso   1.000  H
  H1085    1.0000 0.31930  0.84909  0.28089  Biso   1.000  H
  C1017    1.0000 0.30907  0.79070  0.19317  Biso   1.000  C
  H1086    1.0000 0.31922  0.84909  0.28089  Biso   1.000  H
  H1087    1.0000 0.29265  0.87861  0.19807  Biso   1.000  H
  C1018    1.0000 0.30915  0.79070  0.19317  Biso   1.000  C
  C1019    1.0000 0.72353  0.15490  0.77210  Biso   1.000  C
  H1088    1.0000 0.72119  0.24251  0.78378  Biso   1.000  H
  H1089    1.0000 0.61110  0.21259  0.79323  Biso   1.000  H
  C1020    1.0000 0.72345  0.15490  0.77210  Biso   1.000  C
  H1090    1.0000 0.61108  0.21259  0.79317  Biso   1.000  H
  H1091    1.0000 0.72127  0.24251  0.78378  Biso   1.000  H
  H1092    1.0000 0.61118  0.21259  0.79323  Biso   1.000  H
  C1021    1.0000 0.20295  0.21500  0.78442  Biso   1.000  C
  C1022    1.0000 0.20287  0.21500  0.78442  Biso   1.000  C
  C1023    1.0000 0.66597  0.75692  0.10832  Biso   1.000  C
  C1024    1.0000 0.66605  0.75692  0.10832  Biso   1.000  C
  O251     1.0000 0.27567  0.78758  0.11520  Biso   1.000  O
  H1093    1.0000 0.27881  0.75749  0.21622  Biso   1.000  H
  H1094    1.0000 0.38890  0.78741  0.20677  Biso   1.000  H
  H1095    1.0000 0.27871  0.75749  0.21617  Biso   1.000  H
  H1096    1.0000 0.38882  0.78741  0.20677  Biso   1.000  H
  O252     1.0000 0.27575  0.78758  0.11520  Biso   1.000  O
  H1097    1.0000 0.27879  0.75749  0.21617  Biso   1.000  H
  O253     1.0000 0.83873  0.15534  0.77123  Biso   1.000  O
  H1098    1.0000 0.70743  0.12139  0.80193  Biso   1.000  H
  H1099    1.0000 0.68070  0.15091  0.71911  Biso   1.000  H
  O254     1.0000 0.83863  0.15534  0.77117  Biso   1.000  O
  H1100    1.0000 0.70733  0.12139  0.80187  Biso   1.000  H
  H1101    1.0000 0.68078  0.15091  0.71911  Biso   1.000  H
  O255     1.0000 0.83871  0.15534  0.77117  Biso   1.000  O
  H1102    1.0000 0.70741  0.12139  0.80187  Biso   1.000  H
  C1025    1.0000 0.12320  0.17210  0.75489  Biso   1.000  C
  H1103    1.0000 0.27180  0.20311  0.77123  Biso   1.000  H
  H1104    1.0000 0.18026  0.25120  0.75652  Biso   1.000  H
  H1105    1.0000 0.27178  0.20311  0.77117  Biso   1.000  H
  H1106    1.0000 0.18018  0.25120  0.75652  Biso   1.000  H
  H1107    1.0000 0.64261  0.72959  0.14397  Biso   1.000  H
  H1108    1.0000 0.61981  0.79149  0.10511  Biso   1.000  H
  C1026    1.0000 0.65010  0.72972  0.03070  Biso   1.000  C
  H1109    1.0000 0.64253  0.72959  0.14397  Biso   1.000  H
  C1027    1.0000 0.32894  0.73599  0.09192  Biso   1.000  C
  C1028    1.0000 0.32886  0.73599  0.09192  Biso   1.000  C
  C1029    1.0000 0.88142  0.10419  0.74789  Biso   1.000  C
  C1030    1.0000 0.88134  0.10419  0.74789  Biso   1.000  C
  O256     1.0000 0.05628  0.14942  0.79060  Biso   1.000  O
  H1110    1.0000 0.07860  0.18859  0.70750  Biso   1.000  H
  H1111    1.0000 0.16371  0.13959  0.73872  Biso   1.000  H
  O257     1.0000 0.68477  0.76741  0.97782  Biso   1.000  O
  O258     1.0000 0.68475  0.76741  0.97776  Biso   1.000  O
  O259     1.0000 0.68485  0.76741  0.97782  Biso   1.000  O
  H1112    1.0000 0.57249  0.72042  0.01191  Biso   1.000  H
  H1113    1.0000 0.69168  0.69340  0.03449  Biso   1.000  H
  H1114    1.0000 0.57257  0.72042  0.01191  Biso   1.000  H
  H1115    1.0000 0.69177  0.69340  0.03449  Biso   1.000  H
  H1116    1.0000 0.40843  0.73911  0.10919  Biso   1.000  H
  H1117    1.0000 0.30448  0.70121  0.11520  Biso   1.000  H
  C1031    1.0000 0.29879  0.73178  0.00659  Biso   1.000  C
  H1118    1.0000 0.40835  0.73911  0.10919  Biso   1.000  H
  H1119    1.0000 0.30456  0.70121  0.11520  Biso   1.000  H
  C1032    1.0000 0.29887  0.73178  0.00659  Biso   1.000  C
  C1033    1.0000 0.81760  0.05589  0.71608  Biso   1.000  C
  C1034    1.0000 0.99529  0.10081  0.75909  Biso   1.000  C
  C1035    1.0000 0.81768  0.05589  0.71608  Biso   1.000  C
  C1036    1.0000 0.99537  0.10081  0.75909  Biso   1.000  C
  C1037    1.0000 0.65140  0.74801  0.89968  Biso   1.000  C
  O260     1.0000 0.19171  0.71639  0.98167  Biso   1.000  O
  H1120    1.0000 0.34541  0.70279  0.98903  Biso   1.000  H
  H1121    1.0000 0.31160  0.76929  0.98401  Biso   1.000  H
  O261     1.0000 0.19163  0.71639  0.98167  Biso   1.000  O
  H1122    1.0000 0.34539  0.70279  0.98897  Biso   1.000  H
  C1038    1.0000 0.86870  0.00610  0.69682  Biso   1.000  C
  H1123    1.0000 0.74099  0.05738  0.70803  Biso   1.000  H
  H1124    1.0000 0.74097  0.05738  0.70797  Biso   1.000  H
  C1039    1.0000 0.86879  0.00610  0.69682  Biso   1.000  C
  H1125    1.0000 0.74107  0.05738  0.70803  Biso   1.000  H
  C1040    1.0000 0.04623  0.05058  0.74088  Biso   1.000  C
  C1041    1.0000 0.04615  0.05058  0.74088  Biso   1.000  C
  C1042    1.0000 0.68710  0.79281  0.84809  Biso   1.000  C
  H1126    1.0000 0.68521  0.71042  0.89332  Biso   1.000  H
  H1127    1.0000 0.57179  0.74332  0.88602  Biso   1.000  H
  H1128    1.0000 0.57178  0.74332  0.88596  Biso   1.000  H
  C1043    1.0000 0.15711  0.70230  0.90721  Biso   1.000  C
  C1044    1.0000 0.15703  0.70230  0.90721  Biso   1.000  C
  C1045    1.0000 0.80875  0.95038  0.66180  Biso   1.000  C
  C1046    1.0000 0.80867  0.95038  0.66180  Biso   1.000  C
  C1047    1.0000 0.98241  0.00259  0.71013  Biso   1.000  C
  C1048    1.0000 0.98239  0.00259  0.71007  Biso   1.000  C
  C1049    1.0000 0.98249  0.00259  0.71013  Biso   1.000  C
  H1129    1.0000 0.12285  0.04891  0.74923  Biso   1.000  H
  H1130    1.0000 0.12275  0.04891  0.74917  Biso   1.000  H
  H1131    1.0000 0.12277  0.04891  0.74923  Biso   1.000  H
  H1132    1.0000 0.12283  0.04891  0.74917  Biso   1.000  H
  O262     1.0000 0.80529  0.79022  0.85970  Biso   1.000  O
  O263     1.0000 0.80537  0.79022  0.85970  Biso   1.000  O
  H1133    1.0000 0.66439  0.83159  0.86122  Biso   1.000  H
  H1134    1.0000 0.65329  0.78491  0.79399  Biso   1.000  H
  H1135    1.0000 0.66447  0.83159  0.86122  Biso   1.000  H
  H1136    1.0000 0.65337  0.78491  0.79399  Biso   1.000  H
  C1050    1.0000 0.10714  0.74709  0.85381  Biso   1.000  C
  H1137    1.0000 0.21983  0.68691  0.88871  Biso   1.000  H
  H1138    1.0000 0.10423  0.67059  0.90417  Biso   1.000  H
  C1051    1.0000 0.10706  0.74709  0.85381  Biso   1.000  C
  H1139    1.0000 0.21975  0.68691  0.88871  Biso   1.000  H
  H1140    1.0000 0.10415  0.67059  0.90417  Biso   1.000  H
  C1052    1.0000 0.85822  0.90261  0.72098  Biso   1.000  C
  C1053    1.0000 0.85646  0.93801  0.58920  Biso   1.000  C
  C1054    1.0000 0.68330  0.95381  0.64651  Biso   1.000  C
  C1055    1.0000 0.85814  0.90261  0.72098  Biso   1.000  C
  C1056    1.0000 0.85638  0.93801  0.58920  Biso   1.000  C
  C1057    1.0000 0.68338  0.95381  0.64651  Biso   1.000  C
  C1058    1.0000 0.02673  0.94301  0.68871  Biso   1.000  C
  C1059    1.0000 0.02665  0.94301  0.68871  Biso   1.000  C
  C1060    1.0000 0.85478  0.82672  0.81471  Biso   1.000  C
  C1061    1.0000 0.85487  0.82672  0.81471  Biso   1.000  C
  O264     1.0000 0.01817  0.77671  0.87540  Biso   1.000  O
  H1141    1.0000 0.08092  0.72950  0.80292  Biso   1.000  H
  H1142    1.0000 0.16334  0.77570  0.84891  Biso   1.000  H
  H1143    1.0000 0.16326  0.77570  0.84891  Biso   1.000  H
  H1144    1.0000 0.08084  0.72950  0.80292  Biso   1.000  H
  C1062    1.0000 0.97254  0.89818  0.73312  Biso   1.000  C
  C1063    1.0000 0.79992  0.86782  0.76248  Biso   1.000  C
  C1064    1.0000 0.97246  0.89818  0.73312  Biso   1.000  C
  C1065    1.0000 0.79984  0.86782  0.76248  Biso   1.000  C
  C1066    1.0000 0.97015  0.93420  0.60298  Biso   1.000  C
  C1067    1.0000 0.79433  0.93231  0.51258  Biso   1.000  C
  C1068    1.0000 0.97007  0.93420  0.60298  Biso   1.000  C
  C1069    1.0000 0.79425  0.93231  0.51258  Biso   1.000  C
  H1145    1.0000 0.65779  0.98539  0.61091  Biso   1.000  H
  H1146    1.0000 0.66079  0.96078  0.69478  Biso   1.000  H
  H1147    1.0000 0.65223  0.91748  0.62422  Biso   1.000  H
  H1148    1.0000 0.65215  0.91748  0.62422  Biso   1.000  H
  H1149    1.0000 0.65787  0.98539  0.61091  Biso   1.000  H
  H1150    1.0000 0.66087  0.96078  0.69478  Biso   1.000  H
  C1070    1.0000 0.15125  0.93911  0.70441  Biso   1.000  C
  C1071    1.0000 0.15117  0.93911  0.70441  Biso   1.000  C
  C1072    1.0000 0.96899  0.81992  0.82381  Biso   1.000  C
  C1073    1.0000 0.96907  0.81992  0.82381  Biso   1.000  C
  C1074    1.0000 0.02741  0.85611  0.78378  Biso   1.000  C
  C1075    1.0000 0.02733  0.85611  0.78378  Biso   1.000  C
  H1151    1.0000 0.72370  0.87199  0.75541  Biso   1.000  H
  H1152    1.0000 0.72378  0.87199  0.75541  Biso   1.000  H
  C1076    1.0000 0.02360  0.92389  0.54211  Biso   1.000  C
  C1077    1.0000 0.84991  0.92349  0.45258  Biso   1.000  C
  H1153    1.0000 0.71765  0.93442  0.50213  Biso   1.000  H
  H1154    1.0000 0.71755  0.93442  0.50207  Biso   1.000  H
  C1078    1.0000 0.84999  0.92349  0.45258  Biso   1.000  C
  H1155    1.0000 0.71763  0.93442  0.50207  Biso   1.000  H
  H1156    1.0000 0.17252  0.90081  0.69023  Biso   1.000  H
  H1157    1.0000 0.18115  0.94569  0.75892  Biso   1.000  H
  H1158    1.0000 0.17915  0.96819  0.67412  Biso   1.000  H
  H1159    1.0000 0.17250  0.90081  0.69017  Biso   1.000  H
  H1160    1.0000 0.18107  0.94569  0.75892  Biso   1.000  H
  H1161    1.0000 0.17907  0.96819  0.67412  Biso   1.000  H
  H1162    1.0000 0.10361  0.85212  0.79101  Biso   1.000  H
  C1079    1.0000 0.96231  0.91911  0.46741  Biso   1.000  C
  C1080    1.0000 0.96239  0.91911  0.46741  Biso   1.000  C
  H1163    1.0000 0.10013  0.92029  0.55203  Biso   1.000  H
  H1164    1.0000 0.10011  0.92029  0.55197  Biso   1.000  H
  H1165    1.0000 0.80981  0.92060  0.40140  Biso   1.000  H
  H1166    1.0000 0.80989  0.92060  0.40140  Biso   1.000  H
  H1167    1.0000 0.99763  0.91270  0.42650  Biso   1.000  H
  H1168    1.0000 0.99771  0.91270  0.42650  Biso   1.000  H
  C1081    1.0000 0.70292  0.28502  0.28439  Biso   1.000  C
  C1082    1.0000 0.62319  0.32788  0.25492  Biso   1.000  C
  O265     1.0000 0.72472  0.27260  0.36212  Biso   1.000  O
  H1169    1.0000 0.77177  0.29691  0.27120  Biso   1.000  H
  H1170    1.0000 0.68023  0.24878  0.25649  Biso   1.000  H
  O266     1.0000 0.55625  0.35056  0.29057  Biso   1.000  O
  H1171    1.0000 0.57857  0.31138  0.20747  Biso   1.000  H
  H1172    1.0000 0.66368  0.36039  0.23869  Biso   1.000  H
  C1083    1.0000 0.83402  0.25690  0.39171  Biso   1.000  C
  C1084    1.0000 0.49528  0.39921  0.25912  Biso   1.000  C
  H1173    1.0000 0.85736  0.22961  0.35600  Biso   1.000  H
  H1174    1.0000 0.88018  0.29151  0.39492  Biso   1.000  H
  C1085    1.0000 0.84987  0.22970  0.46927  Biso   1.000  C
  C1086    1.0000 0.38141  0.39579  0.24791  Biso   1.000  C
  C1087    1.0000 0.54622  0.44940  0.24091  Biso   1.000  C
  O267     1.0000 0.81522  0.26738  0.52220  Biso   1.000  O
  H1175    1.0000 0.92750  0.22040  0.48812  Biso   1.000  H
  H1176    1.0000 0.80829  0.19342  0.46548  Biso   1.000  H
  O268     1.0000 0.33870  0.34468  0.27120  Biso   1.000  O
  C1088    1.0000 0.31759  0.44409  0.21611  Biso   1.000  C
  C1089    1.0000 0.48238  0.49739  0.21010  Biso   1.000  C
  H1177    1.0000 0.62282  0.45111  0.24920  Biso   1.000  H
  C1090    1.0000 0.84858  0.24799  0.60029  Biso   1.000  C
  C1091    1.0000 0.22350  0.34512  0.27207  Biso   1.000  C
  C1092    1.0000 0.36868  0.49388  0.19679  Biso   1.000  C
  H1178    1.0000 0.24096  0.44260  0.20799  Biso   1.000  H
  C1093    1.0000 0.52670  0.55701  0.18868  Biso   1.000  C
  C1094    1.0000 0.81287  0.29278  0.65188  Biso   1.000  C
  H1179    1.0000 0.81478  0.21040  0.60671  Biso   1.000  H
  H1180    1.0000 0.92819  0.24330  0.61400  Biso   1.000  H
  C1095    1.0000 0.19090  0.29072  0.30680  Biso   1.000  C
  H1181    1.0000 0.20740  0.37859  0.30190  Biso   1.000  H
  H1182    1.0000 0.18067  0.34911  0.21908  Biso   1.000  H
  C1096    1.0000 0.30872  0.54959  0.16177  Biso   1.000  C
  C1097    1.0000 0.47251  0.60180  0.23309  Biso   1.000  C
  C1098    1.0000 0.47014  0.56578  0.10301  Biso   1.000  C
  C1099    1.0000 0.65122  0.56091  0.20438  Biso   1.000  C
  O269     1.0000 0.69468  0.29024  0.64027  Biso   1.000  O
  H1183    1.0000 0.83560  0.33161  0.63881  Biso   1.000  H
  H1184    1.0000 0.84668  0.28489  0.70598  Biso   1.000  H
  O270     1.0000 0.22430  0.28761  0.38477  Biso   1.000  O
  H1185    1.0000 0.22118  0.25751  0.28380  Biso   1.000  H
  H1186    1.0000 0.11107  0.28739  0.29320  Biso   1.000  H
  C1100    1.0000 0.35821  0.59741  0.22101  Biso   1.000  C
  C1101    1.0000 0.35643  0.56201  0.08917  Biso   1.000  C
  C1102    1.0000 0.18327  0.54622  0.14648  Biso   1.000  C
  C1103    1.0000 0.52740  0.64391  0.28380  Biso   1.000  C
  C1104    1.0000 0.52357  0.57609  0.04208  Biso   1.000  C
  H1187    1.0000 0.67249  0.59921  0.19019  Biso   1.000  H
  H1188    1.0000 0.68112  0.55429  0.25888  Biso   1.000  H
  H1189    1.0000 0.67913  0.53178  0.17409  Biso   1.000  H
  C1105    1.0000 0.64520  0.32669  0.68532  Biso   1.000  C
  C1106    1.0000 0.17105  0.23602  0.40811  Biso   1.000  C
  C1107    1.0000 0.29991  0.63220  0.26250  Biso   1.000  C
  C1108    1.0000 0.29432  0.56771  0.01261  Biso   1.000  C
  H1190    1.0000 0.15776  0.51459  0.11088  Biso   1.000  H
  H1191    1.0000 0.16078  0.53920  0.19481  Biso   1.000  H
  H1192    1.0000 0.15220  0.58250  0.12419  Biso   1.000  H
  H1193    1.0000 0.60358  0.64791  0.29098  Biso   1.000  H
  C1109    1.0000 0.46896  0.68011  0.32378  Biso   1.000  C
  H1194    1.0000 0.60010  0.57969  0.05200  Biso   1.000  H
  C1110    1.0000 0.46228  0.58092  0.96738  Biso   1.000  C
  C1111    1.0000 0.53100  0.31989  0.67622  Biso   1.000  C
  C1112    1.0000 0.70005  0.36780  0.73749  Biso   1.000  C
  H1195    1.0000 0.09154  0.23909  0.39078  Biso   1.000  H
  H1196    1.0000 0.19550  0.20118  0.38477  Biso   1.000  H
  C1113    1.0000 0.20118  0.23181  0.49337  Biso   1.000  C
  C1114    1.0000 0.35476  0.67331  0.31468  Biso   1.000  C
  H1197    1.0000 0.22367  0.62799  0.25538  Biso   1.000  H
  H1198    1.0000 0.21762  0.56561  0.00210  Biso   1.000  H
  C1115    1.0000 0.34990  0.57649  0.95261  Biso   1.000  C
  O271     1.0000 0.51814  0.72327  0.37537  Biso   1.000  O
  H1199    1.0000 0.49762  0.58732  0.92652  Biso   1.000  H
  O272     1.0000 0.48180  0.27673  0.62457  Biso   1.000  O
  C1116    1.0000 0.47256  0.35609  0.71619  Biso   1.000  C
  C1117    1.0000 0.64175  0.40259  0.77899  Biso   1.000  C
  H1200    1.0000 0.77629  0.37201  0.74461  Biso   1.000  H
  O273     1.0000 0.30826  0.21641  0.51829  Biso   1.000  O
  H1201    1.0000 0.15458  0.20281  0.51100  Biso   1.000  H
  H1202    1.0000 0.18839  0.26931  0.51602  Biso   1.000  H
  O274     1.0000 0.30527  0.70976  0.35967  Biso   1.000  O
  H1203    1.0000 0.30980  0.57938  0.90143  Biso   1.000  H
  C1118    1.0000 0.60711  0.75288  0.35378  Biso   1.000  C
  C1119    1.0000 0.39285  0.24712  0.64622  Biso   1.000  C
  C1120    1.0000 0.52745  0.39820  0.76691  Biso   1.000  C
  H1204    1.0000 0.39638  0.35209  0.70901  Biso   1.000  H
  C1121    1.0000 0.69122  0.45041  0.83816  Biso   1.000  C
  C1122    1.0000 0.34287  0.20228  0.59282  Biso   1.000  C
  C1123    1.0000 0.18709  0.70722  0.34812  Biso   1.000  C
  C1124    1.0000 0.65709  0.79772  0.40718  Biso   1.000  C
  H1205    1.0000 0.58090  0.77052  0.30289  Biso   1.000  H
  H1206    1.0000 0.66331  0.72428  0.34888  Biso   1.000  H
  H1207    1.0000 0.41906  0.22948  0.69711  Biso   1.000  H
  H1208    1.0000 0.33665  0.27572  0.65112  Biso   1.000  H
  C1125    1.0000 0.47326  0.44299  0.81132  Biso   1.000  C
  C1126    1.0000 0.63128  0.50612  0.80321  Biso   1.000  C
  C1127    1.0000 0.64351  0.43799  0.91076  Biso   1.000  C
  C1128    1.0000 0.81669  0.45378  0.85351  Biso   1.000  C
  H1209    1.0000 0.28016  0.18688  0.61132  Biso   1.000  H
  H1210    1.0000 0.39574  0.17061  0.59580  Biso   1.000  H
  C1129    1.0000 0.15138  0.75201  0.39971  Biso   1.000  C
  H1211    1.0000 0.16436  0.66839  0.36119  Biso   1.000  H
  H1212    1.0000 0.15328  0.71511  0.29402  Biso   1.000  H
  O275     1.0000 0.69170  0.78359  0.48170  Biso   1.000  O
  H1213    1.0000 0.71980  0.81312  0.38868  Biso   1.000  H
  H1214    1.0000 0.60422  0.82939  0.40420  Biso   1.000  H
  C1130    1.0000 0.51758  0.50261  0.78990  Biso   1.000  C
  C1131    1.0000 0.52983  0.43422  0.89699  Biso   1.000  C
  C1132    1.0000 0.34872  0.43909  0.79556  Biso   1.000  C
  C1133    1.0000 0.68238  0.55591  0.78389  Biso   1.000  C
  C1134    1.0000 0.70564  0.43229  0.98739  Biso   1.000  C
  H1215    1.0000 0.84220  0.48541  0.88911  Biso   1.000  H
  H1216    1.0000 0.83918  0.46080  0.80519  Biso   1.000  H
  H1217    1.0000 0.84776  0.41750  0.87581  Biso   1.000  H
  O276     1.0000 0.18474  0.73262  0.47779  Biso   1.000  O
  H1218    1.0000 0.18518  0.78960  0.39329  Biso   1.000  H
  H1219    1.0000 0.07177  0.75670  0.38599  Biso   1.000  H
  C1135    1.0000 0.79878  0.76819  0.50662  Biso   1.000  C
  C1136    1.0000 0.45374  0.55060  0.75909  Biso   1.000  C
  C1137    1.0000 0.47637  0.42391  0.95786  Biso   1.000  C
  H1220    1.0000 0.32747  0.40079  0.80980  Biso   1.000  H
  H1221    1.0000 0.31884  0.44571  0.74111  Biso   1.000  H
  H1222    1.0000 0.32084  0.46822  0.82591  Biso   1.000  H
  H1223    1.0000 0.75900  0.55740  0.79200  Biso   1.000  H
  C1138    1.0000 0.61855  0.60421  0.75208  Biso   1.000  C
  H1224    1.0000 0.78234  0.43439  0.99790  Biso   1.000  H
  C1139    1.0000 0.65006  0.42351  0.04738  Biso   1.000  C
  C1140    1.0000 0.15008  0.77030  0.53067  Biso   1.000  C
  C1141    1.0000 0.82891  0.76398  0.59189  Biso   1.000  C
  H1225    1.0000 0.84538  0.79719  0.48900  Biso   1.000  H
  H1226    1.0000 0.81158  0.73069  0.48398  Biso   1.000  H
  C1142    1.0000 0.50468  0.60079  0.74088  Biso   1.000  C
  H1227    1.0000 0.37714  0.54889  0.75080  Biso   1.000  H
  H1228    1.0000 0.39986  0.42031  0.94800  Biso   1.000  H
  C1143    1.0000 0.53767  0.41908  0.03256  Biso   1.000  C
  O277     1.0000 0.66126  0.65532  0.72880  Biso   1.000  O
  H1229    1.0000 0.69016  0.42062  0.09857  Biso   1.000  H
  C1144    1.0000 0.16594  0.74310  0.60829  Biso   1.000  C
  H1230    1.0000 0.07246  0.77960  0.51187  Biso   1.000  H
  H1231    1.0000 0.19167  0.80658  0.53452  Biso   1.000  H
  O278     1.0000 0.77564  0.71239  0.61517  Biso   1.000  O
  H1232    1.0000 0.90842  0.76091  0.60922  Biso   1.000  H
  H1233    1.0000 0.80445  0.79882  0.61517  Biso   1.000  H
  O279     1.0000 0.44369  0.64944  0.70936  Biso   1.000  O
  H1234    1.0000 0.50234  0.41268  0.07347  Biso   1.000  H
  C1145    1.0000 0.77644  0.65488  0.72786  Biso   1.000  C
  O280     1.0000 0.27525  0.72740  0.63787  Biso   1.000  O
  H1235    1.0000 0.14260  0.77039  0.64400  Biso   1.000  H
  H1236    1.0000 0.11978  0.70849  0.60508  Biso   1.000  H
  C1146    1.0000 0.80906  0.70928  0.69320  Biso   1.000  C
  C1147    1.0000 0.37677  0.67212  0.74508  Biso   1.000  C
  H1237    1.0000 0.79256  0.62141  0.69810  Biso   1.000  H
  H1238    1.0000 0.81929  0.65089  0.78091  Biso   1.000  H
  C1148    1.0000 0.29704  0.71498  0.71561  Biso   1.000  C
  H1239    1.0000 0.77878  0.74249  0.71619  Biso   1.000  H
  H1240    1.0000 0.88889  0.71261  0.70680  Biso   1.000  H
  H1241    1.0000 0.42137  0.68862  0.79247  Biso   1.000  H
  H1242    1.0000 0.33628  0.63961  0.76130  Biso   1.000  H
  H1243    1.0000 0.22819  0.70309  0.72880  Biso   1.000  H
  H1244    1.0000 0.31973  0.75122  0.74350  Biso   1.000  H
