data_image0
_cell_length_a       11.871
_cell_length_b       17.419
_cell_length_c       20.145
_cell_angle_alpha    87.26
_cell_angle_beta     80.7
_cell_angle_gamma    74.95

_symmetry_space_group_name_H-M    "P 1"
_symmetry_int_tables_number       1

loop_
  _symmetry_equiv_pos_as_xyz
  'x, y, z'

loop_
  _atom_site_label
  _atom_site_occupancy
  _atom_site_fract_x
  _atom_site_fract_y
  _atom_site_fract_z
  _atom_site_thermal_displace_type
  _atom_site_B_iso_or_equiv
  _atom_site_type_symbol
  C1       1.0000 0.45706  0.40866  0.23587  Biso   1.000  C
  O1       1.0000 0.35102  0.45330  0.27762  Biso   1.000  O
  O2       1.0000 0.35105  0.45324  0.27757  Biso   1.000  O
  O3       1.0000 0.55613  0.40708  0.26539  Biso   1.000  O
  H1       1.0000 0.45078  0.34860  0.23038  Biso   1.000  H
  H2       1.0000 0.46499  0.43678  0.18692  Biso   1.000  H
  H3       1.0000 0.45089  0.34854  0.23038  Biso   1.000  H
  H4       1.0000 0.46501  0.43678  0.18687  Biso   1.000  H
  C2       1.0000 0.31025  0.53387  0.25810  Biso   1.000  C
  C3       1.0000 0.45705  0.40866  0.23592  Biso   1.000  C
  C4       1.0000 0.61557  0.46529  0.24729  Biso   1.000  C
  C5       1.0000 0.61565  0.46529  0.24729  Biso   1.000  C
  C6       1.0000 0.22689  0.55889  0.21831  Biso   1.000  C
  C7       1.0000 0.22690  0.55889  0.21826  Biso   1.000  C
  C8       1.0000 0.36009  0.58858  0.28848  Biso   1.000  C
  C9       1.0000 0.57611  0.54008  0.27898  Biso   1.000  C
  C10      1.0000 0.71808  0.44867  0.20221  Biso   1.000  C
  C11      1.0000 0.71818  0.44867  0.20216  Biso   1.000  C
  O4       1.0000 0.18609  0.49970  0.19130  Biso   1.000  O
  O5       1.0000 0.18611  0.49964  0.19130  Biso   1.000  O
  C12      1.0000 0.18164  0.63580  0.20428  Biso   1.000  C
  C13      1.0000 0.18166  0.63574  0.20428  Biso   1.000  C
  C14      1.0000 0.31514  0.66855  0.27002  Biso   1.000  C
  C15      1.0000 0.31515  0.66855  0.26997  Biso   1.000  C
  C16      1.0000 0.46083  0.56036  0.32742  Biso   1.000  C
  C17      1.0000 0.46085  0.56036  0.32737  Biso   1.000  C
  C18      1.0000 0.64373  0.59478  0.26112  Biso   1.000  C
  C19      1.0000 0.64374  0.59478  0.26107  Biso   1.000  C
  C20      1.0000 0.78600  0.50212  0.18592  Biso   1.000  C
  C21      1.0000 0.78604  0.50206  0.18587  Biso   1.000  C
  O6       1.0000 0.74831  0.37628  0.16801  Biso   1.000  O
  C22      1.0000 0.11655  0.45840  0.23808  Biso   1.000  C
  C23      1.0000 0.11657  0.45834  0.23808  Biso   1.000  C
  C24      1.0000 0.22783  0.69351  0.23059  Biso   1.000  C
  O7       1.0000 0.09778  0.65679  0.16298  Biso   1.000  O
  C25      1.0000 0.22785  0.69345  0.23059  Biso   1.000  C
  H5       1.0000 0.35179  0.71295  0.28758  Biso   1.000  H
  H6       1.0000 0.35187  0.71295  0.28758  Biso   1.000  H
  H7       1.0000 0.44626  0.50785  0.35428  Biso   1.000  H
  C26      1.0000 0.46514  0.61708  0.38340  Biso   1.000  C
  C27      1.0000 0.46517  0.61702  0.38340  Biso   1.000  C
  H8       1.0000 0.61298  0.65276  0.28411  Biso   1.000  H
  C28      1.0000 0.74774  0.57978  0.21509  Biso   1.000  C
  H9       1.0000 0.61306  0.65276  0.28411  Biso   1.000  H
  O8       1.0000 0.88958  0.48127  0.14220  Biso   1.000  O
  C29      1.0000 0.84621  0.31968  0.18451  Biso   1.000  C
  C30      1.0000 0.15434  0.36957  0.22339  Biso   1.000  C
  H10      1.0000 0.12792  0.46885  0.28868  Biso   1.000  H
  H11      1.0000 0.02471  0.48067  0.23270  Biso   1.000  H
  C31      1.0000 0.18418  0.77899  0.20709  Biso   1.000  C
  C32      1.0000 0.13269  0.66780  0.09532  Biso   1.000  C
  C33      1.0000 0.13271  0.66780  0.09527  Biso   1.000  C
  H12      1.0000 0.54453  0.59410  0.40539  Biso   1.000  H
  H13      1.0000 0.46453  0.67526  0.36228  Biso   1.000  H
  C34      1.0000 0.36015  0.62205  0.43592  Biso   1.000  C
  H14      1.0000 0.54455  0.59404  0.40539  Biso   1.000  H
  C35      1.0000 0.36016  0.62205  0.43587  Biso   1.000  C
  C36      1.0000 0.81698  0.64040  0.19291  Biso   1.000  C
  C37      1.0000 0.81701  0.64034  0.19291  Biso   1.000  C
  C38      1.0000 0.88799  0.50648  0.07520  Biso   1.000  C
  C39      1.0000 0.82519  0.23840  0.18672  Biso   1.000  C
  H15      1.0000 0.86463  0.33408  0.23250  Biso   1.000  H
  H16      1.0000 0.92134  0.31990  0.14618  Biso   1.000  H
  C40      1.0000 0.82523  0.23834  0.18667  Biso   1.000  C
  C41      1.0000 0.18599  0.33809  0.16248  Biso   1.000  C
  H17      1.0000 0.15515  0.32979  0.26620  Biso   1.000  H
  H18      1.0000 0.09602  0.78847  0.19532  Biso   1.000  H
  C42      1.0000 0.17165  0.83801  0.26630  Biso   1.000  C
  C43      1.0000 0.25467  0.79539  0.14261  Biso   1.000  C
  H19      1.0000 0.09603  0.78847  0.19527  Biso   1.000  H
  C44      1.0000 0.17176  0.83795  0.26630  Biso   1.000  C
  H20      1.0000 0.07559  0.64821  0.06690  Biso   1.000  H
  H21      1.0000 0.22247  0.63330  0.08099  Biso   1.000  H
  O9       1.0000 0.12580  0.75060  0.08068  Biso   1.000  O
  H22      1.0000 0.07561  0.64815  0.06690  Biso   1.000  H
  H23      1.0000 0.22255  0.63330  0.08099  Biso   1.000  H
  H24      1.0000 0.35864  0.56289  0.45388  Biso   1.000  H
  H25      1.0000 0.28170  0.64819  0.41379  Biso   1.000  H
  C45      1.0000 0.36144  0.67299  0.49528  Biso   1.000  C
  H26      1.0000 0.35866  0.56283  0.45388  Biso   1.000  H
  H27      1.0000 0.28173  0.64813  0.41379  Biso   1.000  H
  C46      1.0000 0.36146  0.67293  0.49528  Biso   1.000  C
  C47      1.0000 0.77567  0.68079  0.13169  Biso   1.000  C
  H28      1.0000 0.90951  0.61029  0.18089  Biso   1.000  H
  C48      1.0000 0.81362  0.69766  0.24910  Biso   1.000  C
  O10      1.0000 0.92066  0.58041  0.06192  Biso   1.000  O
  H29      1.0000 0.80007  0.51382  0.06368  Biso   1.000  H
  H30      1.0000 0.94953  0.46130  0.04321  Biso   1.000  H
  O11      1.0000 0.92070  0.58036  0.06187  Biso   1.000  O
  H31      1.0000 0.80009  0.51376  0.06368  Biso   1.000  H
  C49      1.0000 0.81099  0.20210  0.13411  Biso   1.000  C
  C50      1.0000 0.81102  0.20204  0.13411  Biso   1.000  C
  H32      1.0000 0.82129  0.20856  0.23501  Biso   1.000  H
  H33      1.0000 0.82139  0.20856  0.23496  Biso   1.000  H
  C51      1.0000 0.19746  0.38001  0.09588  Biso   1.000  C
  H34      1.0000 0.20597  0.27408  0.15981  Biso   1.000  H
  C52      1.0000 0.19757  0.37995  0.09588  Biso   1.000  C
  H35      1.0000 0.20605  0.27408  0.15981  Biso   1.000  H
  H36      1.0000 0.12469  0.81848  0.31172  Biso   1.000  H
  H37      1.0000 0.25867  0.83949  0.27470  Biso   1.000  H
  C53      1.0000 0.10566  0.92060  0.24658  Biso   1.000  C
  H38      1.0000 0.12470  0.81848  0.31167  Biso   1.000  H
  H39      1.0000 0.25875  0.83949  0.27470  Biso   1.000  H
  C54      1.0000 0.10577  0.92054  0.24658  Biso   1.000  C
  C55      1.0000 0.22766  0.77793  0.08290  Biso   1.000  C
  C56      1.0000 0.35613  0.82298  0.14070  Biso   1.000  C
  C57      1.0000 0.22768  0.77787  0.08290  Biso   1.000  C
  C58      1.0000 0.29862  0.75254  0.49311  Biso   1.000  C
  C59      1.0000 0.42312  0.64496  0.54860  Biso   1.000  C
  C60      1.0000 0.29863  0.75254  0.49306  Biso   1.000  C
  C61      1.0000 0.68098  0.75027  0.13411  Biso   1.000  C
  C62      1.0000 0.82070  0.64951  0.06811  Biso   1.000  C
  C63      1.0000 0.82072  0.64945  0.06811  Biso   1.000  C
  H40      1.0000 0.85929  0.74156  0.22832  Biso   1.000  H
  H41      1.0000 0.72238  0.72665  0.26721  Biso   1.000  H
  C64      1.0000 0.87021  0.65680  0.30931  Biso   1.000  C
  H42      1.0000 0.85930  0.74156  0.22827  Biso   1.000  H
  H43      1.0000 0.72247  0.72665  0.26721  Biso   1.000  H
  C65      1.0000 0.87024  0.65674  0.30931  Biso   1.000  C
  C66      1.0000 0.81837  0.22201  0.06112  Biso   1.000  C
  C67      1.0000 0.81841  0.22195  0.06107  Biso   1.000  C
  H44      1.0000 0.78912  0.14602  0.14588  Biso   1.000  H
  H45      1.0000 0.78914  0.14596  0.14588  Biso   1.000  H
  O12      1.0000 0.14425  0.34360  0.04990  Biso   1.000  O
  H46      1.0000 0.28946  0.37468  0.07651  Biso   1.000  H
  H47      1.0000 0.15171  0.44202  0.10282  Biso   1.000  H
  O13      1.0000 0.14434  0.34360  0.04990  Biso   1.000  O
  H48      1.0000 0.28955  0.37468  0.07651  Biso   1.000  H
  H49      1.0000 0.15175  0.44196  0.10277  Biso   1.000  H
  H50      1.0000 0.02419  0.91631  0.23169  Biso   1.000  H
  H51      1.0000 0.15892  0.94171  0.20458  Biso   1.000  H
  C68      1.0000 0.07500  0.98189  0.30428  Biso   1.000  C
  H52      1.0000 0.02422  0.91625  0.23169  Biso   1.000  H
  H53      1.0000 0.15895  0.94166  0.20458  Biso   1.000  H
  C69      1.0000 0.07502  0.98183  0.30428  Biso   1.000  C
  C70      1.0000 0.28952  0.79119  0.02379  Biso   1.000  C
  C71      1.0000 0.42225  0.83482  0.08280  Biso   1.000  C
  H54      1.0000 0.38168  0.83477  0.18748  Biso   1.000  H
  C72      1.0000 0.42236  0.83476  0.08280  Biso   1.000  C
  C73      1.0000 0.29754  0.80407  0.54432  Biso   1.000  C
  H55      1.0000 0.25085  0.77424  0.45192  Biso   1.000  H
  C74      1.0000 0.29756  0.80407  0.54427  Biso   1.000  C
  H56      1.0000 0.25086  0.77424  0.45186  Biso   1.000  H
  C75      1.0000 0.42199  0.69648  0.59970  Biso   1.000  C
  H57      1.0000 0.47184  0.58336  0.55021  Biso   1.000  H
  C76      1.0000 0.42210  0.69642  0.59970  Biso   1.000  C
  C77      1.0000 0.64436  0.78511  0.07611  Biso   1.000  C
  C78      1.0000 0.64438  0.78505  0.07611  Biso   1.000  C
  H58      1.0000 0.63636  0.77602  0.18209  Biso   1.000  H
  H59      1.0000 0.63647  0.77596  0.18209  Biso   1.000  H
  C79      1.0000 0.78625  0.68328  0.01011  Biso   1.000  C
  C80      1.0000 0.78634  0.68328  0.01011  Biso   1.000  C
  H60      1.0000 0.83584  0.60586  0.32450  Biso   1.000  H
  H61      1.0000 0.96455  0.63717  0.29361  Biso   1.000  H
  C81      1.0000 0.84633  0.71106  0.36831  Biso   1.000  C
  H62      1.0000 0.96456  0.63717  0.29356  Biso   1.000  H
  C82      1.0000 0.84634  0.71106  0.36826  Biso   1.000  C
  O14      1.0000 0.71949  0.22982  0.04190  Biso   1.000  O
  O15      1.0000 0.71952  0.22976  0.04190  Biso   1.000  O
  H63      1.0000 0.84347  0.27753  0.05402  Biso   1.000  H
  H64      1.0000 0.88457  0.17609  0.03219  Biso   1.000  H
  H65      1.0000 0.84351  0.27747  0.05397  Biso   1.000  H
  H66      1.0000 0.88465  0.17609  0.03219  Biso   1.000  H
  C83      1.0000 0.21369  0.31663  0.98989  Biso   1.000  C
  C84      1.0000 0.21378  0.31663  0.98989  Biso   1.000  C
  C85      1.0000 0.11213  0.96539  0.36690  Biso   1.000  C
  C86      1.0000 0.11215  0.96533  0.36690  Biso   1.000  C
  C87      1.0000 0.01232  0.05857  0.28929  Biso   1.000  C
  C88      1.0000 0.01230  0.05863  0.28929  Biso   1.000  C
  C89      1.0000 0.39207  0.82022  0.02208  Biso   1.000  C
  C90      1.0000 0.39209  0.82016  0.02208  Biso   1.000  C
  O16      1.0000 0.28051  0.77015  0.95810  Biso   1.000  O
  C91      1.0000 0.53850  0.86011  0.07897  Biso   1.000  C
  C92      1.0000 0.53853  0.86005  0.07897  Biso   1.000  C
  C93      1.0000 0.35923  0.77604  0.59759  Biso   1.000  C
  H67      1.0000 0.24882  0.86567  0.54271  Biso   1.000  H
  H68      1.0000 0.24883  0.86567  0.54266  Biso   1.000  H
  H69      1.0000 0.46981  0.67478  0.64100  Biso   1.000  H
  H70      1.0000 0.46983  0.67472  0.64100  Biso   1.000  H
  C94      1.0000 0.69061  0.75102  0.01408  Biso   1.000  C
  C95      1.0000 0.69063  0.75096  0.01408  Biso   1.000  C
  O17      1.0000 0.85567  0.65637  0.95010  Biso   1.000  O
  O18      1.0000 0.85569  0.65631  0.95010  Biso   1.000  O
  C96      1.0000 0.93049  0.75010  0.37918  Biso   1.000  C
  C97      1.0000 0.73865  0.72424  0.41122  Biso   1.000  C
  C98      1.0000 0.93051  0.75004  0.37918  Biso   1.000  C
  C99      1.0000 0.73866  0.72424  0.41117  Biso   1.000  C
  C100     1.0000 0.71051  0.20871  0.97621  Biso   1.000  C
  C101     1.0000 0.17931  0.35046  0.93189  Biso   1.000  C
  C102     1.0000 0.30940  0.24895  0.98592  Biso   1.000  C
  C103     1.0000 0.17933  0.35040  0.93189  Biso   1.000  C
  C104     1.0000 0.30941  0.24895  0.98587  Biso   1.000  C
  H71      1.0000 0.16074  0.90598  0.37847  Biso   1.000  H
  C105     1.0000 0.08662  0.02550  0.41449  Biso   1.000  C
  C106     1.0000 0.98681  0.11868  0.33687  Biso   1.000  C
  H72      1.0000 0.98351  0.07129  0.24090  Biso   1.000  H
  C107     1.0000 0.98679  0.11874  0.33687  Biso   1.000  C
  H73      1.0000 0.98349  0.07134  0.24090  Biso   1.000  H
  O19      1.0000 0.45286  0.83404  0.96092  Biso   1.000  O
  O20      1.0000 0.45295  0.83404  0.96086  Biso   1.000  O
  C108     1.0000 0.18164  0.77796  0.93888  Biso   1.000  C
  C109     1.0000 0.18166  0.77790  0.93888  Biso   1.000  C
  H74      1.0000 0.54898  0.89409  0.03320  Biso   1.000  H
  C110     1.0000 0.53618  0.91742  0.13592  Biso   1.000  C
  C111     1.0000 0.53621  0.91736  0.13587  Biso   1.000  C
  H75      1.0000 0.35836  0.81594  0.63718  Biso   1.000  H
  O21      1.0000 0.65990  0.78646  0.95458  Biso   1.000  O
  O22      1.0000 0.65992  0.78641  0.95458  Biso   1.000  O
  C112     1.0000 0.80246  0.61996  0.90412  Biso   1.000  C
  C113     1.0000 0.80258  0.61990  0.90407  Biso   1.000  C
  C114     1.0000 0.90693  0.80238  0.43300  Biso   1.000  C
  H76      1.0000 0.01394  0.73988  0.34588  Biso   1.000  H
  C115     1.0000 0.71505  0.77658  0.46509  Biso   1.000  C
  H77      1.0000 0.67344  0.69405  0.40282  Biso   1.000  H
  C116     1.0000 0.71507  0.77652  0.46509  Biso   1.000  C
  H78      1.0000 0.67345  0.69405  0.40277  Biso   1.000  H
  C117     1.0000 0.60794  0.17975  0.97792  Biso   1.000  C
  C118     1.0000 0.60798  0.17969  0.97787  Biso   1.000  C
  C119     1.0000 0.77235  0.22204  0.91710  Biso   1.000  C
  C120     1.0000 0.22425  0.31918  0.86831  Biso   1.000  C
  O23      1.0000 0.07935  0.41955  0.93808  Biso   1.000  O
  C121     1.0000 0.22436  0.31912  0.86831  Biso   1.000  C
  O24      1.0000 0.34011  0.21350  0.04542  Biso   1.000  O
  O25      1.0000 0.34012  0.21350  0.04537  Biso   1.000  O
  C122     1.0000 0.35557  0.21486  0.92389  Biso   1.000  C
  C123     1.0000 0.35567  0.21480  0.92389  Biso   1.000  C
  C124     1.0000 0.02403  0.10218  0.39950  Biso   1.000  C
  H79      1.0000 0.11539  0.01267  0.46288  Biso   1.000  H
  C125     1.0000 0.02400  0.10224  0.39950  Biso   1.000  C
  H80      1.0000 0.11545  0.01273  0.46288  Biso   1.000  H
  H81      1.0000 0.93833  0.17798  0.32530  Biso   1.000  H
  H82      1.0000 0.93831  0.17804  0.32530  Biso   1.000  H
  C126     1.0000 0.55721  0.77668  0.93531  Biso   1.000  C
  C127     1.0000 0.55723  0.77662  0.93531  Biso   1.000  C
  C128     1.0000 0.18901  0.79787  0.86589  Biso   1.000  C
  H83      1.0000 0.15654  0.72244  0.94598  Biso   1.000  H
  H84      1.0000 0.11538  0.82382  0.96781  Biso   1.000  H
  C129     1.0000 0.18904  0.79781  0.86589  Biso   1.000  C
  H85      1.0000 0.11546  0.82382  0.96781  Biso   1.000  H
  H86      1.0000 0.50666  0.89241  0.18370  Biso   1.000  H
  H87      1.0000 0.62441  0.92397  0.13531  Biso   1.000  H
  C130     1.0000 0.45295  0.99988  0.12671  Biso   1.000  C
  H88      1.0000 0.50677  0.89235  0.18370  Biso   1.000  H
  H89      1.0000 0.62442  0.92397  0.13526  Biso   1.000  H
  C131     1.0000 0.45305  0.99988  0.12666  Biso   1.000  C
  C132     1.0000 0.81394  0.66188  0.83752  Biso   1.000  C
  H90      1.0000 0.71048  0.62523  0.92349  Biso   1.000  H
  H91      1.0000 0.84829  0.55795  0.89718  Biso   1.000  H
  C133     1.0000 0.81406  0.66182  0.83747  Biso   1.000  C
  H92      1.0000 0.71057  0.62523  0.92349  Biso   1.000  H
  C134     1.0000 0.79912  0.81568  0.47591  Biso   1.000  C
  H93      1.0000 0.97201  0.83270  0.44140  Biso   1.000  H
  C135     1.0000 0.79915  0.81562  0.47586  Biso   1.000  C
  H94      1.0000 0.97203  0.83264  0.44140  Biso   1.000  H
  H95      1.0000 0.63152  0.78687  0.49829  Biso   1.000  H
  O26      1.0000 0.54709  0.16587  0.03908  Biso   1.000  O
  C136     1.0000 0.57767  0.16515  0.91720  Biso   1.000  C
  C137     1.0000 0.57776  0.16515  0.91720  Biso   1.000  C
  C138     1.0000 0.74528  0.20452  0.85739  Biso   1.000  C
  C139     1.0000 0.74536  0.20452  0.85739  Biso   1.000  C
  O27      1.0000 0.87421  0.24937  0.91932  Biso   1.000  O
  O28      1.0000 0.87425  0.24931  0.91926  Biso   1.000  O
  C140     1.0000 0.31905  0.24964  0.86589  Biso   1.000  C
  C141     1.0000 0.18302  0.35957  0.80709  Biso   1.000  C
  C142     1.0000 0.18305  0.35951  0.80709  Biso   1.000  C
  C143     1.0000 0.11204  0.49343  0.92480  Biso   1.000  C
  C144     1.0000 0.44280  0.22329  0.06469  Biso   1.000  C
  C145     1.0000 0.46150  0.13986  0.92103  Biso   1.000  C
  C146     1.0000 0.46154  0.13980  0.92098  Biso   1.000  C
  H96      1.0000 0.00418  0.14870  0.43642  Biso   1.000  H
  H97      1.0000 0.00419  0.14870  0.43637  Biso   1.000  H
  H98      1.0000 0.54712  0.71877  0.95241  Biso   1.000  H
  H99      1.0000 0.56750  0.77927  0.88098  Biso   1.000  H
  H100     1.0000 0.54716  0.71871  0.95236  Biso   1.000  H
  H101     1.0000 0.56752  0.77921  0.88098  Biso   1.000  H
  C147     1.0000 0.17482  0.76157  0.81328  Biso   1.000  C
  C148     1.0000 0.17484  0.76151  0.81328  Biso   1.000  C
  H102     1.0000 0.21089  0.85395  0.85412  Biso   1.000  H
  H103     1.0000 0.21090  0.85395  0.85407  Biso   1.000  H
  H104     1.0000 0.36658  0.99260  0.12309  Biso   1.000  H
  H105     1.0000 0.48677  0.02679  0.08089  Biso   1.000  H
  C149     1.0000 0.44182  0.05427  0.18572  Biso   1.000  C
  H106     1.0000 0.48675  0.02685  0.08089  Biso   1.000  H
  C150     1.0000 0.44182  0.05433  0.18567  Biso   1.000  C
  C151     1.0000 0.84569  0.63034  0.77661  Biso   1.000  C
  H107     1.0000 0.79396  0.72588  0.84019  Biso   1.000  H
  H108     1.0000 0.79406  0.72582  0.84019  Biso   1.000  H
  H109     1.0000 0.78081  0.85604  0.51761  Biso   1.000  H
  H110     1.0000 0.78082  0.85604  0.51756  Biso   1.000  H
  C152     1.0000 0.64390  0.17692  0.85930  Biso   1.000  C
  C153     1.0000 0.81583  0.22098  0.79291  Biso   1.000  C
  C154     1.0000 0.81585  0.22092  0.79291  Biso   1.000  C
  C155     1.0000 0.86732  0.33217  0.90468  Biso   1.000  C
  C156     1.0000 0.86734  0.33211  0.90468  Biso   1.000  C
  H111     1.0000 0.36356  0.22395  0.81791  Biso   1.000  H
  H112     1.0000 0.36365  0.22395  0.81791  Biso   1.000  H
  C157     1.0000 0.25229  0.42013  0.78491  Biso   1.000  C
  H113     1.0000 0.09050  0.38968  0.81911  Biso   1.000  H
  C158     1.0000 0.18641  0.30225  0.75090  Biso   1.000  C
  H114     1.0000 0.09054  0.38962  0.81906  Biso   1.000  H
  H115     1.0000 0.19994  0.48615  0.93632  Biso   1.000  H
  H116     1.0000 0.05048  0.53867  0.95679  Biso   1.000  H
  O29      1.0000 0.11036  0.51864  0.85780  Biso   1.000  O
  H117     1.0000 0.19995  0.48615  0.93627  Biso   1.000  H
  H118     1.0000 0.05050  0.53861  0.95679  Biso   1.000  H
  O30      1.0000 0.11045  0.51864  0.85780  Biso   1.000  O
  H119     1.0000 0.45289  0.28120  0.04759  Biso   1.000  H
  H120     1.0000 0.43251  0.22070  0.11902  Biso   1.000  H
  H121     1.0000 0.43252  0.22070  0.11896  Biso   1.000  H
  H122     1.0000 0.45105  0.10582  0.96680  Biso   1.000  H
  C159     1.0000 0.46383  0.08255  0.86408  Biso   1.000  C
  C160     1.0000 0.15382  0.68023  0.81549  Biso   1.000  C
  H123     1.0000 0.17865  0.79135  0.76499  Biso   1.000  H
  H124     1.0000 0.17874  0.79135  0.76499  Biso   1.000  H
  C161     1.0000 0.53290  0.08912  0.19160  Biso   1.000  C
  C162     1.0000 0.33931  0.07027  0.23320  Biso   1.000  C
  C163     1.0000 0.33929  0.07033  0.23320  Biso   1.000  C
  C164     1.0000 0.88346  0.54157  0.76192  Biso   1.000  C
  C165     1.0000 0.88349  0.54151  0.76187  Biso   1.000  C
  H125     1.0000 0.84486  0.67018  0.73380  Biso   1.000  H
  H126     1.0000 0.84488  0.67012  0.73380  Biso   1.000  H
  H127     1.0000 0.61826  0.16514  0.81252  Biso   1.000  H
  H128     1.0000 0.61836  0.16514  0.81247  Biso   1.000  H
  C166     1.0000 0.77218  0.30646  0.76941  Biso   1.000  C
  H129     1.0000 0.90401  0.21144  0.80468  Biso   1.000  H
  C167     1.0000 0.82827  0.16196  0.73370  Biso   1.000  C
  C168     1.0000 0.77219  0.30646  0.76936  Biso   1.000  C
  C169     1.0000 0.82835  0.16196  0.73370  Biso   1.000  C
  O31      1.0000 0.90214  0.34318  0.83702  Biso   1.000  O
  H130     1.0000 0.92442  0.35176  0.93310  Biso   1.000  H
  H131     1.0000 0.77746  0.36667  0.91901  Biso   1.000  H
  O32      1.0000 0.90226  0.34312  0.83697  Biso   1.000  O
  H132     1.0000 0.92444  0.35170  0.93310  Biso   1.000  H
  H133     1.0000 0.77758  0.36661  0.91896  Biso   1.000  H
  C170     1.0000 0.35628  0.40518  0.73888  Biso   1.000  C
  C171     1.0000 0.21400  0.49785  0.81408  Biso   1.000  C
  C172     1.0000 0.35630  0.40512  0.73888  Biso   1.000  C
  H134     1.0000 0.14074  0.25835  0.77168  Biso   1.000  H
  H135     1.0000 0.27756  0.27325  0.73279  Biso   1.000  H
  C173     1.0000 0.12979  0.34317  0.69069  Biso   1.000  C
  H136     1.0000 0.27765  0.27325  0.73279  Biso   1.000  H
  C174     1.0000 0.12982  0.34311  0.69069  Biso   1.000  C
  H137     1.0000 0.49326  0.10756  0.81630  Biso   1.000  H
  H138     1.0000 0.37562  0.07594  0.86469  Biso   1.000  H
  C175     1.0000 0.54700  0.00003  0.87329  Biso   1.000  C
  H139     1.0000 0.49337  0.10750  0.81630  Biso   1.000  H
  C176     1.0000 0.54708  0.00003  0.87329  Biso   1.000  C
  O33      1.0000 0.25173  0.62363  0.83199  Biso   1.000  O
  H140     1.0000 0.13540  0.66583  0.76750  Biso   1.000  H
  H141     1.0000 0.07867  0.68007  0.85382  Biso   1.000  H
  H142     1.0000 0.07871  0.68001  0.85377  Biso   1.000  H
  C177     1.0000 0.52136  0.14051  0.24492  Biso   1.000  C
  H143     1.0000 0.61214  0.07702  0.15478  Biso   1.000  H
  C178     1.0000 0.52137  0.14051  0.24487  Biso   1.000  C
  H144     1.0000 0.61222  0.07702  0.15478  Biso   1.000  H
  C179     1.0000 0.32788  0.12137  0.28652  Biso   1.000  C
  H145     1.0000 0.26890  0.04320  0.22867  Biso   1.000  H
  C180     1.0000 0.32787  0.12143  0.28647  Biso   1.000  C
  H146     1.0000 0.26888  0.04325  0.22867  Biso   1.000  H
  O34      1.0000 0.81392  0.50027  0.80870  Biso   1.000  O
  O35      1.0000 0.81394  0.50021  0.80870  Biso   1.000  O
  H147     1.0000 0.87211  0.53106  0.71132  Biso   1.000  H
  H148     1.0000 0.97532  0.51924  0.76730  Biso   1.000  H
  H149     1.0000 0.87212  0.53106  0.71127  Biso   1.000  H
  C181     1.0000 0.68489  0.33136  0.72998  Biso   1.000  C
  C182     1.0000 0.81837  0.36417  0.79572  Biso   1.000  C
  C183     1.0000 0.81841  0.36411  0.79567  Biso   1.000  C
  H150     1.0000 0.87532  0.18149  0.68828  Biso   1.000  H
  H151     1.0000 0.74126  0.16048  0.72530  Biso   1.000  H
  C184     1.0000 0.89426  0.07937  0.75342  Biso   1.000  C
  H152     1.0000 0.87534  0.18143  0.68828  Biso   1.000  H
  H153     1.0000 0.74136  0.16042  0.72530  Biso   1.000  H
  C185     1.0000 0.89436  0.07937  0.75337  Biso   1.000  C
  H154     1.0000 0.38697  0.34715  0.71589  Biso   1.000  H
  C186     1.0000 0.42390  0.45989  0.72102  Biso   1.000  C
  C187     1.0000 0.42394  0.45983  0.72097  Biso   1.000  C
  C188     1.0000 0.28187  0.55124  0.79779  Biso   1.000  C
  C189     1.0000 0.28195  0.55124  0.79779  Biso   1.000  C
  H155     1.0000 0.16419  0.39405  0.67550  Biso   1.000  H
  H156     1.0000 0.03548  0.36274  0.70639  Biso   1.000  H
  C190     1.0000 0.15370  0.28885  0.63169  Biso   1.000  C
  H157     1.0000 0.51326  0.97312  0.91911  Biso   1.000  H
  C191     1.0000 0.55821  0.94564  0.81428  Biso   1.000  C
  H158     1.0000 0.51325  0.97318  0.91906  Biso   1.000  H
  C192     1.0000 0.55818  0.94570  0.81428  Biso   1.000  C
  H159     1.0000 0.63342  0.00737  0.87691  Biso   1.000  H
  H160     1.0000 0.63345  0.00731  0.87691  Biso   1.000  H
  C193     1.0000 0.41903  0.15646  0.29241  Biso   1.000  C
  H161     1.0000 0.59186  0.16759  0.24940  Biso   1.000  H
  C194     1.0000 0.41901  0.15652  0.29241  Biso   1.000  C
  H162     1.0000 0.59193  0.16765  0.24940  Biso   1.000  H
  H163     1.0000 0.24863  0.13376  0.32329  Biso   1.000  H
  H164     1.0000 0.24860  0.13382  0.32329  Biso   1.000  H
  C195     1.0000 0.77312  0.44108  0.78169  Biso   1.000  C
  C196     1.0000 0.77314  0.44102  0.78169  Biso   1.000  C
  C197     1.0000 0.63992  0.41139  0.71152  Biso   1.000  C
  C198     1.0000 0.63995  0.41133  0.71147  Biso   1.000  C
  H165     1.0000 0.64816  0.28696  0.71242  Biso   1.000  H
  H166     1.0000 0.64826  0.28696  0.71237  Biso   1.000  H
  H167     1.0000 0.97581  0.08366  0.76831  Biso   1.000  H
  H168     1.0000 0.84109  0.05825  0.79542  Biso   1.000  H
  C199     1.0000 0.92501  0.01808  0.69572  Biso   1.000  C
  H169     1.0000 0.84110  0.05825  0.79537  Biso   1.000  H
  C200     1.0000 0.92505  0.01802  0.69567  Biso   1.000  C
  C201     1.0000 0.38435  0.53468  0.75271  Biso   1.000  C
  C202     1.0000 0.53920  0.43955  0.67258  Biso   1.000  C
  C203     1.0000 0.38439  0.53462  0.75266  Biso   1.000  C
  C204     1.0000 0.06952  0.24987  0.62082  Biso   1.000  C
  C205     1.0000 0.26138  0.27567  0.58878  Biso   1.000  C
  C206     1.0000 0.06953  0.24987  0.62077  Biso   1.000  C
  C207     1.0000 0.46710  0.91085  0.80840  Biso   1.000  C
  C208     1.0000 0.66072  0.92964  0.76680  Biso   1.000  C
  C209     1.0000 0.46708  0.91091  0.80840  Biso   1.000  C
  C210     1.0000 0.66070  0.92970  0.76680  Biso   1.000  C
  H170     1.0000 0.41012  0.19611  0.33370  Biso   1.000  H
  C211     1.0000 0.68978  0.46604  0.74190  Biso   1.000  C
  C212     1.0000 0.98771  0.94134  0.71071  Biso   1.000  C
  C213     1.0000 0.98769  0.94140  0.71071  Biso   1.000  C
  C214     1.0000 0.88788  0.03458  0.63310  Biso   1.000  C
  C215     1.0000 0.88790  0.03452  0.63310  Biso   1.000  C
  O36      1.0000 0.44388  0.59289  0.73461  Biso   1.000  O
  O37      1.0000 0.44390  0.59283  0.73461  Biso   1.000  O
  H171     1.0000 0.55377  0.49206  0.64572  Biso   1.000  H
  C216     1.0000 0.53486  0.38289  0.61660  Biso   1.000  C
  H172     1.0000 0.55378  0.49206  0.64567  Biso   1.000  H
  C217     1.0000 0.53489  0.38283  0.61660  Biso   1.000  C
  H173     1.0000 0.98607  0.26009  0.65412  Biso   1.000  H
  H174     1.0000 0.98610  0.26003  0.65407  Biso   1.000  H
  C218     1.0000 0.09308  0.19759  0.56700  Biso   1.000  C
  C219     1.0000 0.09310  0.19753  0.56700  Biso   1.000  C
  C220     1.0000 0.28496  0.22338  0.53491  Biso   1.000  C
  H175     1.0000 0.32659  0.30586  0.59718  Biso   1.000  H
  C221     1.0000 0.28498  0.22333  0.53491  Biso   1.000  C
  C222     1.0000 0.47865  0.85946  0.75508  Biso   1.000  C
  H176     1.0000 0.38779  0.92295  0.84522  Biso   1.000  H
  C223     1.0000 0.47863  0.85952  0.75508  Biso   1.000  C
  H177     1.0000 0.38778  0.92301  0.84517  Biso   1.000  H
  C224     1.0000 0.67215  0.87854  0.71348  Biso   1.000  C
  H178     1.0000 0.73111  0.95677  0.77133  Biso   1.000  H
  C225     1.0000 0.67213  0.87860  0.71348  Biso   1.000  C
  H179     1.0000 0.73112  0.95677  0.77128  Biso   1.000  H
  O38      1.0000 0.64899  0.54667  0.72238  Biso   1.000  O
  C226     1.0000 0.01320  0.88129  0.66313  Biso   1.000  C
  H180     1.0000 0.01649  0.92868  0.75910  Biso   1.000  H
  C227     1.0000 0.01321  0.88129  0.66308  Biso   1.000  C
  C228     1.0000 0.91339  0.97447  0.58551  Biso   1.000  C
  C229     1.0000 0.91337  0.97453  0.58551  Biso   1.000  C
  H181     1.0000 0.83927  0.09399  0.62153  Biso   1.000  H
  H182     1.0000 0.83931  0.09393  0.62148  Biso   1.000  H
  C230     1.0000 0.54298  0.59125  0.76408  Biso   1.000  C
  H183     1.0000 0.45548  0.40587  0.59461  Biso   1.000  H
  H184     1.0000 0.53550  0.32465  0.63772  Biso   1.000  H
  C231     1.0000 0.63989  0.37786  0.56408  Biso   1.000  C
  H185     1.0000 0.45549  0.40587  0.59456  Biso   1.000  H
  H186     1.0000 0.53552  0.32465  0.63767  Biso   1.000  H
  C232     1.0000 0.20089  0.18429  0.52409  Biso   1.000  C
  H187     1.0000 0.02800  0.16727  0.55860  Biso   1.000  H
  C233     1.0000 0.20091  0.18423  0.52409  Biso   1.000  C
  H188     1.0000 0.36849  0.21310  0.50171  Biso   1.000  H
  H189     1.0000 0.36851  0.21304  0.50171  Biso   1.000  H
  C234     1.0000 0.58100  0.84345  0.70759  Biso   1.000  C
  H190     1.0000 0.40806  0.83238  0.75060  Biso   1.000  H
  C235     1.0000 0.58097  0.84351  0.70759  Biso   1.000  C
  H191     1.0000 0.40814  0.83238  0.75060  Biso   1.000  H
  H192     1.0000 0.75140  0.86615  0.67671  Biso   1.000  H
  H193     1.0000 0.75138  0.86621  0.67671  Biso   1.000  H
  C236     1.0000 0.97598  0.89779  0.60050  Biso   1.000  C
  H194     1.0000 0.06168  0.82199  0.67470  Biso   1.000  H
  H195     1.0000 0.88454  0.98730  0.53712  Biso   1.000  H
  H196     1.0000 0.88464  0.98730  0.53707  Biso   1.000  H
  H197     1.0000 0.54914  0.65137  0.76962  Biso   1.000  H
  H198     1.0000 0.53504  0.56313  0.81308  Biso   1.000  H
  H199     1.0000 0.54926  0.65131  0.76957  Biso   1.000  H
  H200     1.0000 0.64137  0.43708  0.54612  Biso   1.000  H
  H201     1.0000 0.71830  0.35178  0.58621  Biso   1.000  H
  C237     1.0000 0.63857  0.32698  0.50472  Biso   1.000  C
  H202     1.0000 0.64138  0.43708  0.54607  Biso   1.000  H
  H203     1.0000 0.71832  0.35178  0.58616  Biso   1.000  H
  C238     1.0000 0.63858  0.32698  0.50467  Biso   1.000  C
  H204     1.0000 0.21922  0.14387  0.48239  Biso   1.000  H
  H205     1.0000 0.58988  0.80386  0.66630  Biso   1.000  H
  H206     1.0000 0.58986  0.80392  0.66630  Biso   1.000  H
  H207     1.0000 0.99583  0.85127  0.56358  Biso   1.000  H
  H208     1.0000 0.99581  0.85133  0.56358  Biso   1.000  H
  C239     1.0000 0.70141  0.24737  0.50689  Biso   1.000  C
  C240     1.0000 0.57691  0.35495  0.45140  Biso   1.000  C
  C241     1.0000 0.70247  0.19590  0.45568  Biso   1.000  C
  H209     1.0000 0.74918  0.22567  0.54808  Biso   1.000  H
  C242     1.0000 0.70249  0.19584  0.45568  Biso   1.000  C
  C243     1.0000 0.57793  0.30348  0.40030  Biso   1.000  C
  H210     1.0000 0.52816  0.41661  0.44979  Biso   1.000  H
  C244     1.0000 0.57802  0.30348  0.40030  Biso   1.000  C
  H211     1.0000 0.52819  0.41655  0.44979  Biso   1.000  H
  C245     1.0000 0.64080  0.22387  0.40241  Biso   1.000  C
  H212     1.0000 0.75119  0.13430  0.45729  Biso   1.000  H
  H213     1.0000 0.75121  0.13424  0.45729  Biso   1.000  H
  H214     1.0000 0.53020  0.32519  0.35900  Biso   1.000  H
  H215     1.0000 0.64167  0.18397  0.36282  Biso   1.000  H
  H216     1.0000 0.64168  0.18397  0.36277  Biso   1.000  H
  C246     1.0000 0.45706  0.40866  0.23587  Biso   1.000  C
  O39      1.0000 0.35102  0.45330  0.27762  Biso   1.000  O
  O40      1.0000 0.35105  0.45324  0.27757  Biso   1.000  O
  O41      1.0000 0.55613  0.40708  0.26539  Biso   1.000  O
  H217     1.0000 0.45078  0.34860  0.23038  Biso   1.000  H
  H218     1.0000 0.46499  0.43678  0.18692  Biso   1.000  H
  H219     1.0000 0.45089  0.34854  0.23038  Biso   1.000  H
  H220     1.0000 0.46501  0.43678  0.18687  Biso   1.000  H
  C247     1.0000 0.31025  0.53387  0.25810  Biso   1.000  C
  C248     1.0000 0.45705  0.40866  0.23592  Biso   1.000  C
  C249     1.0000 0.61557  0.46529  0.24729  Biso   1.000  C
  C250     1.0000 0.61565  0.46529  0.24729  Biso   1.000  C
  C251     1.0000 0.22689  0.55889  0.21831  Biso   1.000  C
  C252     1.0000 0.22690  0.55889  0.21826  Biso   1.000  C
  C253     1.0000 0.36009  0.58858  0.28848  Biso   1.000  C
  C254     1.0000 0.57611  0.54008  0.27898  Biso   1.000  C
  C255     1.0000 0.71808  0.44867  0.20221  Biso   1.000  C
  C256     1.0000 0.71818  0.44867  0.20216  Biso   1.000  C
  O42      1.0000 0.18609  0.49970  0.19130  Biso   1.000  O
  O43      1.0000 0.18611  0.49964  0.19130  Biso   1.000  O
  C257     1.0000 0.18164  0.63580  0.20428  Biso   1.000  C
  C258     1.0000 0.18166  0.63574  0.20428  Biso   1.000  C
  C259     1.0000 0.31514  0.66855  0.27002  Biso   1.000  C
  C260     1.0000 0.46083  0.56036  0.32742  Biso   1.000  C
  C261     1.0000 0.31515  0.66855  0.26997  Biso   1.000  C
  C262     1.0000 0.46085  0.56036  0.32737  Biso   1.000  C
  C263     1.0000 0.64373  0.59478  0.26112  Biso   1.000  C
  C264     1.0000 0.64374  0.59478  0.26107  Biso   1.000  C
  C265     1.0000 0.78600  0.50212  0.18592  Biso   1.000  C
  C266     1.0000 0.78604  0.50206  0.18587  Biso   1.000  C
  O44      1.0000 0.74831  0.37628  0.16801  Biso   1.000  O
  C267     1.0000 0.11655  0.45840  0.23808  Biso   1.000  C
  C268     1.0000 0.11657  0.45834  0.23808  Biso   1.000  C
  O45      1.0000 0.09778  0.65679  0.16298  Biso   1.000  O
  C269     1.0000 0.22783  0.69351  0.23059  Biso   1.000  C
  C270     1.0000 0.22785  0.69345  0.23059  Biso   1.000  C
  H221     1.0000 0.35179  0.71295  0.28758  Biso   1.000  H
  H222     1.0000 0.35187  0.71295  0.28758  Biso   1.000  H
  H223     1.0000 0.44626  0.50785  0.35428  Biso   1.000  H
  C271     1.0000 0.46514  0.61708  0.38340  Biso   1.000  C
  C272     1.0000 0.46517  0.61702  0.38340  Biso   1.000  C
  C273     1.0000 0.74774  0.57978  0.21509  Biso   1.000  C
  H224     1.0000 0.61298  0.65276  0.28411  Biso   1.000  H
  H225     1.0000 0.61306  0.65276  0.28411  Biso   1.000  H
  O46      1.0000 0.88958  0.48127  0.14220  Biso   1.000  O
  C274     1.0000 0.84621  0.31968  0.18451  Biso   1.000  C
  C275     1.0000 0.15434  0.36957  0.22339  Biso   1.000  C
  H226     1.0000 0.12792  0.46885  0.28868  Biso   1.000  H
  H227     1.0000 0.02471  0.48067  0.23270  Biso   1.000  H
  C276     1.0000 0.13269  0.66780  0.09532  Biso   1.000  C
  C277     1.0000 0.13271  0.66780  0.09527  Biso   1.000  C
  C278     1.0000 0.18418  0.77899  0.20709  Biso   1.000  C
  H228     1.0000 0.46453  0.67526  0.36228  Biso   1.000  H
  H229     1.0000 0.54453  0.59410  0.40539  Biso   1.000  H
  C279     1.0000 0.36015  0.62205  0.43592  Biso   1.000  C
  H230     1.0000 0.54455  0.59404  0.40539  Biso   1.000  H
  C280     1.0000 0.36016  0.62205  0.43587  Biso   1.000  C
  C281     1.0000 0.81698  0.64040  0.19291  Biso   1.000  C
  C282     1.0000 0.81701  0.64034  0.19291  Biso   1.000  C
  C283     1.0000 0.88799  0.50648  0.07520  Biso   1.000  C
  H231     1.0000 0.86463  0.33408  0.23250  Biso   1.000  H
  H232     1.0000 0.92134  0.31990  0.14618  Biso   1.000  H
  C284     1.0000 0.82519  0.23840  0.18672  Biso   1.000  C
  C285     1.0000 0.82523  0.23834  0.18667  Biso   1.000  C
  C286     1.0000 0.18599  0.33809  0.16248  Biso   1.000  C
  H233     1.0000 0.15515  0.32979  0.26620  Biso   1.000  H
  O47      1.0000 0.12580  0.75060  0.08068  Biso   1.000  O
  H234     1.0000 0.07559  0.64821  0.06690  Biso   1.000  H
  H235     1.0000 0.22247  0.63330  0.08099  Biso   1.000  H
  H236     1.0000 0.07561  0.64815  0.06690  Biso   1.000  H
  H237     1.0000 0.22255  0.63330  0.08099  Biso   1.000  H
  C287     1.0000 0.25467  0.79539  0.14261  Biso   1.000  C
  H238     1.0000 0.09602  0.78847  0.19532  Biso   1.000  H
  C288     1.0000 0.17165  0.83801  0.26630  Biso   1.000  C
  H239     1.0000 0.09603  0.78847  0.19527  Biso   1.000  H
  C289     1.0000 0.17176  0.83795  0.26630  Biso   1.000  C
  H240     1.0000 0.35864  0.56289  0.45388  Biso   1.000  H
  H241     1.0000 0.28170  0.64819  0.41379  Biso   1.000  H
  C290     1.0000 0.36144  0.67299  0.49528  Biso   1.000  C
  H242     1.0000 0.35866  0.56283  0.45388  Biso   1.000  H
  H243     1.0000 0.28173  0.64813  0.41379  Biso   1.000  H
  C291     1.0000 0.36146  0.67293  0.49528  Biso   1.000  C
  C292     1.0000 0.77567  0.68079  0.13169  Biso   1.000  C
  H244     1.0000 0.90951  0.61029  0.18089  Biso   1.000  H
  C293     1.0000 0.81362  0.69766  0.24910  Biso   1.000  C
  H245     1.0000 0.94953  0.46130  0.04321  Biso   1.000  H
  O48      1.0000 0.92066  0.58041  0.06192  Biso   1.000  O
  H246     1.0000 0.80007  0.51382  0.06368  Biso   1.000  H
  O49      1.0000 0.92070  0.58036  0.06187  Biso   1.000  O
  H247     1.0000 0.80009  0.51376  0.06368  Biso   1.000  H
  C294     1.0000 0.81099  0.20210  0.13411  Biso   1.000  C
  C295     1.0000 0.81102  0.20204  0.13411  Biso   1.000  C
  H248     1.0000 0.82129  0.20856  0.23501  Biso   1.000  H
  H249     1.0000 0.82139  0.20856  0.23496  Biso   1.000  H
  C296     1.0000 0.19746  0.38001  0.09588  Biso   1.000  C
  H250     1.0000 0.20597  0.27408  0.15981  Biso   1.000  H
  C297     1.0000 0.19757  0.37995  0.09588  Biso   1.000  C
  H251     1.0000 0.20605  0.27408  0.15981  Biso   1.000  H
  C298     1.0000 0.22766  0.77793  0.08290  Biso   1.000  C
  C299     1.0000 0.22768  0.77787  0.08290  Biso   1.000  C
  C300     1.0000 0.35613  0.82298  0.14070  Biso   1.000  C
  H252     1.0000 0.12469  0.81848  0.31172  Biso   1.000  H
  H253     1.0000 0.25867  0.83949  0.27470  Biso   1.000  H
  C301     1.0000 0.10566  0.92060  0.24658  Biso   1.000  C
  H254     1.0000 0.12470  0.81848  0.31167  Biso   1.000  H
  H255     1.0000 0.25875  0.83949  0.27470  Biso   1.000  H
  C302     1.0000 0.10577  0.92054  0.24658  Biso   1.000  C
  C303     1.0000 0.42312  0.64496  0.54860  Biso   1.000  C
  C304     1.0000 0.29862  0.75254  0.49311  Biso   1.000  C
  C305     1.0000 0.29863  0.75254  0.49306  Biso   1.000  C
  C306     1.0000 0.68098  0.75027  0.13411  Biso   1.000  C
  C307     1.0000 0.82070  0.64951  0.06811  Biso   1.000  C
  C308     1.0000 0.82072  0.64945  0.06811  Biso   1.000  C
  H256     1.0000 0.85929  0.74156  0.22832  Biso   1.000  H
  H257     1.0000 0.72238  0.72665  0.26721  Biso   1.000  H
  C309     1.0000 0.87021  0.65680  0.30931  Biso   1.000  C
  H258     1.0000 0.85930  0.74156  0.22827  Biso   1.000  H
  H259     1.0000 0.72247  0.72665  0.26721  Biso   1.000  H
  C310     1.0000 0.87024  0.65674  0.30931  Biso   1.000  C
  C311     1.0000 0.81837  0.22201  0.06112  Biso   1.000  C
  C312     1.0000 0.81841  0.22195  0.06107  Biso   1.000  C
  H260     1.0000 0.78912  0.14602  0.14588  Biso   1.000  H
  H261     1.0000 0.78914  0.14596  0.14588  Biso   1.000  H
  O50      1.0000 0.14425  0.34360  0.04990  Biso   1.000  O
  H262     1.0000 0.28946  0.37468  0.07651  Biso   1.000  H
  H263     1.0000 0.15171  0.44202  0.10282  Biso   1.000  H
  O51      1.0000 0.14434  0.34360  0.04990  Biso   1.000  O
  H264     1.0000 0.28955  0.37468  0.07651  Biso   1.000  H
  H265     1.0000 0.15175  0.44196  0.10277  Biso   1.000  H
  C313     1.0000 0.28952  0.79119  0.02379  Biso   1.000  C
  H266     1.0000 0.38168  0.83477  0.18748  Biso   1.000  H
  C314     1.0000 0.42225  0.83482  0.08280  Biso   1.000  C
  C315     1.0000 0.42236  0.83476  0.08280  Biso   1.000  C
  H267     1.0000 0.02419  0.91631  0.23169  Biso   1.000  H
  H268     1.0000 0.15892  0.94171  0.20458  Biso   1.000  H
  C316     1.0000 0.07500  0.98189  0.30428  Biso   1.000  C
  H269     1.0000 0.02422  0.91625  0.23169  Biso   1.000  H
  H270     1.0000 0.15895  0.94166  0.20458  Biso   1.000  H
  C317     1.0000 0.07502  0.98183  0.30428  Biso   1.000  C
  H271     1.0000 0.47184  0.58336  0.55021  Biso   1.000  H
  C318     1.0000 0.42199  0.69648  0.59970  Biso   1.000  C
  C319     1.0000 0.42210  0.69642  0.59970  Biso   1.000  C
  C320     1.0000 0.29754  0.80407  0.54432  Biso   1.000  C
  H272     1.0000 0.25085  0.77424  0.45192  Biso   1.000  H
  C321     1.0000 0.29756  0.80407  0.54427  Biso   1.000  C
  H273     1.0000 0.25086  0.77424  0.45186  Biso   1.000  H
  C322     1.0000 0.64436  0.78511  0.07611  Biso   1.000  C
  C323     1.0000 0.64438  0.78505  0.07611  Biso   1.000  C
  H274     1.0000 0.63636  0.77602  0.18209  Biso   1.000  H
  H275     1.0000 0.63647  0.77596  0.18209  Biso   1.000  H
  C324     1.0000 0.78625  0.68328  0.01011  Biso   1.000  C
  C325     1.0000 0.78634  0.68328  0.01011  Biso   1.000  C
  H276     1.0000 0.83584  0.60586  0.32450  Biso   1.000  H
  H277     1.0000 0.96455  0.63717  0.29361  Biso   1.000  H
  C326     1.0000 0.84633  0.71106  0.36831  Biso   1.000  C
  H278     1.0000 0.96456  0.63717  0.29356  Biso   1.000  H
  C327     1.0000 0.84634  0.71106  0.36826  Biso   1.000  C
  O52      1.0000 0.71949  0.22982  0.04190  Biso   1.000  O
  O53      1.0000 0.71952  0.22976  0.04190  Biso   1.000  O
  H279     1.0000 0.84347  0.27753  0.05402  Biso   1.000  H
  H280     1.0000 0.88457  0.17609  0.03219  Biso   1.000  H
  H281     1.0000 0.84351  0.27747  0.05397  Biso   1.000  H
  H282     1.0000 0.88465  0.17609  0.03219  Biso   1.000  H
  C328     1.0000 0.21369  0.31663  0.98989  Biso   1.000  C
  C329     1.0000 0.21378  0.31663  0.98989  Biso   1.000  C
  O54      1.0000 0.28051  0.77015  0.95810  Biso   1.000  O
  C330     1.0000 0.39207  0.82022  0.02208  Biso   1.000  C
  C331     1.0000 0.39209  0.82016  0.02208  Biso   1.000  C
  C332     1.0000 0.53850  0.86011  0.07897  Biso   1.000  C
  C333     1.0000 0.53853  0.86005  0.07897  Biso   1.000  C
  C334     1.0000 0.11213  0.96539  0.36690  Biso   1.000  C
  C335     1.0000 0.11215  0.96533  0.36690  Biso   1.000  C
  C336     1.0000 0.01232  0.05857  0.28929  Biso   1.000  C
  C337     1.0000 0.01230  0.05863  0.28929  Biso   1.000  C
  C338     1.0000 0.35923  0.77604  0.59759  Biso   1.000  C
  H283     1.0000 0.46981  0.67478  0.64100  Biso   1.000  H
  H284     1.0000 0.46983  0.67472  0.64100  Biso   1.000  H
  H285     1.0000 0.24882  0.86567  0.54271  Biso   1.000  H
  H286     1.0000 0.24883  0.86567  0.54266  Biso   1.000  H
  C339     1.0000 0.69061  0.75102  0.01408  Biso   1.000  C
  C340     1.0000 0.69063  0.75096  0.01408  Biso   1.000  C
  O55      1.0000 0.85567  0.65637  0.95010  Biso   1.000  O
  O56      1.0000 0.85569  0.65631  0.95010  Biso   1.000  O
  C341     1.0000 0.93049  0.75010  0.37918  Biso   1.000  C
  C342     1.0000 0.73865  0.72424  0.41122  Biso   1.000  C
  C343     1.0000 0.93051  0.75004  0.37918  Biso   1.000  C
  C344     1.0000 0.73866  0.72424  0.41117  Biso   1.000  C
  C345     1.0000 0.71051  0.20871  0.97621  Biso   1.000  C
  C346     1.0000 0.17931  0.35046  0.93189  Biso   1.000  C
  C347     1.0000 0.30940  0.24895  0.98592  Biso   1.000  C
  C348     1.0000 0.17933  0.35040  0.93189  Biso   1.000  C
  C349     1.0000 0.30941  0.24895  0.98587  Biso   1.000  C
  C350     1.0000 0.18164  0.77796  0.93888  Biso   1.000  C
  C351     1.0000 0.18166  0.77790  0.93888  Biso   1.000  C
  O57      1.0000 0.45286  0.83404  0.96092  Biso   1.000  O
  O58      1.0000 0.45295  0.83404  0.96086  Biso   1.000  O
  H287     1.0000 0.54898  0.89409  0.03320  Biso   1.000  H
  C352     1.0000 0.53618  0.91742  0.13592  Biso   1.000  C
  C353     1.0000 0.53621  0.91736  0.13587  Biso   1.000  C
  H288     1.0000 0.16074  0.90598  0.37847  Biso   1.000  H
  C354     1.0000 0.08662  0.02550  0.41449  Biso   1.000  C
  C355     1.0000 0.98681  0.11868  0.33687  Biso   1.000  C
  H289     1.0000 0.98351  0.07129  0.24090  Biso   1.000  H
  C356     1.0000 0.98679  0.11874  0.33687  Biso   1.000  C
  H290     1.0000 0.98349  0.07134  0.24090  Biso   1.000  H
  H291     1.0000 0.35836  0.81594  0.63718  Biso   1.000  H
  O59      1.0000 0.65990  0.78646  0.95458  Biso   1.000  O
  O60      1.0000 0.65992  0.78641  0.95458  Biso   1.000  O
  C357     1.0000 0.80246  0.61996  0.90412  Biso   1.000  C
  C358     1.0000 0.80258  0.61990  0.90407  Biso   1.000  C
  C359     1.0000 0.90693  0.80238  0.43300  Biso   1.000  C
  H292     1.0000 0.01394  0.73988  0.34588  Biso   1.000  H
  C360     1.0000 0.71505  0.77658  0.46509  Biso   1.000  C
  H293     1.0000 0.67344  0.69405  0.40282  Biso   1.000  H
  C361     1.0000 0.71507  0.77652  0.46509  Biso   1.000  C
  H294     1.0000 0.67345  0.69405  0.40277  Biso   1.000  H
  C362     1.0000 0.60794  0.17975  0.97792  Biso   1.000  C
  C363     1.0000 0.60798  0.17969  0.97787  Biso   1.000  C
  C364     1.0000 0.77235  0.22204  0.91710  Biso   1.000  C
  C365     1.0000 0.22425  0.31918  0.86831  Biso   1.000  C
  O61      1.0000 0.07935  0.41955  0.93808  Biso   1.000  O
  C366     1.0000 0.22436  0.31912  0.86831  Biso   1.000  C
  C367     1.0000 0.35557  0.21486  0.92389  Biso   1.000  C
  C368     1.0000 0.35567  0.21480  0.92389  Biso   1.000  C
  O62      1.0000 0.34011  0.21350  0.04542  Biso   1.000  O
  O63      1.0000 0.34012  0.21350  0.04537  Biso   1.000  O
  C369     1.0000 0.18901  0.79787  0.86589  Biso   1.000  C
  H295     1.0000 0.15654  0.72244  0.94598  Biso   1.000  H
  H296     1.0000 0.11538  0.82382  0.96781  Biso   1.000  H
  C370     1.0000 0.18904  0.79781  0.86589  Biso   1.000  C
  H297     1.0000 0.11546  0.82382  0.96781  Biso   1.000  H
  C371     1.0000 0.55721  0.77668  0.93531  Biso   1.000  C
  C372     1.0000 0.55723  0.77662  0.93531  Biso   1.000  C
  H298     1.0000 0.50666  0.89241  0.18370  Biso   1.000  H
  H299     1.0000 0.62441  0.92397  0.13531  Biso   1.000  H
  C373     1.0000 0.45295  0.99988  0.12671  Biso   1.000  C
  H300     1.0000 0.50677  0.89235  0.18370  Biso   1.000  H
  H301     1.0000 0.62442  0.92397  0.13526  Biso   1.000  H
  C374     1.0000 0.45305  0.99988  0.12666  Biso   1.000  C
  C375     1.0000 0.02403  0.10218  0.39950  Biso   1.000  C
  H302     1.0000 0.11539  0.01267  0.46288  Biso   1.000  H
  C376     1.0000 0.02400  0.10224  0.39950  Biso   1.000  C
  H303     1.0000 0.11545  0.01273  0.46288  Biso   1.000  H
  H304     1.0000 0.93833  0.17798  0.32530  Biso   1.000  H
  H305     1.0000 0.93831  0.17804  0.32530  Biso   1.000  H
  C377     1.0000 0.81394  0.66188  0.83752  Biso   1.000  C
  H306     1.0000 0.71048  0.62523  0.92349  Biso   1.000  H
  H307     1.0000 0.84829  0.55795  0.89718  Biso   1.000  H
  C378     1.0000 0.81406  0.66182  0.83747  Biso   1.000  C
  H308     1.0000 0.71057  0.62523  0.92349  Biso   1.000  H
  C379     1.0000 0.79912  0.81568  0.47591  Biso   1.000  C
  H309     1.0000 0.97201  0.83270  0.44140  Biso   1.000  H
  C380     1.0000 0.79915  0.81562  0.47586  Biso   1.000  C
  H310     1.0000 0.97203  0.83264  0.44140  Biso   1.000  H
  H311     1.0000 0.63152  0.78687  0.49829  Biso   1.000  H
  C381     1.0000 0.57767  0.16515  0.91720  Biso   1.000  C
  C382     1.0000 0.57776  0.16515  0.91720  Biso   1.000  C
  O64      1.0000 0.54709  0.16587  0.03908  Biso   1.000  O
  C383     1.0000 0.74528  0.20452  0.85739  Biso   1.000  C
  C384     1.0000 0.74536  0.20452  0.85739  Biso   1.000  C
  O65      1.0000 0.87421  0.24937  0.91932  Biso   1.000  O
  O66      1.0000 0.87425  0.24931  0.91926  Biso   1.000  O
  C385     1.0000 0.31905  0.24964  0.86589  Biso   1.000  C
  C386     1.0000 0.18302  0.35957  0.80709  Biso   1.000  C
  C387     1.0000 0.18305  0.35951  0.80709  Biso   1.000  C
  C388     1.0000 0.11204  0.49343  0.92480  Biso   1.000  C
  C389     1.0000 0.46150  0.13986  0.92103  Biso   1.000  C
  C390     1.0000 0.46154  0.13980  0.92098  Biso   1.000  C
  C391     1.0000 0.44280  0.22329  0.06469  Biso   1.000  C
  C392     1.0000 0.17482  0.76157  0.81328  Biso   1.000  C
  C393     1.0000 0.17484  0.76151  0.81328  Biso   1.000  C
  H312     1.0000 0.21089  0.85395  0.85412  Biso   1.000  H
  H313     1.0000 0.21090  0.85395  0.85407  Biso   1.000  H
  H314     1.0000 0.54712  0.71877  0.95241  Biso   1.000  H
  H315     1.0000 0.56750  0.77927  0.88098  Biso   1.000  H
  H316     1.0000 0.54716  0.71871  0.95236  Biso   1.000  H
  H317     1.0000 0.56752  0.77921  0.88098  Biso   1.000  H
  H318     1.0000 0.36658  0.99260  0.12309  Biso   1.000  H
  H319     1.0000 0.48677  0.02679  0.08089  Biso   1.000  H
  C394     1.0000 0.44182  0.05427  0.18572  Biso   1.000  C
  H320     1.0000 0.48675  0.02685  0.08089  Biso   1.000  H
  C395     1.0000 0.44182  0.05433  0.18567  Biso   1.000  C
  H321     1.0000 0.00418  0.14870  0.43642  Biso   1.000  H
  H322     1.0000 0.00419  0.14870  0.43637  Biso   1.000  H
  C396     1.0000 0.84569  0.63034  0.77661  Biso   1.000  C
  H323     1.0000 0.79396  0.72588  0.84019  Biso   1.000  H
  H324     1.0000 0.79406  0.72582  0.84019  Biso   1.000  H
  H325     1.0000 0.78081  0.85604  0.51761  Biso   1.000  H
  H326     1.0000 0.78082  0.85604  0.51756  Biso   1.000  H
  C397     1.0000 0.64390  0.17692  0.85930  Biso   1.000  C
  C398     1.0000 0.81583  0.22098  0.79291  Biso   1.000  C
  C399     1.0000 0.81585  0.22092  0.79291  Biso   1.000  C
  C400     1.0000 0.86732  0.33217  0.90468  Biso   1.000  C
  C401     1.0000 0.86734  0.33211  0.90468  Biso   1.000  C
  H327     1.0000 0.36356  0.22395  0.81791  Biso   1.000  H
  H328     1.0000 0.36365  0.22395  0.81791  Biso   1.000  H
  C402     1.0000 0.25229  0.42013  0.78491  Biso   1.000  C
  H329     1.0000 0.09050  0.38968  0.81911  Biso   1.000  H
  C403     1.0000 0.18641  0.30225  0.75090  Biso   1.000  C
  H330     1.0000 0.09054  0.38962  0.81906  Biso   1.000  H
  H331     1.0000 0.19994  0.48615  0.93632  Biso   1.000  H
  H332     1.0000 0.05048  0.53867  0.95679  Biso   1.000  H
  O67      1.0000 0.11036  0.51864  0.85780  Biso   1.000  O
  H333     1.0000 0.19995  0.48615  0.93627  Biso   1.000  H
  H334     1.0000 0.05050  0.53861  0.95679  Biso   1.000  H
  O68      1.0000 0.11045  0.51864  0.85780  Biso   1.000  O
  H335     1.0000 0.45105  0.10582  0.96680  Biso   1.000  H
  C404     1.0000 0.46383  0.08255  0.86408  Biso   1.000  C
  H336     1.0000 0.45289  0.28120  0.04759  Biso   1.000  H
  H337     1.0000 0.43251  0.22070  0.11902  Biso   1.000  H
  H338     1.0000 0.43252  0.22070  0.11896  Biso   1.000  H
  C405     1.0000 0.15382  0.68023  0.81549  Biso   1.000  C
  H339     1.0000 0.17865  0.79135  0.76499  Biso   1.000  H
  H340     1.0000 0.17874  0.79135  0.76499  Biso   1.000  H
  C406     1.0000 0.53290  0.08912  0.19160  Biso   1.000  C
  C407     1.0000 0.33931  0.07027  0.23320  Biso   1.000  C
  C408     1.0000 0.33929  0.07033  0.23320  Biso   1.000  C
  C409     1.0000 0.88346  0.54157  0.76192  Biso   1.000  C
  C410     1.0000 0.88349  0.54151  0.76187  Biso   1.000  C
  H341     1.0000 0.84486  0.67018  0.73380  Biso   1.000  H
  H342     1.0000 0.84488  0.67012  0.73380  Biso   1.000  H
  H343     1.0000 0.61826  0.16514  0.81252  Biso   1.000  H
  H344     1.0000 0.61836  0.16514  0.81247  Biso   1.000  H
  C411     1.0000 0.77218  0.30646  0.76941  Biso   1.000  C
  H345     1.0000 0.90401  0.21144  0.80468  Biso   1.000  H
  C412     1.0000 0.82827  0.16196  0.73370  Biso   1.000  C
  C413     1.0000 0.77219  0.30646  0.76936  Biso   1.000  C
  C414     1.0000 0.82835  0.16196  0.73370  Biso   1.000  C
  O69      1.0000 0.90214  0.34318  0.83702  Biso   1.000  O
  H346     1.0000 0.92442  0.35176  0.93310  Biso   1.000  H
  H347     1.0000 0.77746  0.36667  0.91901  Biso   1.000  H
  O70      1.0000 0.90226  0.34312  0.83697  Biso   1.000  O
  H348     1.0000 0.92444  0.35170  0.93310  Biso   1.000  H
  H349     1.0000 0.77758  0.36661  0.91896  Biso   1.000  H
  C415     1.0000 0.35628  0.40518  0.73888  Biso   1.000  C
  C416     1.0000 0.21400  0.49785  0.81408  Biso   1.000  C
  C417     1.0000 0.35630  0.40512  0.73888  Biso   1.000  C
  H350     1.0000 0.14074  0.25835  0.77168  Biso   1.000  H
  H351     1.0000 0.27756  0.27325  0.73279  Biso   1.000  H
  C418     1.0000 0.12979  0.34317  0.69069  Biso   1.000  C
  H352     1.0000 0.27765  0.27325  0.73279  Biso   1.000  H
  C419     1.0000 0.12982  0.34311  0.69069  Biso   1.000  C
  H353     1.0000 0.49326  0.10756  0.81630  Biso   1.000  H
  H354     1.0000 0.37562  0.07594  0.86469  Biso   1.000  H
  C420     1.0000 0.54700  0.00003  0.87329  Biso   1.000  C
  H355     1.0000 0.49337  0.10750  0.81630  Biso   1.000  H
  C421     1.0000 0.54708  0.00003  0.87329  Biso   1.000  C
  O71      1.0000 0.25173  0.62363  0.83199  Biso   1.000  O
  H356     1.0000 0.13540  0.66583  0.76750  Biso   1.000  H
  H357     1.0000 0.07867  0.68007  0.85382  Biso   1.000  H
  H358     1.0000 0.07871  0.68001  0.85377  Biso   1.000  H
  C422     1.0000 0.52136  0.14051  0.24492  Biso   1.000  C
  H359     1.0000 0.61214  0.07702  0.15478  Biso   1.000  H
  C423     1.0000 0.52137  0.14051  0.24487  Biso   1.000  C
  H360     1.0000 0.61222  0.07702  0.15478  Biso   1.000  H
  C424     1.0000 0.32788  0.12137  0.28652  Biso   1.000  C
  H361     1.0000 0.26890  0.04320  0.22867  Biso   1.000  H
  C425     1.0000 0.32787  0.12143  0.28647  Biso   1.000  C
  H362     1.0000 0.26888  0.04325  0.22867  Biso   1.000  H
  O72      1.0000 0.81392  0.50027  0.80870  Biso   1.000  O
  O73      1.0000 0.81394  0.50021  0.80870  Biso   1.000  O
  H363     1.0000 0.87211  0.53106  0.71132  Biso   1.000  H
  H364     1.0000 0.97532  0.51924  0.76730  Biso   1.000  H
  H365     1.0000 0.87212  0.53106  0.71127  Biso   1.000  H
  C426     1.0000 0.68489  0.33136  0.72998  Biso   1.000  C
  C427     1.0000 0.81837  0.36417  0.79572  Biso   1.000  C
  C428     1.0000 0.81841  0.36411  0.79567  Biso   1.000  C
  H366     1.0000 0.87532  0.18149  0.68828  Biso   1.000  H
  H367     1.0000 0.74126  0.16048  0.72530  Biso   1.000  H
  C429     1.0000 0.89426  0.07937  0.75342  Biso   1.000  C
  H368     1.0000 0.87534  0.18143  0.68828  Biso   1.000  H
  H369     1.0000 0.74136  0.16042  0.72530  Biso   1.000  H
  C430     1.0000 0.89436  0.07937  0.75337  Biso   1.000  C
  H370     1.0000 0.38697  0.34715  0.71589  Biso   1.000  H
  C431     1.0000 0.42390  0.45989  0.72102  Biso   1.000  C
  C432     1.0000 0.42394  0.45983  0.72097  Biso   1.000  C
  C433     1.0000 0.28187  0.55124  0.79779  Biso   1.000  C
  C434     1.0000 0.28195  0.55124  0.79779  Biso   1.000  C
  H371     1.0000 0.16419  0.39405  0.67550  Biso   1.000  H
  H372     1.0000 0.03548  0.36274  0.70639  Biso   1.000  H
  C435     1.0000 0.15370  0.28885  0.63169  Biso   1.000  C
  H373     1.0000 0.51326  0.97312  0.91911  Biso   1.000  H
  C436     1.0000 0.55821  0.94564  0.81428  Biso   1.000  C
  H374     1.0000 0.51325  0.97318  0.91906  Biso   1.000  H
  C437     1.0000 0.55818  0.94570  0.81428  Biso   1.000  C
  H375     1.0000 0.63342  0.00737  0.87691  Biso   1.000  H
  H376     1.0000 0.63345  0.00731  0.87691  Biso   1.000  H
  C438     1.0000 0.41903  0.15646  0.29241  Biso   1.000  C
  H377     1.0000 0.59186  0.16759  0.24940  Biso   1.000  H
  C439     1.0000 0.41901  0.15652  0.29241  Biso   1.000  C
  H378     1.0000 0.59193  0.16765  0.24940  Biso   1.000  H
  H379     1.0000 0.24863  0.13376  0.32329  Biso   1.000  H
  H380     1.0000 0.24860  0.13382  0.32329  Biso   1.000  H
  C440     1.0000 0.77312  0.44108  0.78169  Biso   1.000  C
  C441     1.0000 0.77314  0.44102  0.78169  Biso   1.000  C
  C442     1.0000 0.63992  0.41139  0.71152  Biso   1.000  C
  C443     1.0000 0.63995  0.41133  0.71147  Biso   1.000  C
  H381     1.0000 0.64816  0.28696  0.71242  Biso   1.000  H
  H382     1.0000 0.64826  0.28696  0.71237  Biso   1.000  H
  H383     1.0000 0.97581  0.08366  0.76831  Biso   1.000  H
  H384     1.0000 0.84109  0.05825  0.79542  Biso   1.000  H
  C444     1.0000 0.92501  0.01808  0.69572  Biso   1.000  C
  H385     1.0000 0.84110  0.05825  0.79537  Biso   1.000  H
  C445     1.0000 0.92505  0.01802  0.69567  Biso   1.000  C
  C446     1.0000 0.38435  0.53468  0.75271  Biso   1.000  C
  C447     1.0000 0.53920  0.43955  0.67258  Biso   1.000  C
  C448     1.0000 0.38439  0.53462  0.75266  Biso   1.000  C
  C449     1.0000 0.06952  0.24987  0.62082  Biso   1.000  C
  C450     1.0000 0.26138  0.27567  0.58878  Biso   1.000  C
  C451     1.0000 0.06953  0.24987  0.62077  Biso   1.000  C
  C452     1.0000 0.46710  0.91085  0.80840  Biso   1.000  C
  C453     1.0000 0.66072  0.92964  0.76680  Biso   1.000  C
  C454     1.0000 0.46708  0.91091  0.80840  Biso   1.000  C
  C455     1.0000 0.66070  0.92970  0.76680  Biso   1.000  C
  H386     1.0000 0.41012  0.19611  0.33370  Biso   1.000  H
  C456     1.0000 0.68978  0.46604  0.74190  Biso   1.000  C
  C457     1.0000 0.98771  0.94134  0.71071  Biso   1.000  C
  C458     1.0000 0.98769  0.94140  0.71071  Biso   1.000  C
  C459     1.0000 0.88788  0.03458  0.63310  Biso   1.000  C
  C460     1.0000 0.88790  0.03452  0.63310  Biso   1.000  C
  O74      1.0000 0.44388  0.59289  0.73461  Biso   1.000  O
  O75      1.0000 0.44390  0.59283  0.73461  Biso   1.000  O
  H387     1.0000 0.55377  0.49206  0.64572  Biso   1.000  H
  C461     1.0000 0.53486  0.38289  0.61660  Biso   1.000  C
  H388     1.0000 0.55378  0.49206  0.64567  Biso   1.000  H
  C462     1.0000 0.53489  0.38283  0.61660  Biso   1.000  C
  H389     1.0000 0.98607  0.26009  0.65412  Biso   1.000  H
  H390     1.0000 0.98610  0.26003  0.65407  Biso   1.000  H
  C463     1.0000 0.09308  0.19759  0.56700  Biso   1.000  C
  C464     1.0000 0.09310  0.19753  0.56700  Biso   1.000  C
  C465     1.0000 0.28496  0.22338  0.53491  Biso   1.000  C
  H391     1.0000 0.32659  0.30586  0.59718  Biso   1.000  H
  C466     1.0000 0.28498  0.22333  0.53491  Biso   1.000  C
  C467     1.0000 0.47865  0.85946  0.75508  Biso   1.000  C
  H392     1.0000 0.38779  0.92295  0.84522  Biso   1.000  H
  C468     1.0000 0.47863  0.85952  0.75508  Biso   1.000  C
  H393     1.0000 0.38778  0.92301  0.84517  Biso   1.000  H
  C469     1.0000 0.67215  0.87854  0.71348  Biso   1.000  C
  H394     1.0000 0.73111  0.95677  0.77133  Biso   1.000  H
  C470     1.0000 0.67213  0.87860  0.71348  Biso   1.000  C
  H395     1.0000 0.73112  0.95677  0.77128  Biso   1.000  H
  O76      1.0000 0.64899  0.54667  0.72238  Biso   1.000  O
  C471     1.0000 0.01320  0.88129  0.66313  Biso   1.000  C
  H396     1.0000 0.01649  0.92868  0.75910  Biso   1.000  H
  C472     1.0000 0.01321  0.88129  0.66308  Biso   1.000  C
  C473     1.0000 0.91339  0.97447  0.58551  Biso   1.000  C
  C474     1.0000 0.91337  0.97453  0.58551  Biso   1.000  C
  H397     1.0000 0.83927  0.09399  0.62153  Biso   1.000  H
  H398     1.0000 0.83931  0.09393  0.62148  Biso   1.000  H
  C475     1.0000 0.54298  0.59125  0.76408  Biso   1.000  C
  H399     1.0000 0.45548  0.40587  0.59461  Biso   1.000  H
  H400     1.0000 0.53550  0.32465  0.63772  Biso   1.000  H
  C476     1.0000 0.63989  0.37786  0.56408  Biso   1.000  C
  H401     1.0000 0.45549  0.40587  0.59456  Biso   1.000  H
  H402     1.0000 0.53552  0.32465  0.63767  Biso   1.000  H
  C477     1.0000 0.20089  0.18429  0.52409  Biso   1.000  C
  H403     1.0000 0.02800  0.16727  0.55860  Biso   1.000  H
  C478     1.0000 0.20091  0.18423  0.52409  Biso   1.000  C
  H404     1.0000 0.36849  0.21310  0.50171  Biso   1.000  H
  H405     1.0000 0.36851  0.21304  0.50171  Biso   1.000  H
  C479     1.0000 0.58100  0.84345  0.70759  Biso   1.000  C
  H406     1.0000 0.40806  0.83238  0.75060  Biso   1.000  H
  C480     1.0000 0.58097  0.84351  0.70759  Biso   1.000  C
  H407     1.0000 0.40814  0.83238  0.75060  Biso   1.000  H
  H408     1.0000 0.75140  0.86615  0.67671  Biso   1.000  H
  H409     1.0000 0.75138  0.86621  0.67671  Biso   1.000  H
  C481     1.0000 0.97598  0.89779  0.60050  Biso   1.000  C
  H410     1.0000 0.06168  0.82199  0.67470  Biso   1.000  H
  H411     1.0000 0.88454  0.98730  0.53712  Biso   1.000  H
  H412     1.0000 0.88464  0.98730  0.53707  Biso   1.000  H
  H413     1.0000 0.54914  0.65137  0.76962  Biso   1.000  H
  H414     1.0000 0.53504  0.56313  0.81308  Biso   1.000  H
  H415     1.0000 0.54926  0.65131  0.76957  Biso   1.000  H
  H416     1.0000 0.64137  0.43708  0.54612  Biso   1.000  H
  H417     1.0000 0.71830  0.35178  0.58621  Biso   1.000  H
  C482     1.0000 0.63857  0.32698  0.50472  Biso   1.000  C
  H418     1.0000 0.64138  0.43708  0.54607  Biso   1.000  H
  H419     1.0000 0.71832  0.35178  0.58616  Biso   1.000  H
  C483     1.0000 0.63858  0.32698  0.50467  Biso   1.000  C
  H420     1.0000 0.21922  0.14387  0.48239  Biso   1.000  H
  H421     1.0000 0.58988  0.80386  0.66630  Biso   1.000  H
  H422     1.0000 0.58986  0.80392  0.66630  Biso   1.000  H
  H423     1.0000 0.99583  0.85127  0.56358  Biso   1.000  H
  H424     1.0000 0.99581  0.85133  0.56358  Biso   1.000  H
  C484     1.0000 0.70141  0.24737  0.50689  Biso   1.000  C
  C485     1.0000 0.57691  0.35495  0.45140  Biso   1.000  C
  C486     1.0000 0.70247  0.19590  0.45568  Biso   1.000  C
  H425     1.0000 0.74918  0.22567  0.54808  Biso   1.000  H
  C487     1.0000 0.70249  0.19584  0.45568  Biso   1.000  C
  C488     1.0000 0.57793  0.30348  0.40030  Biso   1.000  C
  H426     1.0000 0.52816  0.41661  0.44979  Biso   1.000  H
  C489     1.0000 0.57802  0.30348  0.40030  Biso   1.000  C
  H427     1.0000 0.52819  0.41655  0.44979  Biso   1.000  H
  C490     1.0000 0.64080  0.22387  0.40241  Biso   1.000  C
  H428     1.0000 0.75119  0.13430  0.45729  Biso   1.000  H
  H429     1.0000 0.75121  0.13424  0.45729  Biso   1.000  H
  H430     1.0000 0.53020  0.32519  0.35900  Biso   1.000  H
  H431     1.0000 0.64167  0.18397  0.36282  Biso   1.000  H
  H432     1.0000 0.64168  0.18397  0.36277  Biso   1.000  H
