data_image0
_cell_length_a       24.675
_cell_length_b       12.578
_cell_length_c       26.133
_cell_angle_alpha    90
_cell_angle_beta     116.65
_cell_angle_gamma    90

_symmetry_space_group_name_H-M    "P 1"
_symmetry_int_tables_number       1

loop_
  _symmetry_equiv_pos_as_xyz
  'x, y, z'

loop_
  _atom_site_label
  _atom_site_occupancy
  _atom_site_fract_x
  _atom_site_fract_y
  _atom_site_fract_z
  _atom_site_thermal_displace_type
  _atom_site_B_iso_or_equiv
  _atom_site_type_symbol
  C1       1.0000 0.50327  0.51423  0.09830  Biso   1.000  C
  C2       1.0000 0.48347  0.43067  0.05176  Biso   1.000  C
  H1       1.0000 0.54361  0.49626  0.12861  Biso   1.000  H
  H2       1.0000 0.47428  0.51678  0.11440  Biso   1.000  H
  H3       1.0000 0.50480  0.58380  0.08199  Biso   1.000  H
  H4       1.0000 0.54357  0.49626  0.12861  Biso   1.000  H
  H5       1.0000 0.50476  0.58380  0.08199  Biso   1.000  H
  O1       1.0000 0.48682  0.33249  0.07681  Biso   1.000  O
  H6       1.0000 0.44142  0.44482  0.02261  Biso   1.000  H
  H7       1.0000 0.51029  0.43218  0.03271  Biso   1.000  H
  H8       1.0000 0.44138  0.44482  0.02261  Biso   1.000  H
  C3       1.0000 0.50321  0.51423  0.09826  Biso   1.000  C
  C4       1.0000 0.46676  0.24368  0.04174  Biso   1.000  C
  C5       1.0000 0.47704  0.14732  0.07013  Biso   1.000  C
  C6       1.0000 0.47700  0.14732  0.07013  Biso   1.000  C
  C7       1.0000 0.43855  0.24742  0.98219  Biso   1.000  C
  C8       1.0000 0.51365  0.13961  0.13457  Biso   1.000  C
  C9       1.0000 0.51359  0.13961  0.13452  Biso   1.000  C
  C10      1.0000 0.45455  0.05533  0.03789  Biso   1.000  C
  C11      1.0000 0.41784  0.15495  0.94978  Biso   1.000  C
  C12      1.0000 0.41780  0.15495  0.94978  Biso   1.000  C
  H9       1.0000 0.43335  0.31388  0.96339  Biso   1.000  H
  H10      1.0000 0.43331  0.31388  0.96339  Biso   1.000  H
  C13      1.0000 0.47525  0.14287  0.16616  Biso   1.000  C
  C14      1.0000 0.47519  0.14287  0.16612  Biso   1.000  C
  H11      1.0000 0.53699  0.07243  0.14411  Biso   1.000  H
  H12      1.0000 0.54302  0.19900  0.14801  Biso   1.000  H
  H13      1.0000 0.54298  0.19900  0.14801  Biso   1.000  H
  H14      1.0000 0.46010  0.98879  0.05690  Biso   1.000  H
  H15      1.0000 0.46006  0.98879  0.05690  Biso   1.000  H
  C15      1.0000 0.42428  0.05891  0.97842  Biso   1.000  C
  C16      1.0000 0.42424  0.05891  0.97842  Biso   1.000  C
  C17      1.0000 0.39378  0.15750  0.88504  Biso   1.000  C
  C18      1.0000 0.39372  0.15750  0.88500  Biso   1.000  C
  C19      1.0000 0.45383  0.05048  0.17995  Biso   1.000  C
  C20      1.0000 0.45379  0.05048  0.17995  Biso   1.000  C
  C21      1.0000 0.45914  0.24026  0.18098  Biso   1.000  C
  C22      1.0000 0.45912  0.24026  0.18093  Biso   1.000  C
  O2       1.0000 0.40079  0.97011  0.94477  Biso   1.000  O
  O3       1.0000 0.40075  0.97011  0.94477  Biso   1.000  O
  H16      1.0000 0.41094  0.09612  0.87348  Biso   1.000  H
  H17      1.0000 0.40892  0.22293  0.87468  Biso   1.000  H
  C23      1.0000 0.32462  0.15456  0.85028  Biso   1.000  C
  H18      1.0000 0.41090  0.09612  0.87348  Biso   1.000  H
  C24      1.0000 0.32458  0.15456  0.85028  Biso   1.000  C
  C25      1.0000 0.42059  0.05557  0.21090  Biso   1.000  C
  C26      1.0000 0.42055  0.05557  0.21090  Biso   1.000  C
  O4       1.0000 0.46955  0.95627  0.16269  Biso   1.000  O
  C27      1.0000 0.42398  0.24511  0.21009  Biso   1.000  C
  C28      1.0000 0.42391  0.24511  0.21005  Biso   1.000  C
  H19      1.0000 0.47248  0.30426  0.17100  Biso   1.000  H
  C29      1.0000 0.40656  0.87200  0.97414  Biso   1.000  C
  C30      1.0000 0.29556  0.06050  0.82459  Biso   1.000  C
  C31      1.0000 0.29143  0.24797  0.84116  Biso   1.000  C
  C32      1.0000 0.40526  0.15257  0.22632  Biso   1.000  C
  C33      1.0000 0.40522  0.15257  0.22632  Biso   1.000  C
  H20      1.0000 0.40811  0.99157  0.22182  Biso   1.000  H
  H21      1.0000 0.40809  0.99157  0.22178  Biso   1.000  H
  C34      1.0000 0.44188  0.86071  0.16920  Biso   1.000  C
  C35      1.0000 0.44182  0.86071  0.16916  Biso   1.000  C
  O5       1.0000 0.40611  0.33996  0.22469  Biso   1.000  O
  H22      1.0000 0.44994  0.85427  0.99739  Biso   1.000  H
  C36      1.0000 0.37584  0.78693  0.92987  Biso   1.000  C
  H23      1.0000 0.44990  0.85427  0.99739  Biso   1.000  H
  H24      1.0000 0.38719  0.87756  0.00000  Biso   1.000  H
  H25      1.0000 0.31824  0.99666  0.83080  Biso   1.000  H
  H26      1.0000 0.31820  0.99666  0.83080  Biso   1.000  H
  C37      1.0000 0.23333  0.05987  0.78974  Biso   1.000  C
  O6       1.0000 0.32305  0.33781  0.86753  Biso   1.000  O
  C38      1.0000 0.22920  0.24734  0.80631  Biso   1.000  C
  O7       1.0000 0.32301  0.33781  0.86753  Biso   1.000  O
  C39      1.0000 0.36791  0.15591  0.25928  Biso   1.000  C
  H27      1.0000 0.39718  0.86786  0.15011  Biso   1.000  H
  H28      1.0000 0.45520  0.84552  0.21030  Biso   1.000  H
  C40      1.0000 0.46114  0.77230  0.14201  Biso   1.000  C
  C41      1.0000 0.41535  0.43528  0.20063  Biso   1.000  C
  C42      1.0000 0.41529  0.43528  0.20058  Biso   1.000  C
  H29      1.0000 0.38042  0.71808  0.94888  Biso   1.000  H
  H30      1.0000 0.39454  0.78351  0.90380  Biso   1.000  H
  H31      1.0000 0.33265  0.80378  0.90812  Biso   1.000  H
  H32      1.0000 0.39450  0.78351  0.90380  Biso   1.000  H
  H33      1.0000 0.33262  0.80378  0.90808  Biso   1.000  H
  C43      1.0000 0.20018  0.15328  0.78062  Biso   1.000  C
  C44      1.0000 0.20014  0.15328  0.78062  Biso   1.000  C
  O8       1.0000 0.20094  0.96971  0.76371  Biso   1.000  O
  C45      1.0000 0.28788  0.43131  0.86030  Biso   1.000  C
  C46      1.0000 0.28784  0.43131  0.86030  Biso   1.000  C
  H34      1.0000 0.20652  0.31110  0.80010  Biso   1.000  H
  C47      1.0000 0.29988  0.15328  0.21938  Biso   1.000  C
  C48      1.0000 0.29984  0.15328  0.21938  Biso   1.000  C
  H35      1.0000 0.37782  0.22158  0.28262  Biso   1.000  H
  H36      1.0000 0.37880  0.09437  0.28561  Biso   1.000  H
  H37      1.0000 0.37776  0.22158  0.28257  Biso   1.000  H
  H38      1.0000 0.50549  0.76682  0.16090  Biso   1.000  H
  H39      1.0000 0.44699  0.78757  0.10130  Biso   1.000  H
  H40      1.0000 0.44360  0.70512  0.14630  Biso   1.000  H
  H41      1.0000 0.44356  0.70512  0.14630  Biso   1.000  H
  H42      1.0000 0.39712  0.42908  0.15841  Biso   1.000  H
  H43      1.0000 0.45932  0.44936  0.21531  Biso   1.000  H
  C49      1.0000 0.38565  0.52449  0.21728  Biso   1.000  C
  H44      1.0000 0.39708  0.42908  0.15841  Biso   1.000  H
  H45      1.0000 0.45928  0.44936  0.21531  Biso   1.000  H
  C50      1.0000 0.38563  0.52449  0.21724  Biso   1.000  C
  C51      1.0000 0.13211  0.15591  0.74072  Biso   1.000  C
  C52      1.0000 0.21974  0.87446  0.78280  Biso   1.000  C
  H46      1.0000 0.25832  0.41986  0.87580  Biso   1.000  H
  H47      1.0000 0.26523  0.44896  0.81911  Biso   1.000  H
  C53      1.0000 0.33014  0.51996  0.89168  Biso   1.000  C
  C54      1.0000 0.33010  0.51996  0.89168  Biso   1.000  C
  C55      1.0000 0.27082  0.24734  0.19369  Biso   1.000  C
  C56      1.0000 0.26669  0.05987  0.21026  Biso   1.000  C
  C57      1.0000 0.26667  0.05987  0.21022  Biso   1.000  C
  H48      1.0000 0.40281  0.52806  0.25911  Biso   1.000  H
  H49      1.0000 0.34187  0.51161  0.20088  Biso   1.000  H
  H50      1.0000 0.39290  0.59199  0.20260  Biso   1.000  H
  C58      1.0000 0.09476  0.15257  0.77368  Biso   1.000  C
  H51      1.0000 0.12224  0.22158  0.71738  Biso   1.000  H
  H52      1.0000 0.12122  0.09437  0.71439  Biso   1.000  H
  H53      1.0000 0.12220  0.22158  0.71738  Biso   1.000  H
  H54      1.0000 0.23003  0.87097  0.82399  Biso   1.000  H
  H55      1.0000 0.25702  0.85880  0.77878  Biso   1.000  H
  C59      1.0000 0.17204  0.79249  0.75048  Biso   1.000  C
  C60      1.0000 0.17200  0.79249  0.75048  Biso   1.000  C
  H56      1.0000 0.35585  0.53649  0.87310  Biso   1.000  H
  H57      1.0000 0.35562  0.49849  0.93141  Biso   1.000  H
  H58      1.0000 0.30666  0.58308  0.89121  Biso   1.000  H
  H59      1.0000 0.35581  0.53649  0.87310  Biso   1.000  H
  H60      1.0000 0.30662  0.58308  0.89121  Biso   1.000  H
  H61      1.0000 0.29350  0.31110  0.19990  Biso   1.000  H
  C61      1.0000 0.20859  0.24797  0.15884  Biso   1.000  C
  C62      1.0000 0.20446  0.06050  0.17541  Biso   1.000  C
  O9       1.0000 0.29908  0.96971  0.23629  Biso   1.000  O
  C63      1.0000 0.07947  0.05557  0.78910  Biso   1.000  C
  C64      1.0000 0.07943  0.05557  0.78910  Biso   1.000  C
  C65      1.0000 0.07609  0.24511  0.78991  Biso   1.000  C
  C66      1.0000 0.07604  0.24511  0.78991  Biso   1.000  C
  H62      1.0000 0.16164  0.79639  0.70972  Biso   1.000  H
  H63      1.0000 0.13574  0.80641  0.75579  Biso   1.000  H
  H64      1.0000 0.18773  0.72150  0.76508  Biso   1.000  H
  H65      1.0000 0.16162  0.79639  0.70968  Biso   1.000  H
  H66      1.0000 0.13570  0.80641  0.75579  Biso   1.000  H
  H67      1.0000 0.18769  0.72150  0.76508  Biso   1.000  H
  O10      1.0000 0.17701  0.33781  0.13247  Biso   1.000  O
  C67      1.0000 0.17544  0.15456  0.14972  Biso   1.000  C
  O11      1.0000 0.17697  0.33781  0.13247  Biso   1.000  O
  C68      1.0000 0.17540  0.15456  0.14972  Biso   1.000  C
  H68      1.0000 0.18182  0.99666  0.16920  Biso   1.000  H
  H69      1.0000 0.18178  0.99666  0.16920  Biso   1.000  H
  C69      1.0000 0.28028  0.87446  0.21720  Biso   1.000  C
  C70      1.0000 0.04623  0.05048  0.82005  Biso   1.000  C
  C71      1.0000 0.04619  0.05048  0.82005  Biso   1.000  C
  H70      1.0000 0.09191  0.99157  0.77818  Biso   1.000  H
  C72      1.0000 0.04088  0.24026  0.81902  Biso   1.000  C
  O12      1.0000 0.09391  0.33996  0.77531  Biso   1.000  O
  C73      1.0000 0.21218  0.43131  0.13970  Biso   1.000  C
  C74      1.0000 0.21214  0.43131  0.13970  Biso   1.000  C
  C75      1.0000 0.10628  0.15750  0.11496  Biso   1.000  C
  C76      1.0000 0.10624  0.15750  0.11496  Biso   1.000  C
  H71      1.0000 0.26999  0.87097  0.17601  Biso   1.000  H
  H72      1.0000 0.24300  0.85880  0.22122  Biso   1.000  H
  C77      1.0000 0.32802  0.79249  0.24952  Biso   1.000  C
  H73      1.0000 0.24298  0.85880  0.22118  Biso   1.000  H
  C78      1.0000 0.32796  0.79249  0.24948  Biso   1.000  C
  C79      1.0000 0.02481  0.14287  0.83384  Biso   1.000  C
  C80      1.0000 0.02477  0.14287  0.83384  Biso   1.000  C
  O13      1.0000 0.03047  0.95627  0.83731  Biso   1.000  O
  H74      1.0000 0.02754  0.30426  0.82900  Biso   1.000  H
  H75      1.0000 0.02750  0.30426  0.82900  Biso   1.000  H
  C81      1.0000 0.08471  0.43528  0.79937  Biso   1.000  C
  C82      1.0000 0.08467  0.43528  0.79937  Biso   1.000  C
  H76      1.0000 0.24170  0.41986  0.12420  Biso   1.000  H
  H77      1.0000 0.23479  0.44896  0.18089  Biso   1.000  H
  C83      1.0000 0.16992  0.51996  0.10832  Biso   1.000  C
  C84      1.0000 0.16986  0.51996  0.10828  Biso   1.000  C
  C85      1.0000 0.08222  0.15495  0.05022  Biso   1.000  C
  H78      1.0000 0.08912  0.09612  0.12652  Biso   1.000  H
  H79      1.0000 0.09110  0.22293  0.12532  Biso   1.000  H
  C86      1.0000 0.08218  0.15495  0.05022  Biso   1.000  C
  H80      1.0000 0.08906  0.09612  0.12647  Biso   1.000  H
  H81      1.0000 0.09108  0.22293  0.12527  Biso   1.000  H
  H82      1.0000 0.33838  0.79639  0.29028  Biso   1.000  H
  H83      1.0000 0.36432  0.80641  0.24421  Biso   1.000  H
  H84      1.0000 0.31233  0.72150  0.23492  Biso   1.000  H
  H85      1.0000 0.36428  0.80641  0.24421  Biso   1.000  H
  H86      1.0000 0.31227  0.72150  0.23488  Biso   1.000  H
  C87      1.0000 0.98637  0.13961  0.86543  Biso   1.000  C
  C88      1.0000 0.05818  0.86071  0.83080  Biso   1.000  C
  C89      1.0000 0.05814  0.86071  0.83080  Biso   1.000  C
  H87      1.0000 0.10294  0.42908  0.84159  Biso   1.000  H
  H88      1.0000 0.04074  0.44936  0.78469  Biso   1.000  H
  C90      1.0000 0.11437  0.52449  0.78272  Biso   1.000  C
  H89      1.0000 0.10290  0.42908  0.84159  Biso   1.000  H
  H90      1.0000 0.04070  0.44936  0.78469  Biso   1.000  H
  C91      1.0000 0.11433  0.52449  0.78272  Biso   1.000  C
  H91      1.0000 0.14421  0.53649  0.12690  Biso   1.000  H
  H92      1.0000 0.14440  0.49849  0.06859  Biso   1.000  H
  H93      1.0000 0.19340  0.58308  0.10879  Biso   1.000  H
  H94      1.0000 0.14417  0.53649  0.12690  Biso   1.000  H
  H95      1.0000 0.19336  0.58308  0.10879  Biso   1.000  H
  C92      1.0000 0.07578  0.05891  0.02158  Biso   1.000  C
  C93      1.0000 0.06147  0.24742  0.01781  Biso   1.000  C
  C94      1.0000 0.07574  0.05891  0.02158  Biso   1.000  C
  C95      1.0000 0.02302  0.14732  0.92987  Biso   1.000  C
  C96      1.0000 0.02296  0.14732  0.92983  Biso   1.000  C
  H96      1.0000 0.96299  0.07243  0.85589  Biso   1.000  H
  H97      1.0000 0.95700  0.19900  0.85199  Biso   1.000  H
  H98      1.0000 0.96303  0.07243  0.85589  Biso   1.000  H
  H99      1.0000 0.10284  0.86786  0.84989  Biso   1.000  H
  H100     1.0000 0.04482  0.84552  0.78970  Biso   1.000  H
  C97      1.0000 0.03888  0.77230  0.85799  Biso   1.000  C
  C98      1.0000 0.03886  0.77230  0.85794  Biso   1.000  C
  H101     1.0000 0.09721  0.52806  0.74089  Biso   1.000  H
  H102     1.0000 0.15815  0.51161  0.79912  Biso   1.000  H
  H103     1.0000 0.10712  0.59199  0.79740  Biso   1.000  H
  H104     1.0000 0.15809  0.51161  0.79907  Biso   1.000  H
  O14      1.0000 0.09923  0.97011  0.05523  Biso   1.000  O
  C99      1.0000 0.04547  0.05533  0.96211  Biso   1.000  C
  H105     1.0000 0.06671  0.31388  0.03661  Biso   1.000  H
  H106     1.0000 0.06667  0.31388  0.03661  Biso   1.000  H
  C100     1.0000 0.03326  0.24368  0.95826  Biso   1.000  C
  H107     1.0000 0.99449  0.76682  0.83910  Biso   1.000  H
  H108     1.0000 0.99453  0.76682  0.83910  Biso   1.000  H
  H109     1.0000 0.05303  0.78757  0.89870  Biso   1.000  H
  H110     1.0000 0.05646  0.70512  0.85370  Biso   1.000  H
  H111     1.0000 0.05642  0.70512  0.85370  Biso   1.000  H
  C101     1.0000 0.09346  0.87200  0.02586  Biso   1.000  C
  H112     1.0000 0.03992  0.98879  0.94310  Biso   1.000  H
  O15      1.0000 0.01320  0.33249  0.92319  Biso   1.000  O
  H113     1.0000 0.11279  0.87756  0.00000  Biso   1.000  H
  H114     1.0000 0.05012  0.85427  0.00261  Biso   1.000  H
  C102     1.0000 0.12418  0.78693  0.07013  Biso   1.000  C
  H115     1.0000 0.05008  0.85427  0.00261  Biso   1.000  H
  C103     1.0000 0.01655  0.43067  0.94824  Biso   1.000  C
  C104     1.0000 0.01653  0.43067  0.94819  Biso   1.000  C
  H116     1.0000 0.11960  0.71808  0.05112  Biso   1.000  H
  H117     1.0000 0.10552  0.78351  0.09620  Biso   1.000  H
  H118     1.0000 0.16738  0.80378  0.09188  Biso   1.000  H
  H119     1.0000 0.11958  0.71808  0.05108  Biso   1.000  H
  H120     1.0000 0.10548  0.78351  0.09620  Biso   1.000  H
  H121     1.0000 0.98969  0.43218  0.96729  Biso   1.000  H
  C105     1.0000 0.99675  0.51423  0.90170  Biso   1.000  C
  H122     1.0000 0.98973  0.43218  0.96729  Biso   1.000  H
  H123     1.0000 0.05864  0.44482  0.97739  Biso   1.000  H
  H124     1.0000 0.05860  0.44482  0.97739  Biso   1.000  H
  H125     1.0000 0.95641  0.49626  0.87139  Biso   1.000  H
  H126     1.0000 0.99522  0.58380  0.91801  Biso   1.000  H
  H127     1.0000 0.02574  0.51678  0.88560  Biso   1.000  H
  C106     1.0000 0.50327  0.51423  0.09830  Biso   1.000  C
  C107     1.0000 0.48347  0.43067  0.05176  Biso   1.000  C
  H128     1.0000 0.47428  0.51678  0.11440  Biso   1.000  H
  H129     1.0000 0.54361  0.49626  0.12861  Biso   1.000  H
  H130     1.0000 0.50480  0.58380  0.08199  Biso   1.000  H
  H131     1.0000 0.54357  0.49626  0.12861  Biso   1.000  H
  H132     1.0000 0.50476  0.58380  0.08199  Biso   1.000  H
  O16      1.0000 0.48682  0.33249  0.07681  Biso   1.000  O
  H133     1.0000 0.51029  0.43218  0.03271  Biso   1.000  H
  H134     1.0000 0.44142  0.44482  0.02261  Biso   1.000  H
  H135     1.0000 0.44138  0.44482  0.02261  Biso   1.000  H
  C108     1.0000 0.50321  0.51423  0.09826  Biso   1.000  C
  C109     1.0000 0.46676  0.24368  0.04174  Biso   1.000  C
  C110     1.0000 0.47704  0.14732  0.07013  Biso   1.000  C
  C111     1.0000 0.47700  0.14732  0.07013  Biso   1.000  C
  C112     1.0000 0.43855  0.24742  0.98219  Biso   1.000  C
  C113     1.0000 0.51365  0.13961  0.13457  Biso   1.000  C
  C114     1.0000 0.51359  0.13961  0.13452  Biso   1.000  C
  C115     1.0000 0.45455  0.05533  0.03789  Biso   1.000  C
  C116     1.0000 0.41784  0.15495  0.94978  Biso   1.000  C
  C117     1.0000 0.41780  0.15495  0.94978  Biso   1.000  C
  H136     1.0000 0.43335  0.31388  0.96339  Biso   1.000  H
  H137     1.0000 0.43331  0.31388  0.96339  Biso   1.000  H
  C118     1.0000 0.47525  0.14287  0.16616  Biso   1.000  C
  C119     1.0000 0.47519  0.14287  0.16612  Biso   1.000  C
  H138     1.0000 0.53699  0.07243  0.14411  Biso   1.000  H
  H139     1.0000 0.54302  0.19900  0.14801  Biso   1.000  H
  H140     1.0000 0.54298  0.19900  0.14801  Biso   1.000  H
  H141     1.0000 0.46010  0.98879  0.05690  Biso   1.000  H
  H142     1.0000 0.46006  0.98879  0.05690  Biso   1.000  H
  C120     1.0000 0.42428  0.05891  0.97842  Biso   1.000  C
  C121     1.0000 0.42424  0.05891  0.97842  Biso   1.000  C
  C122     1.0000 0.39378  0.15750  0.88504  Biso   1.000  C
  C123     1.0000 0.39372  0.15750  0.88500  Biso   1.000  C
  C124     1.0000 0.45383  0.05048  0.17995  Biso   1.000  C
  C125     1.0000 0.45379  0.05048  0.17995  Biso   1.000  C
  C126     1.0000 0.45914  0.24026  0.18098  Biso   1.000  C
  C127     1.0000 0.45912  0.24026  0.18093  Biso   1.000  C
  O17      1.0000 0.40079  0.97011  0.94477  Biso   1.000  O
  O18      1.0000 0.40075  0.97011  0.94477  Biso   1.000  O
  H143     1.0000 0.41094  0.09612  0.87348  Biso   1.000  H
  H144     1.0000 0.40892  0.22293  0.87468  Biso   1.000  H
  C128     1.0000 0.32462  0.15456  0.85028  Biso   1.000  C
  H145     1.0000 0.41090  0.09612  0.87348  Biso   1.000  H
  C129     1.0000 0.32458  0.15456  0.85028  Biso   1.000  C
  C130     1.0000 0.42059  0.05557  0.21090  Biso   1.000  C
  C131     1.0000 0.42055  0.05557  0.21090  Biso   1.000  C
  O19      1.0000 0.46955  0.95627  0.16269  Biso   1.000  O
  C132     1.0000 0.42398  0.24511  0.21009  Biso   1.000  C
  C133     1.0000 0.42391  0.24511  0.21005  Biso   1.000  C
  H146     1.0000 0.47248  0.30426  0.17100  Biso   1.000  H
  C134     1.0000 0.40656  0.87200  0.97414  Biso   1.000  C
  C135     1.0000 0.29556  0.06050  0.82459  Biso   1.000  C
  C136     1.0000 0.29143  0.24797  0.84116  Biso   1.000  C
  C137     1.0000 0.40526  0.15257  0.22632  Biso   1.000  C
  C138     1.0000 0.40522  0.15257  0.22632  Biso   1.000  C
  H147     1.0000 0.40811  0.99157  0.22182  Biso   1.000  H
  H148     1.0000 0.40809  0.99157  0.22178  Biso   1.000  H
  C139     1.0000 0.44188  0.86071  0.16920  Biso   1.000  C
  C140     1.0000 0.44182  0.86071  0.16916  Biso   1.000  C
  O20      1.0000 0.40611  0.33996  0.22469  Biso   1.000  O
  H149     1.0000 0.44994  0.85427  0.99739  Biso   1.000  H
  C141     1.0000 0.37584  0.78693  0.92987  Biso   1.000  C
  H150     1.0000 0.44990  0.85427  0.99739  Biso   1.000  H
  H151     1.0000 0.38719  0.87756  0.00000  Biso   1.000  H
  C142     1.0000 0.23333  0.05987  0.78974  Biso   1.000  C
  H152     1.0000 0.31824  0.99666  0.83080  Biso   1.000  H
  H153     1.0000 0.31820  0.99666  0.83080  Biso   1.000  H
  C143     1.0000 0.22920  0.24734  0.80631  Biso   1.000  C
  O21      1.0000 0.32305  0.33781  0.86753  Biso   1.000  O
  O22      1.0000 0.32301  0.33781  0.86753  Biso   1.000  O
  C144     1.0000 0.36791  0.15591  0.25928  Biso   1.000  C
  H154     1.0000 0.39718  0.86786  0.15011  Biso   1.000  H
  H155     1.0000 0.45520  0.84552  0.21030  Biso   1.000  H
  C145     1.0000 0.46114  0.77230  0.14201  Biso   1.000  C
  C146     1.0000 0.41535  0.43528  0.20063  Biso   1.000  C
  C147     1.0000 0.41529  0.43528  0.20058  Biso   1.000  C
  H156     1.0000 0.38042  0.71808  0.94888  Biso   1.000  H
  H157     1.0000 0.39454  0.78351  0.90380  Biso   1.000  H
  H158     1.0000 0.33265  0.80378  0.90812  Biso   1.000  H
  H159     1.0000 0.39450  0.78351  0.90380  Biso   1.000  H
  H160     1.0000 0.33262  0.80378  0.90808  Biso   1.000  H
  C148     1.0000 0.20018  0.15328  0.78062  Biso   1.000  C
  C149     1.0000 0.20014  0.15328  0.78062  Biso   1.000  C
  O23      1.0000 0.20094  0.96971  0.76371  Biso   1.000  O
  H161     1.0000 0.20652  0.31110  0.80010  Biso   1.000  H
  C150     1.0000 0.28788  0.43131  0.86030  Biso   1.000  C
  C151     1.0000 0.28784  0.43131  0.86030  Biso   1.000  C
  C152     1.0000 0.29988  0.15328  0.21938  Biso   1.000  C
  C153     1.0000 0.29984  0.15328  0.21938  Biso   1.000  C
  H162     1.0000 0.37880  0.09437  0.28561  Biso   1.000  H
  H163     1.0000 0.37782  0.22158  0.28262  Biso   1.000  H
  H164     1.0000 0.37776  0.22158  0.28257  Biso   1.000  H
  H165     1.0000 0.50549  0.76682  0.16090  Biso   1.000  H
  H166     1.0000 0.44699  0.78757  0.10130  Biso   1.000  H
  H167     1.0000 0.44360  0.70512  0.14630  Biso   1.000  H
  H168     1.0000 0.44356  0.70512  0.14630  Biso   1.000  H
  H169     1.0000 0.39712  0.42908  0.15841  Biso   1.000  H
  H170     1.0000 0.45932  0.44936  0.21531  Biso   1.000  H
  C154     1.0000 0.38565  0.52449  0.21728  Biso   1.000  C
  H171     1.0000 0.39708  0.42908  0.15841  Biso   1.000  H
  H172     1.0000 0.45928  0.44936  0.21531  Biso   1.000  H
  C155     1.0000 0.38563  0.52449  0.21724  Biso   1.000  C
  C156     1.0000 0.13211  0.15591  0.74072  Biso   1.000  C
  C157     1.0000 0.21974  0.87446  0.78280  Biso   1.000  C
  H173     1.0000 0.25832  0.41986  0.87580  Biso   1.000  H
  H174     1.0000 0.26523  0.44896  0.81911  Biso   1.000  H
  C158     1.0000 0.33014  0.51996  0.89168  Biso   1.000  C
  C159     1.0000 0.33010  0.51996  0.89168  Biso   1.000  C
  C160     1.0000 0.27082  0.24734  0.19369  Biso   1.000  C
  C161     1.0000 0.26669  0.05987  0.21026  Biso   1.000  C
  C162     1.0000 0.26667  0.05987  0.21022  Biso   1.000  C
  H175     1.0000 0.40281  0.52806  0.25911  Biso   1.000  H
  H176     1.0000 0.34187  0.51161  0.20088  Biso   1.000  H
  H177     1.0000 0.39290  0.59199  0.20260  Biso   1.000  H
  C163     1.0000 0.09476  0.15257  0.77368  Biso   1.000  C
  H178     1.0000 0.12224  0.22158  0.71738  Biso   1.000  H
  H179     1.0000 0.12122  0.09437  0.71439  Biso   1.000  H
  H180     1.0000 0.12220  0.22158  0.71738  Biso   1.000  H
  H181     1.0000 0.23003  0.87097  0.82399  Biso   1.000  H
  H182     1.0000 0.25702  0.85880  0.77878  Biso   1.000  H
  C164     1.0000 0.17204  0.79249  0.75048  Biso   1.000  C
  C165     1.0000 0.17200  0.79249  0.75048  Biso   1.000  C
  H183     1.0000 0.35585  0.53649  0.87310  Biso   1.000  H
  H184     1.0000 0.35562  0.49849  0.93141  Biso   1.000  H
  H185     1.0000 0.30666  0.58308  0.89121  Biso   1.000  H
  H186     1.0000 0.35581  0.53649  0.87310  Biso   1.000  H
  H187     1.0000 0.30662  0.58308  0.89121  Biso   1.000  H
  H188     1.0000 0.29350  0.31110  0.19990  Biso   1.000  H
  C166     1.0000 0.20859  0.24797  0.15884  Biso   1.000  C
  C167     1.0000 0.20446  0.06050  0.17541  Biso   1.000  C
  O24      1.0000 0.29908  0.96971  0.23629  Biso   1.000  O
  C168     1.0000 0.07947  0.05557  0.78910  Biso   1.000  C
  C169     1.0000 0.07943  0.05557  0.78910  Biso   1.000  C
  C170     1.0000 0.07609  0.24511  0.78991  Biso   1.000  C
  C171     1.0000 0.07604  0.24511  0.78991  Biso   1.000  C
  H189     1.0000 0.16164  0.79639  0.70972  Biso   1.000  H
  H190     1.0000 0.13574  0.80641  0.75579  Biso   1.000  H
  H191     1.0000 0.18773  0.72150  0.76508  Biso   1.000  H
  H192     1.0000 0.16162  0.79639  0.70968  Biso   1.000  H
  H193     1.0000 0.13570  0.80641  0.75579  Biso   1.000  H
  H194     1.0000 0.18769  0.72150  0.76508  Biso   1.000  H
  O25      1.0000 0.17701  0.33781  0.13247  Biso   1.000  O
  C172     1.0000 0.17544  0.15456  0.14972  Biso   1.000  C
  O26      1.0000 0.17697  0.33781  0.13247  Biso   1.000  O
  C173     1.0000 0.17540  0.15456  0.14972  Biso   1.000  C
  H195     1.0000 0.18182  0.99666  0.16920  Biso   1.000  H
  H196     1.0000 0.18178  0.99666  0.16920  Biso   1.000  H
  C174     1.0000 0.28028  0.87446  0.21720  Biso   1.000  C
  C175     1.0000 0.04623  0.05048  0.82005  Biso   1.000  C
  C176     1.0000 0.04619  0.05048  0.82005  Biso   1.000  C
  H197     1.0000 0.09191  0.99157  0.77818  Biso   1.000  H
  C177     1.0000 0.04088  0.24026  0.81902  Biso   1.000  C
  O27      1.0000 0.09391  0.33996  0.77531  Biso   1.000  O
  C178     1.0000 0.21218  0.43131  0.13970  Biso   1.000  C
  C179     1.0000 0.21214  0.43131  0.13970  Biso   1.000  C
  C180     1.0000 0.10628  0.15750  0.11496  Biso   1.000  C
  C181     1.0000 0.10624  0.15750  0.11496  Biso   1.000  C
  H198     1.0000 0.26999  0.87097  0.17601  Biso   1.000  H
  H199     1.0000 0.24300  0.85880  0.22122  Biso   1.000  H
  C182     1.0000 0.32802  0.79249  0.24952  Biso   1.000  C
  H200     1.0000 0.24298  0.85880  0.22118  Biso   1.000  H
  C183     1.0000 0.32796  0.79249  0.24948  Biso   1.000  C
  C184     1.0000 0.02481  0.14287  0.83384  Biso   1.000  C
  C185     1.0000 0.02477  0.14287  0.83384  Biso   1.000  C
  O28      1.0000 0.03047  0.95627  0.83731  Biso   1.000  O
  H201     1.0000 0.02754  0.30426  0.82900  Biso   1.000  H
  H202     1.0000 0.02750  0.30426  0.82900  Biso   1.000  H
  C186     1.0000 0.08471  0.43528  0.79937  Biso   1.000  C
  C187     1.0000 0.08467  0.43528  0.79937  Biso   1.000  C
  H203     1.0000 0.24170  0.41986  0.12420  Biso   1.000  H
  H204     1.0000 0.23479  0.44896  0.18089  Biso   1.000  H
  C188     1.0000 0.16992  0.51996  0.10832  Biso   1.000  C
  C189     1.0000 0.16986  0.51996  0.10828  Biso   1.000  C
  C190     1.0000 0.08222  0.15495  0.05022  Biso   1.000  C
  H205     1.0000 0.08912  0.09612  0.12652  Biso   1.000  H
  H206     1.0000 0.09110  0.22293  0.12532  Biso   1.000  H
  C191     1.0000 0.08218  0.15495  0.05022  Biso   1.000  C
  H207     1.0000 0.08906  0.09612  0.12647  Biso   1.000  H
  H208     1.0000 0.09108  0.22293  0.12527  Biso   1.000  H
  H209     1.0000 0.33838  0.79639  0.29028  Biso   1.000  H
  H210     1.0000 0.36432  0.80641  0.24421  Biso   1.000  H
  H211     1.0000 0.31233  0.72150  0.23492  Biso   1.000  H
  H212     1.0000 0.36428  0.80641  0.24421  Biso   1.000  H
  H213     1.0000 0.31227  0.72150  0.23488  Biso   1.000  H
  C192     1.0000 0.98637  0.13961  0.86543  Biso   1.000  C
  C193     1.0000 0.05818  0.86071  0.83080  Biso   1.000  C
  C194     1.0000 0.05814  0.86071  0.83080  Biso   1.000  C
  H214     1.0000 0.10294  0.42908  0.84159  Biso   1.000  H
  H215     1.0000 0.04074  0.44936  0.78469  Biso   1.000  H
  C195     1.0000 0.11437  0.52449  0.78272  Biso   1.000  C
  H216     1.0000 0.10290  0.42908  0.84159  Biso   1.000  H
  H217     1.0000 0.04070  0.44936  0.78469  Biso   1.000  H
  C196     1.0000 0.11433  0.52449  0.78272  Biso   1.000  C
  H218     1.0000 0.14440  0.49849  0.06859  Biso   1.000  H
  H219     1.0000 0.14421  0.53649  0.12690  Biso   1.000  H
  H220     1.0000 0.19340  0.58308  0.10879  Biso   1.000  H
  H221     1.0000 0.14417  0.53649  0.12690  Biso   1.000  H
  H222     1.0000 0.19336  0.58308  0.10879  Biso   1.000  H
  C197     1.0000 0.06147  0.24742  0.01781  Biso   1.000  C
  C198     1.0000 0.07578  0.05891  0.02158  Biso   1.000  C
  C199     1.0000 0.07574  0.05891  0.02158  Biso   1.000  C
  C200     1.0000 0.02302  0.14732  0.92987  Biso   1.000  C
  C201     1.0000 0.02296  0.14732  0.92983  Biso   1.000  C
  H223     1.0000 0.96299  0.07243  0.85589  Biso   1.000  H
  H224     1.0000 0.95700  0.19900  0.85199  Biso   1.000  H
  H225     1.0000 0.96303  0.07243  0.85589  Biso   1.000  H
  H226     1.0000 0.10284  0.86786  0.84989  Biso   1.000  H
  H227     1.0000 0.04482  0.84552  0.78970  Biso   1.000  H
  C202     1.0000 0.03888  0.77230  0.85799  Biso   1.000  C
  C203     1.0000 0.03886  0.77230  0.85794  Biso   1.000  C
  H228     1.0000 0.09721  0.52806  0.74089  Biso   1.000  H
  H229     1.0000 0.15815  0.51161  0.79912  Biso   1.000  H
  H230     1.0000 0.10712  0.59199  0.79740  Biso   1.000  H
  H231     1.0000 0.15809  0.51161  0.79907  Biso   1.000  H
  C204     1.0000 0.03326  0.24368  0.95826  Biso   1.000  C
  H232     1.0000 0.06671  0.31388  0.03661  Biso   1.000  H
  H233     1.0000 0.06667  0.31388  0.03661  Biso   1.000  H
  O29      1.0000 0.09923  0.97011  0.05523  Biso   1.000  O
  C205     1.0000 0.04547  0.05533  0.96211  Biso   1.000  C
  H234     1.0000 0.99449  0.76682  0.83910  Biso   1.000  H
  H235     1.0000 0.99453  0.76682  0.83910  Biso   1.000  H
  H236     1.0000 0.05303  0.78757  0.89870  Biso   1.000  H
  H237     1.0000 0.05646  0.70512  0.85370  Biso   1.000  H
  H238     1.0000 0.05642  0.70512  0.85370  Biso   1.000  H
  O30      1.0000 0.01320  0.33249  0.92319  Biso   1.000  O
  C206     1.0000 0.09346  0.87200  0.02586  Biso   1.000  C
  H239     1.0000 0.03992  0.98879  0.94310  Biso   1.000  H
  C207     1.0000 0.01655  0.43067  0.94824  Biso   1.000  C
  C208     1.0000 0.01653  0.43067  0.94819  Biso   1.000  C
  H240     1.0000 0.11279  0.87756  0.00000  Biso   1.000  H
  H241     1.0000 0.05012  0.85427  0.00261  Biso   1.000  H
  C209     1.0000 0.12418  0.78693  0.07013  Biso   1.000  C
  H242     1.0000 0.05008  0.85427  0.00261  Biso   1.000  H
  H243     1.0000 0.98969  0.43218  0.96729  Biso   1.000  H
  C210     1.0000 0.99675  0.51423  0.90170  Biso   1.000  C
  H244     1.0000 0.98973  0.43218  0.96729  Biso   1.000  H
  H245     1.0000 0.05864  0.44482  0.97739  Biso   1.000  H
  H246     1.0000 0.05860  0.44482  0.97739  Biso   1.000  H
  H247     1.0000 0.11960  0.71808  0.05112  Biso   1.000  H
  H248     1.0000 0.10552  0.78351  0.09620  Biso   1.000  H
  H249     1.0000 0.16738  0.80378  0.09188  Biso   1.000  H
  H250     1.0000 0.11958  0.71808  0.05108  Biso   1.000  H
  H251     1.0000 0.10548  0.78351  0.09620  Biso   1.000  H
  H252     1.0000 0.95641  0.49626  0.87139  Biso   1.000  H
  H253     1.0000 0.99522  0.58380  0.91801  Biso   1.000  H
  H254     1.0000 0.02574  0.51678  0.88560  Biso   1.000  H
  C211     1.0000 0.57943  0.55557  0.28908  Biso   1.000  C
  C212     1.0000 0.54615  0.55048  0.32004  Biso   1.000  C
  C213     1.0000 0.59473  0.65257  0.27367  Biso   1.000  C
  H255     1.0000 0.59190  0.49157  0.27821  Biso   1.000  H
  O31      1.0000 0.53044  0.45627  0.33729  Biso   1.000  O
  C214     1.0000 0.52480  0.64287  0.33387  Biso   1.000  C
  C215     1.0000 0.63209  0.65591  0.24074  Biso   1.000  C
  C216     1.0000 0.57607  0.74511  0.28994  Biso   1.000  C
  C217     1.0000 0.55813  0.36071  0.33083  Biso   1.000  C
  C218     1.0000 0.54086  0.74026  0.31905  Biso   1.000  C
  C219     1.0000 0.48636  0.63961  0.36546  Biso   1.000  C
  C220     1.0000 0.70015  0.65328  0.28060  Biso   1.000  C
  H256     1.0000 0.62219  0.72158  0.21741  Biso   1.000  H
  H257     1.0000 0.62121  0.59437  0.21441  Biso   1.000  H
  O32      1.0000 0.59388  0.83996  0.27530  Biso   1.000  O
  C221     1.0000 0.53885  0.27230  0.35797  Biso   1.000  C
  H258     1.0000 0.60282  0.36786  0.34992  Biso   1.000  H
  H259     1.0000 0.54478  0.34552  0.28968  Biso   1.000  H
  H260     1.0000 0.52751  0.80426  0.32898  Biso   1.000  H
  H261     1.0000 0.46302  0.57243  0.35591  Biso   1.000  H
  H262     1.0000 0.45699  0.69900  0.35202  Biso   1.000  H
  C222     1.0000 0.52294  0.64732  0.42986  Biso   1.000  C
  C223     1.0000 0.72917  0.74734  0.30629  Biso   1.000  C
  C224     1.0000 0.73332  0.55987  0.28977  Biso   1.000  C
  C225     1.0000 0.58466  0.93528  0.29940  Biso   1.000  C
  H263     1.0000 0.49450  0.26682  0.33909  Biso   1.000  H
  H264     1.0000 0.55300  0.28757  0.39869  Biso   1.000  H
  H265     1.0000 0.55639  0.20512  0.35369  Biso   1.000  H
  C226     1.0000 0.54543  0.55526  0.46209  Biso   1.000  C
  C227     1.0000 0.53323  0.74368  0.45824  Biso   1.000  C
  H266     1.0000 0.70648  0.81110  0.30009  Biso   1.000  H
  C228     1.0000 0.79140  0.74797  0.34114  Biso   1.000  C
  O33      1.0000 0.70091  0.46971  0.26369  Biso   1.000  O
  C229     1.0000 0.79554  0.56050  0.32462  Biso   1.000  C
  H267     1.0000 0.60289  0.92908  0.34161  Biso   1.000  H
  H268     1.0000 0.54072  0.94936  0.28471  Biso   1.000  H
  C230     1.0000 0.61436  0.02449  0.28275  Biso   1.000  C
  H269     1.0000 0.53989  0.48879  0.44308  Biso   1.000  H
  C231     1.0000 0.57575  0.55891  0.52156  Biso   1.000  C
  O34      1.0000 0.51316  0.83249  0.42318  Biso   1.000  O
  C232     1.0000 0.56148  0.74742  0.51780  Biso   1.000  C
  O35      1.0000 0.82304  0.83781  0.36756  Biso   1.000  O
  C233     1.0000 0.82457  0.65456  0.35031  Biso   1.000  C
  C234     1.0000 0.71971  0.37446  0.28279  Biso   1.000  C
  H270     1.0000 0.81817  0.49666  0.33078  Biso   1.000  H
  H271     1.0000 0.59720  0.02806  0.24092  Biso   1.000  H
  H272     1.0000 0.65811  0.01161  0.29910  Biso   1.000  H
  H273     1.0000 0.60709  0.09199  0.29739  Biso   1.000  H
  O36      1.0000 0.59925  0.47011  0.55526  Biso   1.000  O
  C235     1.0000 0.58222  0.65495  0.55021  Biso   1.000  C
  C236     1.0000 0.51651  0.93067  0.44822  Biso   1.000  C
  H274     1.0000 0.56668  0.81388  0.53659  Biso   1.000  H
  C237     1.0000 0.78783  0.93131  0.36032  Biso   1.000  C
  C238     1.0000 0.89375  0.65750  0.38503  Biso   1.000  C
  H275     1.0000 0.73001  0.37097  0.32402  Biso   1.000  H
  H276     1.0000 0.75700  0.35880  0.27881  Biso   1.000  H
  C239     1.0000 0.67199  0.29249  0.25051  Biso   1.000  C
  C240     1.0000 0.59349  0.37200  0.52589  Biso   1.000  C
  C241     1.0000 0.60627  0.65750  0.61498  Biso   1.000  C
  H277     1.0000 0.55863  0.94482  0.47742  Biso   1.000  H
  H278     1.0000 0.48972  0.93218  0.46732  Biso   1.000  H
  C242     1.0000 0.49673  0.01415  0.40173  Biso   1.000  C
  H279     1.0000 0.75829  0.91986  0.37578  Biso   1.000  H
  H280     1.0000 0.76520  0.94896  0.31909  Biso   1.000  H
  C243     1.0000 0.83013  0.01996  0.39171  Biso   1.000  C
  H281     1.0000 0.91089  0.59612  0.37351  Biso   1.000  H
  H282     1.0000 0.90891  0.72285  0.37471  Biso   1.000  H
  C244     1.0000 0.91777  0.65495  0.44976  Biso   1.000  C
  H283     1.0000 0.66160  0.29639  0.20970  Biso   1.000  H
  H284     1.0000 0.63569  0.30641  0.25582  Biso   1.000  H
  H285     1.0000 0.68772  0.22150  0.26511  Biso   1.000  H
  H286     1.0000 0.61279  0.37756  0.49998  Biso   1.000  H
  H287     1.0000 0.55008  0.35427  0.50260  Biso   1.000  H
  C245     1.0000 0.62420  0.28693  0.57016  Biso   1.000  C
  H288     1.0000 0.58908  0.59612  0.62650  Biso   1.000  H
  H289     1.0000 0.59111  0.72285  0.62530  Biso   1.000  H
  C246     1.0000 0.67541  0.65456  0.64971  Biso   1.000  C
  H290     1.0000 0.45640  0.99626  0.37141  Biso   1.000  H
  H291     1.0000 0.52570  0.01678  0.38559  Biso   1.000  H
  H292     1.0000 0.49518  0.08380  0.41800  Biso   1.000  H
  H293     1.0000 0.85559  0.99849  0.43140  Biso   1.000  H
  H294     1.0000 0.85577  0.03649  0.37308  Biso   1.000  H
  H295     1.0000 0.80658  0.08308  0.39119  Biso   1.000  H
  C247     1.0000 0.92422  0.55891  0.47845  Biso   1.000  C
  C248     1.0000 0.93854  0.74742  0.48222  Biso   1.000  C
  H296     1.0000 0.61961  0.21808  0.55110  Biso   1.000  H
  H297     1.0000 0.60548  0.28351  0.59619  Biso   1.000  H
  H298     1.0000 0.66740  0.30378  0.59191  Biso   1.000  H
  C249     1.0000 0.70447  0.56050  0.67539  Biso   1.000  C
  C250     1.0000 0.70861  0.74797  0.65887  Biso   1.000  C
  O37      1.0000 0.90076  0.47011  0.44475  Biso   1.000  O
  C251     1.0000 0.95456  0.55526  0.53788  Biso   1.000  C
  H299     1.0000 0.93330  0.81388  0.46342  Biso   1.000  H
  C252     1.0000 0.96679  0.74368  0.54177  Biso   1.000  C
  C253     1.0000 0.76670  0.55987  0.71025  Biso   1.000  C
  H300     1.0000 0.68178  0.49666  0.66919  Biso   1.000  H
  O38      1.0000 0.67698  0.83781  0.63245  Biso   1.000  O
  C254     1.0000 0.77082  0.74734  0.69368  Biso   1.000  C
  C255     1.0000 0.90653  0.37200  0.47412  Biso   1.000  C
  C256     1.0000 0.97703  0.64732  0.57016  Biso   1.000  C
  H301     1.0000 0.96011  0.48879  0.55688  Biso   1.000  H
  O39      1.0000 0.98685  0.83249  0.57684  Biso   1.000  O
  O40      1.0000 0.79908  0.46971  0.73628  Biso   1.000  O
  C257     1.0000 0.79984  0.65328  0.71936  Biso   1.000  C
  C258     1.0000 0.71219  0.93131  0.63969  Biso   1.000  C
  H302     1.0000 0.79351  0.81110  0.69988  Biso   1.000  H
  H303     1.0000 0.88720  0.37756  0.49998  Biso   1.000  H
  H304     1.0000 0.94989  0.35427  0.49742  Biso   1.000  H
  C259     1.0000 0.87581  0.28693  0.42986  Biso   1.000  C
  C260     1.0000 0.01362  0.63961  0.63455  Biso   1.000  C
  C261     1.0000 0.98350  0.93067  0.55179  Biso   1.000  C
  C262     1.0000 0.78031  0.37446  0.71722  Biso   1.000  C
  C263     1.0000 0.86792  0.65591  0.75927  Biso   1.000  C
  H305     1.0000 0.74170  0.91986  0.62419  Biso   1.000  H
  H306     1.0000 0.73481  0.94896  0.68092  Biso   1.000  H
  C264     1.0000 0.66988  0.01996  0.60830  Biso   1.000  C
  H307     1.0000 0.88040  0.21808  0.44891  Biso   1.000  H
  H308     1.0000 0.89447  0.28351  0.40378  Biso   1.000  H
  H309     1.0000 0.83261  0.30378  0.40811  Biso   1.000  H
  C265     1.0000 0.97521  0.64287  0.66615  Biso   1.000  C
  H310     1.0000 0.03700  0.57243  0.64410  Biso   1.000  H
  H311     1.0000 0.04298  0.69900  0.64799  Biso   1.000  H
  H312     1.0000 0.94138  0.94482  0.52259  Biso   1.000  H
  H313     1.0000 0.01030  0.93218  0.53269  Biso   1.000  H
  C266     1.0000 0.00328  0.01415  0.59829  Biso   1.000  C
  H314     1.0000 0.77000  0.37097  0.67599  Biso   1.000  H
  H315     1.0000 0.74301  0.35880  0.72121  Biso   1.000  H
  C267     1.0000 0.82802  0.29249  0.74951  Biso   1.000  C
  H316     1.0000 0.87779  0.72158  0.78260  Biso   1.000  H
  H317     1.0000 0.87881  0.59437  0.78560  Biso   1.000  H
  C268     1.0000 0.90529  0.65257  0.72634  Biso   1.000  C
  H318     1.0000 0.64442  0.99849  0.56862  Biso   1.000  H
  H319     1.0000 0.64418  0.03649  0.62689  Biso   1.000  H
  H320     1.0000 0.69339  0.08308  0.60882  Biso   1.000  H
  C269     1.0000 0.95380  0.55048  0.67993  Biso   1.000  C
  C270     1.0000 0.95915  0.74026  0.68096  Biso   1.000  C
  H321     1.0000 0.97429  0.01678  0.61438  Biso   1.000  H
  H322     1.0000 0.04362  0.99626  0.62860  Biso   1.000  H
  H323     1.0000 0.00479  0.08380  0.58202  Biso   1.000  H
  H324     1.0000 0.83841  0.29639  0.79031  Biso   1.000  H
  H325     1.0000 0.86429  0.30641  0.74420  Biso   1.000  H
  H326     1.0000 0.81229  0.22150  0.73491  Biso   1.000  H
  C271     1.0000 0.92058  0.55557  0.71093  Biso   1.000  C
  C272     1.0000 0.92394  0.74511  0.71007  Biso   1.000  C
  O41      1.0000 0.96957  0.45627  0.66272  Biso   1.000  O
  H327     1.0000 0.97248  0.80426  0.67098  Biso   1.000  H
  H328     1.0000 0.90812  0.49157  0.72181  Biso   1.000  H
  O42      1.0000 0.90614  0.83996  0.72472  Biso   1.000  O
  C273     1.0000 0.94184  0.36071  0.66919  Biso   1.000  C
  C274     1.0000 0.91531  0.93528  0.70061  Biso   1.000  C
  H329     1.0000 0.89719  0.36786  0.65009  Biso   1.000  H
  H330     1.0000 0.95521  0.34552  0.71029  Biso   1.000  H
  C275     1.0000 0.96117  0.27230  0.64204  Biso   1.000  C
  H331     1.0000 0.89708  0.92908  0.65840  Biso   1.000  H
  H332     1.0000 0.95929  0.94936  0.71530  Biso   1.000  H
  C276     1.0000 0.88566  0.02449  0.71727  Biso   1.000  C
  H333     1.0000 0.94699  0.28757  0.60128  Biso   1.000  H
  H334     1.0000 0.94363  0.20512  0.64632  Biso   1.000  H
  H335     1.0000 0.00552  0.26682  0.66092  Biso   1.000  H
  H336     1.0000 0.90281  0.02806  0.75910  Biso   1.000  H
  H337     1.0000 0.84190  0.01161  0.70091  Biso   1.000  H
  H338     1.0000 0.89293  0.09199  0.70262  Biso   1.000  H
  C277     1.0000 0.66990  0.47997  0.10832  Biso   1.000  C
  C278     1.0000 0.71216  0.56869  0.13970  Biso   1.000  C
  H339     1.0000 0.64419  0.46351  0.12690  Biso   1.000  H
  H340     1.0000 0.64438  0.50151  0.06859  Biso   1.000  H
  H341     1.0000 0.69338  0.41692  0.10879  Biso   1.000  H
  O43      1.0000 0.67699  0.66219  0.13247  Biso   1.000  O
  H342     1.0000 0.74168  0.58006  0.12420  Biso   1.000  H
  H343     1.0000 0.73481  0.55096  0.18089  Biso   1.000  H
  H344     1.0000 0.73477  0.55096  0.18089  Biso   1.000  H
  C279     1.0000 0.66988  0.47997  0.10828  Biso   1.000  C
  C280     1.0000 0.70861  0.75203  0.15884  Biso   1.000  C
  C281     1.0000 0.70857  0.75203  0.15884  Biso   1.000  C
  C282     1.0000 0.77084  0.75266  0.19369  Biso   1.000  C
  C283     1.0000 0.67542  0.84544  0.14972  Biso   1.000  C
  C284     1.0000 0.77080  0.75266  0.19369  Biso   1.000  C
  H345     1.0000 0.79348  0.68890  0.19990  Biso   1.000  H
  C285     1.0000 0.79986  0.84672  0.21938  Biso   1.000  C
  C286     1.0000 0.60626  0.84250  0.11496  Biso   1.000  C
  C287     1.0000 0.70444  0.93950  0.17541  Biso   1.000  C
  C288     1.0000 0.76667  0.94013  0.21026  Biso   1.000  C
  C289     1.0000 0.86789  0.84409  0.25928  Biso   1.000  C
  C290     1.0000 0.76665  0.94013  0.21022  Biso   1.000  C
  H346     1.0000 0.58910  0.90388  0.12652  Biso   1.000  H
  H347     1.0000 0.59112  0.77707  0.12532  Biso   1.000  H
  C291     1.0000 0.58220  0.84497  0.05022  Biso   1.000  C
  H348     1.0000 0.58908  0.90388  0.12647  Biso   1.000  H
  H349     1.0000 0.59106  0.77707  0.12527  Biso   1.000  H
  H350     1.0000 0.68180  0.00326  0.16920  Biso   1.000  H
  O44      1.0000 0.79906  0.03021  0.23629  Biso   1.000  O
  H351     1.0000 0.87780  0.77842  0.28262  Biso   1.000  H
  H352     1.0000 0.87882  0.90555  0.28561  Biso   1.000  H
  C292     1.0000 0.90524  0.84735  0.22632  Biso   1.000  C
  H353     1.0000 0.87778  0.77842  0.28257  Biso   1.000  H
  H354     1.0000 0.87878  0.90555  0.28561  Biso   1.000  H
  C293     1.0000 0.57576  0.94109  0.02158  Biso   1.000  C
  C294     1.0000 0.56149  0.75258  0.01781  Biso   1.000  C
  C295     1.0000 0.56145  0.75258  0.01781  Biso   1.000  C
  C296     1.0000 0.78030  0.12546  0.21720  Biso   1.000  C
  C297     1.0000 0.78026  0.12546  0.21720  Biso   1.000  C
  C298     1.0000 0.92057  0.94435  0.21090  Biso   1.000  C
  C299     1.0000 0.92396  0.75489  0.21009  Biso   1.000  C
  C300     1.0000 0.92394  0.75489  0.21005  Biso   1.000  C
  C301     1.0000 0.54549  0.94467  0.96211  Biso   1.000  C
  C302     1.0000 0.54545  0.94467  0.96211  Biso   1.000  C
  O45      1.0000 0.59925  0.02989  0.05523  Biso   1.000  O
  O46      1.0000 0.59921  0.02989  0.05523  Biso   1.000  O
  H355     1.0000 0.56669  0.68612  0.03661  Biso   1.000  H
  C303     1.0000 0.53328  0.75632  0.95826  Biso   1.000  C
  C304     1.0000 0.53324  0.75632  0.95826  Biso   1.000  C
  H356     1.0000 0.77002  0.12896  0.17601  Biso   1.000  H
  H357     1.0000 0.74302  0.14120  0.22122  Biso   1.000  H
  C305     1.0000 0.82800  0.20751  0.24952  Biso   1.000  C
  H358     1.0000 0.76997  0.12896  0.17601  Biso   1.000  H
  H359     1.0000 0.74296  0.14120  0.22118  Biso   1.000  H
  C306     1.0000 0.82798  0.20751  0.24948  Biso   1.000  C
  C307     1.0000 0.95381  0.94952  0.17995  Biso   1.000  C
  H360     1.0000 0.90809  0.00835  0.22182  Biso   1.000  H
  H361     1.0000 0.90807  0.00835  0.22178  Biso   1.000  H
  O47      1.0000 0.90613  0.65996  0.22469  Biso   1.000  O
  C308     1.0000 0.95916  0.75966  0.18098  Biso   1.000  C
  O48      1.0000 0.90609  0.65996  0.22469  Biso   1.000  O
  C309     1.0000 0.95910  0.75966  0.18093  Biso   1.000  C
  C310     1.0000 0.52300  0.85268  0.92987  Biso   1.000  C
  C311     1.0000 0.52298  0.85268  0.92983  Biso   1.000  C
  H362     1.0000 0.53994  0.01121  0.94310  Biso   1.000  H
  H363     1.0000 0.53990  0.01121  0.94310  Biso   1.000  H
  C312     1.0000 0.59348  0.12800  0.02586  Biso   1.000  C
  C313     1.0000 0.59344  0.12800  0.02586  Biso   1.000  C
  O49      1.0000 0.51322  0.66751  0.92319  Biso   1.000  O
  O50      1.0000 0.51318  0.66751  0.92319  Biso   1.000  O
  H364     1.0000 0.83840  0.20361  0.29028  Biso   1.000  H
  H365     1.0000 0.86430  0.19359  0.24421  Biso   1.000  H
  H366     1.0000 0.81231  0.27850  0.23492  Biso   1.000  H
  H367     1.0000 0.83836  0.20361  0.29028  Biso   1.000  H
  H368     1.0000 0.81229  0.27850  0.23488  Biso   1.000  H
  C314     1.0000 0.97523  0.85705  0.16616  Biso   1.000  C
  C315     1.0000 0.97521  0.85705  0.16612  Biso   1.000  C
  O51      1.0000 0.96957  0.04373  0.16269  Biso   1.000  O
  O52      1.0000 0.96953  0.04373  0.16269  Biso   1.000  O
  C316     1.0000 0.91533  0.56472  0.20063  Biso   1.000  C
  C317     1.0000 0.91531  0.56472  0.20058  Biso   1.000  C
  H369     1.0000 0.97250  0.69566  0.17100  Biso   1.000  H
  H370     1.0000 0.97246  0.69566  0.17100  Biso   1.000  H
  C318     1.0000 0.48639  0.86039  0.86543  Biso   1.000  C
  H371     1.0000 0.61281  0.12236  0.00000  Biso   1.000  H
  H372     1.0000 0.55010  0.14565  0.00261  Biso   1.000  H
  C319     1.0000 0.62420  0.21307  0.07013  Biso   1.000  C
  H373     1.0000 0.61277  0.12236  0.00000  Biso   1.000  H
  C320     1.0000 0.62416  0.21307  0.07013  Biso   1.000  C
  C321     1.0000 0.51657  0.56933  0.94824  Biso   1.000  C
  C322     1.0000 0.51650  0.56933  0.94819  Biso   1.000  C
  C323     1.0000 0.01363  0.86039  0.13457  Biso   1.000  C
  C324     1.0000 0.01365  0.86039  0.13452  Biso   1.000  C
  C325     1.0000 0.94186  0.13929  0.16920  Biso   1.000  C
  C326     1.0000 0.94184  0.13929  0.16916  Biso   1.000  C
  H374     1.0000 0.89710  0.57092  0.15841  Biso   1.000  H
  H375     1.0000 0.95930  0.55056  0.21531  Biso   1.000  H
  C327     1.0000 0.88567  0.47551  0.21728  Biso   1.000  C
  H376     1.0000 0.95926  0.55056  0.21531  Biso   1.000  H
  C328     1.0000 0.88561  0.47551  0.21724  Biso   1.000  C
  C329     1.0000 0.52479  0.85705  0.83384  Biso   1.000  C
  H377     1.0000 0.46301  0.92757  0.85589  Biso   1.000  H
  H378     1.0000 0.45702  0.80100  0.85199  Biso   1.000  H
  H379     1.0000 0.61962  0.28184  0.05112  Biso   1.000  H
  H380     1.0000 0.60550  0.21649  0.09620  Biso   1.000  H
  H381     1.0000 0.66740  0.19622  0.09188  Biso   1.000  H
  H382     1.0000 0.61956  0.28184  0.05108  Biso   1.000  H
  H383     1.0000 0.66735  0.19622  0.09188  Biso   1.000  H
  H384     1.0000 0.55862  0.55518  0.97739  Biso   1.000  H
  H385     1.0000 0.48975  0.56782  0.96729  Biso   1.000  H
  C330     1.0000 0.49677  0.48577  0.90170  Biso   1.000  C
  H386     1.0000 0.48971  0.56782  0.96729  Biso   1.000  H
  C331     1.0000 0.97702  0.85268  0.07013  Biso   1.000  C
  H387     1.0000 0.03701  0.92757  0.14411  Biso   1.000  H
  H388     1.0000 0.04300  0.80100  0.14801  Biso   1.000  H
  H389     1.0000 0.04304  0.80100  0.14801  Biso   1.000  H
  H390     1.0000 0.89720  0.13206  0.15011  Biso   1.000  H
  H391     1.0000 0.95518  0.15448  0.21030  Biso   1.000  H
  C332     1.0000 0.96116  0.22770  0.14201  Biso   1.000  C
  H392     1.0000 0.89716  0.13206  0.15011  Biso   1.000  H
  C333     1.0000 0.96112  0.22770  0.14201  Biso   1.000  C
  H393     1.0000 0.90279  0.47186  0.25911  Biso   1.000  H
  H394     1.0000 0.84189  0.48839  0.20088  Biso   1.000  H
  H395     1.0000 0.89288  0.40801  0.20260  Biso   1.000  H
  H396     1.0000 0.84185  0.48839  0.20088  Biso   1.000  H
  C334     1.0000 0.54621  0.94952  0.82005  Biso   1.000  C
  C335     1.0000 0.54086  0.75966  0.81902  Biso   1.000  C
  H397     1.0000 0.45643  0.50366  0.87139  Biso   1.000  H
  H398     1.0000 0.52572  0.48322  0.88560  Biso   1.000  H
  H399     1.0000 0.49524  0.41620  0.91801  Biso   1.000  H
  C336     1.0000 0.95458  0.94467  0.03789  Biso   1.000  C
  C337     1.0000 0.96674  0.75632  0.04174  Biso   1.000  C
  C338     1.0000 0.95453  0.94467  0.03789  Biso   1.000  C
  H400     1.0000 0.94701  0.21235  0.10130  Biso   1.000  H
  H401     1.0000 0.94358  0.29488  0.14630  Biso   1.000  H
  H402     1.0000 0.94697  0.21235  0.10130  Biso   1.000  H
  H403     1.0000 0.00551  0.23318  0.16090  Biso   1.000  H
  C339     1.0000 0.57945  0.94435  0.78910  Biso   1.000  C
  O53      1.0000 0.53045  0.04373  0.83731  Biso   1.000  O
  H404     1.0000 0.52752  0.69566  0.82900  Biso   1.000  H
  C340     1.0000 0.57606  0.75489  0.78991  Biso   1.000  C
  C341     1.0000 0.92426  0.94109  0.97842  Biso   1.000  C
  H405     1.0000 0.96008  0.01121  0.05690  Biso   1.000  H
  O54      1.0000 0.98684  0.66751  0.07681  Biso   1.000  O
  O55      1.0000 0.98680  0.66751  0.07681  Biso   1.000  O
  C342     1.0000 0.93853  0.75258  0.98219  Biso   1.000  C
  C343     1.0000 0.59478  0.84735  0.77368  Biso   1.000  C
  C344     1.0000 0.59474  0.84735  0.77368  Biso   1.000  C
  H406     1.0000 0.59193  0.00835  0.77818  Biso   1.000  H
  H407     1.0000 0.59189  0.00835  0.77818  Biso   1.000  H
  C345     1.0000 0.55816  0.13929  0.83080  Biso   1.000  C
  O56      1.0000 0.59389  0.65996  0.77531  Biso   1.000  O
  C346     1.0000 0.91782  0.84497  0.94978  Biso   1.000  C
  O57      1.0000 0.90077  0.02989  0.94477  Biso   1.000  O
  C347     1.0000 0.98345  0.56933  0.05176  Biso   1.000  C
  H408     1.0000 0.93333  0.68612  0.96339  Biso   1.000  H
  C348     1.0000 0.63213  0.84409  0.74072  Biso   1.000  C
  C349     1.0000 0.63209  0.84409  0.74072  Biso   1.000  C
  H409     1.0000 0.60282  0.13206  0.84989  Biso   1.000  H
  H410     1.0000 0.54484  0.15448  0.78970  Biso   1.000  H
  C350     1.0000 0.53890  0.22770  0.85799  Biso   1.000  C
  H411     1.0000 0.54480  0.15448  0.78970  Biso   1.000  H
  C351     1.0000 0.53884  0.22770  0.85794  Biso   1.000  C
  C352     1.0000 0.58469  0.56472  0.79937  Biso   1.000  C
  C353     1.0000 0.89376  0.84250  0.88504  Biso   1.000  C
  C354     1.0000 0.89374  0.84250  0.88500  Biso   1.000  C
  C355     1.0000 0.90654  0.12800  0.97414  Biso   1.000  C
  H412     1.0000 0.94140  0.55518  0.02261  Biso   1.000  H
  H413     1.0000 0.01031  0.56782  0.03271  Biso   1.000  H
  C356     1.0000 0.00325  0.48577  0.09830  Biso   1.000  C
  C357     1.0000 0.00327  0.48577  0.09826  Biso   1.000  C
  C358     1.0000 0.70016  0.84672  0.78062  Biso   1.000  C
  H414     1.0000 0.62222  0.77842  0.71738  Biso   1.000  H
  H415     1.0000 0.62124  0.90555  0.71439  Biso   1.000  H
  H416     1.0000 0.62120  0.90555  0.71439  Biso   1.000  H
  H417     1.0000 0.49455  0.23318  0.83910  Biso   1.000  H
  H418     1.0000 0.55305  0.21235  0.89870  Biso   1.000  H
  H419     1.0000 0.55644  0.29488  0.85370  Biso   1.000  H
  H420     1.0000 0.49451  0.23318  0.83910  Biso   1.000  H
  H421     1.0000 0.55301  0.21235  0.89870  Biso   1.000  H
  H422     1.0000 0.55640  0.29488  0.85370  Biso   1.000  H
  H423     1.0000 0.60292  0.57092  0.84159  Biso   1.000  H
  H424     1.0000 0.54072  0.55056  0.78469  Biso   1.000  H
  C359     1.0000 0.61435  0.47551  0.78272  Biso   1.000  C
  H425     1.0000 0.91092  0.90388  0.87348  Biso   1.000  H
  H426     1.0000 0.90894  0.77707  0.87468  Biso   1.000  H
  C360     1.0000 0.82460  0.84544  0.85028  Biso   1.000  C
  H427     1.0000 0.90890  0.77707  0.87468  Biso   1.000  H
  H428     1.0000 0.94992  0.14565  0.99739  Biso   1.000  H
  C361     1.0000 0.87586  0.21307  0.92987  Biso   1.000  C
  C362     1.0000 0.87582  0.21307  0.92987  Biso   1.000  C
  H429     1.0000 0.88717  0.12236  0.00000  Biso   1.000  H
  H430     1.0000 0.97430  0.48322  0.11440  Biso   1.000  H
  H431     1.0000 0.97426  0.48322  0.11440  Biso   1.000  H
  H432     1.0000 0.04359  0.50366  0.12861  Biso   1.000  H
  H433     1.0000 0.00478  0.41620  0.08199  Biso   1.000  H
  H434     1.0000 0.04363  0.50366  0.12861  Biso   1.000  H
  H435     1.0000 0.00482  0.41620  0.08199  Biso   1.000  H
  C363     1.0000 0.72918  0.75266  0.80631  Biso   1.000  C
  C364     1.0000 0.73335  0.94013  0.78974  Biso   1.000  C
  C365     1.0000 0.73331  0.94013  0.78974  Biso   1.000  C
  H436     1.0000 0.59724  0.47186  0.74089  Biso   1.000  H
  H437     1.0000 0.65813  0.48839  0.79912  Biso   1.000  H
  H438     1.0000 0.60714  0.40801  0.79740  Biso   1.000  H
  H439     1.0000 0.59719  0.47186  0.74089  Biso   1.000  H
  H440     1.0000 0.65811  0.48839  0.79907  Biso   1.000  H
  H441     1.0000 0.60710  0.40801  0.79740  Biso   1.000  H
  C366     1.0000 0.79558  0.93950  0.82459  Biso   1.000  C
  C367     1.0000 0.79145  0.75203  0.84116  Biso   1.000  C
  C368     1.0000 0.79554  0.93950  0.82459  Biso   1.000  C
  C369     1.0000 0.79141  0.75203  0.84116  Biso   1.000  C
  H442     1.0000 0.88044  0.28184  0.94888  Biso   1.000  H
  H443     1.0000 0.89452  0.21649  0.90380  Biso   1.000  H
  H444     1.0000 0.83262  0.19622  0.90812  Biso   1.000  H
  H445     1.0000 0.88040  0.28184  0.94888  Biso   1.000  H
  H446     1.0000 0.83260  0.19622  0.90808  Biso   1.000  H
  H447     1.0000 0.70654  0.68890  0.80010  Biso   1.000  H
  H448     1.0000 0.70650  0.68890  0.80010  Biso   1.000  H
  O58      1.0000 0.70096  0.03021  0.76371  Biso   1.000  O
  O59      1.0000 0.70092  0.03021  0.76371  Biso   1.000  O
  H449     1.0000 0.81822  0.00326  0.83080  Biso   1.000  H
  O60      1.0000 0.82303  0.66219  0.86753  Biso   1.000  O
  C370     1.0000 0.71972  0.12546  0.78280  Biso   1.000  C
  C371     1.0000 0.78786  0.56869  0.86030  Biso   1.000  C
  C372     1.0000 0.78782  0.56869  0.86030  Biso   1.000  C
  H450     1.0000 0.73005  0.12896  0.82399  Biso   1.000  H
  H451     1.0000 0.75704  0.14120  0.77878  Biso   1.000  H
  C373     1.0000 0.67202  0.20751  0.75048  Biso   1.000  C
  H452     1.0000 0.73001  0.12896  0.82399  Biso   1.000  H
  H453     1.0000 0.75700  0.14120  0.77878  Biso   1.000  H
  H454     1.0000 0.75834  0.58006  0.87580  Biso   1.000  H
  H455     1.0000 0.76525  0.55096  0.81911  Biso   1.000  H
  C374     1.0000 0.83012  0.47997  0.89168  Biso   1.000  C
  H456     1.0000 0.75830  0.58006  0.87580  Biso   1.000  H
  H457     1.0000 0.76521  0.55096  0.81911  Biso   1.000  H
  H458     1.0000 0.66166  0.20361  0.70972  Biso   1.000  H
  H459     1.0000 0.63572  0.19359  0.75579  Biso   1.000  H
  H460     1.0000 0.68771  0.27850  0.76508  Biso   1.000  H
  H461     1.0000 0.66160  0.20361  0.70968  Biso   1.000  H
  H462     1.0000 0.85583  0.46351  0.87310  Biso   1.000  H
  H463     1.0000 0.85564  0.50151  0.93141  Biso   1.000  H
  H464     1.0000 0.80664  0.41692  0.89121  Biso   1.000  H
  H465     1.0000 0.85560  0.50151  0.93141  Biso   1.000  H
  C375     1.0000 0.66990  0.47997  0.10832  Biso   1.000  C
  C376     1.0000 0.71216  0.56869  0.13970  Biso   1.000  C
  H466     1.0000 0.64419  0.46351  0.12690  Biso   1.000  H
  H467     1.0000 0.64438  0.50151  0.06859  Biso   1.000  H
  H468     1.0000 0.69338  0.41692  0.10879  Biso   1.000  H
  O61      1.0000 0.67699  0.66219  0.13247  Biso   1.000  O
  H469     1.0000 0.74168  0.58006  0.12420  Biso   1.000  H
  H470     1.0000 0.73481  0.55096  0.18089  Biso   1.000  H
  H471     1.0000 0.73477  0.55096  0.18089  Biso   1.000  H
  C377     1.0000 0.66988  0.47997  0.10828  Biso   1.000  C
  C378     1.0000 0.70861  0.75203  0.15884  Biso   1.000  C
  C379     1.0000 0.70857  0.75203  0.15884  Biso   1.000  C
  C380     1.0000 0.67542  0.84544  0.14972  Biso   1.000  C
  C381     1.0000 0.77084  0.75266  0.19369  Biso   1.000  C
  C382     1.0000 0.77080  0.75266  0.19369  Biso   1.000  C
  C383     1.0000 0.60626  0.84250  0.11496  Biso   1.000  C
  C384     1.0000 0.70444  0.93950  0.17541  Biso   1.000  C
  C385     1.0000 0.79986  0.84672  0.21938  Biso   1.000  C
  H472     1.0000 0.79348  0.68890  0.19990  Biso   1.000  H
  C386     1.0000 0.58220  0.84497  0.05022  Biso   1.000  C
  H473     1.0000 0.58910  0.90388  0.12652  Biso   1.000  H
  H474     1.0000 0.59112  0.77707  0.12532  Biso   1.000  H
  H475     1.0000 0.58908  0.90388  0.12647  Biso   1.000  H
  H476     1.0000 0.59106  0.77707  0.12527  Biso   1.000  H
  C387     1.0000 0.76667  0.94013  0.21026  Biso   1.000  C
  C388     1.0000 0.76665  0.94013  0.21022  Biso   1.000  C
  H477     1.0000 0.68180  0.00326  0.16920  Biso   1.000  H
  C389     1.0000 0.86789  0.84409  0.25928  Biso   1.000  C
  C390     1.0000 0.57576  0.94109  0.02158  Biso   1.000  C
  C391     1.0000 0.56149  0.75258  0.01781  Biso   1.000  C
  C392     1.0000 0.56145  0.75258  0.01781  Biso   1.000  C
  O62      1.0000 0.79906  0.03021  0.23629  Biso   1.000  O
  C393     1.0000 0.90524  0.84735  0.22632  Biso   1.000  C
  H478     1.0000 0.87780  0.77842  0.28262  Biso   1.000  H
  H479     1.0000 0.87882  0.90555  0.28561  Biso   1.000  H
  H480     1.0000 0.87778  0.77842  0.28257  Biso   1.000  H
  H481     1.0000 0.87878  0.90555  0.28561  Biso   1.000  H
  C394     1.0000 0.54549  0.94467  0.96211  Biso   1.000  C
  C395     1.0000 0.54545  0.94467  0.96211  Biso   1.000  C
  O63      1.0000 0.59925  0.02989  0.05523  Biso   1.000  O
  O64      1.0000 0.59921  0.02989  0.05523  Biso   1.000  O
  H482     1.0000 0.56669  0.68612  0.03661  Biso   1.000  H
  C396     1.0000 0.53328  0.75632  0.95826  Biso   1.000  C
  C397     1.0000 0.53324  0.75632  0.95826  Biso   1.000  C
  C398     1.0000 0.78030  0.12546  0.21720  Biso   1.000  C
  C399     1.0000 0.78026  0.12546  0.21720  Biso   1.000  C
  C400     1.0000 0.92057  0.94435  0.21090  Biso   1.000  C
  C401     1.0000 0.92396  0.75489  0.21009  Biso   1.000  C
  C402     1.0000 0.92394  0.75489  0.21005  Biso   1.000  C
  C403     1.0000 0.52300  0.85268  0.92987  Biso   1.000  C
  C404     1.0000 0.52298  0.85268  0.92983  Biso   1.000  C
  H483     1.0000 0.53994  0.01121  0.94310  Biso   1.000  H
  H484     1.0000 0.53990  0.01121  0.94310  Biso   1.000  H
  C405     1.0000 0.59348  0.12800  0.02586  Biso   1.000  C
  C406     1.0000 0.59344  0.12800  0.02586  Biso   1.000  C
  O65      1.0000 0.51322  0.66751  0.92319  Biso   1.000  O
  O66      1.0000 0.51318  0.66751  0.92319  Biso   1.000  O
  H485     1.0000 0.77002  0.12896  0.17601  Biso   1.000  H
  H486     1.0000 0.74302  0.14120  0.22122  Biso   1.000  H
  C407     1.0000 0.82800  0.20751  0.24952  Biso   1.000  C
  H487     1.0000 0.76997  0.12896  0.17601  Biso   1.000  H
  H488     1.0000 0.74296  0.14120  0.22118  Biso   1.000  H
  C408     1.0000 0.82798  0.20751  0.24948  Biso   1.000  C
  C409     1.0000 0.95381  0.94952  0.17995  Biso   1.000  C
  H489     1.0000 0.90809  0.00835  0.22182  Biso   1.000  H
  H490     1.0000 0.90807  0.00835  0.22178  Biso   1.000  H
  O67      1.0000 0.90613  0.65996  0.22469  Biso   1.000  O
  C410     1.0000 0.95916  0.75966  0.18098  Biso   1.000  C
  O68      1.0000 0.90609  0.65996  0.22469  Biso   1.000  O
  C411     1.0000 0.95910  0.75966  0.18093  Biso   1.000  C
  C412     1.0000 0.48639  0.86039  0.86543  Biso   1.000  C
  H491     1.0000 0.61281  0.12236  0.00000  Biso   1.000  H
  H492     1.0000 0.55010  0.14565  0.00261  Biso   1.000  H
  C413     1.0000 0.62420  0.21307  0.07013  Biso   1.000  C
  H493     1.0000 0.61277  0.12236  0.00000  Biso   1.000  H
  C414     1.0000 0.62416  0.21307  0.07013  Biso   1.000  C
  C415     1.0000 0.51657  0.56933  0.94824  Biso   1.000  C
  C416     1.0000 0.51650  0.56933  0.94819  Biso   1.000  C
  H494     1.0000 0.83840  0.20361  0.29028  Biso   1.000  H
  H495     1.0000 0.86430  0.19359  0.24421  Biso   1.000  H
  H496     1.0000 0.81231  0.27850  0.23492  Biso   1.000  H
  H497     1.0000 0.83836  0.20361  0.29028  Biso   1.000  H
  H498     1.0000 0.81229  0.27850  0.23488  Biso   1.000  H
  C417     1.0000 0.97523  0.85705  0.16616  Biso   1.000  C
  C418     1.0000 0.97521  0.85705  0.16612  Biso   1.000  C
  O69      1.0000 0.96957  0.04373  0.16269  Biso   1.000  O
  O70      1.0000 0.96953  0.04373  0.16269  Biso   1.000  O
  C419     1.0000 0.91533  0.56472  0.20063  Biso   1.000  C
  C420     1.0000 0.91531  0.56472  0.20058  Biso   1.000  C
  H499     1.0000 0.97250  0.69566  0.17100  Biso   1.000  H
  H500     1.0000 0.97246  0.69566  0.17100  Biso   1.000  H
  C421     1.0000 0.52479  0.85705  0.83384  Biso   1.000  C
  H501     1.0000 0.46301  0.92757  0.85589  Biso   1.000  H
  H502     1.0000 0.45702  0.80100  0.85199  Biso   1.000  H
  H503     1.0000 0.61962  0.28184  0.05112  Biso   1.000  H
  H504     1.0000 0.60550  0.21649  0.09620  Biso   1.000  H
  H505     1.0000 0.66740  0.19622  0.09188  Biso   1.000  H
  H506     1.0000 0.61956  0.28184  0.05108  Biso   1.000  H
  H507     1.0000 0.66735  0.19622  0.09188  Biso   1.000  H
  H508     1.0000 0.55862  0.55518  0.97739  Biso   1.000  H
  H509     1.0000 0.48975  0.56782  0.96729  Biso   1.000  H
  C422     1.0000 0.49677  0.48577  0.90170  Biso   1.000  C
  H510     1.0000 0.48971  0.56782  0.96729  Biso   1.000  H
  C423     1.0000 0.01363  0.86039  0.13457  Biso   1.000  C
  C424     1.0000 0.01365  0.86039  0.13452  Biso   1.000  C
  C425     1.0000 0.94186  0.13929  0.16920  Biso   1.000  C
  C426     1.0000 0.94184  0.13929  0.16916  Biso   1.000  C
  H511     1.0000 0.89710  0.57092  0.15841  Biso   1.000  H
  H512     1.0000 0.95930  0.55056  0.21531  Biso   1.000  H
  C427     1.0000 0.88567  0.47551  0.21728  Biso   1.000  C
  H513     1.0000 0.95926  0.55056  0.21531  Biso   1.000  H
  C428     1.0000 0.88561  0.47551  0.21724  Biso   1.000  C
  C429     1.0000 0.54621  0.94952  0.82005  Biso   1.000  C
  C430     1.0000 0.54086  0.75966  0.81902  Biso   1.000  C
  H514     1.0000 0.45643  0.50366  0.87139  Biso   1.000  H
  H515     1.0000 0.52572  0.48322  0.88560  Biso   1.000  H
  H516     1.0000 0.49524  0.41620  0.91801  Biso   1.000  H
  C431     1.0000 0.97702  0.85268  0.07013  Biso   1.000  C
  H517     1.0000 0.03701  0.92757  0.14411  Biso   1.000  H
  H518     1.0000 0.04300  0.80100  0.14801  Biso   1.000  H
  H519     1.0000 0.04304  0.80100  0.14801  Biso   1.000  H
  H520     1.0000 0.89720  0.13206  0.15011  Biso   1.000  H
  H521     1.0000 0.95518  0.15448  0.21030  Biso   1.000  H
  C432     1.0000 0.96116  0.22770  0.14201  Biso   1.000  C
  H522     1.0000 0.89716  0.13206  0.15011  Biso   1.000  H
  C433     1.0000 0.96112  0.22770  0.14201  Biso   1.000  C
  H523     1.0000 0.90279  0.47186  0.25911  Biso   1.000  H
  H524     1.0000 0.89288  0.40801  0.20260  Biso   1.000  H
  H525     1.0000 0.84189  0.48839  0.20088  Biso   1.000  H
  H526     1.0000 0.84185  0.48839  0.20088  Biso   1.000  H
  C434     1.0000 0.57945  0.94435  0.78910  Biso   1.000  C
  O71      1.0000 0.53045  0.04373  0.83731  Biso   1.000  O
  H527     1.0000 0.52752  0.69566  0.82900  Biso   1.000  H
  C435     1.0000 0.57606  0.75489  0.78991  Biso   1.000  C
  C436     1.0000 0.96674  0.75632  0.04174  Biso   1.000  C
  C437     1.0000 0.95458  0.94467  0.03789  Biso   1.000  C
  C438     1.0000 0.95453  0.94467  0.03789  Biso   1.000  C
  H528     1.0000 0.94701  0.21235  0.10130  Biso   1.000  H
  H529     1.0000 0.94358  0.29488  0.14630  Biso   1.000  H
  H530     1.0000 0.94697  0.21235  0.10130  Biso   1.000  H
  H531     1.0000 0.00551  0.23318  0.16090  Biso   1.000  H
  C439     1.0000 0.59478  0.84735  0.77368  Biso   1.000  C
  C440     1.0000 0.59474  0.84735  0.77368  Biso   1.000  C
  H532     1.0000 0.59193  0.00835  0.77818  Biso   1.000  H
  H533     1.0000 0.59189  0.00835  0.77818  Biso   1.000  H
  C441     1.0000 0.55816  0.13929  0.83080  Biso   1.000  C
  O72      1.0000 0.59389  0.65996  0.77531  Biso   1.000  O
  C442     1.0000 0.93853  0.75258  0.98219  Biso   1.000  C
  O73      1.0000 0.98684  0.66751  0.07681  Biso   1.000  O
  O74      1.0000 0.98680  0.66751  0.07681  Biso   1.000  O
  C443     1.0000 0.92426  0.94109  0.97842  Biso   1.000  C
  H534     1.0000 0.96008  0.01121  0.05690  Biso   1.000  H
  C444     1.0000 0.63213  0.84409  0.74072  Biso   1.000  C
  C445     1.0000 0.63209  0.84409  0.74072  Biso   1.000  C
  H535     1.0000 0.60282  0.13206  0.84989  Biso   1.000  H
  H536     1.0000 0.54484  0.15448  0.78970  Biso   1.000  H
  C446     1.0000 0.53890  0.22770  0.85799  Biso   1.000  C
  H537     1.0000 0.54480  0.15448  0.78970  Biso   1.000  H
  C447     1.0000 0.53884  0.22770  0.85794  Biso   1.000  C
  C448     1.0000 0.58469  0.56472  0.79937  Biso   1.000  C
  C449     1.0000 0.91782  0.84497  0.94978  Biso   1.000  C
  H538     1.0000 0.93333  0.68612  0.96339  Biso   1.000  H
  C450     1.0000 0.98345  0.56933  0.05176  Biso   1.000  C
  O75      1.0000 0.90077  0.02989  0.94477  Biso   1.000  O
  C451     1.0000 0.70016  0.84672  0.78062  Biso   1.000  C
  H539     1.0000 0.62222  0.77842  0.71738  Biso   1.000  H
  H540     1.0000 0.62124  0.90555  0.71439  Biso   1.000  H
  H541     1.0000 0.62120  0.90555  0.71439  Biso   1.000  H
  H542     1.0000 0.49455  0.23318  0.83910  Biso   1.000  H
  H543     1.0000 0.55305  0.21235  0.89870  Biso   1.000  H
  H544     1.0000 0.55644  0.29488  0.85370  Biso   1.000  H
  H545     1.0000 0.49451  0.23318  0.83910  Biso   1.000  H
  H546     1.0000 0.55301  0.21235  0.89870  Biso   1.000  H
  H547     1.0000 0.55640  0.29488  0.85370  Biso   1.000  H
  H548     1.0000 0.60292  0.57092  0.84159  Biso   1.000  H
  H549     1.0000 0.54072  0.55056  0.78469  Biso   1.000  H
  C452     1.0000 0.61435  0.47551  0.78272  Biso   1.000  C
  C453     1.0000 0.89376  0.84250  0.88504  Biso   1.000  C
  C454     1.0000 0.89374  0.84250  0.88500  Biso   1.000  C
  H550     1.0000 0.94140  0.55518  0.02261  Biso   1.000  H
  H551     1.0000 0.01031  0.56782  0.03271  Biso   1.000  H
  C455     1.0000 0.00325  0.48577  0.09830  Biso   1.000  C
  C456     1.0000 0.00327  0.48577  0.09826  Biso   1.000  C
  C457     1.0000 0.90654  0.12800  0.97414  Biso   1.000  C
  C458     1.0000 0.72918  0.75266  0.80631  Biso   1.000  C
  C459     1.0000 0.73335  0.94013  0.78974  Biso   1.000  C
  C460     1.0000 0.73331  0.94013  0.78974  Biso   1.000  C
  H552     1.0000 0.59724  0.47186  0.74089  Biso   1.000  H
  H553     1.0000 0.65813  0.48839  0.79912  Biso   1.000  H
  H554     1.0000 0.60714  0.40801  0.79740  Biso   1.000  H
  H555     1.0000 0.59719  0.47186  0.74089  Biso   1.000  H
  H556     1.0000 0.65811  0.48839  0.79907  Biso   1.000  H
  H557     1.0000 0.60710  0.40801  0.79740  Biso   1.000  H
  C461     1.0000 0.82460  0.84544  0.85028  Biso   1.000  C
  H558     1.0000 0.91092  0.90388  0.87348  Biso   1.000  H
  H559     1.0000 0.90894  0.77707  0.87468  Biso   1.000  H
  H560     1.0000 0.90890  0.77707  0.87468  Biso   1.000  H
  H561     1.0000 0.97430  0.48322  0.11440  Biso   1.000  H
  H562     1.0000 0.97426  0.48322  0.11440  Biso   1.000  H
  H563     1.0000 0.04359  0.50366  0.12861  Biso   1.000  H
  H564     1.0000 0.00478  0.41620  0.08199  Biso   1.000  H
  H565     1.0000 0.04363  0.50366  0.12861  Biso   1.000  H
  H566     1.0000 0.00482  0.41620  0.08199  Biso   1.000  H
  H567     1.0000 0.94992  0.14565  0.99739  Biso   1.000  H
  C462     1.0000 0.87586  0.21307  0.92987  Biso   1.000  C
  C463     1.0000 0.87582  0.21307  0.92987  Biso   1.000  C
  H568     1.0000 0.88717  0.12236  0.00000  Biso   1.000  H
  H569     1.0000 0.70654  0.68890  0.80010  Biso   1.000  H
  C464     1.0000 0.79145  0.75203  0.84116  Biso   1.000  C
  H570     1.0000 0.70650  0.68890  0.80010  Biso   1.000  H
  C465     1.0000 0.79141  0.75203  0.84116  Biso   1.000  C
  C466     1.0000 0.79558  0.93950  0.82459  Biso   1.000  C
  C467     1.0000 0.79554  0.93950  0.82459  Biso   1.000  C
  O76      1.0000 0.70096  0.03021  0.76371  Biso   1.000  O
  O77      1.0000 0.70092  0.03021  0.76371  Biso   1.000  O
  H571     1.0000 0.88044  0.28184  0.94888  Biso   1.000  H
  H572     1.0000 0.89452  0.21649  0.90380  Biso   1.000  H
  H573     1.0000 0.83262  0.19622  0.90812  Biso   1.000  H
  H574     1.0000 0.88040  0.28184  0.94888  Biso   1.000  H
  H575     1.0000 0.83260  0.19622  0.90808  Biso   1.000  H
  O78      1.0000 0.82303  0.66219  0.86753  Biso   1.000  O
  H576     1.0000 0.81822  0.00326  0.83080  Biso   1.000  H
  C468     1.0000 0.71972  0.12546  0.78280  Biso   1.000  C
  C469     1.0000 0.78786  0.56869  0.86030  Biso   1.000  C
  C470     1.0000 0.78782  0.56869  0.86030  Biso   1.000  C
  H577     1.0000 0.73005  0.12896  0.82399  Biso   1.000  H
  H578     1.0000 0.75704  0.14120  0.77878  Biso   1.000  H
  C471     1.0000 0.67202  0.20751  0.75048  Biso   1.000  C
  H579     1.0000 0.73001  0.12896  0.82399  Biso   1.000  H
  H580     1.0000 0.75700  0.14120  0.77878  Biso   1.000  H
  H581     1.0000 0.75834  0.58006  0.87580  Biso   1.000  H
  H582     1.0000 0.76525  0.55096  0.81911  Biso   1.000  H
  C472     1.0000 0.83012  0.47997  0.89168  Biso   1.000  C
  H583     1.0000 0.75830  0.58006  0.87580  Biso   1.000  H
  H584     1.0000 0.76521  0.55096  0.81911  Biso   1.000  H
  H585     1.0000 0.66166  0.20361  0.70972  Biso   1.000  H
  H586     1.0000 0.63572  0.19359  0.75579  Biso   1.000  H
  H587     1.0000 0.68771  0.27850  0.76508  Biso   1.000  H
  H588     1.0000 0.66160  0.20361  0.70968  Biso   1.000  H
  H589     1.0000 0.85583  0.46351  0.87310  Biso   1.000  H
  H590     1.0000 0.85564  0.50151  0.93141  Biso   1.000  H
  H591     1.0000 0.80664  0.41692  0.89121  Biso   1.000  H
  H592     1.0000 0.85560  0.50151  0.93141  Biso   1.000  H
  C473     1.0000 0.39373  0.34250  0.38503  Biso   1.000  C
  C474     1.0000 0.32459  0.34544  0.35031  Biso   1.000  C
  C475     1.0000 0.41779  0.34497  0.44976  Biso   1.000  C
  H593     1.0000 0.41091  0.40388  0.37351  Biso   1.000  H
  H594     1.0000 0.40893  0.27707  0.37471  Biso   1.000  H
  C476     1.0000 0.29138  0.25203  0.34114  Biso   1.000  C
  C477     1.0000 0.29556  0.43950  0.32462  Biso   1.000  C
  C478     1.0000 0.42424  0.44109  0.47845  Biso   1.000  C
  C479     1.0000 0.43852  0.25258  0.48222  Biso   1.000  C
  C480     1.0000 0.22915  0.25266  0.30629  Biso   1.000  C
  O79      1.0000 0.32302  0.16219  0.36756  Biso   1.000  O
  C481     1.0000 0.23334  0.44013  0.28977  Biso   1.000  C
  H595     1.0000 0.31819  0.50326  0.33078  Biso   1.000  H
  O80      1.0000 0.40074  0.52989  0.44475  Biso   1.000  O
  C482     1.0000 0.45458  0.44467  0.53788  Biso   1.000  C
  H596     1.0000 0.43332  0.18612  0.46342  Biso   1.000  H
  C483     1.0000 0.46677  0.25632  0.54177  Biso   1.000  C
  H597     1.0000 0.20650  0.18890  0.30009  Biso   1.000  H
  C484     1.0000 0.20013  0.34672  0.28060  Biso   1.000  C
  C485     1.0000 0.28785  0.06869  0.36032  Biso   1.000  C
  O81      1.0000 0.20093  0.53029  0.26369  Biso   1.000  O
  C486     1.0000 0.40651  0.62800  0.47412  Biso   1.000  C
  C487     1.0000 0.47705  0.35268  0.57016  Biso   1.000  C
  H598     1.0000 0.46009  0.51121  0.55688  Biso   1.000  H
  O82      1.0000 0.48687  0.16751  0.57684  Biso   1.000  O
  C488     1.0000 0.13211  0.34409  0.24074  Biso   1.000  C
  H599     1.0000 0.25831  0.08006  0.37578  Biso   1.000  H
  H600     1.0000 0.26518  0.05096  0.31909  Biso   1.000  H
  C489     1.0000 0.33011  0.97997  0.39171  Biso   1.000  C
  C490     1.0000 0.21969  0.62546  0.28279  Biso   1.000  C
  H601     1.0000 0.38718  0.62236  0.49998  Biso   1.000  H
  H602     1.0000 0.44991  0.64565  0.49742  Biso   1.000  H
  C491     1.0000 0.37579  0.71307  0.42986  Biso   1.000  C
  C492     1.0000 0.51364  0.36039  0.63455  Biso   1.000  C
  C493     1.0000 0.48348  0.06933  0.55179  Biso   1.000  C
  H603     1.0000 0.12221  0.27842  0.21741  Biso   1.000  H
  H604     1.0000 0.12123  0.40563  0.21441  Biso   1.000  H
  C494     1.0000 0.09475  0.34743  0.27367  Biso   1.000  C
  H605     1.0000 0.35561  0.00151  0.43140  Biso   1.000  H
  H606     1.0000 0.35579  0.96351  0.37308  Biso   1.000  H
  H607     1.0000 0.30660  0.91692  0.39119  Biso   1.000  H
  H608     1.0000 0.22999  0.62896  0.32402  Biso   1.000  H
  H609     1.0000 0.25698  0.64120  0.27881  Biso   1.000  H
  C495     1.0000 0.17201  0.70751  0.25051  Biso   1.000  C
  H610     1.0000 0.38042  0.78192  0.44891  Biso   1.000  H
  H611     1.0000 0.39449  0.71649  0.40378  Biso   1.000  H
  H612     1.0000 0.33259  0.69622  0.40811  Biso   1.000  H
  C496     1.0000 0.47523  0.35713  0.66615  Biso   1.000  C
  H613     1.0000 0.53702  0.42757  0.64410  Biso   1.000  H
  H614     1.0000 0.54300  0.30100  0.64799  Biso   1.000  H
  H615     1.0000 0.44140  0.05518  0.52259  Biso   1.000  H
  H616     1.0000 0.51032  0.06782  0.53269  Biso   1.000  H
  C497     1.0000 0.50326  0.98577  0.59829  Biso   1.000  C
  C498     1.0000 0.07941  0.44443  0.28908  Biso   1.000  C
  C499     1.0000 0.07605  0.25489  0.28994  Biso   1.000  C
  H617     1.0000 0.16158  0.70361  0.20970  Biso   1.000  H
  H618     1.0000 0.13571  0.69359  0.25582  Biso   1.000  H
  H619     1.0000 0.18770  0.77850  0.26511  Biso   1.000  H
  C500     1.0000 0.45382  0.44952  0.67993  Biso   1.000  C
  C501     1.0000 0.45917  0.25966  0.68096  Biso   1.000  C
  H620     1.0000 0.54360  0.00374  0.62860  Biso   1.000  H
  H621     1.0000 0.47431  0.98322  0.61438  Biso   1.000  H
  H622     1.0000 0.50481  0.91620  0.58202  Biso   1.000  H
  H623     1.0000 0.09192  0.50843  0.27821  Biso   1.000  H
  C502     1.0000 0.04617  0.44952  0.32004  Biso   1.000  C
  O83      1.0000 0.09386  0.16004  0.27530  Biso   1.000  O
  C503     1.0000 0.04084  0.25966  0.31905  Biso   1.000  C
  O84      1.0000 0.46959  0.54373  0.66272  Biso   1.000  O
  C504     1.0000 0.42060  0.44443  0.71093  Biso   1.000  C
  H624     1.0000 0.47251  0.19566  0.67098  Biso   1.000  H
  C505     1.0000 0.42396  0.25489  0.71007  Biso   1.000  C
  O85      1.0000 0.03042  0.54373  0.33729  Biso   1.000  O
  C506     1.0000 0.02478  0.35713  0.33387  Biso   1.000  C
  C507     1.0000 0.08468  0.06472  0.29940  Biso   1.000  C
  H625     1.0000 0.02749  0.19566  0.32898  Biso   1.000  H
  C508     1.0000 0.44186  0.63929  0.66919  Biso   1.000  C
  C509     1.0000 0.40527  0.34743  0.72634  Biso   1.000  C
  H626     1.0000 0.40810  0.50843  0.72181  Biso   1.000  H
  O86      1.0000 0.40616  0.16004  0.72472  Biso   1.000  O
  C510     1.0000 0.05815  0.63929  0.33083  Biso   1.000  C
  C511     1.0000 0.98638  0.36039  0.36546  Biso   1.000  C
  H627     1.0000 0.10291  0.07092  0.34161  Biso   1.000  H
  H628     1.0000 0.04070  0.05056  0.28471  Biso   1.000  H
  C512     1.0000 0.11434  0.97551  0.28275  Biso   1.000  C
  H629     1.0000 0.39721  0.63206  0.65009  Biso   1.000  H
  H630     1.0000 0.45519  0.65448  0.71029  Biso   1.000  H
  C513     1.0000 0.46119  0.72770  0.64204  Biso   1.000  C
  C514     1.0000 0.36790  0.34409  0.75927  Biso   1.000  C
  C515     1.0000 0.41533  0.06472  0.70061  Biso   1.000  C
  H631     1.0000 0.10280  0.63206  0.34992  Biso   1.000  H
  H632     1.0000 0.04480  0.65448  0.28968  Biso   1.000  H
  C516     1.0000 0.03883  0.72770  0.35797  Biso   1.000  C
  C517     1.0000 0.02296  0.35268  0.42986  Biso   1.000  C
  H633     1.0000 0.96300  0.42757  0.35591  Biso   1.000  H
  H634     1.0000 0.95701  0.30100  0.35202  Biso   1.000  H
  H635     1.0000 0.09722  0.97194  0.24092  Biso   1.000  H
  H636     1.0000 0.15809  0.98839  0.29910  Biso   1.000  H
  H637     1.0000 0.10711  0.90801  0.29739  Biso   1.000  H
  H638     1.0000 0.50550  0.73318  0.66092  Biso   1.000  H
  H639     1.0000 0.44701  0.71235  0.60128  Biso   1.000  H
  H640     1.0000 0.44361  0.79488  0.64632  Biso   1.000  H
  C518     1.0000 0.29986  0.34672  0.71936  Biso   1.000  C
  H641     1.0000 0.37781  0.27842  0.78260  Biso   1.000  H
  H642     1.0000 0.37879  0.40563  0.78560  Biso   1.000  H
  H643     1.0000 0.39710  0.07092  0.65840  Biso   1.000  H
  H644     1.0000 0.45931  0.05056  0.71530  Biso   1.000  H
  C519     1.0000 0.38568  0.97551  0.71727  Biso   1.000  C
  H645     1.0000 0.05298  0.71235  0.39869  Biso   1.000  H
  H646     1.0000 0.05641  0.79488  0.35369  Biso   1.000  H
  H647     1.0000 0.99452  0.73318  0.33909  Biso   1.000  H
  C520     1.0000 0.04541  0.44467  0.46209  Biso   1.000  C
  C521     1.0000 0.03325  0.25632  0.45824  Biso   1.000  C
  C522     1.0000 0.26668  0.44013  0.71025  Biso   1.000  C
  C523     1.0000 0.27084  0.25266  0.69368  Biso   1.000  C
  H648     1.0000 0.40279  0.97194  0.75910  Biso   1.000  H
  H649     1.0000 0.34192  0.98839  0.70091  Biso   1.000  H
  H650     1.0000 0.39291  0.90801  0.70262  Biso   1.000  H
  H651     1.0000 0.03991  0.51121  0.44308  Biso   1.000  H
  C524     1.0000 0.07577  0.44109  0.52156  Biso   1.000  C
  O87      1.0000 0.01314  0.16751  0.42318  Biso   1.000  O
  C525     1.0000 0.06150  0.25258  0.51780  Biso   1.000  C
  C526     1.0000 0.20445  0.43950  0.67539  Biso   1.000  C
  O88      1.0000 0.29906  0.53029  0.73628  Biso   1.000  O
  C527     1.0000 0.20859  0.25203  0.65887  Biso   1.000  C
  H652     1.0000 0.29349  0.18890  0.69988  Biso   1.000  H
  O89      1.0000 0.09927  0.52989  0.55526  Biso   1.000  O
  C528     1.0000 0.08220  0.34497  0.55021  Biso   1.000  C
  C529     1.0000 0.01653  0.06933  0.44822  Biso   1.000  C
  H653     1.0000 0.06670  0.18612  0.53659  Biso   1.000  H
  C530     1.0000 0.17543  0.34544  0.64971  Biso   1.000  C
  H654     1.0000 0.18180  0.50326  0.66919  Biso   1.000  H
  C531     1.0000 0.28033  0.62546  0.71722  Biso   1.000  C
  O90      1.0000 0.17700  0.16219  0.63245  Biso   1.000  O
  C532     1.0000 0.09351  0.62800  0.52589  Biso   1.000  C
  C533     1.0000 0.10629  0.34250  0.61498  Biso   1.000  C
  H655     1.0000 0.05861  0.05518  0.47742  Biso   1.000  H
  C534     1.0000 0.99675  0.98577  0.40173  Biso   1.000  C
  H656     1.0000 0.98970  0.06782  0.46732  Biso   1.000  H
  H657     1.0000 0.27002  0.62896  0.67599  Biso   1.000  H
  H658     1.0000 0.24299  0.64120  0.72121  Biso   1.000  H
  C535     1.0000 0.32800  0.70751  0.74951  Biso   1.000  C
  C536     1.0000 0.21217  0.06869  0.63969  Biso   1.000  C
  H659     1.0000 0.11281  0.62236  0.49998  Biso   1.000  H
  H660     1.0000 0.05010  0.64565  0.50260  Biso   1.000  H
  C537     1.0000 0.12422  0.71307  0.57016  Biso   1.000  C
  H661     1.0000 0.08910  0.40388  0.62650  Biso   1.000  H
  H662     1.0000 0.09109  0.27707  0.62530  Biso   1.000  H
  H663     1.0000 0.99520  0.91620  0.41800  Biso   1.000  H
  H664     1.0000 0.95642  0.00374  0.37141  Biso   1.000  H
  H665     1.0000 0.02568  0.98322  0.38559  Biso   1.000  H
  H666     1.0000 0.33843  0.70361  0.79031  Biso   1.000  H
  H667     1.0000 0.36431  0.69359  0.74420  Biso   1.000  H
  H668     1.0000 0.31231  0.77850  0.73491  Biso   1.000  H
  H669     1.0000 0.24168  0.08006  0.62419  Biso   1.000  H
  H670     1.0000 0.23483  0.05096  0.68092  Biso   1.000  H
  C538     1.0000 0.16990  0.97997  0.60830  Biso   1.000  C
  H671     1.0000 0.11959  0.78192  0.55110  Biso   1.000  H
  H672     1.0000 0.10550  0.71649  0.59619  Biso   1.000  H
  H673     1.0000 0.16742  0.69622  0.59191  Biso   1.000  H
  H674     1.0000 0.14440  0.00151  0.56862  Biso   1.000  H
  H675     1.0000 0.14420  0.96351  0.62689  Biso   1.000  H
  H676     1.0000 0.19341  0.91692  0.60882  Biso   1.000  H
