data_image0
_cell_length_a       37.756
_cell_length_b       11.914
_cell_length_c       27.853
_cell_angle_alpha    90
_cell_angle_beta     129.97
_cell_angle_gamma    90

_symmetry_space_group_name_H-M    "P 1"
_symmetry_int_tables_number       1

loop_
  _symmetry_equiv_pos_as_xyz
  'x, y, z'

loop_
  _atom_site_label
  _atom_site_occupancy
  _atom_site_fract_x
  _atom_site_fract_y
  _atom_site_fract_z
  _atom_site_thermal_displace_type
  _atom_site_B_iso_or_equiv
  _atom_site_type_symbol
  C1       1.0000 0.54073  0.46878  0.40916  Biso   1.000  C
  O1       1.0000 0.55760  0.40138  0.38518  Biso   1.000  O
  H1       1.0000 0.54551  0.43000  0.44439  Biso   1.000  H
  H2       1.0000 0.55721  0.54155  0.42444  Biso   1.000  H
  C2       1.0000 0.48976  0.48674  0.35576  Biso   1.000  C
  C3       1.0000 0.60468  0.39802  0.41806  Biso   1.000  C
  H3       1.0000 0.47411  0.41304  0.34039  Biso   1.000  H
  H4       1.0000 0.47632  0.52929  0.37122  Biso   1.000  H
  C4       1.0000 0.48112  0.55086  0.30170  Biso   1.000  C
  C5       1.0000 0.61857  0.35076  0.38658  Biso   1.000  C
  C6       1.0000 0.63698  0.43730  0.47868  Biso   1.000  C
  H5       1.0000 0.49539  0.50839  0.28750  Biso   1.000  H
  H6       1.0000 0.49720  0.62406  0.31781  Biso   1.000  H
  C7       1.0000 0.43145  0.57244  0.24590  Biso   1.000  C
  C8       1.0000 0.58379  0.29747  0.32240  Biso   1.000  C
  C9       1.0000 0.66526  0.35488  0.41535  Biso   1.000  C
  C10      1.0000 0.68396  0.43789  0.50862  Biso   1.000  C
  H7       1.0000 0.62703  0.46450  0.50033  Biso   1.000  H
  Br1      1.0000 0.40396  0.67962  0.26647  Biso   1.000  Br
  H8       1.0000 0.42949  0.60240  0.21109  Biso   1.000  H
  H9       1.0000 0.41401  0.50109  0.23180  Biso   1.000  H
  Br2      1.0000 0.39509  0.64621  0.26352  Biso   1.000  Br
  H10      1.0000 0.43050  0.61927  0.21568  Biso   1.000  H
  H11      1.0000 0.41660  0.49992  0.22519  Biso   1.000  H
  C11      1.0000 0.56945  0.17945  0.32456  Biso   1.000  C
  H12      1.0000 0.55592  0.34548  0.29673  Biso   1.000  H
  H13      1.0000 0.59730  0.29470  0.30151  Biso   1.000  H
  C12      1.0000 0.69767  0.40079  0.47512  Biso   1.000  C
  H14      1.0000 0.67523  0.32600  0.39403  Biso   1.000  H
  C13      1.0000 0.71915  0.47583  0.57613  Biso   1.000  C
  C14      1.0000 0.53508  0.16468  0.32877  Biso   1.000  C
  C15      1.0000 0.58957  0.08469  0.32179  Biso   1.000  C
  O2       1.0000 0.74378  0.41355  0.50436  Biso   1.000  O
  C16      1.0000 0.73062  0.38299  0.62157  Biso   1.000  C
  H15      1.0000 0.74771  0.49958  0.58442  Biso   1.000  H
  H16      1.0000 0.70681  0.54138  0.58301  Biso   1.000  H
  C17      1.0000 0.52101  0.05859  0.33065  Biso   1.000  C
  H17      1.0000 0.52092  0.22872  0.33041  Biso   1.000  H
  C18      1.0000 0.57460  0.97860  0.32236  Biso   1.000  C
  O3       1.0000 0.62362  0.10206  0.31748  Biso   1.000  O
  C19      1.0000 0.75812  0.38686  0.46894  Biso   1.000  C
  C20      1.0000 0.76689  0.30888  0.64434  Biso   1.000  C
  C21      1.0000 0.70414  0.36461  0.63979  Biso   1.000  C
  O4       1.0000 0.48741  0.03987  0.33599  Biso   1.000  O
  C22      1.0000 0.54054  0.96391  0.32676  Biso   1.000  C
  H18      1.0000 0.58820  0.91439  0.31959  Biso   1.000  H
  C23      1.0000 0.64277  0.00478  0.31261  Biso   1.000  C
  H19      1.0000 0.75700  0.30468  0.46290  Biso   1.000  H
  H20      1.0000 0.73720  0.42295  0.42720  Biso   1.000  H
  C24      1.0000 0.80692  0.42933  0.50492  Biso   1.000  C
  C25      1.0000 0.77640  0.22058  0.68369  Biso   1.000  C
  H21      1.0000 0.78551  0.31887  0.63272  Biso   1.000  H
  O5       1.0000 0.66859  0.44032  0.61637  Biso   1.000  O
  C26      1.0000 0.71384  0.27724  0.67910  Biso   1.000  C
  C27      1.0000 0.46843  0.13547  0.34194  Biso   1.000  C
  C28      1.0000 0.52642  0.84623  0.32934  Biso   1.000  C
  H22      1.0000 0.66430  0.02703  0.30591  Biso   1.000  H
  H23      1.0000 0.61792  0.95921  0.27710  Biso   1.000  H
  H24      1.0000 0.65931  0.96089  0.35131  Biso   1.000  H
  H25      1.0000 0.80671  0.51234  0.50379  Biso   1.000  H
  H26      1.0000 0.82602  0.40549  0.54924  Biso   1.000  H
  C29      1.0000 0.82810  0.38417  0.47695  Biso   1.000  C
  O6       1.0000 0.81172  0.14596  0.70271  Biso   1.000  O
  C30      1.0000 0.75034  0.20363  0.70191  Biso   1.000  C
  C31      1.0000 0.63785  0.41766  0.62789  Biso   1.000  C
  H27      1.0000 0.69531  0.26700  0.69081  Biso   1.000  H
  H28      1.0000 0.45171  0.18038  0.30352  Biso   1.000  H
  H29      1.0000 0.44712  0.11197  0.34882  Biso   1.000  H
  H30      1.0000 0.49340  0.18071  0.37759  Biso   1.000  H
  H31      1.0000 0.53030  0.79453  0.30521  Biso   1.000  H
  H32      1.0000 0.49341  0.84598  0.30980  Biso   1.000  H
  C32      1.0000 0.55529  0.80536  0.39628  Biso   1.000  C
  H33      1.0000 0.80750  0.40196  0.43170  Biso   1.000  H
  H34      1.0000 0.83104  0.30149  0.48164  Biso   1.000  H
  C33      1.0000 0.87486  0.43512  0.50928  Biso   1.000  C
  C34      1.0000 0.85594  0.18390  0.75630  Biso   1.000  C
  C35      1.0000 0.75911  0.10567  0.74304  Biso   1.000  C
  H35      1.0000 0.65501  0.41682  0.67310  Biso   1.000  H
  H36      1.0000 0.61402  0.47616  0.60840  Biso   1.000  H
  H37      1.0000 0.62311  0.34447  0.61000  Biso   1.000  H
  C36      1.0000 0.59890  0.75894  0.42673  Biso   1.000  C
  C37      1.0000 0.54003  0.81845  0.42959  Biso   1.000  C
  Br3      1.0000 0.90819  0.35723  0.48740  Biso   1.000  Br
  H38      1.0000 0.87114  0.51511  0.49724  Biso   1.000  H
  H39      1.0000 0.89311  0.43159  0.55523  Biso   1.000  H
  H40      1.0000 0.85482  0.20379  0.78942  Biso   1.000  H
  H41      1.0000 0.87873  0.12406  0.77124  Biso   1.000  H
  H42      1.0000 0.86485  0.24996  0.74524  Biso   1.000  H
  C38      1.0000 0.72860  0.00579  0.70421  Biso   1.000  C
  H43      1.0000 0.79192  0.08318  0.76942  Biso   1.000  H
  H44      1.0000 0.75292  0.12943  0.77124  Biso   1.000  H
  O7       1.0000 0.61166  0.74391  0.39038  Biso   1.000  O
  C39      1.0000 0.62653  0.73074  0.48960  Biso   1.000  C
  C40      1.0000 0.56758  0.78924  0.49236  Biso   1.000  C
  H45      1.0000 0.51001  0.84808  0.40912  Biso   1.000  H
  C41      1.0000 0.74398  0.92706  0.68425  Biso   1.000  C
  C42      1.0000 0.68559  0.99177  0.68678  Biso   1.000  C
  C43      1.0000 0.65718  0.70665  0.42059  Biso   1.000  C
  H46      1.0000 0.65633  0.70010  0.50984  Biso   1.000  H
  C44      1.0000 0.61189  0.74576  0.52366  Biso   1.000  C
  O8       1.0000 0.55398  0.80099  0.52755  Biso   1.000  O
  C45      1.0000 0.71681  0.83549  0.64808  Biso   1.000  C
  H47      1.0000 0.77354  0.93621  0.69554  Biso   1.000  H
  C46      1.0000 0.65846  0.89919  0.65127  Biso   1.000  C
  O9       1.0000 0.67099  0.07277  0.70650  Biso   1.000  O
  H48      1.0000 0.66162  0.63203  0.43863  Biso   1.000  H
  H49      1.0000 0.66211  0.70262  0.39010  Biso   1.000  H
  H50      1.0000 0.67931  0.75927  0.45400  Biso   1.000  H
  C47      1.0000 0.64333  0.71999  0.59285  Biso   1.000  C
  C48      1.0000 0.50878  0.84027  0.49503  Biso   1.000  C
  C49      1.0000 0.67375  0.81996  0.63202  Biso   1.000  C
  O10      1.0000 0.72977  0.75491  0.62682  Biso   1.000  O
  H51      1.0000 0.62891  0.89038  0.64012  Biso   1.000  H
  C50      1.0000 0.62345  0.08150  0.67352  Biso   1.000  C
  H52      1.0000 0.62443  0.69935  0.60461  Biso   1.000  H
  H53      1.0000 0.66313  0.65503  0.60194  Biso   1.000  H
  H54      1.0000 0.48852  0.80821  0.45273  Biso   1.000  H
  H55      1.0000 0.49784  0.81769  0.51733  Biso   1.000  H
  H56      1.0000 0.50842  0.92228  0.49222  Biso   1.000  H
  C51      1.0000 0.77507  0.76389  0.64696  Biso   1.000  C
  H57      1.0000 0.61271  0.01460  0.68120  Biso   1.000  H
  H58      1.0000 0.61723  0.14831  0.68762  Biso   1.000  H
  H59      1.0000 0.60711  0.08780  0.62860  Biso   1.000  H
  H60      1.0000 0.79773  0.76272  0.69282  Biso   1.000  H
  H61      1.0000 0.78094  0.70060  0.63033  Biso   1.000  H
  H62      1.0000 0.77793  0.83440  0.63164  Biso   1.000  H
  C52      1.0000 0.54073  0.46878  0.40916  Biso   1.000  C
  C53      1.0000 0.48976  0.48674  0.35576  Biso   1.000  C
  H63      1.0000 0.54551  0.43000  0.44439  Biso   1.000  H
  H64      1.0000 0.55721  0.54155  0.42444  Biso   1.000  H
  O11      1.0000 0.55760  0.40138  0.38518  Biso   1.000  O
  C54      1.0000 0.48112  0.55086  0.30170  Biso   1.000  C
  H65      1.0000 0.47411  0.41304  0.34039  Biso   1.000  H
  H66      1.0000 0.47632  0.52929  0.37122  Biso   1.000  H
  C55      1.0000 0.60468  0.39802  0.41806  Biso   1.000  C
  C56      1.0000 0.43145  0.57244  0.24590  Biso   1.000  C
  H67      1.0000 0.49539  0.50839  0.28750  Biso   1.000  H
  H68      1.0000 0.49720  0.62406  0.31781  Biso   1.000  H
  C57      1.0000 0.61857  0.35076  0.38658  Biso   1.000  C
  C58      1.0000 0.63698  0.43730  0.47868  Biso   1.000  C
  Br4      1.0000 0.40396  0.67962  0.26647  Biso   1.000  Br
  H69      1.0000 0.42949  0.60240  0.21109  Biso   1.000  H
  H70      1.0000 0.41401  0.50109  0.23180  Biso   1.000  H
  Br5      1.0000 0.39509  0.64621  0.26352  Biso   1.000  Br
  H71      1.0000 0.43050  0.61927  0.21568  Biso   1.000  H
  H72      1.0000 0.41660  0.49992  0.22519  Biso   1.000  H
  C59      1.0000 0.66526  0.35488  0.41535  Biso   1.000  C
  C60      1.0000 0.58379  0.29747  0.32240  Biso   1.000  C
  H73      1.0000 0.62703  0.46450  0.50033  Biso   1.000  H
  C61      1.0000 0.68396  0.43789  0.50862  Biso   1.000  C
  C62      1.0000 0.69767  0.40079  0.47512  Biso   1.000  C
  H74      1.0000 0.67523  0.32600  0.39403  Biso   1.000  H
  H75      1.0000 0.55592  0.34548  0.29673  Biso   1.000  H
  H76      1.0000 0.59730  0.29470  0.30151  Biso   1.000  H
  C63      1.0000 0.56945  0.17945  0.32456  Biso   1.000  C
  C64      1.0000 0.71915  0.47583  0.57613  Biso   1.000  C
  O12      1.0000 0.74378  0.41355  0.50436  Biso   1.000  O
  C65      1.0000 0.58957  0.08469  0.32179  Biso   1.000  C
  C66      1.0000 0.53508  0.16468  0.32877  Biso   1.000  C
  C67      1.0000 0.73062  0.38299  0.62157  Biso   1.000  C
  H77      1.0000 0.74771  0.49958  0.58442  Biso   1.000  H
  H78      1.0000 0.70681  0.54138  0.58301  Biso   1.000  H
  C68      1.0000 0.75812  0.38686  0.46894  Biso   1.000  C
  C69      1.0000 0.57460  0.97860  0.32236  Biso   1.000  C
  O13      1.0000 0.62362  0.10206  0.31748  Biso   1.000  O
  C70      1.0000 0.52101  0.05859  0.33065  Biso   1.000  C
  H79      1.0000 0.52092  0.22872  0.33041  Biso   1.000  H
  C71      1.0000 0.76689  0.30888  0.64434  Biso   1.000  C
  C72      1.0000 0.70414  0.36461  0.63979  Biso   1.000  C
  H80      1.0000 0.75700  0.30468  0.46290  Biso   1.000  H
  H81      1.0000 0.73720  0.42295  0.42720  Biso   1.000  H
  C73      1.0000 0.80692  0.42933  0.50492  Biso   1.000  C
  H82      1.0000 0.58820  0.91439  0.31959  Biso   1.000  H
  C74      1.0000 0.54054  0.96391  0.32676  Biso   1.000  C
  C75      1.0000 0.64277  0.00478  0.31261  Biso   1.000  C
  O14      1.0000 0.48741  0.03987  0.33599  Biso   1.000  O
  C76      1.0000 0.77640  0.22058  0.68369  Biso   1.000  C
  H83      1.0000 0.78551  0.31887  0.63272  Biso   1.000  H
  O15      1.0000 0.66859  0.44032  0.61637  Biso   1.000  O
  C77      1.0000 0.71384  0.27724  0.67910  Biso   1.000  C
  H84      1.0000 0.80671  0.51234  0.50379  Biso   1.000  H
  H85      1.0000 0.82602  0.40549  0.54924  Biso   1.000  H
  C78      1.0000 0.82810  0.38417  0.47695  Biso   1.000  C
  C79      1.0000 0.52642  0.84623  0.32934  Biso   1.000  C
  H86      1.0000 0.61792  0.95921  0.27710  Biso   1.000  H
  H87      1.0000 0.65931  0.96089  0.35131  Biso   1.000  H
  H88      1.0000 0.66430  0.02703  0.30591  Biso   1.000  H
  C80      1.0000 0.46843  0.13547  0.34194  Biso   1.000  C
  O16      1.0000 0.81172  0.14596  0.70271  Biso   1.000  O
  C81      1.0000 0.75034  0.20363  0.70191  Biso   1.000  C
  C82      1.0000 0.63785  0.41766  0.62789  Biso   1.000  C
  H89      1.0000 0.69531  0.26700  0.69081  Biso   1.000  H
  H90      1.0000 0.80750  0.40196  0.43170  Biso   1.000  H
  H91      1.0000 0.83104  0.30149  0.48164  Biso   1.000  H
  C83      1.0000 0.87486  0.43512  0.50928  Biso   1.000  C
  H92      1.0000 0.53030  0.79453  0.30521  Biso   1.000  H
  H93      1.0000 0.49341  0.84598  0.30980  Biso   1.000  H
  C84      1.0000 0.55529  0.80536  0.39628  Biso   1.000  C
  H94      1.0000 0.45171  0.18038  0.30352  Biso   1.000  H
  H95      1.0000 0.44712  0.11197  0.34882  Biso   1.000  H
  H96      1.0000 0.49340  0.18071  0.37759  Biso   1.000  H
  C85      1.0000 0.85594  0.18390  0.75630  Biso   1.000  C
  C86      1.0000 0.75911  0.10567  0.74304  Biso   1.000  C
  H97      1.0000 0.65501  0.41682  0.67310  Biso   1.000  H
  H98      1.0000 0.61402  0.47616  0.60840  Biso   1.000  H
  H99      1.0000 0.62311  0.34447  0.61000  Biso   1.000  H
  Br6      1.0000 0.90819  0.35723  0.48740  Biso   1.000  Br
  H100     1.0000 0.87114  0.51511  0.49724  Biso   1.000  H
  H101     1.0000 0.89311  0.43159  0.55523  Biso   1.000  H
  C87      1.0000 0.59890  0.75894  0.42673  Biso   1.000  C
  C88      1.0000 0.54003  0.81845  0.42959  Biso   1.000  C
  H102     1.0000 0.85482  0.20379  0.78942  Biso   1.000  H
  H103     1.0000 0.87873  0.12406  0.77124  Biso   1.000  H
  H104     1.0000 0.86485  0.24996  0.74524  Biso   1.000  H
  C89      1.0000 0.72860  0.00579  0.70421  Biso   1.000  C
  H105     1.0000 0.79192  0.08318  0.76942  Biso   1.000  H
  H106     1.0000 0.75292  0.12943  0.77124  Biso   1.000  H
  O17      1.0000 0.61166  0.74391  0.39038  Biso   1.000  O
  C90      1.0000 0.62653  0.73074  0.48960  Biso   1.000  C
  C91      1.0000 0.56758  0.78924  0.49236  Biso   1.000  C
  H107     1.0000 0.51001  0.84808  0.40912  Biso   1.000  H
  C92      1.0000 0.74398  0.92706  0.68425  Biso   1.000  C
  C93      1.0000 0.68559  0.99177  0.68678  Biso   1.000  C
  C94      1.0000 0.65718  0.70665  0.42059  Biso   1.000  C
  H108     1.0000 0.65633  0.70010  0.50984  Biso   1.000  H
  C95      1.0000 0.61189  0.74576  0.52366  Biso   1.000  C
  O18      1.0000 0.55398  0.80099  0.52755  Biso   1.000  O
  C96      1.0000 0.71681  0.83549  0.64808  Biso   1.000  C
  H109     1.0000 0.77354  0.93621  0.69554  Biso   1.000  H
  C97      1.0000 0.65846  0.89919  0.65127  Biso   1.000  C
  O19      1.0000 0.67099  0.07277  0.70650  Biso   1.000  O
  H110     1.0000 0.66162  0.63203  0.43863  Biso   1.000  H
  H111     1.0000 0.66211  0.70262  0.39010  Biso   1.000  H
  H112     1.0000 0.67931  0.75927  0.45400  Biso   1.000  H
  C98      1.0000 0.64333  0.71999  0.59285  Biso   1.000  C
  C99      1.0000 0.50878  0.84027  0.49503  Biso   1.000  C
  O20      1.0000 0.72977  0.75491  0.62682  Biso   1.000  O
  C100     1.0000 0.67375  0.81996  0.63202  Biso   1.000  C
  H113     1.0000 0.62891  0.89038  0.64012  Biso   1.000  H
  C101     1.0000 0.62345  0.08150  0.67352  Biso   1.000  C
  H114     1.0000 0.62443  0.69935  0.60461  Biso   1.000  H
  H115     1.0000 0.66313  0.65503  0.60194  Biso   1.000  H
  H116     1.0000 0.48852  0.80821  0.45273  Biso   1.000  H
  H117     1.0000 0.49784  0.81769  0.51733  Biso   1.000  H
  H118     1.0000 0.50842  0.92228  0.49222  Biso   1.000  H
  C102     1.0000 0.77507  0.76389  0.64696  Biso   1.000  C
  H119     1.0000 0.61271  0.01460  0.68120  Biso   1.000  H
  H120     1.0000 0.61723  0.14831  0.68762  Biso   1.000  H
  H121     1.0000 0.60711  0.08780  0.62860  Biso   1.000  H
  H122     1.0000 0.79773  0.76272  0.69282  Biso   1.000  H
  H123     1.0000 0.78094  0.70060  0.63033  Biso   1.000  H
  H124     1.0000 0.77793  0.83440  0.63164  Biso   1.000  H
  C103     1.0000 0.45928  0.53114  0.59084  Biso   1.000  C
  O21      1.0000 0.44241  0.59862  0.61482  Biso   1.000  O
  H125     1.0000 0.45453  0.57000  0.55561  Biso   1.000  H
  H126     1.0000 0.44282  0.45837  0.57561  Biso   1.000  H
  C104     1.0000 0.51025  0.51318  0.64424  Biso   1.000  C
  C105     1.0000 0.39533  0.60198  0.58194  Biso   1.000  C
  H127     1.0000 0.52593  0.58687  0.65961  Biso   1.000  H
  H128     1.0000 0.52374  0.47071  0.62883  Biso   1.000  H
  C106     1.0000 0.51889  0.44905  0.69830  Biso   1.000  C
  C107     1.0000 0.36303  0.56262  0.52132  Biso   1.000  C
  C108     1.0000 0.38146  0.64915  0.61346  Biso   1.000  C
  H129     1.0000 0.50462  0.49161  0.71250  Biso   1.000  H
  H130     1.0000 0.50283  0.37586  0.68224  Biso   1.000  H
  C109     1.0000 0.56858  0.42748  0.75415  Biso   1.000  C
  C110     1.0000 0.31608  0.56211  0.49143  Biso   1.000  C
  H131     1.0000 0.37303  0.53550  0.49972  Biso   1.000  H
  C111     1.0000 0.33477  0.64512  0.58470  Biso   1.000  C
  C112     1.0000 0.41622  0.70245  0.67760  Biso   1.000  C
  Br7      1.0000 0.59608  0.32038  0.73358  Biso   1.000  Br
  H132     1.0000 0.57052  0.39760  0.78891  Biso   1.000  H
  H133     1.0000 0.58602  0.49891  0.76820  Biso   1.000  H
  Br8      1.0000 0.60494  0.35379  0.73653  Biso   1.000  Br
  H134     1.0000 0.56953  0.38064  0.78432  Biso   1.000  H
  H135     1.0000 0.58341  0.50008  0.77481  Biso   1.000  H
  C113     1.0000 0.28089  0.52417  0.42387  Biso   1.000  C
  C114     1.0000 0.30234  0.59913  0.52488  Biso   1.000  C
  H136     1.0000 0.32482  0.67400  0.60601  Biso   1.000  H
  H137     1.0000 0.44412  0.65444  0.70332  Biso   1.000  H
  H138     1.0000 0.40273  0.70530  0.69854  Biso   1.000  H
  C115     1.0000 0.43056  0.82046  0.67544  Biso   1.000  C
  C116     1.0000 0.26944  0.61701  0.37848  Biso   1.000  C
  H139     1.0000 0.25232  0.50042  0.41563  Biso   1.000  H
  H140     1.0000 0.29322  0.45862  0.41703  Biso   1.000  H
  O22      1.0000 0.25625  0.58637  0.49569  Biso   1.000  O
  C117     1.0000 0.41047  0.91523  0.67825  Biso   1.000  C
  C118     1.0000 0.46493  0.83532  0.67123  Biso   1.000  C
  C119     1.0000 0.29587  0.63539  0.36021  Biso   1.000  C
  C120     1.0000 0.23314  0.69112  0.35571  Biso   1.000  C
  C121     1.0000 0.24192  0.61314  0.53106  Biso   1.000  C
  O23      1.0000 0.37641  0.89785  0.68256  Biso   1.000  O
  C122     1.0000 0.42546  0.02149  0.67769  Biso   1.000  C
  C123     1.0000 0.47905  0.94141  0.66940  Biso   1.000  C
  H141     1.0000 0.47914  0.77128  0.66963  Biso   1.000  H
  O24      1.0000 0.33144  0.55959  0.38368  Biso   1.000  O
  C124     1.0000 0.28619  0.72268  0.32095  Biso   1.000  C
  C125     1.0000 0.22361  0.77934  0.31631  Biso   1.000  C
  H142     1.0000 0.21452  0.68105  0.36733  Biso   1.000  H
  H143     1.0000 0.24301  0.69523  0.53710  Biso   1.000  H
  H144     1.0000 0.26281  0.57697  0.57280  Biso   1.000  H
  C126     1.0000 0.19314  0.57059  0.49513  Biso   1.000  C
  C127     1.0000 0.35726  0.99513  0.68744  Biso   1.000  C
  H145     1.0000 0.41181  0.08553  0.68041  Biso   1.000  H
  C128     1.0000 0.45950  0.03609  0.67329  Biso   1.000  C
  O25      1.0000 0.51265  0.96013  0.66406  Biso   1.000  O
  C129     1.0000 0.36221  0.58226  0.37215  Biso   1.000  C
  C130     1.0000 0.24967  0.79637  0.29809  Biso   1.000  C
  H146     1.0000 0.30470  0.73300  0.30919  Biso   1.000  H
  O26      1.0000 0.18832  0.85404  0.29734  Biso   1.000  O
  H147     1.0000 0.19330  0.48758  0.49621  Biso   1.000  H
  H148     1.0000 0.17401  0.59451  0.45081  Biso   1.000  H
  C131     1.0000 0.17194  0.61575  0.52305  Biso   1.000  C
  H149     1.0000 0.33573  0.97297  0.69413  Biso   1.000  H
  H150     1.0000 0.38212  0.04088  0.72290  Biso   1.000  H
  H151     1.0000 0.34073  0.03903  0.64874  Biso   1.000  H
  C132     1.0000 0.47361  0.15385  0.67071  Biso   1.000  C
  C133     1.0000 0.53160  0.86445  0.65811  Biso   1.000  C
  H152     1.0000 0.34501  0.58318  0.32690  Biso   1.000  H
  H153     1.0000 0.38599  0.52375  0.39160  Biso   1.000  H
  H154     1.0000 0.37690  0.65545  0.39000  Biso   1.000  H
  C134     1.0000 0.24093  0.89424  0.25696  Biso   1.000  C
  C135     1.0000 0.14409  0.81610  0.24375  Biso   1.000  C
  H155     1.0000 0.19251  0.59795  0.56830  Biso   1.000  H
  H156     1.0000 0.16902  0.69851  0.51841  Biso   1.000  H
  C136     1.0000 0.12520  0.56488  0.49077  Biso   1.000  C
  C137     1.0000 0.44472  0.19464  0.60372  Biso   1.000  C
  H157     1.0000 0.46973  0.20556  0.69484  Biso   1.000  H
  H158     1.0000 0.50660  0.15394  0.69020  Biso   1.000  H
  H159     1.0000 0.54832  0.81954  0.69652  Biso   1.000  H
  H160     1.0000 0.55292  0.88795  0.65122  Biso   1.000  H
  H161     1.0000 0.50661  0.81929  0.62241  Biso   1.000  H
  C138     1.0000 0.27146  0.99421  0.29584  Biso   1.000  C
  H162     1.0000 0.20811  0.91674  0.23063  Biso   1.000  H
  H163     1.0000 0.24711  0.87057  0.22880  Biso   1.000  H
  H164     1.0000 0.14521  0.79621  0.21062  Biso   1.000  H
  H165     1.0000 0.12130  0.87586  0.22880  Biso   1.000  H
  H166     1.0000 0.13521  0.74996  0.25480  Biso   1.000  H
  Br9      1.0000 0.09182  0.64269  0.51260  Biso   1.000  Br
  H167     1.0000 0.12892  0.48489  0.50281  Biso   1.000  H
  H168     1.0000 0.10692  0.56841  0.44481  Biso   1.000  H
  C139     1.0000 0.40115  0.24106  0.57332  Biso   1.000  C
  C140     1.0000 0.45998  0.18155  0.57041  Biso   1.000  C
  C141     1.0000 0.25605  0.07294  0.31580  Biso   1.000  C
  C142     1.0000 0.31442  0.00831  0.31322  Biso   1.000  C
  C143     1.0000 0.37348  0.26935  0.51040  Biso   1.000  C
  O27      1.0000 0.38835  0.25609  0.60962  Biso   1.000  O
  C144     1.0000 0.43243  0.21084  0.50764  Biso   1.000  C
  H169     1.0000 0.49002  0.15192  0.59093  Biso   1.000  H
  C145     1.0000 0.28320  0.16460  0.35192  Biso   1.000  C
  H170     1.0000 0.22652  0.06379  0.30451  Biso   1.000  H
  O28      1.0000 0.32902  0.92723  0.29350  Biso   1.000  O
  C146     1.0000 0.34160  0.10089  0.34878  Biso   1.000  C
  C147     1.0000 0.38817  0.25424  0.47639  Biso   1.000  C
  H171     1.0000 0.34371  0.29990  0.49021  Biso   1.000  H
  C148     1.0000 0.34283  0.29344  0.57941  Biso   1.000  C
  O29      1.0000 0.44608  0.19884  0.47250  Biso   1.000  O
  O30      1.0000 0.27029  0.24509  0.37323  Biso   1.000  O
  C149     1.0000 0.32628  0.18004  0.36803  Biso   1.000  C
  C150     1.0000 0.37658  0.91850  0.32652  Biso   1.000  C
  H172     1.0000 0.37112  0.10954  0.35993  Biso   1.000  H
  C151     1.0000 0.35670  0.28001  0.40720  Biso   1.000  C
  H173     1.0000 0.33841  0.36805  0.56142  Biso   1.000  H
  H174     1.0000 0.33792  0.29747  0.60990  Biso   1.000  H
  H175     1.0000 0.32073  0.24073  0.54600  Biso   1.000  H
  C152     1.0000 0.49126  0.15973  0.50501  Biso   1.000  C
  C153     1.0000 0.22496  0.23611  0.35304  Biso   1.000  C
  H176     1.0000 0.38730  0.98540  0.31879  Biso   1.000  H
  H177     1.0000 0.38283  0.85169  0.31242  Biso   1.000  H
  H178     1.0000 0.39290  0.91212  0.37140  Biso   1.000  H
  H179     1.0000 0.37561  0.30074  0.39539  Biso   1.000  H
  H180     1.0000 0.33690  0.34506  0.39811  Biso   1.000  H
  H181     1.0000 0.51152  0.19188  0.54732  Biso   1.000  H
  H182     1.0000 0.50222  0.18231  0.48271  Biso   1.000  H
  H183     1.0000 0.49161  0.07772  0.50782  Biso   1.000  H
  H184     1.0000 0.20232  0.23728  0.30722  Biso   1.000  H
  H185     1.0000 0.21912  0.29940  0.36972  Biso   1.000  H
  H186     1.0000 0.22210  0.16560  0.36841  Biso   1.000  H
  C154     1.0000 0.45928  0.53114  0.59084  Biso   1.000  C
  H187     1.0000 0.45453  0.57000  0.55561  Biso   1.000  H
  H188     1.0000 0.44282  0.45837  0.57561  Biso   1.000  H
  C155     1.0000 0.51025  0.51318  0.64424  Biso   1.000  C
  O31      1.0000 0.44241  0.59862  0.61482  Biso   1.000  O
  H189     1.0000 0.52593  0.58687  0.65961  Biso   1.000  H
  H190     1.0000 0.52374  0.47071  0.62883  Biso   1.000  H
  C156     1.0000 0.51889  0.44905  0.69830  Biso   1.000  C
  C157     1.0000 0.39533  0.60198  0.58194  Biso   1.000  C
  H191     1.0000 0.50462  0.49161  0.71250  Biso   1.000  H
  H192     1.0000 0.50283  0.37586  0.68224  Biso   1.000  H
  C158     1.0000 0.56858  0.42748  0.75415  Biso   1.000  C
  C159     1.0000 0.38146  0.64915  0.61346  Biso   1.000  C
  C160     1.0000 0.36303  0.56262  0.52132  Biso   1.000  C
  Br10     1.0000 0.59608  0.32038  0.73358  Biso   1.000  Br
  H193     1.0000 0.57052  0.39760  0.78891  Biso   1.000  H
  H194     1.0000 0.58602  0.49891  0.76820  Biso   1.000  H
  Br11     1.0000 0.60494  0.35379  0.73653  Biso   1.000  Br
  H195     1.0000 0.56953  0.38064  0.78432  Biso   1.000  H
  H196     1.0000 0.58341  0.50008  0.77481  Biso   1.000  H
  C161     1.0000 0.33477  0.64512  0.58470  Biso   1.000  C
  C162     1.0000 0.41622  0.70245  0.67760  Biso   1.000  C
  H197     1.0000 0.37303  0.53550  0.49972  Biso   1.000  H
  C163     1.0000 0.31608  0.56211  0.49143  Biso   1.000  C
  C164     1.0000 0.30234  0.59913  0.52488  Biso   1.000  C
  H198     1.0000 0.32482  0.67400  0.60601  Biso   1.000  H
  H199     1.0000 0.44412  0.65444  0.70332  Biso   1.000  H
  H200     1.0000 0.40273  0.70530  0.69854  Biso   1.000  H
  C165     1.0000 0.43056  0.82046  0.67544  Biso   1.000  C
  C166     1.0000 0.28089  0.52417  0.42387  Biso   1.000  C
  O32      1.0000 0.25625  0.58637  0.49569  Biso   1.000  O
  C167     1.0000 0.41047  0.91523  0.67825  Biso   1.000  C
  C168     1.0000 0.46493  0.83532  0.67123  Biso   1.000  C
  C169     1.0000 0.26944  0.61701  0.37848  Biso   1.000  C
  H201     1.0000 0.25232  0.50042  0.41563  Biso   1.000  H
  H202     1.0000 0.29322  0.45862  0.41703  Biso   1.000  H
  C170     1.0000 0.24192  0.61314  0.53106  Biso   1.000  C
  O33      1.0000 0.37641  0.89785  0.68256  Biso   1.000  O
  C171     1.0000 0.42546  0.02149  0.67769  Biso   1.000  C
  C172     1.0000 0.47905  0.94141  0.66940  Biso   1.000  C
  H203     1.0000 0.47914  0.77128  0.66963  Biso   1.000  H
  C173     1.0000 0.23314  0.69112  0.35571  Biso   1.000  C
  C174     1.0000 0.29587  0.63539  0.36021  Biso   1.000  C
  H204     1.0000 0.24301  0.69523  0.53710  Biso   1.000  H
  H205     1.0000 0.26281  0.57697  0.57280  Biso   1.000  H
  C175     1.0000 0.19314  0.57059  0.49513  Biso   1.000  C
  C176     1.0000 0.35726  0.99513  0.68744  Biso   1.000  C
  H206     1.0000 0.41181  0.08553  0.68041  Biso   1.000  H
  C177     1.0000 0.45950  0.03609  0.67329  Biso   1.000  C
  O34      1.0000 0.51265  0.96013  0.66406  Biso   1.000  O
  C178     1.0000 0.22361  0.77934  0.31631  Biso   1.000  C
  H207     1.0000 0.21452  0.68105  0.36733  Biso   1.000  H
  O35      1.0000 0.33144  0.55959  0.38368  Biso   1.000  O
  C179     1.0000 0.28619  0.72268  0.32095  Biso   1.000  C
  H208     1.0000 0.19330  0.48758  0.49621  Biso   1.000  H
  H209     1.0000 0.17401  0.59451  0.45081  Biso   1.000  H
  C180     1.0000 0.17194  0.61575  0.52305  Biso   1.000  C
  H210     1.0000 0.33573  0.97297  0.69413  Biso   1.000  H
  H211     1.0000 0.38212  0.04088  0.72290  Biso   1.000  H
  H212     1.0000 0.34073  0.03903  0.64874  Biso   1.000  H
  C181     1.0000 0.47361  0.15385  0.67071  Biso   1.000  C
  C182     1.0000 0.53160  0.86445  0.65811  Biso   1.000  C
  O36      1.0000 0.18832  0.85404  0.29734  Biso   1.000  O
  C183     1.0000 0.24967  0.79637  0.29809  Biso   1.000  C
  C184     1.0000 0.36221  0.58226  0.37215  Biso   1.000  C
  H213     1.0000 0.30470  0.73300  0.30919  Biso   1.000  H
  H214     1.0000 0.19251  0.59795  0.56830  Biso   1.000  H
  H215     1.0000 0.16902  0.69851  0.51841  Biso   1.000  H
  C185     1.0000 0.12520  0.56488  0.49077  Biso   1.000  C
  H216     1.0000 0.46973  0.20556  0.69484  Biso   1.000  H
  H217     1.0000 0.50660  0.15394  0.69020  Biso   1.000  H
  C186     1.0000 0.44472  0.19464  0.60372  Biso   1.000  C
  H218     1.0000 0.54832  0.81954  0.69652  Biso   1.000  H
  H219     1.0000 0.55292  0.88795  0.65122  Biso   1.000  H
  H220     1.0000 0.50661  0.81929  0.62241  Biso   1.000  H
  C187     1.0000 0.14409  0.81610  0.24375  Biso   1.000  C
  C188     1.0000 0.24093  0.89424  0.25696  Biso   1.000  C
  H221     1.0000 0.34501  0.58318  0.32690  Biso   1.000  H
  H222     1.0000 0.38599  0.52375  0.39160  Biso   1.000  H
  H223     1.0000 0.37690  0.65545  0.39000  Biso   1.000  H
  Br12     1.0000 0.09182  0.64269  0.51260  Biso   1.000  Br
  H224     1.0000 0.12892  0.48489  0.50281  Biso   1.000  H
  H225     1.0000 0.10692  0.56841  0.44481  Biso   1.000  H
  C189     1.0000 0.40115  0.24106  0.57332  Biso   1.000  C
  C190     1.0000 0.45998  0.18155  0.57041  Biso   1.000  C
  H226     1.0000 0.14521  0.79621  0.21062  Biso   1.000  H
  H227     1.0000 0.12130  0.87586  0.22880  Biso   1.000  H
  H228     1.0000 0.13521  0.74996  0.25480  Biso   1.000  H
  C191     1.0000 0.27146  0.99421  0.29584  Biso   1.000  C
  H229     1.0000 0.20811  0.91674  0.23063  Biso   1.000  H
  H230     1.0000 0.24711  0.87057  0.22880  Biso   1.000  H
  O37      1.0000 0.38835  0.25609  0.60962  Biso   1.000  O
  C192     1.0000 0.37348  0.26935  0.51040  Biso   1.000  C
  C193     1.0000 0.43243  0.21084  0.50764  Biso   1.000  C
  H231     1.0000 0.49002  0.15192  0.59093  Biso   1.000  H
  C194     1.0000 0.25605  0.07294  0.31580  Biso   1.000  C
  C195     1.0000 0.31442  0.00831  0.31322  Biso   1.000  C
  C196     1.0000 0.34283  0.29344  0.57941  Biso   1.000  C
  H232     1.0000 0.34371  0.29990  0.49021  Biso   1.000  H
  C197     1.0000 0.38817  0.25424  0.47639  Biso   1.000  C
  O38      1.0000 0.44608  0.19884  0.47250  Biso   1.000  O
  C198     1.0000 0.28320  0.16460  0.35192  Biso   1.000  C
  H233     1.0000 0.22652  0.06379  0.30451  Biso   1.000  H
  O39      1.0000 0.32902  0.92723  0.29350  Biso   1.000  O
  C199     1.0000 0.34160  0.10089  0.34878  Biso   1.000  C
  H234     1.0000 0.33841  0.36805  0.56142  Biso   1.000  H
  H235     1.0000 0.33792  0.29747  0.60990  Biso   1.000  H
  H236     1.0000 0.32073  0.24073  0.54600  Biso   1.000  H
  C200     1.0000 0.35670  0.28001  0.40720  Biso   1.000  C
  C201     1.0000 0.49126  0.15973  0.50501  Biso   1.000  C
  O40      1.0000 0.27029  0.24509  0.37323  Biso   1.000  O
  C202     1.0000 0.32628  0.18004  0.36803  Biso   1.000  C
  C203     1.0000 0.37658  0.91850  0.32652  Biso   1.000  C
  H237     1.0000 0.37112  0.10954  0.35993  Biso   1.000  H
  H238     1.0000 0.37561  0.30074  0.39539  Biso   1.000  H
  H239     1.0000 0.33690  0.34506  0.39811  Biso   1.000  H
  H240     1.0000 0.51152  0.19188  0.54732  Biso   1.000  H
  H241     1.0000 0.50222  0.18231  0.48271  Biso   1.000  H
  H242     1.0000 0.49161  0.07772  0.50782  Biso   1.000  H
  C204     1.0000 0.22496  0.23611  0.35304  Biso   1.000  C
  H243     1.0000 0.38730  0.98540  0.31879  Biso   1.000  H
  H244     1.0000 0.38283  0.85169  0.31242  Biso   1.000  H
  H245     1.0000 0.39290  0.91212  0.37140  Biso   1.000  H
  H246     1.0000 0.20232  0.23728  0.30722  Biso   1.000  H
  H247     1.0000 0.21912  0.29940  0.36972  Biso   1.000  H
  H248     1.0000 0.22210  0.16560  0.36841  Biso   1.000  H
  C205     1.0000 0.37486  0.93503  0.50928  Biso   1.000  C
  C206     1.0000 0.32810  0.88417  0.47695  Biso   1.000  C
  Br13     1.0000 0.40819  0.85723  0.48740  Biso   1.000  Br
  H249     1.0000 0.39311  0.93159  0.55523  Biso   1.000  H
  H250     1.0000 0.37114  0.01502  0.49724  Biso   1.000  H
  C207     1.0000 0.30692  0.92933  0.50492  Biso   1.000  C
  H251     1.0000 0.30750  0.90196  0.43170  Biso   1.000  H
  H252     1.0000 0.33104  0.80149  0.48164  Biso   1.000  H
  C208     1.0000 0.25812  0.88686  0.46894  Biso   1.000  C
  H253     1.0000 0.32602  0.90549  0.54924  Biso   1.000  H
  H254     1.0000 0.30671  0.01242  0.50379  Biso   1.000  H
  O41      1.0000 0.24378  0.91355  0.50436  Biso   1.000  O
  H255     1.0000 0.25700  0.80468  0.46290  Biso   1.000  H
  H256     1.0000 0.23720  0.92295  0.42720  Biso   1.000  H
  C209     1.0000 0.19767  0.90079  0.47512  Biso   1.000  C
  C210     1.0000 0.16526  0.85479  0.41535  Biso   1.000  C
  C211     1.0000 0.18396  0.93789  0.50862  Biso   1.000  C
  C212     1.0000 0.11857  0.85076  0.38658  Biso   1.000  C
  H257     1.0000 0.17523  0.82600  0.39403  Biso   1.000  H
  C213     1.0000 0.13698  0.93730  0.47868  Biso   1.000  C
  C214     1.0000 0.21915  0.97583  0.57613  Biso   1.000  C
  C215     1.0000 0.08379  0.79747  0.32240  Biso   1.000  C
  C216     1.0000 0.10468  0.89802  0.41806  Biso   1.000  C
  H258     1.0000 0.12703  0.96450  0.50033  Biso   1.000  H
  C217     1.0000 0.23062  0.88299  0.62157  Biso   1.000  C
  H259     1.0000 0.24771  0.99958  0.58442  Biso   1.000  H
  H260     1.0000 0.20681  0.04138  0.58301  Biso   1.000  H
  C218     1.0000 0.06945  0.67945  0.32456  Biso   1.000  C
  H261     1.0000 0.05592  0.84548  0.29673  Biso   1.000  H
  H262     1.0000 0.09730  0.79470  0.30151  Biso   1.000  H
  O42      1.0000 0.05760  0.90129  0.38518  Biso   1.000  O
  C219     1.0000 0.26689  0.80888  0.64434  Biso   1.000  C
  C220     1.0000 0.20414  0.86461  0.63979  Biso   1.000  C
  C221     1.0000 0.08957  0.58469  0.32179  Biso   1.000  C
  C222     1.0000 0.03508  0.66460  0.32877  Biso   1.000  C
  C223     1.0000 0.04073  0.96878  0.40916  Biso   1.000  C
  C224     1.0000 0.27640  0.72058  0.68369  Biso   1.000  C
  H263     1.0000 0.28551  0.81887  0.63272  Biso   1.000  H
  O43      1.0000 0.16859  0.94032  0.61637  Biso   1.000  O
  C225     1.0000 0.21384  0.77724  0.67910  Biso   1.000  C
  O44      1.0000 0.12362  0.60206  0.31748  Biso   1.000  O
  C226     1.0000 0.07460  0.47851  0.32236  Biso   1.000  C
  C227     1.0000 0.02101  0.55859  0.33065  Biso   1.000  C
  H264     1.0000 0.02092  0.72864  0.33041  Biso   1.000  H
  H265     1.0000 0.04551  0.93000  0.44439  Biso   1.000  H
  C228     1.0000 0.98976  0.98674  0.35576  Biso   1.000  C
  C229     1.0000 0.98976  0.98682  0.35576  Biso   1.000  C
  H266     1.0000 0.05721  0.04163  0.42444  Biso   1.000  H
  O45      1.0000 0.31172  0.64596  0.70271  Biso   1.000  O
  C230     1.0000 0.25034  0.70363  0.70191  Biso   1.000  C
  C231     1.0000 0.13785  0.91766  0.62789  Biso   1.000  C
  H267     1.0000 0.19531  0.76700  0.69081  Biso   1.000  H
  C232     1.0000 0.14277  0.50478  0.31261  Biso   1.000  C
  H268     1.0000 0.08820  0.41439  0.31959  Biso   1.000  H
  C233     1.0000 0.04054  0.46391  0.32676  Biso   1.000  C
  O46      1.0000 0.98741  0.53987  0.33599  Biso   1.000  O
  H269     1.0000 0.97411  0.91304  0.34039  Biso   1.000  H
  H270     1.0000 0.97411  0.91313  0.34039  Biso   1.000  H
  H271     1.0000 0.97632  0.02938  0.37122  Biso   1.000  H
  C234     1.0000 0.98112  0.05095  0.30170  Biso   1.000  C
  H272     1.0000 0.97632  0.02929  0.37122  Biso   1.000  H
  C235     1.0000 0.98112  0.05086  0.30170  Biso   1.000  C
  C236     1.0000 0.35594  0.68390  0.75630  Biso   1.000  C
  C237     1.0000 0.25911  0.60567  0.74304  Biso   1.000  C
  H273     1.0000 0.15501  0.91674  0.67310  Biso   1.000  H
  H274     1.0000 0.11402  0.97616  0.60840  Biso   1.000  H
  H275     1.0000 0.12311  0.84447  0.61000  Biso   1.000  H
  H276     1.0000 0.11792  0.45921  0.27710  Biso   1.000  H
  H277     1.0000 0.16430  0.52694  0.30591  Biso   1.000  H
  H278     1.0000 0.15931  0.46089  0.35131  Biso   1.000  H
  C238     1.0000 0.02642  0.34623  0.32934  Biso   1.000  C
  C239     1.0000 0.96843  0.63547  0.34194  Biso   1.000  C
  H279     1.0000 0.99539  0.00848  0.28750  Biso   1.000  H
  H280     1.0000 0.99720  0.12414  0.31781  Biso   1.000  H
  C240     1.0000 0.93145  0.07244  0.24590  Biso   1.000  C
  H281     1.0000 0.99539  0.00839  0.28750  Biso   1.000  H
  H282     1.0000 0.99720  0.12406  0.31781  Biso   1.000  H
  C241     1.0000 0.93145  0.07252  0.24590  Biso   1.000  C
  H283     1.0000 0.35482  0.70379  0.78942  Biso   1.000  H
  H284     1.0000 0.37873  0.62406  0.77124  Biso   1.000  H
  H285     1.0000 0.36485  0.74996  0.74524  Biso   1.000  H
  C242     1.0000 0.22860  0.50579  0.70421  Biso   1.000  C
  H286     1.0000 0.29192  0.58318  0.76942  Biso   1.000  H
  H287     1.0000 0.25292  0.62934  0.77124  Biso   1.000  H
  H288     1.0000 0.03030  0.29453  0.30521  Biso   1.000  H
  C243     1.0000 0.05529  0.30536  0.39628  Biso   1.000  C
  H289     1.0000 0.99341  0.34598  0.30980  Biso   1.000  H
  H290     1.0000 0.95171  0.68038  0.30352  Biso   1.000  H
  H291     1.0000 0.94712  0.61197  0.34882  Biso   1.000  H
  H292     1.0000 0.99340  0.68071  0.37759  Biso   1.000  H
  H293     1.0000 0.91660  0.99992  0.22519  Biso   1.000  H
  Br14     1.0000 0.90396  0.17970  0.26647  Biso   1.000  Br
  H294     1.0000 0.92949  0.10240  0.21109  Biso   1.000  H
  H295     1.0000 0.91401  0.00118  0.23180  Biso   1.000  H
  Br15     1.0000 0.89509  0.14621  0.26352  Biso   1.000  Br
  H296     1.0000 0.93050  0.11927  0.21568  Biso   1.000  H
  C244     1.0000 0.24398  0.42706  0.68425  Biso   1.000  C
  C245     1.0000 0.18559  0.49177  0.68678  Biso   1.000  C
  C246     1.0000 0.09890  0.25894  0.42673  Biso   1.000  C
  C247     1.0000 0.04003  0.31845  0.42959  Biso   1.000  C
  C248     1.0000 0.21681  0.33549  0.64808  Biso   1.000  C
  H297     1.0000 0.27354  0.43621  0.69554  Biso   1.000  H
  C249     1.0000 0.15846  0.39919  0.65127  Biso   1.000  C
  O47      1.0000 0.17099  0.57269  0.70650  Biso   1.000  O
  O48      1.0000 0.11166  0.24391  0.39038  Biso   1.000  O
  C250     1.0000 0.12653  0.23065  0.48960  Biso   1.000  C
  C251     1.0000 0.06758  0.28916  0.49236  Biso   1.000  C
  H298     1.0000 0.01001  0.34808  0.40912  Biso   1.000  H
  C252     1.0000 0.17375  0.31988  0.63202  Biso   1.000  C
  O49      1.0000 0.22977  0.25491  0.62682  Biso   1.000  O
  H299     1.0000 0.12891  0.39038  0.64012  Biso   1.000  H
  C253     1.0000 0.12345  0.58150  0.67352  Biso   1.000  C
  C254     1.0000 0.15718  0.20656  0.42059  Biso   1.000  C
  H300     1.0000 0.15633  0.20010  0.50984  Biso   1.000  H
  C255     1.0000 0.11189  0.24576  0.52366  Biso   1.000  C
  O50      1.0000 0.05398  0.30107  0.52755  Biso   1.000  O
  C256     1.0000 0.14333  0.21999  0.59285  Biso   1.000  C
  C257     1.0000 0.27507  0.26389  0.64696  Biso   1.000  C
  H301     1.0000 0.11271  0.51460  0.68120  Biso   1.000  H
  H302     1.0000 0.11723  0.64831  0.68762  Biso   1.000  H
  H303     1.0000 0.10711  0.58780  0.62860  Biso   1.000  H
  H304     1.0000 0.16162  0.13203  0.43863  Biso   1.000  H
  H305     1.0000 0.16211  0.20262  0.39010  Biso   1.000  H
  H306     1.0000 0.17931  0.25927  0.45400  Biso   1.000  H
  C258     1.0000 0.00878  0.34027  0.49503  Biso   1.000  C
  H307     1.0000 0.12443  0.19926  0.60461  Biso   1.000  H
  H308     1.0000 0.16313  0.15503  0.60194  Biso   1.000  H
  H309     1.0000 0.29773  0.26272  0.69282  Biso   1.000  H
  H310     1.0000 0.28094  0.20060  0.63033  Biso   1.000  H
  H311     1.0000 0.27793  0.33440  0.63164  Biso   1.000  H
  H312     1.0000 0.00842  0.42228  0.49222  Biso   1.000  H
  H313     1.0000 0.98852  0.30821  0.45273  Biso   1.000  H
  H314     1.0000 0.99784  0.31769  0.51733  Biso   1.000  H
  C259     1.0000 0.37486  0.93503  0.50928  Biso   1.000  C
  C260     1.0000 0.32810  0.88417  0.47695  Biso   1.000  C
  Br16     1.0000 0.40819  0.85723  0.48740  Biso   1.000  Br
  H315     1.0000 0.39311  0.93159  0.55523  Biso   1.000  H
  H316     1.0000 0.37114  0.01502  0.49724  Biso   1.000  H
  C261     1.0000 0.30692  0.92933  0.50492  Biso   1.000  C
  H317     1.0000 0.30750  0.90196  0.43170  Biso   1.000  H
  H318     1.0000 0.33104  0.80149  0.48164  Biso   1.000  H
  C262     1.0000 0.25812  0.88686  0.46894  Biso   1.000  C
  H319     1.0000 0.32602  0.90549  0.54924  Biso   1.000  H
  H320     1.0000 0.30671  0.01242  0.50379  Biso   1.000  H
  O51      1.0000 0.24378  0.91355  0.50436  Biso   1.000  O
  H321     1.0000 0.25700  0.80468  0.46290  Biso   1.000  H
  H322     1.0000 0.23720  0.92295  0.42720  Biso   1.000  H
  C263     1.0000 0.19767  0.90079  0.47512  Biso   1.000  C
  C264     1.0000 0.16526  0.85479  0.41535  Biso   1.000  C
  C265     1.0000 0.18396  0.93789  0.50862  Biso   1.000  C
  C266     1.0000 0.11857  0.85076  0.38658  Biso   1.000  C
  H323     1.0000 0.17523  0.82600  0.39403  Biso   1.000  H
  C267     1.0000 0.13698  0.93730  0.47868  Biso   1.000  C
  C268     1.0000 0.21915  0.97583  0.57613  Biso   1.000  C
  C269     1.0000 0.10468  0.89802  0.41806  Biso   1.000  C
  C270     1.0000 0.08379  0.79747  0.32240  Biso   1.000  C
  H324     1.0000 0.12703  0.96450  0.50033  Biso   1.000  H
  C271     1.0000 0.23062  0.88299  0.62157  Biso   1.000  C
  H325     1.0000 0.24771  0.99958  0.58442  Biso   1.000  H
  H326     1.0000 0.20681  0.04138  0.58301  Biso   1.000  H
  O52      1.0000 0.05760  0.90129  0.38518  Biso   1.000  O
  H327     1.0000 0.05592  0.84548  0.29673  Biso   1.000  H
  H328     1.0000 0.09730  0.79470  0.30151  Biso   1.000  H
  C272     1.0000 0.06945  0.67945  0.32456  Biso   1.000  C
  C273     1.0000 0.26689  0.80888  0.64434  Biso   1.000  C
  C274     1.0000 0.20414  0.86461  0.63979  Biso   1.000  C
  C275     1.0000 0.04073  0.96878  0.40916  Biso   1.000  C
  C276     1.0000 0.08957  0.58469  0.32179  Biso   1.000  C
  C277     1.0000 0.03508  0.66460  0.32877  Biso   1.000  C
  C278     1.0000 0.27640  0.72058  0.68369  Biso   1.000  C
  H329     1.0000 0.28551  0.81887  0.63272  Biso   1.000  H
  O53      1.0000 0.16859  0.94032  0.61637  Biso   1.000  O
  C279     1.0000 0.21384  0.77724  0.67910  Biso   1.000  C
  H330     1.0000 0.04551  0.93000  0.44439  Biso   1.000  H
  C280     1.0000 0.98976  0.98674  0.35576  Biso   1.000  C
  C281     1.0000 0.98976  0.98682  0.35576  Biso   1.000  C
  H331     1.0000 0.05721  0.04163  0.42444  Biso   1.000  H
  O54      1.0000 0.12362  0.60206  0.31748  Biso   1.000  O
  C282     1.0000 0.07460  0.47851  0.32236  Biso   1.000  C
  C283     1.0000 0.02101  0.55859  0.33065  Biso   1.000  C
  H332     1.0000 0.02092  0.72864  0.33041  Biso   1.000  H
  O55      1.0000 0.31172  0.64596  0.70271  Biso   1.000  O
  C284     1.0000 0.25034  0.70363  0.70191  Biso   1.000  C
  C285     1.0000 0.13785  0.91766  0.62789  Biso   1.000  C
  H333     1.0000 0.19531  0.76700  0.69081  Biso   1.000  H
  H334     1.0000 0.97411  0.91304  0.34039  Biso   1.000  H
  H335     1.0000 0.97411  0.91313  0.34039  Biso   1.000  H
  H336     1.0000 0.97632  0.02938  0.37122  Biso   1.000  H
  C286     1.0000 0.98112  0.05095  0.30170  Biso   1.000  C
  H337     1.0000 0.97632  0.02929  0.37122  Biso   1.000  H
  C287     1.0000 0.98112  0.05086  0.30170  Biso   1.000  C
  C288     1.0000 0.14277  0.50478  0.31261  Biso   1.000  C
  H338     1.0000 0.08820  0.41439  0.31959  Biso   1.000  H
  C289     1.0000 0.04054  0.46391  0.32676  Biso   1.000  C
  O56      1.0000 0.98741  0.53987  0.33599  Biso   1.000  O
  C290     1.0000 0.35594  0.68390  0.75630  Biso   1.000  C
  C291     1.0000 0.25911  0.60567  0.74304  Biso   1.000  C
  H339     1.0000 0.15501  0.91674  0.67310  Biso   1.000  H
  H340     1.0000 0.11402  0.97616  0.60840  Biso   1.000  H
  H341     1.0000 0.12311  0.84447  0.61000  Biso   1.000  H
  H342     1.0000 0.99539  0.00848  0.28750  Biso   1.000  H
  H343     1.0000 0.99720  0.12414  0.31781  Biso   1.000  H
  C292     1.0000 0.93145  0.07244  0.24590  Biso   1.000  C
  H344     1.0000 0.99539  0.00839  0.28750  Biso   1.000  H
  H345     1.0000 0.99720  0.12406  0.31781  Biso   1.000  H
  C293     1.0000 0.93145  0.07252  0.24590  Biso   1.000  C
  H346     1.0000 0.11792  0.45921  0.27710  Biso   1.000  H
  H347     1.0000 0.16430  0.52694  0.30591  Biso   1.000  H
  H348     1.0000 0.15931  0.46089  0.35131  Biso   1.000  H
  C294     1.0000 0.02642  0.34623  0.32934  Biso   1.000  C
  C295     1.0000 0.96843  0.63547  0.34194  Biso   1.000  C
  H349     1.0000 0.35482  0.70379  0.78942  Biso   1.000  H
  H350     1.0000 0.37873  0.62406  0.77124  Biso   1.000  H
  H351     1.0000 0.36485  0.74996  0.74524  Biso   1.000  H
  C296     1.0000 0.22860  0.50579  0.70421  Biso   1.000  C
  H352     1.0000 0.29192  0.58318  0.76942  Biso   1.000  H
  H353     1.0000 0.25292  0.62934  0.77124  Biso   1.000  H
  H354     1.0000 0.91660  0.99992  0.22519  Biso   1.000  H
  Br17     1.0000 0.90396  0.17970  0.26647  Biso   1.000  Br
  H355     1.0000 0.92949  0.10240  0.21109  Biso   1.000  H
  H356     1.0000 0.91401  0.00118  0.23180  Biso   1.000  H
  Br18     1.0000 0.89509  0.14621  0.26352  Biso   1.000  Br
  H357     1.0000 0.93050  0.11927  0.21568  Biso   1.000  H
  H358     1.0000 0.99341  0.34598  0.30980  Biso   1.000  H
  H359     1.0000 0.03030  0.29453  0.30521  Biso   1.000  H
  C297     1.0000 0.05529  0.30536  0.39628  Biso   1.000  C
  H360     1.0000 0.95171  0.68038  0.30352  Biso   1.000  H
  H361     1.0000 0.94712  0.61197  0.34882  Biso   1.000  H
  H362     1.0000 0.99340  0.68071  0.37759  Biso   1.000  H
  C298     1.0000 0.24398  0.42706  0.68425  Biso   1.000  C
  C299     1.0000 0.18559  0.49177  0.68678  Biso   1.000  C
  C300     1.0000 0.09890  0.25894  0.42673  Biso   1.000  C
  C301     1.0000 0.04003  0.31845  0.42959  Biso   1.000  C
  C302     1.0000 0.21681  0.33549  0.64808  Biso   1.000  C
  H363     1.0000 0.27354  0.43621  0.69554  Biso   1.000  H
  O57      1.0000 0.17099  0.57269  0.70650  Biso   1.000  O
  C303     1.0000 0.15846  0.39919  0.65127  Biso   1.000  C
  O58      1.0000 0.11166  0.24391  0.39038  Biso   1.000  O
  C304     1.0000 0.12653  0.23065  0.48960  Biso   1.000  C
  C305     1.0000 0.06758  0.28916  0.49236  Biso   1.000  C
  H364     1.0000 0.01001  0.34808  0.40912  Biso   1.000  H
  O59      1.0000 0.22977  0.25491  0.62682  Biso   1.000  O
  C306     1.0000 0.17375  0.31988  0.63202  Biso   1.000  C
  C307     1.0000 0.12345  0.58150  0.67352  Biso   1.000  C
  H365     1.0000 0.12891  0.39038  0.64012  Biso   1.000  H
  C308     1.0000 0.15718  0.20656  0.42059  Biso   1.000  C
  H366     1.0000 0.15633  0.20010  0.50984  Biso   1.000  H
  C309     1.0000 0.11189  0.24576  0.52366  Biso   1.000  C
  O60      1.0000 0.05398  0.30107  0.52755  Biso   1.000  O
  C310     1.0000 0.27507  0.26389  0.64696  Biso   1.000  C
  C311     1.0000 0.14333  0.21999  0.59285  Biso   1.000  C
  H367     1.0000 0.11271  0.51460  0.68120  Biso   1.000  H
  H368     1.0000 0.11723  0.64831  0.68762  Biso   1.000  H
  H369     1.0000 0.10711  0.58780  0.62860  Biso   1.000  H
  H370     1.0000 0.16162  0.13203  0.43863  Biso   1.000  H
  H371     1.0000 0.16211  0.20262  0.39010  Biso   1.000  H
  H372     1.0000 0.17931  0.25927  0.45400  Biso   1.000  H
  C312     1.0000 0.00878  0.34027  0.49503  Biso   1.000  C
  H373     1.0000 0.29773  0.26272  0.69282  Biso   1.000  H
  H374     1.0000 0.28094  0.20060  0.63033  Biso   1.000  H
  H375     1.0000 0.27793  0.33440  0.63164  Biso   1.000  H
  H376     1.0000 0.12443  0.19926  0.60461  Biso   1.000  H
  H377     1.0000 0.16313  0.15503  0.60194  Biso   1.000  H
  H378     1.0000 0.98852  0.30821  0.45273  Biso   1.000  H
  H379     1.0000 0.99784  0.31769  0.51733  Biso   1.000  H
  H380     1.0000 0.00842  0.42228  0.49222  Biso   1.000  H
  C313     1.0000 0.62520  0.06488  0.49077  Biso   1.000  C
  Br19     1.0000 0.59182  0.14277  0.51260  Biso   1.000  Br
  C314     1.0000 0.67194  0.11583  0.52305  Biso   1.000  C
  H381     1.0000 0.60692  0.06841  0.44481  Biso   1.000  H
  H382     1.0000 0.62892  0.98489  0.50281  Biso   1.000  H
  C315     1.0000 0.69314  0.07067  0.49513  Biso   1.000  C
  H383     1.0000 0.69251  0.09804  0.56830  Biso   1.000  H
  H384     1.0000 0.66902  0.19851  0.51841  Biso   1.000  H
  C316     1.0000 0.74192  0.11314  0.53106  Biso   1.000  C
  H385     1.0000 0.67401  0.09451  0.45081  Biso   1.000  H
  H386     1.0000 0.69330  0.98758  0.49621  Biso   1.000  H
  O61      1.0000 0.75625  0.08645  0.49569  Biso   1.000  O
  H387     1.0000 0.74301  0.19532  0.53710  Biso   1.000  H
  H388     1.0000 0.76281  0.07697  0.57280  Biso   1.000  H
  C317     1.0000 0.80234  0.09913  0.52488  Biso   1.000  C
  C318     1.0000 0.83477  0.14512  0.58470  Biso   1.000  C
  C319     1.0000 0.81608  0.06211  0.49143  Biso   1.000  C
  H389     1.0000 0.82482  0.17400  0.60601  Biso   1.000  H
  C320     1.0000 0.88146  0.14915  0.61346  Biso   1.000  C
  C321     1.0000 0.86303  0.06262  0.52132  Biso   1.000  C
  C322     1.0000 0.78089  0.02417  0.42387  Biso   1.000  C
  C323     1.0000 0.89533  0.10198  0.58194  Biso   1.000  C
  C324     1.0000 0.91622  0.20253  0.67760  Biso   1.000  C
  H390     1.0000 0.87303  0.03550  0.49972  Biso   1.000  H
  C325     1.0000 0.76944  0.11701  0.37848  Biso   1.000  C
  H391     1.0000 0.75232  0.00042  0.41563  Biso   1.000  H
  H392     1.0000 0.79322  0.95862  0.41703  Biso   1.000  H
  O62      1.0000 0.94241  0.09862  0.61482  Biso   1.000  O
  H393     1.0000 0.94412  0.15452  0.70332  Biso   1.000  H
  H394     1.0000 0.90273  0.20530  0.69854  Biso   1.000  H
  C326     1.0000 0.93056  0.32046  0.67544  Biso   1.000  C
  C327     1.0000 0.73314  0.19112  0.35571  Biso   1.000  C
  C328     1.0000 0.79587  0.13539  0.36021  Biso   1.000  C
  C329     1.0000 0.95928  0.03122  0.59084  Biso   1.000  C
  C330     1.0000 0.91047  0.41523  0.67825  Biso   1.000  C
  C331     1.0000 0.96493  0.33532  0.67123  Biso   1.000  C
  C332     1.0000 0.72361  0.27934  0.31631  Biso   1.000  C
  H395     1.0000 0.71452  0.18113  0.36733  Biso   1.000  H
  O63      1.0000 0.83144  0.05959  0.38368  Biso   1.000  O
  C333     1.0000 0.78619  0.22276  0.32095  Biso   1.000  C
  H396     1.0000 0.95453  0.07000  0.55561  Biso   1.000  H
  H397     1.0000 0.94282  0.95837  0.57561  Biso   1.000  H
  C334     1.0000 0.01025  0.01318  0.64424  Biso   1.000  C
  O64      1.0000 0.87641  0.39794  0.68256  Biso   1.000  O
  C335     1.0000 0.92546  0.52140  0.67769  Biso   1.000  C
  C336     1.0000 0.97905  0.44141  0.66940  Biso   1.000  C
  H398     1.0000 0.97914  0.27128  0.66963  Biso   1.000  H
  O65      1.0000 0.68832  0.35404  0.29734  Biso   1.000  O
  C337     1.0000 0.74967  0.29637  0.29809  Biso   1.000  C
  C338     1.0000 0.86221  0.08226  0.37215  Biso   1.000  C
  H399     1.0000 0.80470  0.23300  0.30919  Biso   1.000  H
  H400     1.0000 0.02374  0.97071  0.62883  Biso   1.000  H
  C339     1.0000 0.01889  0.94914  0.69830  Biso   1.000  C
  H401     1.0000 0.02374  0.97062  0.62883  Biso   1.000  H
  C340     1.0000 0.01889  0.94905  0.69830  Biso   1.000  C
  H402     1.0000 0.02593  0.08687  0.65961  Biso   1.000  H
  H403     1.0000 0.02593  0.08696  0.65961  Biso   1.000  H
  C341     1.0000 0.85726  0.49522  0.68744  Biso   1.000  C
  H404     1.0000 0.91181  0.58561  0.68041  Biso   1.000  H
  C342     1.0000 0.95950  0.53609  0.67329  Biso   1.000  C
  O66      1.0000 0.01265  0.46013  0.66406  Biso   1.000  O
  C343     1.0000 0.64409  0.31610  0.24375  Biso   1.000  C
  C344     1.0000 0.74093  0.39424  0.25696  Biso   1.000  C
  H405     1.0000 0.84501  0.08318  0.32690  Biso   1.000  H
  H406     1.0000 0.88599  0.02384  0.39160  Biso   1.000  H
  H407     1.0000 0.87690  0.15553  0.39000  Biso   1.000  H
  H408     1.0000 0.00462  0.99161  0.71250  Biso   1.000  H
  H409     1.0000 0.00283  0.87594  0.68224  Biso   1.000  H
  C345     1.0000 0.06858  0.92748  0.75415  Biso   1.000  C
  H410     1.0000 0.00462  0.99152  0.71250  Biso   1.000  H
  H411     1.0000 0.00283  0.87586  0.68224  Biso   1.000  H
  H412     1.0000 0.88212  0.54079  0.72290  Biso   1.000  H
  H413     1.0000 0.83573  0.47297  0.69413  Biso   1.000  H
  H414     1.0000 0.84073  0.53911  0.64874  Biso   1.000  H
  C346     1.0000 0.97361  0.65377  0.67071  Biso   1.000  C
  C347     1.0000 0.03160  0.36445  0.65811  Biso   1.000  C
  H415     1.0000 0.64521  0.29621  0.21062  Biso   1.000  H
  H416     1.0000 0.62130  0.37586  0.22880  Biso   1.000  H
  H417     1.0000 0.63521  0.24996  0.25480  Biso   1.000  H
  C348     1.0000 0.77146  0.49421  0.29584  Biso   1.000  C
  H418     1.0000 0.70811  0.41682  0.23063  Biso   1.000  H
  H419     1.0000 0.74711  0.37057  0.22880  Biso   1.000  H
  Br20     1.0000 0.09608  0.82038  0.73358  Biso   1.000  Br
  H420     1.0000 0.07052  0.89760  0.78891  Biso   1.000  H
  H421     1.0000 0.08602  0.99891  0.76820  Biso   1.000  H
  Br21     1.0000 0.10494  0.85379  0.73653  Biso   1.000  Br
  H422     1.0000 0.06953  0.88064  0.78432  Biso   1.000  H
  H423     1.0000 0.08341  0.00008  0.77481  Biso   1.000  H
  H424     1.0000 0.96973  0.70547  0.69484  Biso   1.000  H
  C349     1.0000 0.94472  0.69456  0.60372  Biso   1.000  C
  H425     1.0000 0.00660  0.65394  0.69020  Biso   1.000  H
  H426     1.0000 0.04832  0.31962  0.69652  Biso   1.000  H
  H427     1.0000 0.05292  0.38795  0.65122  Biso   1.000  H
  H428     1.0000 0.00661  0.31929  0.62241  Biso   1.000  H
  C350     1.0000 0.75605  0.57294  0.31580  Biso   1.000  C
  C351     1.0000 0.81442  0.50823  0.31322  Biso   1.000  C
  C352     1.0000 0.90115  0.74098  0.57332  Biso   1.000  C
  C353     1.0000 0.95998  0.68155  0.57041  Biso   1.000  C
  C354     1.0000 0.78320  0.66451  0.35192  Biso   1.000  C
  H429     1.0000 0.72652  0.56379  0.30451  Biso   1.000  H
  O67      1.0000 0.82902  0.42723  0.29350  Biso   1.000  O
  C355     1.0000 0.84160  0.60081  0.34878  Biso   1.000  C
  O68      1.0000 0.88835  0.75609  0.60962  Biso   1.000  O
  C356     1.0000 0.87348  0.76926  0.51040  Biso   1.000  C
  C357     1.0000 0.93243  0.71076  0.50764  Biso   1.000  C
  H430     1.0000 0.99002  0.65184  0.59093  Biso   1.000  H
  O69      1.0000 0.77029  0.74501  0.37323  Biso   1.000  O
  C358     1.0000 0.82628  0.68004  0.36803  Biso   1.000  C
  C359     1.0000 0.87658  0.41850  0.32652  Biso   1.000  C
  H431     1.0000 0.87112  0.60954  0.35993  Biso   1.000  H
  C360     1.0000 0.84283  0.79335  0.57941  Biso   1.000  C
  H432     1.0000 0.84371  0.79990  0.49021  Biso   1.000  H
  C361     1.0000 0.88817  0.75424  0.47639  Biso   1.000  C
  O70      1.0000 0.94608  0.69884  0.47250  Biso   1.000  O
  C362     1.0000 0.72496  0.73611  0.35304  Biso   1.000  C
  C363     1.0000 0.85670  0.77992  0.40720  Biso   1.000  C
  H433     1.0000 0.88730  0.48540  0.31879  Biso   1.000  H
  H434     1.0000 0.88283  0.35169  0.31242  Biso   1.000  H
  H435     1.0000 0.89290  0.41220  0.37140  Biso   1.000  H
  H436     1.0000 0.83841  0.86797  0.56142  Biso   1.000  H
  H437     1.0000 0.83792  0.79738  0.60990  Biso   1.000  H
  H438     1.0000 0.82073  0.74064  0.54600  Biso   1.000  H
  C364     1.0000 0.99126  0.65964  0.50501  Biso   1.000  C
  H439     1.0000 0.70232  0.73728  0.30722  Biso   1.000  H
  H440     1.0000 0.71912  0.79940  0.36972  Biso   1.000  H
  H441     1.0000 0.72210  0.66560  0.36841  Biso   1.000  H
  H442     1.0000 0.87561  0.80065  0.39539  Biso   1.000  H
  H443     1.0000 0.83690  0.84497  0.39811  Biso   1.000  H
  H444     1.0000 0.99161  0.57764  0.50782  Biso   1.000  H
  H445     1.0000 0.01152  0.69179  0.54732  Biso   1.000  H
  H446     1.0000 0.00222  0.68231  0.48271  Biso   1.000  H
  C365     1.0000 0.62520  0.06488  0.49077  Biso   1.000  C
  C366     1.0000 0.67194  0.11583  0.52305  Biso   1.000  C
  H447     1.0000 0.62892  0.98489  0.50281  Biso   1.000  H
  Br22     1.0000 0.59182  0.14277  0.51260  Biso   1.000  Br
  H448     1.0000 0.60692  0.06841  0.44481  Biso   1.000  H
  C367     1.0000 0.69314  0.07067  0.49513  Biso   1.000  C
  H449     1.0000 0.69251  0.09804  0.56830  Biso   1.000  H
  H450     1.0000 0.66902  0.19851  0.51841  Biso   1.000  H
  C368     1.0000 0.74192  0.11314  0.53106  Biso   1.000  C
  H451     1.0000 0.69330  0.98758  0.49621  Biso   1.000  H
  H452     1.0000 0.67401  0.09451  0.45081  Biso   1.000  H
  O71      1.0000 0.75625  0.08645  0.49569  Biso   1.000  O
  H453     1.0000 0.74301  0.19532  0.53710  Biso   1.000  H
  H454     1.0000 0.76281  0.07697  0.57280  Biso   1.000  H
  C369     1.0000 0.80234  0.09913  0.52488  Biso   1.000  C
  C370     1.0000 0.83477  0.14512  0.58470  Biso   1.000  C
  C371     1.0000 0.81608  0.06211  0.49143  Biso   1.000  C
  C372     1.0000 0.88146  0.14915  0.61346  Biso   1.000  C
  H455     1.0000 0.82482  0.17400  0.60601  Biso   1.000  H
  C373     1.0000 0.86303  0.06262  0.52132  Biso   1.000  C
  C374     1.0000 0.78089  0.02417  0.42387  Biso   1.000  C
  C375     1.0000 0.89533  0.10198  0.58194  Biso   1.000  C
  C376     1.0000 0.91622  0.20253  0.67760  Biso   1.000  C
  H456     1.0000 0.87303  0.03550  0.49972  Biso   1.000  H
  H457     1.0000 0.79322  0.95862  0.41703  Biso   1.000  H
  C377     1.0000 0.76944  0.11701  0.37848  Biso   1.000  C
  H458     1.0000 0.75232  0.00042  0.41563  Biso   1.000  H
  O72      1.0000 0.94241  0.09862  0.61482  Biso   1.000  O
  H459     1.0000 0.94412  0.15452  0.70332  Biso   1.000  H
  H460     1.0000 0.90273  0.20530  0.69854  Biso   1.000  H
  C378     1.0000 0.93056  0.32046  0.67544  Biso   1.000  C
  C379     1.0000 0.73314  0.19112  0.35571  Biso   1.000  C
  C380     1.0000 0.79587  0.13539  0.36021  Biso   1.000  C
  C381     1.0000 0.95928  0.03122  0.59084  Biso   1.000  C
  C382     1.0000 0.91047  0.41523  0.67825  Biso   1.000  C
  C383     1.0000 0.96493  0.33532  0.67123  Biso   1.000  C
  C384     1.0000 0.72361  0.27934  0.31631  Biso   1.000  C
  H461     1.0000 0.71452  0.18113  0.36733  Biso   1.000  H
  O73      1.0000 0.83144  0.05959  0.38368  Biso   1.000  O
  C385     1.0000 0.78619  0.22276  0.32095  Biso   1.000  C
  H462     1.0000 0.95453  0.07000  0.55561  Biso   1.000  H
  H463     1.0000 0.94282  0.95837  0.57561  Biso   1.000  H
  C386     1.0000 0.01025  0.01318  0.64424  Biso   1.000  C
  O74      1.0000 0.87641  0.39794  0.68256  Biso   1.000  O
  C387     1.0000 0.92546  0.52140  0.67769  Biso   1.000  C
  C388     1.0000 0.97905  0.44141  0.66940  Biso   1.000  C
  H464     1.0000 0.97914  0.27128  0.66963  Biso   1.000  H
  O75      1.0000 0.68832  0.35404  0.29734  Biso   1.000  O
  C389     1.0000 0.74967  0.29637  0.29809  Biso   1.000  C
  C390     1.0000 0.86221  0.08226  0.37215  Biso   1.000  C
  H465     1.0000 0.80470  0.23300  0.30919  Biso   1.000  H
  H466     1.0000 0.02374  0.97071  0.62883  Biso   1.000  H
  C391     1.0000 0.01889  0.94914  0.69830  Biso   1.000  C
  H467     1.0000 0.02374  0.97062  0.62883  Biso   1.000  H
  C392     1.0000 0.01889  0.94905  0.69830  Biso   1.000  C
  H468     1.0000 0.02593  0.08687  0.65961  Biso   1.000  H
  H469     1.0000 0.02593  0.08696  0.65961  Biso   1.000  H
  C393     1.0000 0.85726  0.49522  0.68744  Biso   1.000  C
  H470     1.0000 0.91181  0.58561  0.68041  Biso   1.000  H
  C394     1.0000 0.95950  0.53609  0.67329  Biso   1.000  C
  O76      1.0000 0.01265  0.46013  0.66406  Biso   1.000  O
  C395     1.0000 0.64409  0.31610  0.24375  Biso   1.000  C
  C396     1.0000 0.74093  0.39424  0.25696  Biso   1.000  C
  H471     1.0000 0.84501  0.08318  0.32690  Biso   1.000  H
  H472     1.0000 0.88599  0.02384  0.39160  Biso   1.000  H
  H473     1.0000 0.87690  0.15553  0.39000  Biso   1.000  H
  H474     1.0000 0.00462  0.99161  0.71250  Biso   1.000  H
  H475     1.0000 0.00283  0.87594  0.68224  Biso   1.000  H
  C397     1.0000 0.06858  0.92748  0.75415  Biso   1.000  C
  H476     1.0000 0.00462  0.99152  0.71250  Biso   1.000  H
  H477     1.0000 0.00283  0.87586  0.68224  Biso   1.000  H
  H478     1.0000 0.88212  0.54079  0.72290  Biso   1.000  H
  H479     1.0000 0.83573  0.47297  0.69413  Biso   1.000  H
  H480     1.0000 0.84073  0.53911  0.64874  Biso   1.000  H
  C398     1.0000 0.97361  0.65377  0.67071  Biso   1.000  C
  C399     1.0000 0.03160  0.36445  0.65811  Biso   1.000  C
  H481     1.0000 0.64521  0.29621  0.21062  Biso   1.000  H
  H482     1.0000 0.62130  0.37586  0.22880  Biso   1.000  H
  H483     1.0000 0.63521  0.24996  0.25480  Biso   1.000  H
  C400     1.0000 0.77146  0.49421  0.29584  Biso   1.000  C
  H484     1.0000 0.70811  0.41682  0.23063  Biso   1.000  H
  H485     1.0000 0.74711  0.37057  0.22880  Biso   1.000  H
  Br23     1.0000 0.09608  0.82038  0.73358  Biso   1.000  Br
  H486     1.0000 0.07052  0.89760  0.78891  Biso   1.000  H
  H487     1.0000 0.08602  0.99891  0.76820  Biso   1.000  H
  Br24     1.0000 0.10494  0.85379  0.73653  Biso   1.000  Br
  H488     1.0000 0.06953  0.88064  0.78432  Biso   1.000  H
  H489     1.0000 0.08341  0.00008  0.77481  Biso   1.000  H
  H490     1.0000 0.96973  0.70547  0.69484  Biso   1.000  H
  C401     1.0000 0.94472  0.69456  0.60372  Biso   1.000  C
  H491     1.0000 0.00660  0.65394  0.69020  Biso   1.000  H
  H492     1.0000 0.04832  0.31962  0.69652  Biso   1.000  H
  H493     1.0000 0.05292  0.38795  0.65122  Biso   1.000  H
  H494     1.0000 0.00661  0.31929  0.62241  Biso   1.000  H
  C402     1.0000 0.75605  0.57294  0.31580  Biso   1.000  C
  C403     1.0000 0.81442  0.50823  0.31322  Biso   1.000  C
  C404     1.0000 0.90115  0.74098  0.57332  Biso   1.000  C
  C405     1.0000 0.95998  0.68155  0.57041  Biso   1.000  C
  C406     1.0000 0.78320  0.66451  0.35192  Biso   1.000  C
  H495     1.0000 0.72652  0.56379  0.30451  Biso   1.000  H
  O77      1.0000 0.82902  0.42723  0.29350  Biso   1.000  O
  C407     1.0000 0.84160  0.60081  0.34878  Biso   1.000  C
  O78      1.0000 0.88835  0.75609  0.60962  Biso   1.000  O
  C408     1.0000 0.87348  0.76926  0.51040  Biso   1.000  C
  C409     1.0000 0.93243  0.71076  0.50764  Biso   1.000  C
  H496     1.0000 0.99002  0.65184  0.59093  Biso   1.000  H
  O79      1.0000 0.77029  0.74501  0.37323  Biso   1.000  O
  C410     1.0000 0.82628  0.68004  0.36803  Biso   1.000  C
  C411     1.0000 0.87658  0.41850  0.32652  Biso   1.000  C
  H497     1.0000 0.87112  0.60954  0.35993  Biso   1.000  H
  C412     1.0000 0.84283  0.79335  0.57941  Biso   1.000  C
  H498     1.0000 0.84371  0.79990  0.49021  Biso   1.000  H
  C413     1.0000 0.88817  0.75424  0.47639  Biso   1.000  C
  O80      1.0000 0.94608  0.69884  0.47250  Biso   1.000  O
  C414     1.0000 0.72496  0.73611  0.35304  Biso   1.000  C
  C415     1.0000 0.85670  0.77992  0.40720  Biso   1.000  C
  H499     1.0000 0.88730  0.48540  0.31879  Biso   1.000  H
  H500     1.0000 0.88283  0.35169  0.31242  Biso   1.000  H
  H501     1.0000 0.89290  0.41220  0.37140  Biso   1.000  H
  H502     1.0000 0.83841  0.86797  0.56142  Biso   1.000  H
  H503     1.0000 0.83792  0.79738  0.60990  Biso   1.000  H
  H504     1.0000 0.82073  0.74064  0.54600  Biso   1.000  H
  C416     1.0000 0.99126  0.65964  0.50501  Biso   1.000  C
  H505     1.0000 0.70232  0.73728  0.30722  Biso   1.000  H
  H506     1.0000 0.71912  0.79940  0.36972  Biso   1.000  H
  H507     1.0000 0.72210  0.66560  0.36841  Biso   1.000  H
  H508     1.0000 0.87561  0.80065  0.39539  Biso   1.000  H
  H509     1.0000 0.83690  0.84497  0.39811  Biso   1.000  H
  H510     1.0000 0.99161  0.57764  0.50782  Biso   1.000  H
  H511     1.0000 0.01152  0.69179  0.54732  Biso   1.000  H
  H512     1.0000 0.00222  0.68231  0.48271  Biso   1.000  H
  C417     1.0000 0.41622  0.29747  0.17760  Biso   1.000  C
  C418     1.0000 0.38143  0.35076  0.11342  Biso   1.000  C
  H513     1.0000 0.44411  0.34548  0.20332  Biso   1.000  H
  H514     1.0000 0.40270  0.29470  0.19849  Biso   1.000  H
  C419     1.0000 0.43056  0.17945  0.17544  Biso   1.000  C
  C420     1.0000 0.33475  0.35488  0.08465  Biso   1.000  C
  C421     1.0000 0.39533  0.39802  0.08194  Biso   1.000  C
  C422     1.0000 0.41046  0.08469  0.17825  Biso   1.000  C
  C423     1.0000 0.46492  0.16468  0.17123  Biso   1.000  C
  C424     1.0000 0.30234  0.40079  0.02488  Biso   1.000  C
  H515     1.0000 0.32482  0.32600  0.10602  Biso   1.000  H
  C425     1.0000 0.36303  0.43730  0.02132  Biso   1.000  C
  O81      1.0000 0.44241  0.40138  0.11482  Biso   1.000  O
  O82      1.0000 0.37638  0.10206  0.18252  Biso   1.000  O
  C426     1.0000 0.42542  0.97860  0.17769  Biso   1.000  C
  C427     1.0000 0.47902  0.05859  0.16940  Biso   1.000  C
  H516     1.0000 0.47908  0.22872  0.16959  Biso   1.000  H
  O83      1.0000 0.25627  0.41355  0.99574  Biso   1.000  O
  C428     1.0000 0.31607  0.43789  0.99143  Biso   1.000  C
  H517     1.0000 0.37302  0.46450  0.99977  Biso   1.000  H
  C429     1.0000 0.45927  0.46878  0.09084  Biso   1.000  C
  C430     1.0000 0.35726  0.00478  0.18744  Biso   1.000  C
  H518     1.0000 0.41180  0.91439  0.18041  Biso   1.000  H
  C431     1.0000 0.45949  0.96391  0.17329  Biso   1.000  C
  O84      1.0000 0.51264  0.03987  0.16406  Biso   1.000  O
  C432     1.0000 0.24189  0.38686  0.03106  Biso   1.000  C
  C433     1.0000 0.28088  0.47583  0.92392  Biso   1.000  C
  H519     1.0000 0.45450  0.43000  0.05561  Biso   1.000  H
  H520     1.0000 0.44281  0.54155  0.07561  Biso   1.000  H
  C434     1.0000 0.51025  0.48674  0.14424  Biso   1.000  C
  H521     1.0000 0.33570  0.02703  0.19409  Biso   1.000  H
  H522     1.0000 0.38212  0.95921  0.22290  Biso   1.000  H
  H523     1.0000 0.34070  0.96089  0.14869  Biso   1.000  H
  C435     1.0000 0.47358  0.84623  0.17066  Biso   1.000  C
  C436     1.0000 0.53157  0.13547  0.15806  Biso   1.000  C
  C437     1.0000 0.19310  0.42933  0.99513  Biso   1.000  C
  H524     1.0000 0.24300  0.30468  0.03710  Biso   1.000  H
  H525     1.0000 0.26281  0.42295  0.07280  Biso   1.000  H
  C438     1.0000 0.26943  0.38299  0.87848  Biso   1.000  C
  H526     1.0000 0.25231  0.49958  0.91563  Biso   1.000  H
  H527     1.0000 0.29321  0.54138  0.91703  Biso   1.000  H
  H528     1.0000 0.52590  0.41304  0.15961  Biso   1.000  H
  H529     1.0000 0.52368  0.52929  0.12878  Biso   1.000  H
  C439     1.0000 0.51889  0.55086  0.19830  Biso   1.000  C
  H530     1.0000 0.46971  0.79453  0.19479  Biso   1.000  H
  H531     1.0000 0.50660  0.84598  0.19020  Biso   1.000  H
  C440     1.0000 0.44472  0.80536  0.10372  Biso   1.000  C
  H532     1.0000 0.54832  0.18038  0.19652  Biso   1.000  H
  H533     1.0000 0.55291  0.11197  0.15122  Biso   1.000  H
  H534     1.0000 0.50660  0.18071  0.12241  Biso   1.000  H
  C441     1.0000 0.17193  0.38417  0.02305  Biso   1.000  C
  H535     1.0000 0.19332  0.51234  0.99625  Biso   1.000  H
  H536     1.0000 0.17403  0.40549  0.95086  Biso   1.000  H
  C442     1.0000 0.23314  0.30888  0.85571  Biso   1.000  C
  C443     1.0000 0.29589  0.36461  0.86025  Biso   1.000  C
  H537     1.0000 0.50461  0.50839  0.21250  Biso   1.000  H
  H538     1.0000 0.50280  0.62406  0.18219  Biso   1.000  H
  C444     1.0000 0.56858  0.57244  0.25415  Biso   1.000  C
  C445     1.0000 0.40113  0.75894  0.07327  Biso   1.000  C
  C446     1.0000 0.45998  0.81845  0.07041  Biso   1.000  C
  H539     1.0000 0.19250  0.40196  0.06830  Biso   1.000  H
  H540     1.0000 0.16902  0.30149  0.01841  Biso   1.000  H
  C447     1.0000 0.12519  0.43512  0.99082  Biso   1.000  C
  C448     1.0000 0.22363  0.22058  0.81636  Biso   1.000  C
  H541     1.0000 0.21451  0.31887  0.86733  Biso   1.000  H
  O85      1.0000 0.33146  0.44032  0.88373  Biso   1.000  O
  C449     1.0000 0.28619  0.27724  0.82095  Biso   1.000  C
  Br25     1.0000 0.59605  0.67962  0.23353  Biso   1.000  Br
  H542     1.0000 0.57051  0.60240  0.28891  Biso   1.000  H
  H543     1.0000 0.58599  0.50109  0.26820  Biso   1.000  H
  Br26     1.0000 0.60492  0.64621  0.23648  Biso   1.000  Br
  H544     1.0000 0.56950  0.61927  0.28432  Biso   1.000  H
  H545     1.0000 0.58340  0.49992  0.27481  Biso   1.000  H
  O86      1.0000 0.38835  0.74391  0.10962  Biso   1.000  O
  C450     1.0000 0.37348  0.73074  0.01040  Biso   1.000  C
  C451     1.0000 0.43242  0.78924  0.00764  Biso   1.000  C
  H546     1.0000 0.48999  0.84808  0.09088  Biso   1.000  H
  Br27     1.0000 0.09181  0.35723  0.01260  Biso   1.000  Br
  H547     1.0000 0.12891  0.51511  0.00281  Biso   1.000  H
  H548     1.0000 0.10693  0.43159  0.94486  Biso   1.000  H
  O87      1.0000 0.18831  0.14596  0.79734  Biso   1.000  O
  C452     1.0000 0.24969  0.20363  0.79814  Biso   1.000  C
  C453     1.0000 0.36221  0.41766  0.87215  Biso   1.000  C
  H549     1.0000 0.30471  0.26700  0.80924  Biso   1.000  H
  C454     1.0000 0.34283  0.70665  0.07941  Biso   1.000  C
  H550     1.0000 0.34372  0.70010  0.99026  Biso   1.000  H
  C455     1.0000 0.38816  0.74576  0.97639  Biso   1.000  C
  O88      1.0000 0.44610  0.80099  0.97255  Biso   1.000  O
  C456     1.0000 0.14408  0.18390  0.74375  Biso   1.000  C
  C457     1.0000 0.24095  0.10567  0.75700  Biso   1.000  C
  H551     1.0000 0.34502  0.41682  0.82695  Biso   1.000  H
  H552     1.0000 0.38601  0.47616  0.89164  Biso   1.000  H
  H553     1.0000 0.37691  0.34447  0.89005  Biso   1.000  H
  H554     1.0000 0.33841  0.63203  0.06142  Biso   1.000  H
  H555     1.0000 0.33789  0.70262  0.10990  Biso   1.000  H
  H556     1.0000 0.32069  0.75927  0.04600  Biso   1.000  H
  C458     1.0000 0.35670  0.71999  0.90720  Biso   1.000  C
  C459     1.0000 0.49125  0.84027  0.00501  Biso   1.000  C
  H557     1.0000 0.14521  0.20379  0.71063  Biso   1.000  H
  H558     1.0000 0.12132  0.12406  0.72885  Biso   1.000  H
  H559     1.0000 0.13523  0.24996  0.75485  Biso   1.000  H
  C460     1.0000 0.27143  0.00579  0.79584  Biso   1.000  C
  H560     1.0000 0.20811  0.08318  0.73063  Biso   1.000  H
  H561     1.0000 0.24713  0.12943  0.72885  Biso   1.000  H
  C461     1.0000 0.32627  0.81996  0.86803  Biso   1.000  C
  H562     1.0000 0.37563  0.69935  0.89544  Biso   1.000  H
  H563     1.0000 0.33692  0.65503  0.89815  Biso   1.000  H
  H564     1.0000 0.50224  0.81769  0.98276  Biso   1.000  H
  H565     1.0000 0.51151  0.80821  0.04732  Biso   1.000  H
  H566     1.0000 0.49160  0.92228  0.00782  Biso   1.000  H
  C462     1.0000 0.25604  0.92706  0.81580  Biso   1.000  C
  C463     1.0000 0.31444  0.99177  0.81327  Biso   1.000  C
  C464     1.0000 0.28322  0.83549  0.85196  Biso   1.000  C
  C465     1.0000 0.34159  0.89919  0.84882  Biso   1.000  C
  H567     1.0000 0.22653  0.93621  0.80455  Biso   1.000  H
  O89      1.0000 0.32903  0.07277  0.79354  Biso   1.000  O
  O90      1.0000 0.27031  0.75491  0.87328  Biso   1.000  O
  H568     1.0000 0.37111  0.89038  0.85993  Biso   1.000  H
  C466     1.0000 0.37660  0.08150  0.82657  Biso   1.000  C
  C467     1.0000 0.22498  0.76389  0.85309  Biso   1.000  C
  H569     1.0000 0.38732  0.01460  0.81884  Biso   1.000  H
  H570     1.0000 0.38280  0.14831  0.81242  Biso   1.000  H
  H571     1.0000 0.39292  0.08780  0.87145  Biso   1.000  H
  H572     1.0000 0.20232  0.76272  0.80722  Biso   1.000  H
  H573     1.0000 0.21914  0.70060  0.86976  Biso   1.000  H
  H574     1.0000 0.22212  0.83440  0.86845  Biso   1.000  H
  C468     1.0000 0.41622  0.29747  0.17760  Biso   1.000  C
  C469     1.0000 0.38143  0.35076  0.11342  Biso   1.000  C
  H575     1.0000 0.44411  0.34548  0.20332  Biso   1.000  H
  H576     1.0000 0.40270  0.29470  0.19849  Biso   1.000  H
  C470     1.0000 0.43056  0.17945  0.17544  Biso   1.000  C
  C471     1.0000 0.39533  0.39802  0.08194  Biso   1.000  C
  C472     1.0000 0.33475  0.35488  0.08465  Biso   1.000  C
  C473     1.0000 0.41046  0.08469  0.17825  Biso   1.000  C
  C474     1.0000 0.46492  0.16468  0.17123  Biso   1.000  C
  O91      1.0000 0.44241  0.40138  0.11482  Biso   1.000  O
  C475     1.0000 0.36303  0.43730  0.02132  Biso   1.000  C
  C476     1.0000 0.30234  0.40079  0.02488  Biso   1.000  C
  H577     1.0000 0.32482  0.32600  0.10602  Biso   1.000  H
  C477     1.0000 0.42542  0.97860  0.17769  Biso   1.000  C
  O92      1.0000 0.37638  0.10206  0.18252  Biso   1.000  O
  C478     1.0000 0.47902  0.05859  0.16940  Biso   1.000  C
  H578     1.0000 0.47908  0.22872  0.16959  Biso   1.000  H
  C479     1.0000 0.45927  0.46878  0.09084  Biso   1.000  C
  H579     1.0000 0.37302  0.46450  0.99977  Biso   1.000  H
  C480     1.0000 0.31607  0.43789  0.99143  Biso   1.000  C
  O93      1.0000 0.25627  0.41355  0.99574  Biso   1.000  O
  H580     1.0000 0.41180  0.91439  0.18041  Biso   1.000  H
  C481     1.0000 0.45949  0.96391  0.17329  Biso   1.000  C
  C482     1.0000 0.35726  0.00478  0.18744  Biso   1.000  C
  O94      1.0000 0.51264  0.03987  0.16406  Biso   1.000  O
  H581     1.0000 0.45450  0.43000  0.05561  Biso   1.000  H
  H582     1.0000 0.44281  0.54155  0.07561  Biso   1.000  H
  C483     1.0000 0.51025  0.48674  0.14424  Biso   1.000  C
  C484     1.0000 0.28088  0.47583  0.92392  Biso   1.000  C
  C485     1.0000 0.24189  0.38686  0.03106  Biso   1.000  C
  C486     1.0000 0.47358  0.84623  0.17066  Biso   1.000  C
  H583     1.0000 0.38212  0.95921  0.22290  Biso   1.000  H
  H584     1.0000 0.34070  0.96089  0.14869  Biso   1.000  H
  H585     1.0000 0.33570  0.02703  0.19409  Biso   1.000  H
  C487     1.0000 0.53157  0.13547  0.15806  Biso   1.000  C
  H586     1.0000 0.52590  0.41304  0.15961  Biso   1.000  H
  H587     1.0000 0.52368  0.52929  0.12878  Biso   1.000  H
  C488     1.0000 0.51889  0.55086  0.19830  Biso   1.000  C
  C489     1.0000 0.26943  0.38299  0.87848  Biso   1.000  C
  H588     1.0000 0.25231  0.49958  0.91563  Biso   1.000  H
  H589     1.0000 0.29321  0.54138  0.91703  Biso   1.000  H
  C490     1.0000 0.19310  0.42933  0.99513  Biso   1.000  C
  H590     1.0000 0.24300  0.30468  0.03710  Biso   1.000  H
  H591     1.0000 0.26281  0.42295  0.07280  Biso   1.000  H
  H592     1.0000 0.46971  0.79453  0.19479  Biso   1.000  H
  H593     1.0000 0.50660  0.84598  0.19020  Biso   1.000  H
  C491     1.0000 0.44472  0.80536  0.10372  Biso   1.000  C
  H594     1.0000 0.54832  0.18038  0.19652  Biso   1.000  H
  H595     1.0000 0.55291  0.11197  0.15122  Biso   1.000  H
  H596     1.0000 0.50660  0.18071  0.12241  Biso   1.000  H
  H597     1.0000 0.50461  0.50839  0.21250  Biso   1.000  H
  H598     1.0000 0.50280  0.62406  0.18219  Biso   1.000  H
  C492     1.0000 0.56858  0.57244  0.25415  Biso   1.000  C
  C493     1.0000 0.23314  0.30888  0.85571  Biso   1.000  C
  C494     1.0000 0.29589  0.36461  0.86025  Biso   1.000  C
  H599     1.0000 0.19332  0.51234  0.99625  Biso   1.000  H
  H600     1.0000 0.17403  0.40549  0.95086  Biso   1.000  H
  C495     1.0000 0.17193  0.38417  0.02305  Biso   1.000  C
  C496     1.0000 0.40113  0.75894  0.07327  Biso   1.000  C
  C497     1.0000 0.45998  0.81845  0.07041  Biso   1.000  C
  Br28     1.0000 0.59605  0.67962  0.23353  Biso   1.000  Br
  H601     1.0000 0.57051  0.60240  0.28891  Biso   1.000  H
  H602     1.0000 0.58599  0.50109  0.26820  Biso   1.000  H
  Br29     1.0000 0.60492  0.64621  0.23648  Biso   1.000  Br
  H603     1.0000 0.56950  0.61927  0.28432  Biso   1.000  H
  H604     1.0000 0.58340  0.49992  0.27481  Biso   1.000  H
  C498     1.0000 0.22363  0.22058  0.81636  Biso   1.000  C
  H605     1.0000 0.21451  0.31887  0.86733  Biso   1.000  H
  O95      1.0000 0.33146  0.44032  0.88373  Biso   1.000  O
  C499     1.0000 0.28619  0.27724  0.82095  Biso   1.000  C
  C500     1.0000 0.12519  0.43512  0.99082  Biso   1.000  C
  H606     1.0000 0.19250  0.40196  0.06830  Biso   1.000  H
  H607     1.0000 0.16902  0.30149  0.01841  Biso   1.000  H
  O96      1.0000 0.38835  0.74391  0.10962  Biso   1.000  O
  C501     1.0000 0.37348  0.73074  0.01040  Biso   1.000  C
  C502     1.0000 0.43242  0.78924  0.00764  Biso   1.000  C
  H608     1.0000 0.48999  0.84808  0.09088  Biso   1.000  H
  O97      1.0000 0.18831  0.14596  0.79734  Biso   1.000  O
  C503     1.0000 0.24969  0.20363  0.79814  Biso   1.000  C
  C504     1.0000 0.36221  0.41766  0.87215  Biso   1.000  C
  H609     1.0000 0.30471  0.26700  0.80924  Biso   1.000  H
  H610     1.0000 0.10693  0.43159  0.94486  Biso   1.000  H
  Br30     1.0000 0.09181  0.35723  0.01260  Biso   1.000  Br
  H611     1.0000 0.12891  0.51511  0.00281  Biso   1.000  H
  C505     1.0000 0.34283  0.70665  0.07941  Biso   1.000  C
  H612     1.0000 0.34372  0.70010  0.99026  Biso   1.000  H
  C506     1.0000 0.38816  0.74576  0.97639  Biso   1.000  C
  O98      1.0000 0.44610  0.80099  0.97255  Biso   1.000  O
  C507     1.0000 0.14408  0.18390  0.74375  Biso   1.000  C
  C508     1.0000 0.24095  0.10567  0.75700  Biso   1.000  C
  H613     1.0000 0.34502  0.41682  0.82695  Biso   1.000  H
  H614     1.0000 0.38601  0.47616  0.89164  Biso   1.000  H
  H615     1.0000 0.37691  0.34447  0.89005  Biso   1.000  H
  H616     1.0000 0.33841  0.63203  0.06142  Biso   1.000  H
  H617     1.0000 0.33789  0.70262  0.10990  Biso   1.000  H
  H618     1.0000 0.32069  0.75927  0.04600  Biso   1.000  H
  C509     1.0000 0.35670  0.71999  0.90720  Biso   1.000  C
  C510     1.0000 0.49125  0.84027  0.00501  Biso   1.000  C
  H619     1.0000 0.14521  0.20379  0.71063  Biso   1.000  H
  H620     1.0000 0.12132  0.12406  0.72885  Biso   1.000  H
  H621     1.0000 0.13523  0.24996  0.75485  Biso   1.000  H
  C511     1.0000 0.27143  0.00579  0.79584  Biso   1.000  C
  H622     1.0000 0.20811  0.08318  0.73063  Biso   1.000  H
  H623     1.0000 0.24713  0.12943  0.72885  Biso   1.000  H
  C512     1.0000 0.32627  0.81996  0.86803  Biso   1.000  C
  H624     1.0000 0.37563  0.69935  0.89544  Biso   1.000  H
  H625     1.0000 0.33692  0.65503  0.89815  Biso   1.000  H
  H626     1.0000 0.50224  0.81769  0.98276  Biso   1.000  H
  H627     1.0000 0.51151  0.80821  0.04732  Biso   1.000  H
  H628     1.0000 0.49160  0.92228  0.00782  Biso   1.000  H
  C513     1.0000 0.25604  0.92706  0.81580  Biso   1.000  C
  C514     1.0000 0.31444  0.99177  0.81327  Biso   1.000  C
  C515     1.0000 0.28322  0.83549  0.85196  Biso   1.000  C
  C516     1.0000 0.34159  0.89919  0.84882  Biso   1.000  C
  H629     1.0000 0.22653  0.93621  0.80455  Biso   1.000  H
  O99      1.0000 0.32903  0.07277  0.79354  Biso   1.000  O
  O100     1.0000 0.27031  0.75491  0.87328  Biso   1.000  O
  H630     1.0000 0.37111  0.89038  0.85993  Biso   1.000  H
  C517     1.0000 0.37660  0.08150  0.82657  Biso   1.000  C
  C518     1.0000 0.22498  0.76389  0.85309  Biso   1.000  C
  H631     1.0000 0.38732  0.01460  0.81884  Biso   1.000  H
  H632     1.0000 0.38280  0.14831  0.81242  Biso   1.000  H
  H633     1.0000 0.39292  0.08780  0.87145  Biso   1.000  H
  H634     1.0000 0.20232  0.76272  0.80722  Biso   1.000  H
  H635     1.0000 0.21914  0.70060  0.86976  Biso   1.000  H
  H636     1.0000 0.22212  0.83440  0.86845  Biso   1.000  H
  C519     1.0000 0.58379  0.70245  0.82240  Biso   1.000  C
  C520     1.0000 0.61861  0.64915  0.88658  Biso   1.000  C
  H637     1.0000 0.55592  0.65444  0.79673  Biso   1.000  H
  H638     1.0000 0.59733  0.70530  0.80151  Biso   1.000  H
  C521     1.0000 0.56948  0.82046  0.82460  Biso   1.000  C
  C522     1.0000 0.60470  0.60198  0.91811  Biso   1.000  C
  C523     1.0000 0.66526  0.64512  0.91535  Biso   1.000  C
  C524     1.0000 0.58960  0.91523  0.82179  Biso   1.000  C
  C525     1.0000 0.53511  0.83532  0.82882  Biso   1.000  C
  O101     1.0000 0.55763  0.59862  0.88522  Biso   1.000  O
  C526     1.0000 0.63701  0.56262  0.97873  Biso   1.000  C
  C527     1.0000 0.69769  0.59913  0.97517  Biso   1.000  C
  H639     1.0000 0.67524  0.67400  0.89403  Biso   1.000  H
  O102     1.0000 0.62363  0.89785  0.81748  Biso   1.000  O
  C528     1.0000 0.57461  0.02149  0.82236  Biso   1.000  C
  C529     1.0000 0.52101  0.94141  0.83065  Biso   1.000  C
  H640     1.0000 0.52093  0.77128  0.83041  Biso   1.000  H
  C530     1.0000 0.54079  0.53114  0.90921  Biso   1.000  C
  H641     1.0000 0.62701  0.53550  0.00028  Biso   1.000  H
  C531     1.0000 0.68394  0.56211  0.00857  Biso   1.000  C
  O103     1.0000 0.74376  0.58637  0.00431  Biso   1.000  O
  C532     1.0000 0.64277  0.99513  0.81261  Biso   1.000  C
  H642     1.0000 0.58823  0.08553  0.81964  Biso   1.000  H
  C533     1.0000 0.54057  0.03609  0.82676  Biso   1.000  C
  O104     1.0000 0.48741  0.96013  0.83599  Biso   1.000  O
  C534     1.0000 0.48979  0.51318  0.85580  Biso   1.000  C
  H643     1.0000 0.54554  0.57000  0.94444  Biso   1.000  H
  H644     1.0000 0.55725  0.45837  0.92444  Biso   1.000  H
  C535     1.0000 0.71916  0.52417  0.07613  Biso   1.000  C
  C536     1.0000 0.75814  0.61314  0.96899  Biso   1.000  C
  H645     1.0000 0.66431  0.97297  0.80591  Biso   1.000  H
  H646     1.0000 0.61792  0.04088  0.77710  Biso   1.000  H
  H647     1.0000 0.65931  0.03903  0.85131  Biso   1.000  H
  C537     1.0000 0.52643  0.15385  0.82934  Biso   1.000  C
  C538     1.0000 0.46846  0.86445  0.84194  Biso   1.000  C
  C539     1.0000 0.48114  0.44905  0.80174  Biso   1.000  C
  H648     1.0000 0.47414  0.58687  0.84044  Biso   1.000  H
  H649     1.0000 0.47633  0.47071  0.87122  Biso   1.000  H
  C540     1.0000 0.73060  0.61701  0.12152  Biso   1.000  C
  H650     1.0000 0.74770  0.50042  0.08437  Biso   1.000  H
  H651     1.0000 0.70680  0.45862  0.08297  Biso   1.000  H
  H652     1.0000 0.75703  0.69523  0.96294  Biso   1.000  H
  H653     1.0000 0.73725  0.57697  0.92725  Biso   1.000  H
  C541     1.0000 0.80691  0.57059  0.00487  Biso   1.000  C
  H654     1.0000 0.53033  0.20556  0.80521  Biso   1.000  H
  H655     1.0000 0.49343  0.15394  0.80985  Biso   1.000  H
  C542     1.0000 0.55531  0.19464  0.89633  Biso   1.000  C
  H656     1.0000 0.45171  0.81954  0.80352  Biso   1.000  H
  H657     1.0000 0.44712  0.88795  0.84882  Biso   1.000  H
  H658     1.0000 0.49343  0.81929  0.87763  Biso   1.000  H
  C543     1.0000 0.43145  0.42748  0.74590  Biso   1.000  C
  H659     1.0000 0.49543  0.49161  0.78750  Biso   1.000  H
  H660     1.0000 0.49721  0.37586  0.81781  Biso   1.000  H
  C544     1.0000 0.76690  0.69112  0.14429  Biso   1.000  C
  C545     1.0000 0.70412  0.63539  0.13974  Biso   1.000  C
  C546     1.0000 0.82813  0.61575  0.97700  Biso   1.000  C
  H661     1.0000 0.80671  0.48758  0.00379  Biso   1.000  H
  H662     1.0000 0.82603  0.59451  0.04919  Biso   1.000  H
  C547     1.0000 0.59891  0.24106  0.92673  Biso   1.000  C
  C548     1.0000 0.54006  0.18155  0.92964  Biso   1.000  C
  Br31     1.0000 0.40396  0.32038  0.76647  Biso   1.000  Br
  H663     1.0000 0.42952  0.39760  0.71114  Biso   1.000  H
  H664     1.0000 0.41402  0.49891  0.73180  Biso   1.000  H
  Br32     1.0000 0.39512  0.35379  0.76352  Biso   1.000  Br
  H665     1.0000 0.43053  0.38064  0.71573  Biso   1.000  H
  H666     1.0000 0.41663  0.50008  0.72524  Biso   1.000  H
  C549     1.0000 0.77641  0.77934  0.18369  Biso   1.000  C
  H667     1.0000 0.78550  0.68105  0.13267  Biso   1.000  H
  O105     1.0000 0.66857  0.55959  0.11632  Biso   1.000  O
  C550     1.0000 0.71382  0.72268  0.17905  Biso   1.000  C
  H668     1.0000 0.80753  0.59795  0.93174  Biso   1.000  H
  H669     1.0000 0.83104  0.69851  0.98164  Biso   1.000  H
  C551     1.0000 0.87484  0.56488  0.00923  Biso   1.000  C
  O106     1.0000 0.61169  0.25609  0.89042  Biso   1.000  O
  C552     1.0000 0.62655  0.26935  0.98965  Biso   1.000  C
  C553     1.0000 0.56761  0.21084  0.99241  Biso   1.000  C
  H670     1.0000 0.51002  0.15192  0.90912  Biso   1.000  H
  O107     1.0000 0.81172  0.85404  0.20266  Biso   1.000  O
  C554     1.0000 0.75035  0.79637  0.20191  Biso   1.000  C
  C555     1.0000 0.63783  0.58226  0.12785  Biso   1.000  C
  H671     1.0000 0.69532  0.73300  0.19081  Biso   1.000  H
  Br33     1.0000 0.90822  0.64269  0.98744  Biso   1.000  Br
  H672     1.0000 0.87114  0.48489  0.99724  Biso   1.000  H
  H673     1.0000 0.89312  0.56841  0.05519  Biso   1.000  H
  C556     1.0000 0.65721  0.29344  0.92064  Biso   1.000  C
  H674     1.0000 0.65631  0.29990  0.00979  Biso   1.000  H
  C557     1.0000 0.61187  0.25424  0.02361  Biso   1.000  C
  O108     1.0000 0.55396  0.19884  0.02750  Biso   1.000  O
  C558     1.0000 0.85593  0.81610  0.25625  Biso   1.000  C
  C559     1.0000 0.75911  0.89424  0.24304  Biso   1.000  C
  H675     1.0000 0.65501  0.58318  0.17310  Biso   1.000  H
  H676     1.0000 0.61402  0.52375  0.10840  Biso   1.000  H
  H677     1.0000 0.62312  0.65545  0.11000  Biso   1.000  H
  H678     1.0000 0.66163  0.36805  0.93863  Biso   1.000  H
  H679     1.0000 0.66214  0.29747  0.89014  Biso   1.000  H
  H680     1.0000 0.67934  0.24073  0.95404  Biso   1.000  H
  C560     1.0000 0.64331  0.28001  0.09280  Biso   1.000  C
  C561     1.0000 0.50881  0.15973  0.99503  Biso   1.000  C
  H681     1.0000 0.85480  0.79621  0.28937  Biso   1.000  H
  H682     1.0000 0.87872  0.87586  0.27120  Biso   1.000  H
  H683     1.0000 0.86483  0.74996  0.24520  Biso   1.000  H
  C562     1.0000 0.72858  0.99421  0.20416  Biso   1.000  C
  H684     1.0000 0.79190  0.91674  0.26937  Biso   1.000  H
  H685     1.0000 0.75293  0.87057  0.27120  Biso   1.000  H
  C563     1.0000 0.67374  0.18004  0.13197  Biso   1.000  C
  H686     1.0000 0.62441  0.30074  0.10456  Biso   1.000  H
  H687     1.0000 0.66311  0.34506  0.10189  Biso   1.000  H
  H688     1.0000 0.48852  0.19188  0.95273  Biso   1.000  H
  H689     1.0000 0.50843  0.07772  0.99222  Biso   1.000  H
  H690     1.0000 0.49782  0.18231  0.01729  Biso   1.000  H
  C564     1.0000 0.74397  0.07294  0.18420  Biso   1.000  C
  C565     1.0000 0.68559  0.00831  0.18678  Biso   1.000  C
  C566     1.0000 0.71681  0.16460  0.14808  Biso   1.000  C
  C567     1.0000 0.65844  0.10089  0.15122  Biso   1.000  C
  H691     1.0000 0.77353  0.06379  0.19549  Biso   1.000  H
  O109     1.0000 0.67100  0.92723  0.20650  Biso   1.000  O
  O110     1.0000 0.72975  0.24509  0.12677  Biso   1.000  O
  H692     1.0000 0.62890  0.10954  0.14007  Biso   1.000  H
  C568     1.0000 0.62346  0.91850  0.17347  Biso   1.000  C
  C569     1.0000 0.77508  0.23611  0.14696  Biso   1.000  C
  H693     1.0000 0.61271  0.98540  0.18120  Biso   1.000  H
  H694     1.0000 0.61721  0.85169  0.18758  Biso   1.000  H
  H695     1.0000 0.60712  0.91212  0.12860  Biso   1.000  H
  H696     1.0000 0.79772  0.23728  0.19278  Biso   1.000  H
  H697     1.0000 0.78092  0.29940  0.13028  Biso   1.000  H
  H698     1.0000 0.77791  0.16560  0.13159  Biso   1.000  H
  C570     1.0000 0.58379  0.70245  0.82240  Biso   1.000  C
  C571     1.0000 0.61861  0.64915  0.88658  Biso   1.000  C
  H699     1.0000 0.55592  0.65444  0.79673  Biso   1.000  H
  H700     1.0000 0.59733  0.70530  0.80151  Biso   1.000  H
  C572     1.0000 0.56948  0.82046  0.82460  Biso   1.000  C
  C573     1.0000 0.60470  0.60198  0.91811  Biso   1.000  C
  C574     1.0000 0.66526  0.64512  0.91535  Biso   1.000  C
  C575     1.0000 0.58960  0.91523  0.82179  Biso   1.000  C
  C576     1.0000 0.53511  0.83532  0.82882  Biso   1.000  C
  O111     1.0000 0.55763  0.59862  0.88522  Biso   1.000  O
  C577     1.0000 0.63701  0.56262  0.97873  Biso   1.000  C
  C578     1.0000 0.69769  0.59913  0.97517  Biso   1.000  C
  H701     1.0000 0.67524  0.67400  0.89403  Biso   1.000  H
  O112     1.0000 0.62363  0.89785  0.81748  Biso   1.000  O
  C579     1.0000 0.57461  0.02149  0.82236  Biso   1.000  C
  C580     1.0000 0.52101  0.94141  0.83065  Biso   1.000  C
  H702     1.0000 0.52093  0.77128  0.83041  Biso   1.000  H
  C581     1.0000 0.54079  0.53114  0.90921  Biso   1.000  C
  H703     1.0000 0.62701  0.53550  0.00028  Biso   1.000  H
  C582     1.0000 0.68394  0.56211  0.00857  Biso   1.000  C
  O113     1.0000 0.74376  0.58637  0.00431  Biso   1.000  O
  C583     1.0000 0.64277  0.99513  0.81261  Biso   1.000  C
  H704     1.0000 0.58823  0.08553  0.81964  Biso   1.000  H
  C584     1.0000 0.54057  0.03609  0.82676  Biso   1.000  C
  O114     1.0000 0.48741  0.96013  0.83599  Biso   1.000  O
  C585     1.0000 0.48979  0.51318  0.85580  Biso   1.000  C
  H705     1.0000 0.54554  0.57000  0.94444  Biso   1.000  H
  H706     1.0000 0.55725  0.45837  0.92444  Biso   1.000  H
  C586     1.0000 0.71916  0.52417  0.07613  Biso   1.000  C
  C587     1.0000 0.75814  0.61314  0.96899  Biso   1.000  C
  H707     1.0000 0.66431  0.97297  0.80591  Biso   1.000  H
  H708     1.0000 0.61792  0.04088  0.77710  Biso   1.000  H
  H709     1.0000 0.65931  0.03903  0.85131  Biso   1.000  H
  C588     1.0000 0.52643  0.15385  0.82934  Biso   1.000  C
  C589     1.0000 0.46846  0.86445  0.84194  Biso   1.000  C
  C590     1.0000 0.48114  0.44905  0.80174  Biso   1.000  C
  H710     1.0000 0.47414  0.58687  0.84044  Biso   1.000  H
  H711     1.0000 0.47633  0.47071  0.87122  Biso   1.000  H
  C591     1.0000 0.73060  0.61701  0.12152  Biso   1.000  C
  H712     1.0000 0.74770  0.50042  0.08437  Biso   1.000  H
  H713     1.0000 0.70680  0.45862  0.08297  Biso   1.000  H
  H714     1.0000 0.75703  0.69523  0.96294  Biso   1.000  H
  H715     1.0000 0.73725  0.57697  0.92725  Biso   1.000  H
  C592     1.0000 0.80691  0.57059  0.00487  Biso   1.000  C
  H716     1.0000 0.53033  0.20556  0.80521  Biso   1.000  H
  H717     1.0000 0.49343  0.15394  0.80985  Biso   1.000  H
  C593     1.0000 0.55531  0.19464  0.89633  Biso   1.000  C
  H718     1.0000 0.45171  0.81954  0.80352  Biso   1.000  H
  H719     1.0000 0.44712  0.88795  0.84882  Biso   1.000  H
  H720     1.0000 0.49343  0.81929  0.87763  Biso   1.000  H
  C594     1.0000 0.43145  0.42748  0.74590  Biso   1.000  C
  H721     1.0000 0.49543  0.49161  0.78750  Biso   1.000  H
  H722     1.0000 0.49721  0.37586  0.81781  Biso   1.000  H
  C595     1.0000 0.76690  0.69112  0.14429  Biso   1.000  C
  C596     1.0000 0.70412  0.63539  0.13974  Biso   1.000  C
  C597     1.0000 0.82813  0.61575  0.97700  Biso   1.000  C
  H723     1.0000 0.80671  0.48758  0.00379  Biso   1.000  H
  H724     1.0000 0.82603  0.59451  0.04919  Biso   1.000  H
  C598     1.0000 0.59891  0.24106  0.92673  Biso   1.000  C
  C599     1.0000 0.54006  0.18155  0.92964  Biso   1.000  C
  Br34     1.0000 0.40396  0.32038  0.76647  Biso   1.000  Br
  H725     1.0000 0.42952  0.39760  0.71114  Biso   1.000  H
  H726     1.0000 0.41402  0.49891  0.73180  Biso   1.000  H
  Br35     1.0000 0.39512  0.35379  0.76352  Biso   1.000  Br
  H727     1.0000 0.43053  0.38064  0.71573  Biso   1.000  H
  H728     1.0000 0.41663  0.50008  0.72524  Biso   1.000  H
  C600     1.0000 0.77641  0.77934  0.18369  Biso   1.000  C
  H729     1.0000 0.78550  0.68105  0.13267  Biso   1.000  H
  O115     1.0000 0.66857  0.55959  0.11632  Biso   1.000  O
  C601     1.0000 0.71382  0.72268  0.17905  Biso   1.000  C
  H730     1.0000 0.80753  0.59795  0.93174  Biso   1.000  H
  H731     1.0000 0.83104  0.69851  0.98164  Biso   1.000  H
  C602     1.0000 0.87484  0.56488  0.00923  Biso   1.000  C
  O116     1.0000 0.61169  0.25609  0.89042  Biso   1.000  O
  C603     1.0000 0.62655  0.26935  0.98965  Biso   1.000  C
  C604     1.0000 0.56761  0.21084  0.99241  Biso   1.000  C
  H732     1.0000 0.51002  0.15192  0.90912  Biso   1.000  H
  O117     1.0000 0.81172  0.85404  0.20266  Biso   1.000  O
  C605     1.0000 0.75035  0.79637  0.20191  Biso   1.000  C
  C606     1.0000 0.63783  0.58226  0.12785  Biso   1.000  C
  H733     1.0000 0.69532  0.73300  0.19081  Biso   1.000  H
  Br36     1.0000 0.90822  0.64269  0.98744  Biso   1.000  Br
  H734     1.0000 0.87114  0.48489  0.99724  Biso   1.000  H
  H735     1.0000 0.89312  0.56841  0.05519  Biso   1.000  H
  C607     1.0000 0.65721  0.29344  0.92064  Biso   1.000  C
  H736     1.0000 0.65631  0.29990  0.00979  Biso   1.000  H
  C608     1.0000 0.61187  0.25424  0.02361  Biso   1.000  C
  O118     1.0000 0.55396  0.19884  0.02750  Biso   1.000  O
  C609     1.0000 0.85593  0.81610  0.25625  Biso   1.000  C
  C610     1.0000 0.75911  0.89424  0.24304  Biso   1.000  C
  H737     1.0000 0.65501  0.58318  0.17310  Biso   1.000  H
  H738     1.0000 0.61402  0.52375  0.10840  Biso   1.000  H
  H739     1.0000 0.62312  0.65545  0.11000  Biso   1.000  H
  H740     1.0000 0.66163  0.36805  0.93863  Biso   1.000  H
  H741     1.0000 0.66214  0.29747  0.89014  Biso   1.000  H
  H742     1.0000 0.67934  0.24073  0.95404  Biso   1.000  H
  C611     1.0000 0.64331  0.28001  0.09280  Biso   1.000  C
  C612     1.0000 0.50881  0.15973  0.99503  Biso   1.000  C
  H743     1.0000 0.85480  0.79621  0.28937  Biso   1.000  H
  H744     1.0000 0.87872  0.87586  0.27120  Biso   1.000  H
  H745     1.0000 0.86483  0.74996  0.24520  Biso   1.000  H
  C613     1.0000 0.72858  0.99421  0.20416  Biso   1.000  C
  H746     1.0000 0.79190  0.91674  0.26937  Biso   1.000  H
  H747     1.0000 0.75293  0.87057  0.27120  Biso   1.000  H
  C614     1.0000 0.67374  0.18004  0.13197  Biso   1.000  C
  H748     1.0000 0.62441  0.30074  0.10456  Biso   1.000  H
  H749     1.0000 0.66311  0.34506  0.10189  Biso   1.000  H
  H750     1.0000 0.48852  0.19188  0.95273  Biso   1.000  H
  H751     1.0000 0.50843  0.07772  0.99222  Biso   1.000  H
  H752     1.0000 0.49782  0.18231  0.01729  Biso   1.000  H
  C615     1.0000 0.74397  0.07294  0.18420  Biso   1.000  C
  C616     1.0000 0.68559  0.00831  0.18678  Biso   1.000  C
  C617     1.0000 0.71681  0.16460  0.14808  Biso   1.000  C
  C618     1.0000 0.65844  0.10089  0.15122  Biso   1.000  C
  H753     1.0000 0.77353  0.06379  0.19549  Biso   1.000  H
  O119     1.0000 0.67100  0.92723  0.20650  Biso   1.000  O
  O120     1.0000 0.72975  0.24509  0.12677  Biso   1.000  O
  H754     1.0000 0.62890  0.10954  0.14007  Biso   1.000  H
  C619     1.0000 0.62346  0.91850  0.17347  Biso   1.000  C
  C620     1.0000 0.77508  0.23611  0.14696  Biso   1.000  C
  H755     1.0000 0.61271  0.98540  0.18120  Biso   1.000  H
  H756     1.0000 0.61721  0.85169  0.18758  Biso   1.000  H
  H757     1.0000 0.60712  0.91212  0.12860  Biso   1.000  H
  H758     1.0000 0.79772  0.23728  0.19278  Biso   1.000  H
  H759     1.0000 0.78092  0.29940  0.13028  Biso   1.000  H
  H760     1.0000 0.77791  0.16560  0.13159  Biso   1.000  H
  C621     1.0000 0.62519  0.93503  0.99082  Biso   1.000  C
  C622     1.0000 0.67193  0.88417  0.02305  Biso   1.000  C
  Br37     1.0000 0.59181  0.85723  0.01260  Biso   1.000  Br
  H761     1.0000 0.60693  0.93159  0.94486  Biso   1.000  H
  H762     1.0000 0.62891  0.01502  0.00281  Biso   1.000  H
  H763     1.0000 0.69250  0.90196  0.06830  Biso   1.000  H
  H764     1.0000 0.66902  0.80149  0.01841  Biso   1.000  H
  C623     1.0000 0.69310  0.92933  0.99513  Biso   1.000  C
  C624     1.0000 0.74189  0.88686  0.03106  Biso   1.000  C
  H765     1.0000 0.67403  0.90549  0.95086  Biso   1.000  H
  H766     1.0000 0.69332  0.01242  0.99625  Biso   1.000  H
  H767     1.0000 0.74300  0.80468  0.03710  Biso   1.000  H
  H768     1.0000 0.76281  0.92295  0.07280  Biso   1.000  H
  O121     1.0000 0.75627  0.91355  0.99574  Biso   1.000  O
  C625     1.0000 0.80234  0.90079  0.02488  Biso   1.000  C
  C626     1.0000 0.83475  0.85479  0.08465  Biso   1.000  C
  C627     1.0000 0.81607  0.93789  0.99143  Biso   1.000  C
  H769     1.0000 0.82482  0.82600  0.10602  Biso   1.000  H
  C628     1.0000 0.88143  0.85076  0.11342  Biso   1.000  C
  C629     1.0000 0.86303  0.93730  0.02132  Biso   1.000  C
  C630     1.0000 0.78088  0.97583  0.92392  Biso   1.000  C
  C631     1.0000 0.89533  0.89802  0.08194  Biso   1.000  C
  C632     1.0000 0.91622  0.79747  0.17760  Biso   1.000  C
  H770     1.0000 0.87302  0.96450  0.99977  Biso   1.000  H
  C633     1.0000 0.76943  0.88299  0.87848  Biso   1.000  C
  H771     1.0000 0.75231  0.99958  0.91563  Biso   1.000  H
  H772     1.0000 0.79321  0.04138  0.91703  Biso   1.000  H
  O122     1.0000 0.94241  0.90129  0.11482  Biso   1.000  O
  H773     1.0000 0.94411  0.84548  0.20332  Biso   1.000  H
  H774     1.0000 0.90270  0.79470  0.19849  Biso   1.000  H
  C634     1.0000 0.93056  0.67945  0.17544  Biso   1.000  C
  C635     1.0000 0.73314  0.80888  0.85571  Biso   1.000  C
  C636     1.0000 0.79589  0.86461  0.86025  Biso   1.000  C
  C637     1.0000 0.95927  0.96878  0.09084  Biso   1.000  C
  C638     1.0000 0.91046  0.58469  0.17825  Biso   1.000  C
  C639     1.0000 0.96492  0.66460  0.17123  Biso   1.000  C
  C640     1.0000 0.72363  0.72058  0.81636  Biso   1.000  C
  H775     1.0000 0.71451  0.81887  0.86733  Biso   1.000  H
  O123     1.0000 0.83146  0.94032  0.88373  Biso   1.000  O
  C641     1.0000 0.78619  0.77724  0.82095  Biso   1.000  C
  H776     1.0000 0.95450  0.93000  0.05561  Biso   1.000  H
  H777     1.0000 0.94281  0.04163  0.07561  Biso   1.000  H
  C642     1.0000 0.01025  0.98674  0.14424  Biso   1.000  C
  C643     1.0000 0.01025  0.98682  0.14424  Biso   1.000  C
  O124     1.0000 0.87638  0.60206  0.18252  Biso   1.000  O
  C644     1.0000 0.92542  0.47851  0.17769  Biso   1.000  C
  C645     1.0000 0.97902  0.55859  0.16940  Biso   1.000  C
  H778     1.0000 0.97908  0.72864  0.16959  Biso   1.000  H
  O125     1.0000 0.68831  0.64596  0.79734  Biso   1.000  O
  C646     1.0000 0.74969  0.70363  0.79814  Biso   1.000  C
  C647     1.0000 0.86221  0.91766  0.87215  Biso   1.000  C
  H779     1.0000 0.80471  0.76700  0.80924  Biso   1.000  H
  H780     1.0000 0.02590  0.91304  0.15961  Biso   1.000  H
  H781     1.0000 0.02590  0.91313  0.15961  Biso   1.000  H
  H782     1.0000 0.02368  0.02938  0.12878  Biso   1.000  H
  C648     1.0000 0.01889  0.05095  0.19830  Biso   1.000  C
  H783     1.0000 0.02368  0.02929  0.12878  Biso   1.000  H
  C649     1.0000 0.01889  0.05086  0.19830  Biso   1.000  C
  C650     1.0000 0.85726  0.50478  0.18744  Biso   1.000  C
  H784     1.0000 0.91180  0.41439  0.18041  Biso   1.000  H
  C651     1.0000 0.95949  0.46391  0.17329  Biso   1.000  C
  O126     1.0000 0.01264  0.53987  0.16406  Biso   1.000  O
  C652     1.0000 0.64408  0.68390  0.74375  Biso   1.000  C
  C653     1.0000 0.74095  0.60567  0.75700  Biso   1.000  C
  H785     1.0000 0.84502  0.91674  0.82695  Biso   1.000  H
  H786     1.0000 0.88601  0.97616  0.89164  Biso   1.000  H
  H787     1.0000 0.87691  0.84447  0.89005  Biso   1.000  H
  H788     1.0000 0.00461  0.00848  0.21250  Biso   1.000  H
  H789     1.0000 0.00280  0.12414  0.18219  Biso   1.000  H
  C654     1.0000 0.06858  0.07244  0.25415  Biso   1.000  C
  H790     1.0000 0.00461  0.00839  0.21250  Biso   1.000  H
  H791     1.0000 0.00280  0.12406  0.18219  Biso   1.000  H
  C655     1.0000 0.06858  0.07252  0.25415  Biso   1.000  C
  H792     1.0000 0.88212  0.45921  0.22290  Biso   1.000  H
  H793     1.0000 0.83570  0.52694  0.19409  Biso   1.000  H
  H794     1.0000 0.84070  0.46089  0.14869  Biso   1.000  H
  C656     1.0000 0.97358  0.34623  0.17066  Biso   1.000  C
  C657     1.0000 0.03157  0.63547  0.15806  Biso   1.000  C
  H795     1.0000 0.64521  0.70379  0.71063  Biso   1.000  H
  H796     1.0000 0.62132  0.62406  0.72885  Biso   1.000  H
  H797     1.0000 0.63523  0.74996  0.75485  Biso   1.000  H
  C658     1.0000 0.77143  0.50579  0.79584  Biso   1.000  C
  H798     1.0000 0.70811  0.58318  0.73063  Biso   1.000  H
  H799     1.0000 0.74713  0.62934  0.72885  Biso   1.000  H
  H800     1.0000 0.08340  0.99992  0.27481  Biso   1.000  H
  Br38     1.0000 0.09605  0.17970  0.23353  Biso   1.000  Br
  H801     1.0000 0.07051  0.10240  0.28891  Biso   1.000  H
  H802     1.0000 0.08599  0.00118  0.26820  Biso   1.000  H
  Br39     1.0000 0.10492  0.14621  0.23648  Biso   1.000  Br
  H803     1.0000 0.06950  0.11927  0.28432  Biso   1.000  H
  H804     1.0000 0.96971  0.29453  0.19479  Biso   1.000  H
  C659     1.0000 0.94472  0.30536  0.10372  Biso   1.000  C
  H805     1.0000 0.00660  0.34598  0.19020  Biso   1.000  H
  H806     1.0000 0.04832  0.68038  0.19652  Biso   1.000  H
  H807     1.0000 0.05291  0.61197  0.15122  Biso   1.000  H
  H808     1.0000 0.00660  0.68071  0.12241  Biso   1.000  H
  C660     1.0000 0.75604  0.42706  0.81580  Biso   1.000  C
  C661     1.0000 0.81444  0.49177  0.81327  Biso   1.000  C
  C662     1.0000 0.90113  0.25894  0.07327  Biso   1.000  C
  C663     1.0000 0.95998  0.31845  0.07041  Biso   1.000  C
  C664     1.0000 0.78322  0.33549  0.85196  Biso   1.000  C
  H809     1.0000 0.72653  0.43621  0.80455  Biso   1.000  H
  O127     1.0000 0.82903  0.57269  0.79354  Biso   1.000  O
  C665     1.0000 0.84159  0.39919  0.84882  Biso   1.000  C
  O128     1.0000 0.88835  0.24391  0.10962  Biso   1.000  O
  C666     1.0000 0.87348  0.23065  0.01040  Biso   1.000  C
  C667     1.0000 0.93242  0.28916  0.00764  Biso   1.000  C
  H810     1.0000 0.98999  0.34808  0.09088  Biso   1.000  H
  O129     1.0000 0.77031  0.25491  0.87328  Biso   1.000  O
  C668     1.0000 0.82627  0.31988  0.86803  Biso   1.000  C
  C669     1.0000 0.87660  0.58150  0.82657  Biso   1.000  C
  H811     1.0000 0.87111  0.39038  0.85993  Biso   1.000  H
  C670     1.0000 0.84283  0.20656  0.07941  Biso   1.000  C
  H812     1.0000 0.84372  0.20010  0.99026  Biso   1.000  H
  C671     1.0000 0.88816  0.24576  0.97639  Biso   1.000  C
  O130     1.0000 0.94610  0.30107  0.97255  Biso   1.000  O
  C672     1.0000 0.72498  0.26389  0.85309  Biso   1.000  C
  C673     1.0000 0.85670  0.21999  0.90720  Biso   1.000  C
  H813     1.0000 0.88732  0.51460  0.81884  Biso   1.000  H
  H814     1.0000 0.88280  0.64831  0.81242  Biso   1.000  H
  H815     1.0000 0.89292  0.58780  0.87145  Biso   1.000  H
  H816     1.0000 0.83841  0.13203  0.06142  Biso   1.000  H
  H817     1.0000 0.83789  0.20262  0.10990  Biso   1.000  H
  H818     1.0000 0.82069  0.25927  0.04600  Biso   1.000  H
  C674     1.0000 0.99125  0.34027  0.00501  Biso   1.000  C
  H819     1.0000 0.70232  0.26272  0.80722  Biso   1.000  H
  H820     1.0000 0.71914  0.20060  0.86976  Biso   1.000  H
  H821     1.0000 0.72212  0.33440  0.86845  Biso   1.000  H
  H822     1.0000 0.87563  0.19926  0.89544  Biso   1.000  H
  H823     1.0000 0.83692  0.15503  0.89815  Biso   1.000  H
  H824     1.0000 0.99160  0.42228  0.00782  Biso   1.000  H
  H825     1.0000 0.00224  0.31769  0.98276  Biso   1.000  H
  H826     1.0000 0.01151  0.30821  0.04732  Biso   1.000  H
  C675     1.0000 0.62519  0.93503  0.99082  Biso   1.000  C
  C676     1.0000 0.67193  0.88417  0.02305  Biso   1.000  C
  H827     1.0000 0.60693  0.93159  0.94486  Biso   1.000  H
  Br40     1.0000 0.59181  0.85723  0.01260  Biso   1.000  Br
  H828     1.0000 0.62891  0.01502  0.00281  Biso   1.000  H
  C677     1.0000 0.69310  0.92933  0.99513  Biso   1.000  C
  H829     1.0000 0.69250  0.90196  0.06830  Biso   1.000  H
  H830     1.0000 0.66902  0.80149  0.01841  Biso   1.000  H
  C678     1.0000 0.74189  0.88686  0.03106  Biso   1.000  C
  H831     1.0000 0.67403  0.90549  0.95086  Biso   1.000  H
  H832     1.0000 0.69332  0.01242  0.99625  Biso   1.000  H
  O131     1.0000 0.75627  0.91355  0.99574  Biso   1.000  O
  H833     1.0000 0.74300  0.80468  0.03710  Biso   1.000  H
  H834     1.0000 0.76281  0.92295  0.07280  Biso   1.000  H
  C679     1.0000 0.80234  0.90079  0.02488  Biso   1.000  C
  C680     1.0000 0.83475  0.85479  0.08465  Biso   1.000  C
  C681     1.0000 0.81607  0.93789  0.99143  Biso   1.000  C
  C682     1.0000 0.88143  0.85076  0.11342  Biso   1.000  C
  H835     1.0000 0.82482  0.82600  0.10602  Biso   1.000  H
  C683     1.0000 0.86303  0.93730  0.02132  Biso   1.000  C
  C684     1.0000 0.78088  0.97583  0.92392  Biso   1.000  C
  C685     1.0000 0.89533  0.89802  0.08194  Biso   1.000  C
  C686     1.0000 0.91622  0.79747  0.17760  Biso   1.000  C
  H836     1.0000 0.87302  0.96450  0.99977  Biso   1.000  H
  C687     1.0000 0.76943  0.88299  0.87848  Biso   1.000  C
  H837     1.0000 0.75231  0.99958  0.91563  Biso   1.000  H
  H838     1.0000 0.79321  0.04138  0.91703  Biso   1.000  H
  O132     1.0000 0.94241  0.90129  0.11482  Biso   1.000  O
  H839     1.0000 0.94411  0.84548  0.20332  Biso   1.000  H
  H840     1.0000 0.90270  0.79470  0.19849  Biso   1.000  H
  C688     1.0000 0.93056  0.67945  0.17544  Biso   1.000  C
  C689     1.0000 0.73314  0.80888  0.85571  Biso   1.000  C
  C690     1.0000 0.79589  0.86461  0.86025  Biso   1.000  C
  C691     1.0000 0.95927  0.96878  0.09084  Biso   1.000  C
  C692     1.0000 0.91046  0.58469  0.17825  Biso   1.000  C
  C693     1.0000 0.96492  0.66460  0.17123  Biso   1.000  C
  C694     1.0000 0.72363  0.72058  0.81636  Biso   1.000  C
  H841     1.0000 0.71451  0.81887  0.86733  Biso   1.000  H
  O133     1.0000 0.83146  0.94032  0.88373  Biso   1.000  O
  C695     1.0000 0.78619  0.77724  0.82095  Biso   1.000  C
  H842     1.0000 0.95450  0.93000  0.05561  Biso   1.000  H
  H843     1.0000 0.94281  0.04163  0.07561  Biso   1.000  H
  C696     1.0000 0.01025  0.98674  0.14424  Biso   1.000  C
  C697     1.0000 0.01025  0.98682  0.14424  Biso   1.000  C
  O134     1.0000 0.87638  0.60206  0.18252  Biso   1.000  O
  C698     1.0000 0.92542  0.47851  0.17769  Biso   1.000  C
  C699     1.0000 0.97902  0.55859  0.16940  Biso   1.000  C
  H844     1.0000 0.97908  0.72864  0.16959  Biso   1.000  H
  O135     1.0000 0.68831  0.64596  0.79734  Biso   1.000  O
  C700     1.0000 0.74969  0.70363  0.79814  Biso   1.000  C
  C701     1.0000 0.86221  0.91766  0.87215  Biso   1.000  C
  H845     1.0000 0.80471  0.76700  0.80924  Biso   1.000  H
  H846     1.0000 0.02590  0.91304  0.15961  Biso   1.000  H
  H847     1.0000 0.02590  0.91313  0.15961  Biso   1.000  H
  H848     1.0000 0.02368  0.02938  0.12878  Biso   1.000  H
  C702     1.0000 0.01889  0.05095  0.19830  Biso   1.000  C
  H849     1.0000 0.02368  0.02929  0.12878  Biso   1.000  H
  C703     1.0000 0.01889  0.05086  0.19830  Biso   1.000  C
  C704     1.0000 0.85726  0.50478  0.18744  Biso   1.000  C
  H850     1.0000 0.91180  0.41439  0.18041  Biso   1.000  H
  C705     1.0000 0.95949  0.46391  0.17329  Biso   1.000  C
  O136     1.0000 0.01264  0.53987  0.16406  Biso   1.000  O
  C706     1.0000 0.64408  0.68390  0.74375  Biso   1.000  C
  C707     1.0000 0.74095  0.60567  0.75700  Biso   1.000  C
  H851     1.0000 0.84502  0.91674  0.82695  Biso   1.000  H
  H852     1.0000 0.88601  0.97616  0.89164  Biso   1.000  H
  H853     1.0000 0.87691  0.84447  0.89005  Biso   1.000  H
  H854     1.0000 0.00461  0.00848  0.21250  Biso   1.000  H
  H855     1.0000 0.00280  0.12414  0.18219  Biso   1.000  H
  C708     1.0000 0.06858  0.07244  0.25415  Biso   1.000  C
  H856     1.0000 0.00461  0.00839  0.21250  Biso   1.000  H
  H857     1.0000 0.00280  0.12406  0.18219  Biso   1.000  H
  C709     1.0000 0.06858  0.07252  0.25415  Biso   1.000  C
  H858     1.0000 0.88212  0.45921  0.22290  Biso   1.000  H
  H859     1.0000 0.83570  0.52694  0.19409  Biso   1.000  H
  H860     1.0000 0.84070  0.46089  0.14869  Biso   1.000  H
  C710     1.0000 0.97358  0.34623  0.17066  Biso   1.000  C
  C711     1.0000 0.03157  0.63547  0.15806  Biso   1.000  C
  H861     1.0000 0.64521  0.70379  0.71063  Biso   1.000  H
  H862     1.0000 0.62132  0.62406  0.72885  Biso   1.000  H
  H863     1.0000 0.63523  0.74996  0.75485  Biso   1.000  H
  C712     1.0000 0.77143  0.50579  0.79584  Biso   1.000  C
  H864     1.0000 0.70811  0.58318  0.73063  Biso   1.000  H
  H865     1.0000 0.74713  0.62934  0.72885  Biso   1.000  H
  H866     1.0000 0.08340  0.99992  0.27481  Biso   1.000  H
  Br41     1.0000 0.09605  0.17970  0.23353  Biso   1.000  Br
  H867     1.0000 0.07051  0.10240  0.28891  Biso   1.000  H
  H868     1.0000 0.08599  0.00118  0.26820  Biso   1.000  H
  Br42     1.0000 0.10492  0.14621  0.23648  Biso   1.000  Br
  H869     1.0000 0.06950  0.11927  0.28432  Biso   1.000  H
  H870     1.0000 0.96971  0.29453  0.19479  Biso   1.000  H
  C713     1.0000 0.94472  0.30536  0.10372  Biso   1.000  C
  H871     1.0000 0.00660  0.34598  0.19020  Biso   1.000  H
  H872     1.0000 0.04832  0.68038  0.19652  Biso   1.000  H
  H873     1.0000 0.05291  0.61197  0.15122  Biso   1.000  H
  H874     1.0000 0.00660  0.68071  0.12241  Biso   1.000  H
  C714     1.0000 0.75604  0.42706  0.81580  Biso   1.000  C
  C715     1.0000 0.81444  0.49177  0.81327  Biso   1.000  C
  C716     1.0000 0.90113  0.25894  0.07327  Biso   1.000  C
  C717     1.0000 0.95998  0.31845  0.07041  Biso   1.000  C
  C718     1.0000 0.78322  0.33549  0.85196  Biso   1.000  C
  H875     1.0000 0.72653  0.43621  0.80455  Biso   1.000  H
  O137     1.0000 0.82903  0.57269  0.79354  Biso   1.000  O
  C719     1.0000 0.84159  0.39919  0.84882  Biso   1.000  C
  O138     1.0000 0.88835  0.24391  0.10962  Biso   1.000  O
  C720     1.0000 0.87348  0.23065  0.01040  Biso   1.000  C
  C721     1.0000 0.93242  0.28916  0.00764  Biso   1.000  C
  H876     1.0000 0.98999  0.34808  0.09088  Biso   1.000  H
  O139     1.0000 0.77031  0.25491  0.87328  Biso   1.000  O
  C722     1.0000 0.82627  0.31988  0.86803  Biso   1.000  C
  C723     1.0000 0.87660  0.58150  0.82657  Biso   1.000  C
  H877     1.0000 0.87111  0.39038  0.85993  Biso   1.000  H
  C724     1.0000 0.84283  0.20656  0.07941  Biso   1.000  C
  H878     1.0000 0.84372  0.20010  0.99026  Biso   1.000  H
  C725     1.0000 0.88816  0.24576  0.97639  Biso   1.000  C
  O140     1.0000 0.94610  0.30107  0.97255  Biso   1.000  O
  C726     1.0000 0.72498  0.26389  0.85309  Biso   1.000  C
  C727     1.0000 0.85670  0.21999  0.90720  Biso   1.000  C
  H879     1.0000 0.88732  0.51460  0.81884  Biso   1.000  H
  H880     1.0000 0.88280  0.64831  0.81242  Biso   1.000  H
  H881     1.0000 0.89292  0.58780  0.87145  Biso   1.000  H
  H882     1.0000 0.83841  0.13203  0.06142  Biso   1.000  H
  H883     1.0000 0.83789  0.20262  0.10990  Biso   1.000  H
  H884     1.0000 0.82069  0.25927  0.04600  Biso   1.000  H
  C728     1.0000 0.99125  0.34027  0.00501  Biso   1.000  C
  H885     1.0000 0.70232  0.26272  0.80722  Biso   1.000  H
  H886     1.0000 0.71914  0.20060  0.86976  Biso   1.000  H
  H887     1.0000 0.72212  0.33440  0.86845  Biso   1.000  H
  H888     1.0000 0.87563  0.19926  0.89544  Biso   1.000  H
  H889     1.0000 0.83692  0.15503  0.89815  Biso   1.000  H
  H890     1.0000 0.99160  0.42228  0.00782  Biso   1.000  H
  H891     1.0000 0.00224  0.31769  0.98276  Biso   1.000  H
  H892     1.0000 0.01151  0.30821  0.04732  Biso   1.000  H
  C729     1.0000 0.37484  0.06488  0.00923  Biso   1.000  C
  C730     1.0000 0.32813  0.11583  0.97700  Biso   1.000  C
  Br43     1.0000 0.40822  0.14277  0.98744  Biso   1.000  Br
  H893     1.0000 0.37114  0.98489  0.99724  Biso   1.000  H
  H894     1.0000 0.39312  0.06841  0.05519  Biso   1.000  H
  H895     1.0000 0.30753  0.09804  0.93174  Biso   1.000  H
  H896     1.0000 0.33104  0.19851  0.98164  Biso   1.000  H
  C731     1.0000 0.30691  0.07067  0.00487  Biso   1.000  C
  C732     1.0000 0.25814  0.11314  0.96899  Biso   1.000  C
  H897     1.0000 0.30671  0.98758  0.00379  Biso   1.000  H
  H898     1.0000 0.32603  0.09451  0.04919  Biso   1.000  H
  H899     1.0000 0.25703  0.19532  0.96294  Biso   1.000  H
  H900     1.0000 0.23725  0.07697  0.92725  Biso   1.000  H
  O141     1.0000 0.24376  0.08645  0.00431  Biso   1.000  O
  C733     1.0000 0.19769  0.09913  0.97517  Biso   1.000  C
  C734     1.0000 0.16526  0.14512  0.91535  Biso   1.000  C
  C735     1.0000 0.18394  0.06211  0.00857  Biso   1.000  C
  H901     1.0000 0.17524  0.17400  0.89403  Biso   1.000  H
  C736     1.0000 0.11861  0.14915  0.88658  Biso   1.000  C
  C737     1.0000 0.13701  0.06262  0.97873  Biso   1.000  C
  C738     1.0000 0.21916  0.02417  0.07613  Biso   1.000  C
  C739     1.0000 0.10470  0.10198  0.91811  Biso   1.000  C
  C740     1.0000 0.08379  0.20253  0.82240  Biso   1.000  C
  H902     1.0000 0.12701  0.03550  0.00028  Biso   1.000  H
  H903     1.0000 0.20680  0.95862  0.08297  Biso   1.000  H
  C741     1.0000 0.23060  0.11701  0.12152  Biso   1.000  C
  H904     1.0000 0.24770  0.00042  0.08437  Biso   1.000  H
  O142     1.0000 0.05763  0.09862  0.88522  Biso   1.000  O
  H905     1.0000 0.05592  0.15452  0.79673  Biso   1.000  H
  H906     1.0000 0.09733  0.20530  0.80151  Biso   1.000  H
  C742     1.0000 0.06948  0.32046  0.82460  Biso   1.000  C
  C743     1.0000 0.26690  0.19112  0.14429  Biso   1.000  C
  C744     1.0000 0.20412  0.13539  0.13974  Biso   1.000  C
  C745     1.0000 0.04079  0.03122  0.90921  Biso   1.000  C
  C746     1.0000 0.08960  0.41523  0.82179  Biso   1.000  C
  C747     1.0000 0.03511  0.33532  0.82882  Biso   1.000  C
  C748     1.0000 0.27641  0.27934  0.18369  Biso   1.000  C
  H907     1.0000 0.28550  0.18113  0.13267  Biso   1.000  H
  O143     1.0000 0.16857  0.05959  0.11632  Biso   1.000  O
  C749     1.0000 0.21382  0.22276  0.17905  Biso   1.000  C
  H908     1.0000 0.04554  0.07000  0.94444  Biso   1.000  H
  C750     1.0000 0.98979  0.01318  0.85580  Biso   1.000  C
  H909     1.0000 0.05725  0.95837  0.92444  Biso   1.000  H
  O144     1.0000 0.12363  0.39794  0.81748  Biso   1.000  O
  C751     1.0000 0.07461  0.52140  0.82236  Biso   1.000  C
  C752     1.0000 0.02101  0.44141  0.83065  Biso   1.000  C
  H910     1.0000 0.02093  0.27128  0.83041  Biso   1.000  H
  O145     1.0000 0.31172  0.35404  0.20266  Biso   1.000  O
  C753     1.0000 0.25035  0.29637  0.20191  Biso   1.000  C
  C754     1.0000 0.13783  0.08226  0.12785  Biso   1.000  C
  H911     1.0000 0.19532  0.23300  0.19081  Biso   1.000  H
  H912     1.0000 0.97633  0.97071  0.87122  Biso   1.000  H
  C755     1.0000 0.98114  0.94914  0.80174  Biso   1.000  C
  H913     1.0000 0.97633  0.97062  0.87122  Biso   1.000  H
  C756     1.0000 0.98114  0.94905  0.80174  Biso   1.000  C
  H914     1.0000 0.97414  0.08687  0.84044  Biso   1.000  H
  H915     1.0000 0.97414  0.08696  0.84044  Biso   1.000  H
  C757     1.0000 0.14277  0.49522  0.81261  Biso   1.000  C
  H916     1.0000 0.08823  0.58561  0.81964  Biso   1.000  H
  C758     1.0000 0.04057  0.53609  0.82676  Biso   1.000  C
  O146     1.0000 0.98741  0.46013  0.83599  Biso   1.000  O
  C759     1.0000 0.35593  0.31610  0.25625  Biso   1.000  C
  C760     1.0000 0.25911  0.39424  0.24304  Biso   1.000  C
  H917     1.0000 0.15501  0.08318  0.17310  Biso   1.000  H
  H918     1.0000 0.11402  0.02384  0.10840  Biso   1.000  H
  H919     1.0000 0.12312  0.15553  0.11000  Biso   1.000  H
  H920     1.0000 0.99543  0.99161  0.78750  Biso   1.000  H
  H921     1.0000 0.99721  0.87594  0.81781  Biso   1.000  H
  C761     1.0000 0.93145  0.92748  0.74590  Biso   1.000  C
  H922     1.0000 0.99543  0.99152  0.78750  Biso   1.000  H
  H923     1.0000 0.99721  0.87586  0.81781  Biso   1.000  H
  H924     1.0000 0.11792  0.54079  0.77710  Biso   1.000  H
  H925     1.0000 0.16431  0.47297  0.80591  Biso   1.000  H
  H926     1.0000 0.15931  0.53911  0.85131  Biso   1.000  H
  C762     1.0000 0.02643  0.65377  0.82934  Biso   1.000  C
  C763     1.0000 0.96846  0.36445  0.84194  Biso   1.000  C
  H927     1.0000 0.35480  0.29621  0.28937  Biso   1.000  H
  H928     1.0000 0.37872  0.37586  0.27120  Biso   1.000  H
  H929     1.0000 0.36483  0.24996  0.24520  Biso   1.000  H
  C764     1.0000 0.22858  0.49421  0.20416  Biso   1.000  C
  H930     1.0000 0.29190  0.41682  0.26937  Biso   1.000  H
  H931     1.0000 0.25293  0.37057  0.27120  Biso   1.000  H
  Br44     1.0000 0.90396  0.82038  0.76647  Biso   1.000  Br
  H932     1.0000 0.92952  0.89760  0.71114  Biso   1.000  H
  H933     1.0000 0.91402  0.99891  0.73180  Biso   1.000  H
  Br45     1.0000 0.89512  0.85379  0.76352  Biso   1.000  Br
  H934     1.0000 0.93053  0.88064  0.71573  Biso   1.000  H
  H935     1.0000 0.91663  0.00008  0.72524  Biso   1.000  H
  H936     1.0000 0.03033  0.70547  0.80521  Biso   1.000  H
  C765     1.0000 0.05531  0.69456  0.89633  Biso   1.000  C
  H937     1.0000 0.99343  0.65394  0.80985  Biso   1.000  H
  H938     1.0000 0.95171  0.31962  0.80352  Biso   1.000  H
  H939     1.0000 0.94712  0.38795  0.84882  Biso   1.000  H
  H940     1.0000 0.99343  0.31929  0.87763  Biso   1.000  H
  C766     1.0000 0.24397  0.57294  0.18420  Biso   1.000  C
  C767     1.0000 0.18559  0.50823  0.18678  Biso   1.000  C
  C768     1.0000 0.09891  0.74098  0.92673  Biso   1.000  C
  C769     1.0000 0.04006  0.68155  0.92964  Biso   1.000  C
  C770     1.0000 0.21681  0.66451  0.14808  Biso   1.000  C
  H941     1.0000 0.27353  0.56379  0.19549  Biso   1.000  H
  O147     1.0000 0.17100  0.42723  0.20650  Biso   1.000  O
  C771     1.0000 0.15844  0.60081  0.15122  Biso   1.000  C
  O148     1.0000 0.11169  0.75609  0.89042  Biso   1.000  O
  C772     1.0000 0.12655  0.76926  0.98965  Biso   1.000  C
  C773     1.0000 0.06761  0.71076  0.99241  Biso   1.000  C
  H942     1.0000 0.01002  0.65184  0.90912  Biso   1.000  H
  O149     1.0000 0.22975  0.74501  0.12677  Biso   1.000  O
  C774     1.0000 0.17374  0.68004  0.13197  Biso   1.000  C
  C775     1.0000 0.12346  0.41850  0.17347  Biso   1.000  C
  H943     1.0000 0.12890  0.60954  0.14007  Biso   1.000  H
  C776     1.0000 0.15721  0.79335  0.92064  Biso   1.000  C
  H944     1.0000 0.15631  0.79990  0.00979  Biso   1.000  H
  C777     1.0000 0.11187  0.75424  0.02361  Biso   1.000  C
  O150     1.0000 0.05396  0.69884  0.02750  Biso   1.000  O
  C778     1.0000 0.27508  0.73611  0.14696  Biso   1.000  C
  C779     1.0000 0.14331  0.77992  0.09280  Biso   1.000  C
  H945     1.0000 0.11271  0.48540  0.18120  Biso   1.000  H
  H946     1.0000 0.11721  0.35169  0.18758  Biso   1.000  H
  H947     1.0000 0.10712  0.41220  0.12860  Biso   1.000  H
  H948     1.0000 0.16163  0.86797  0.93863  Biso   1.000  H
  H949     1.0000 0.16214  0.79738  0.89014  Biso   1.000  H
  H950     1.0000 0.17934  0.74064  0.95404  Biso   1.000  H
  C780     1.0000 0.00881  0.65964  0.99503  Biso   1.000  C
  H951     1.0000 0.29772  0.73728  0.19278  Biso   1.000  H
  H952     1.0000 0.28092  0.79940  0.13028  Biso   1.000  H
  H953     1.0000 0.27791  0.66560  0.13159  Biso   1.000  H
  H954     1.0000 0.12441  0.80065  0.10456  Biso   1.000  H
  H955     1.0000 0.16311  0.84497  0.10189  Biso   1.000  H
  H956     1.0000 0.00843  0.57764  0.99222  Biso   1.000  H
  H957     1.0000 0.98852  0.69179  0.95273  Biso   1.000  H
  H958     1.0000 0.99782  0.68231  0.01729  Biso   1.000  H
  C781     1.0000 0.37484  0.06488  0.00923  Biso   1.000  C
  C782     1.0000 0.32813  0.11583  0.97700  Biso   1.000  C
  H959     1.0000 0.37114  0.98489  0.99724  Biso   1.000  H
  Br46     1.0000 0.40822  0.14277  0.98744  Biso   1.000  Br
  H960     1.0000 0.39312  0.06841  0.05519  Biso   1.000  H
  C783     1.0000 0.30691  0.07067  0.00487  Biso   1.000  C
  H961     1.0000 0.30753  0.09804  0.93174  Biso   1.000  H
  H962     1.0000 0.33104  0.19851  0.98164  Biso   1.000  H
  C784     1.0000 0.25814  0.11314  0.96899  Biso   1.000  C
  H963     1.0000 0.30671  0.98758  0.00379  Biso   1.000  H
  H964     1.0000 0.32603  0.09451  0.04919  Biso   1.000  H
  O151     1.0000 0.24376  0.08645  0.00431  Biso   1.000  O
  H965     1.0000 0.25703  0.19532  0.96294  Biso   1.000  H
  H966     1.0000 0.23725  0.07697  0.92725  Biso   1.000  H
  C785     1.0000 0.19769  0.09913  0.97517  Biso   1.000  C
  C786     1.0000 0.16526  0.14512  0.91535  Biso   1.000  C
  C787     1.0000 0.18394  0.06211  0.00857  Biso   1.000  C
  C788     1.0000 0.11861  0.14915  0.88658  Biso   1.000  C
  H967     1.0000 0.17524  0.17400  0.89403  Biso   1.000  H
  C789     1.0000 0.13701  0.06262  0.97873  Biso   1.000  C
  C790     1.0000 0.21916  0.02417  0.07613  Biso   1.000  C
  C791     1.0000 0.10470  0.10198  0.91811  Biso   1.000  C
  C792     1.0000 0.08379  0.20253  0.82240  Biso   1.000  C
  H968     1.0000 0.12701  0.03550  0.00028  Biso   1.000  H
  H969     1.0000 0.20680  0.95862  0.08297  Biso   1.000  H
  C793     1.0000 0.23060  0.11701  0.12152  Biso   1.000  C
  H970     1.0000 0.24770  0.00042  0.08437  Biso   1.000  H
  O152     1.0000 0.05763  0.09862  0.88522  Biso   1.000  O
  H971     1.0000 0.05592  0.15452  0.79673  Biso   1.000  H
  H972     1.0000 0.09733  0.20530  0.80151  Biso   1.000  H
  C794     1.0000 0.06948  0.32046  0.82460  Biso   1.000  C
  C795     1.0000 0.26690  0.19112  0.14429  Biso   1.000  C
  C796     1.0000 0.20412  0.13539  0.13974  Biso   1.000  C
  C797     1.0000 0.04079  0.03122  0.90921  Biso   1.000  C
  C798     1.0000 0.08960  0.41523  0.82179  Biso   1.000  C
  C799     1.0000 0.03511  0.33532  0.82882  Biso   1.000  C
  C800     1.0000 0.27641  0.27934  0.18369  Biso   1.000  C
  H973     1.0000 0.28550  0.18113  0.13267  Biso   1.000  H
  O153     1.0000 0.16857  0.05959  0.11632  Biso   1.000  O
  C801     1.0000 0.21382  0.22276  0.17905  Biso   1.000  C
  H974     1.0000 0.04554  0.07000  0.94444  Biso   1.000  H
  C802     1.0000 0.98979  0.01318  0.85580  Biso   1.000  C
  H975     1.0000 0.05725  0.95837  0.92444  Biso   1.000  H
  O154     1.0000 0.12363  0.39794  0.81748  Biso   1.000  O
  C803     1.0000 0.07461  0.52140  0.82236  Biso   1.000  C
  C804     1.0000 0.02101  0.44141  0.83065  Biso   1.000  C
  H976     1.0000 0.02093  0.27128  0.83041  Biso   1.000  H
  O155     1.0000 0.31172  0.35404  0.20266  Biso   1.000  O
  C805     1.0000 0.25035  0.29637  0.20191  Biso   1.000  C
  C806     1.0000 0.13783  0.08226  0.12785  Biso   1.000  C
  H977     1.0000 0.19532  0.23300  0.19081  Biso   1.000  H
  H978     1.0000 0.97633  0.97071  0.87122  Biso   1.000  H
  C807     1.0000 0.98114  0.94914  0.80174  Biso   1.000  C
  H979     1.0000 0.97633  0.97062  0.87122  Biso   1.000  H
  C808     1.0000 0.98114  0.94905  0.80174  Biso   1.000  C
  H980     1.0000 0.97414  0.08687  0.84044  Biso   1.000  H
  H981     1.0000 0.97414  0.08696  0.84044  Biso   1.000  H
  C809     1.0000 0.14277  0.49522  0.81261  Biso   1.000  C
  H982     1.0000 0.08823  0.58561  0.81964  Biso   1.000  H
  C810     1.0000 0.04057  0.53609  0.82676  Biso   1.000  C
  O156     1.0000 0.98741  0.46013  0.83599  Biso   1.000  O
  C811     1.0000 0.35593  0.31610  0.25625  Biso   1.000  C
  C812     1.0000 0.25911  0.39424  0.24304  Biso   1.000  C
  H983     1.0000 0.15501  0.08318  0.17310  Biso   1.000  H
  H984     1.0000 0.11402  0.02384  0.10840  Biso   1.000  H
  H985     1.0000 0.12312  0.15553  0.11000  Biso   1.000  H
  H986     1.0000 0.99543  0.99161  0.78750  Biso   1.000  H
  H987     1.0000 0.99721  0.87594  0.81781  Biso   1.000  H
  C813     1.0000 0.93145  0.92748  0.74590  Biso   1.000  C
  H988     1.0000 0.99543  0.99152  0.78750  Biso   1.000  H
  H989     1.0000 0.99721  0.87586  0.81781  Biso   1.000  H
  H990     1.0000 0.11792  0.54079  0.77710  Biso   1.000  H
  H991     1.0000 0.16431  0.47297  0.80591  Biso   1.000  H
  H992     1.0000 0.15931  0.53911  0.85131  Biso   1.000  H
  C814     1.0000 0.02643  0.65377  0.82934  Biso   1.000  C
  C815     1.0000 0.96846  0.36445  0.84194  Biso   1.000  C
  H993     1.0000 0.35480  0.29621  0.28937  Biso   1.000  H
  H994     1.0000 0.37872  0.37586  0.27120  Biso   1.000  H
  H995     1.0000 0.36483  0.24996  0.24520  Biso   1.000  H
  C816     1.0000 0.22858  0.49421  0.20416  Biso   1.000  C
  H996     1.0000 0.29190  0.41682  0.26937  Biso   1.000  H
  H997     1.0000 0.25293  0.37057  0.27120  Biso   1.000  H
  Br47     1.0000 0.90396  0.82038  0.76647  Biso   1.000  Br
  H998     1.0000 0.92952  0.89760  0.71114  Biso   1.000  H
  H999     1.0000 0.91402  0.99891  0.73180  Biso   1.000  H
  Br48     1.0000 0.89512  0.85379  0.76352  Biso   1.000  Br
  H1000    1.0000 0.93053  0.88064  0.71573  Biso   1.000  H
  H1001    1.0000 0.91663  0.00008  0.72524  Biso   1.000  H
  H1002    1.0000 0.99343  0.65394  0.80985  Biso   1.000  H
  H1003    1.0000 0.03033  0.70547  0.80521  Biso   1.000  H
  C817     1.0000 0.05531  0.69456  0.89633  Biso   1.000  C
  H1004    1.0000 0.95171  0.31962  0.80352  Biso   1.000  H
  H1005    1.0000 0.94712  0.38795  0.84882  Biso   1.000  H
  H1006    1.0000 0.99343  0.31929  0.87763  Biso   1.000  H
  C818     1.0000 0.24397  0.57294  0.18420  Biso   1.000  C
  C819     1.0000 0.18559  0.50823  0.18678  Biso   1.000  C
  C820     1.0000 0.09891  0.74098  0.92673  Biso   1.000  C
  C821     1.0000 0.04006  0.68155  0.92964  Biso   1.000  C
  C822     1.0000 0.21681  0.66451  0.14808  Biso   1.000  C
  H1007    1.0000 0.27353  0.56379  0.19549  Biso   1.000  H
  O157     1.0000 0.17100  0.42723  0.20650  Biso   1.000  O
  C823     1.0000 0.15844  0.60081  0.15122  Biso   1.000  C
  O158     1.0000 0.11169  0.75609  0.89042  Biso   1.000  O
  C824     1.0000 0.12655  0.76926  0.98965  Biso   1.000  C
  C825     1.0000 0.06761  0.71076  0.99241  Biso   1.000  C
  H1008    1.0000 0.01002  0.65184  0.90912  Biso   1.000  H
  O159     1.0000 0.22975  0.74501  0.12677  Biso   1.000  O
  C826     1.0000 0.17374  0.68004  0.13197  Biso   1.000  C
  C827     1.0000 0.12346  0.41850  0.17347  Biso   1.000  C
  H1009    1.0000 0.12890  0.60954  0.14007  Biso   1.000  H
  C828     1.0000 0.15721  0.79335  0.92064  Biso   1.000  C
  H1010    1.0000 0.15631  0.79990  0.00979  Biso   1.000  H
  C829     1.0000 0.11187  0.75424  0.02361  Biso   1.000  C
  O160     1.0000 0.05396  0.69884  0.02750  Biso   1.000  O
  C830     1.0000 0.27508  0.73611  0.14696  Biso   1.000  C
  C831     1.0000 0.14331  0.77992  0.09280  Biso   1.000  C
  H1011    1.0000 0.11271  0.48540  0.18120  Biso   1.000  H
  H1012    1.0000 0.11721  0.35169  0.18758  Biso   1.000  H
  H1013    1.0000 0.10712  0.41220  0.12860  Biso   1.000  H
  H1014    1.0000 0.16163  0.86797  0.93863  Biso   1.000  H
  H1015    1.0000 0.16214  0.79738  0.89014  Biso   1.000  H
  H1016    1.0000 0.17934  0.74064  0.95404  Biso   1.000  H
  C832     1.0000 0.00881  0.65964  0.99503  Biso   1.000  C
  H1017    1.0000 0.29772  0.73728  0.19278  Biso   1.000  H
  H1018    1.0000 0.28092  0.79940  0.13028  Biso   1.000  H
  H1019    1.0000 0.27791  0.66560  0.13159  Biso   1.000  H
  H1020    1.0000 0.12441  0.80065  0.10456  Biso   1.000  H
  H1021    1.0000 0.16311  0.84497  0.10189  Biso   1.000  H
  H1022    1.0000 0.98852  0.69179  0.95273  Biso   1.000  H
  H1023    1.0000 0.99782  0.68231  0.01729  Biso   1.000  H
  H1024    1.0000 0.00843  0.57764  0.99222  Biso   1.000  H
