data_image0
_cell_length_a       16.47
_cell_length_b       11.966
_cell_length_c       34.019
_cell_angle_alpha    90
_cell_angle_beta     91.01
_cell_angle_gamma    90

_symmetry_space_group_name_H-M    "P 1"
_symmetry_int_tables_number       1

loop_
  _symmetry_equiv_pos_as_xyz
  'x, y, z'

loop_
  _atom_site_label
  _atom_site_occupancy
  _atom_site_fract_x
  _atom_site_fract_y
  _atom_site_fract_z
  _atom_site_thermal_displace_type
  _atom_site_B_iso_or_equiv
  _atom_site_type_symbol
  C1       1.0000 0.60739  0.00769  0.10631  Biso   1.000  C
  C2       1.0000 0.55872  0.02440  0.06856  Biso   1.000  C
  C3       1.0000 0.55872  0.02440  0.06853  Biso   1.000  C
  H1       1.0000 0.63962  0.93816  0.10431  Biso   1.000  H
  H2       1.0000 0.63962  0.93816  0.10428  Biso   1.000  H
  H3       1.0000 0.63962  0.93824  0.10431  Biso   1.000  H
  H4       1.0000 0.63962  0.93824  0.10428  Biso   1.000  H
  H5       1.0000 0.64577  0.07070  0.10981  Biso   1.000  H
  C4       1.0000 0.55388  0.00017  0.14230  Biso   1.000  C
  H6       1.0000 0.64577  0.07070  0.10978  Biso   1.000  H
  H7       1.0000 0.64583  0.07070  0.10981  Biso   1.000  H
  C5       1.0000 0.55394  0.00017  0.14230  Biso   1.000  C
  H8       1.0000 0.64583  0.07070  0.10978  Biso   1.000  H
  C6       1.0000 0.60742  0.03167  0.03216  Biso   1.000  C
  C7       1.0000 0.60736  0.03167  0.03216  Biso   1.000  C
  H9       1.0000 0.52000  0.96164  0.06559  Biso   1.000  H
  H10      1.0000 0.52651  0.09377  0.07100  Biso   1.000  H
  C8       1.0000 0.60739  0.00769  0.10634  Biso   1.000  C
  H11      1.0000 0.52651  0.09385  0.07100  Biso   1.000  H
  H12      1.0000 0.58820  0.99524  0.16611  Biso   1.000  H
  H13      1.0000 0.51938  0.93356  0.14030  Biso   1.000  H
  H14      1.0000 0.58820  0.99524  0.16608  Biso   1.000  H
  H15      1.0000 0.51938  0.93365  0.14030  Biso   1.000  H
  H16      1.0000 0.51944  0.93356  0.14030  Biso   1.000  H
  H17      1.0000 0.51944  0.93365  0.14030  Biso   1.000  H
  H18      1.0000 0.51968  0.06702  0.14371  Biso   1.000  H
  H19      1.0000 0.51968  0.06702  0.14368  Biso   1.000  H
  C9       1.0000 0.60070  0.95069  0.00268  Biso   1.000  C
  C10      1.0000 0.65929  0.12143  0.02599  Biso   1.000  C
  C11      1.0000 0.65929  0.12143  0.02596  Biso   1.000  C
  C12      1.0000 0.64503  0.95730  0.96772  Biso   1.000  C
  C13      1.0000 0.64509  0.95730  0.96772  Biso   1.000  C
  H20      1.0000 0.56520  0.88919  0.00629  Biso   1.000  H
  C14      1.0000 0.70273  0.13296  0.99165  Biso   1.000  C
  C15      1.0000 0.70273  0.13304  0.99165  Biso   1.000  C
  C16      1.0000 0.70279  0.13296  0.99165  Biso   1.000  C
  C17      1.0000 0.70279  0.13304  0.99165  Biso   1.000  C
  H21      1.0000 0.66530  0.17650  0.04589  Biso   1.000  H
  C18      1.0000 0.63876  0.86888  0.93723  Biso   1.000  C
  C19      1.0000 0.69596  0.04847  0.96252  Biso   1.000  C
  C20      1.0000 0.75344  0.22622  0.98539  Biso   1.000  C
  C21      1.0000 0.75344  0.22622  0.98536  Biso   1.000  C
  C22      1.0000 0.61786  0.76074  0.94702  Biso   1.000  C
  C23      1.0000 0.61786  0.76074  0.94699  Biso   1.000  C
  C24      1.0000 0.65468  0.89303  0.89760  Biso   1.000  C
  C25      1.0000 0.65462  0.89303  0.89760  Biso   1.000  C
  H22      1.0000 0.72663  0.05432  0.93920  Biso   1.000  H
  H23      1.0000 0.72669  0.05432  0.93920  Biso   1.000  H
  C26      1.0000 0.79547  0.30612  0.97910  Biso   1.000  C
  C27      1.0000 0.79547  0.30612  0.97907  Biso   1.000  C
  C28      1.0000 0.61216  0.67541  0.91871  Biso   1.000  C
  H24      1.0000 0.60706  0.74336  0.97369  Biso   1.000  H
  H25      1.0000 0.60706  0.74344  0.97369  Biso   1.000  H
  C29      1.0000 0.65073  0.80938  0.86902  Biso   1.000  C
  C30      1.0000 0.65079  0.80938  0.86902  Biso   1.000  C
  H26      1.0000 0.66807  0.96724  0.89019  Biso   1.000  H
  C31      1.0000 0.84756  0.40130  0.97054  Biso   1.000  C
  C32      1.0000 0.59017  0.56034  0.93182  Biso   1.000  C
  C33      1.0000 0.62975  0.70199  0.87978  Biso   1.000  C
  C34      1.0000 0.67138  0.83913  0.82757  Biso   1.000  C
  C35      1.0000 0.67132  0.83913  0.82757  Biso   1.000  C
  C36      1.0000 0.84715  0.49599  0.99433  Biso   1.000  C
  C37      1.0000 0.89757  0.39629  0.93838  Biso   1.000  C
  C38      1.0000 0.61115  0.52641  0.96931  Biso   1.000  C
  C39      1.0000 0.54656  0.48613  0.90810  Biso   1.000  C
  H27      1.0000 0.62703  0.64516  0.86029  Biso   1.000  H
  H28      1.0000 0.62703  0.64524  0.86029  Biso   1.000  H
  H29      1.0000 0.62709  0.64516  0.86029  Biso   1.000  H
  H30      1.0000 0.62709  0.64524  0.86029  Biso   1.000  H
  C40      1.0000 0.63666  0.78171  0.79611  Biso   1.000  C
  C41      1.0000 0.72483  0.92487  0.81993  Biso   1.000  C
  C42      1.0000 0.63666  0.78171  0.79608  Biso   1.000  C
  C43      1.0000 0.89915  0.58583  0.98662  Biso   1.000  C
  H31      1.0000 0.81139  0.49967  0.01591  Biso   1.000  H
  H32      1.0000 0.81139  0.49975  0.01591  Biso   1.000  H
  C44      1.0000 0.94807  0.48680  0.92959  Biso   1.000  C
  H33      1.0000 0.89765  0.33161  0.92221  Biso   1.000  H
  C45      1.0000 0.94807  0.48680  0.92956  Biso   1.000  C
  H34      1.0000 0.89765  0.33161  0.92218  Biso   1.000  H
  C46      1.0000 0.58656  0.42278  0.98427  Biso   1.000  C
  H35      1.0000 0.64313  0.57446  0.98551  Biso   1.000  H
  H36      1.0000 0.64313  0.57454  0.98551  Biso   1.000  H
  H37      1.0000 0.64319  0.57446  0.98551  Biso   1.000  H
  H38      1.0000 0.64319  0.57454  0.98551  Biso   1.000  H
  C47      1.0000 0.52264  0.38141  0.92150  Biso   1.000  C
  H39      1.0000 0.53256  0.50760  0.88199  Biso   1.000  H
  H40      1.0000 0.59944  0.72297  0.80120  Biso   1.000  H
  C48      1.0000 0.65443  0.80712  0.75724  Biso   1.000  C
  C49      1.0000 0.65449  0.80712  0.75724  Biso   1.000  C
  C50      1.0000 0.74503  0.95211  0.78088  Biso   1.000  C
  H41      1.0000 0.74837  0.96607  0.84109  Biso   1.000  H
  C51      1.0000 0.74509  0.95211  0.78088  Biso   1.000  C
  C52      1.0000 0.94884  0.57973  0.95408  Biso   1.000  C
  C53      1.0000 0.89772  0.68736  0.01244  Biso   1.000  C
  C54      1.0000 0.89772  0.68745  0.01244  Biso   1.000  C
  C55      1.0000 0.00107  0.47969  0.89425  Biso   1.000  C
  C56      1.0000 0.60712  0.39813  0.02378  Biso   1.000  C
  C57      1.0000 0.54158  0.35141  0.95955  Biso   1.000  C
  C58      1.0000 0.47693  0.30085  0.89498  Biso   1.000  C
  C59      1.0000 0.47693  0.30085  0.89495  Biso   1.000  C
  C60      1.0000 0.47693  0.30094  0.89498  Biso   1.000  C
  C61      1.0000 0.47693  0.30094  0.89495  Biso   1.000  C
  C62      1.0000 0.47699  0.30085  0.89498  Biso   1.000  C
  C63      1.0000 0.47699  0.30085  0.89495  Biso   1.000  C
  C64      1.0000 0.47699  0.30094  0.89498  Biso   1.000  C
  C65      1.0000 0.47699  0.30094  0.89495  Biso   1.000  C
  C66      1.0000 0.70944  0.89286  0.75054  Biso   1.000  C
  C67      1.0000 0.60603  0.75740  0.72361  Biso   1.000  C
  C68      1.0000 0.60603  0.75740  0.72358  Biso   1.000  C
  C69      1.0000 0.70944  0.89295  0.75054  Biso   1.000  C
  C70      1.0000 0.60609  0.75740  0.72361  Biso   1.000  C
  C71      1.0000 0.62697  0.72397  0.72520  Biso   1.000  C
  C72      1.0000 0.80155  0.04153  0.77412  Biso   1.000  C
  H42      1.0000 0.98404  0.64031  0.94849  Biso   1.000  H
  H43      1.0000 0.98410  0.64031  0.94849  Biso   1.000  H
  H44      1.0000 0.89418  0.66288  0.04019  Biso   1.000  H
  H45      1.0000 0.94971  0.72798  0.00961  Biso   1.000  H
  C73      1.0000 0.82928  0.76684  0.00376  Biso   1.000  C
  H46      1.0000 0.94971  0.72798  0.00958  Biso   1.000  H
  H47      1.0000 0.89424  0.66288  0.04019  Biso   1.000  H
  C74      1.0000 0.97476  0.42378  0.86047  Biso   1.000  C
  C75      1.0000 0.07796  0.52724  0.89484  Biso   1.000  C
  C76      1.0000 0.62979  0.38818  0.05783  Biso   1.000  C
  H48      1.0000 0.52384  0.28121  0.96931  Biso   1.000  H
  H49      1.0000 0.48417  0.22430  0.90551  Biso   1.000  H
  H50      1.0000 0.50147  0.30286  0.86861  Biso   1.000  H
  C77      1.0000 0.38825  0.32400  0.89060  Biso   1.000  C
  H51      1.0000 0.48417  0.22430  0.90548  Biso   1.000  H
  H52      1.0000 0.50147  0.30286  0.86858  Biso   1.000  H
  H53      1.0000 0.50147  0.30294  0.86861  Biso   1.000  H
  H54      1.0000 0.50147  0.30294  0.86858  Biso   1.000  H
  H55      1.0000 0.72287  0.91116  0.72429  Biso   1.000  H
  H56      1.0000 0.72287  0.91125  0.72429  Biso   1.000  H
  H57      1.0000 0.63623  0.77068  0.69921  Biso   1.000  H
  H58      1.0000 0.60362  0.67550  0.72761  Biso   1.000  H
  C78      1.0000 0.52377  0.79743  0.71741  Biso   1.000  C
  H59      1.0000 0.63622  0.77068  0.69918  Biso   1.000  H
  H60      1.0000 0.60362  0.67550  0.72758  Biso   1.000  H
  C79      1.0000 0.52371  0.79743  0.71738  Biso   1.000  C
  H61      1.0000 0.63629  0.77068  0.69921  Biso   1.000  H
  H62      1.0000 0.60368  0.67550  0.72761  Biso   1.000  H
  H63      1.0000 0.60368  0.67550  0.72758  Biso   1.000  H
  C80      1.0000 0.52377  0.79743  0.71738  Biso   1.000  C
  H64      1.0000 0.65497  0.74060  0.70039  Biso   1.000  H
  C81      1.0000 0.53635  0.73500  0.71920  Biso   1.000  C
  H65      1.0000 0.64087  0.64692  0.73328  Biso   1.000  H
  C82      1.0000 0.85007  0.11516  0.76921  Biso   1.000  C
  C83      1.0000 0.85007  0.11524  0.76921  Biso   1.000  C
  H66      1.0000 0.83393  0.79367  0.97639  Biso   1.000  H
  H67      1.0000 0.83393  0.79375  0.97639  Biso   1.000  H
  H68      1.0000 0.83399  0.79367  0.97639  Biso   1.000  H
  H69      1.0000 0.83399  0.79375  0.97639  Biso   1.000  H
  H70      1.0000 0.77732  0.72597  0.00570  Biso   1.000  H
  C84      1.0000 0.82762  0.86888  0.03160  Biso   1.000  C
  C85      1.0000 0.02433  0.41142  0.82783  Biso   1.000  C
  C86      1.0000 0.02433  0.41142  0.82780  Biso   1.000  C
  C87      1.0000 0.02439  0.41142  0.82783  Biso   1.000  C
  C88      1.0000 0.02439  0.41142  0.82780  Biso   1.000  C
  H71      1.0000 0.92154  0.39320  0.85959  Biso   1.000  H
  C89      1.0000 0.12857  0.51722  0.86256  Biso   1.000  C
  H72      1.0000 0.09639  0.56702  0.91750  Biso   1.000  H
  H73      1.0000 0.09633  0.56702  0.91750  Biso   1.000  H
  C90      1.0000 0.66869  0.38166  0.09570  Biso   1.000  C
  H74      1.0000 0.36464  0.27185  0.87091  Biso   1.000  H
  H75      1.0000 0.38077  0.40089  0.88040  Biso   1.000  H
  C91      1.0000 0.34375  0.31247  0.92753  Biso   1.000  C
  H76      1.0000 0.36464  0.27194  0.87091  Biso   1.000  H
  H77      1.0000 0.49223  0.78472  0.74149  Biso   1.000  H
  H78      1.0000 0.49755  0.75439  0.69580  Biso   1.000  H
  C92      1.0000 0.52224  0.92220  0.70709  Biso   1.000  C
  H79      1.0000 0.50845  0.70182  0.74190  Biso   1.000  H
  H80      1.0000 0.51945  0.69305  0.69530  Biso   1.000  H
  C93      1.0000 0.51105  0.85701  0.71479  Biso   1.000  C
  C94      1.0000 0.90944  0.20182  0.76395  Biso   1.000  C
  C95      1.0000 0.90944  0.20182  0.76392  Biso   1.000  C
  H81      1.0000 0.82667  0.84314  0.05889  Biso   1.000  H
  H82      1.0000 0.77878  0.91350  0.02590  Biso   1.000  H
  H83      1.0000 0.87599  0.91484  0.02761  Biso   1.000  H
  H84      1.0000 0.82673  0.84314  0.05889  Biso   1.000  H
  C96      1.0000 0.99496  0.34707  0.79320  Biso   1.000  C
  C97      1.0000 0.99496  0.34715  0.79320  Biso   1.000  C
  C98      1.0000 0.10108  0.45922  0.82951  Biso   1.000  C
  C99      1.0000 0.21239  0.56752  0.86497  Biso   1.000  C
  C100     1.0000 0.21233  0.56752  0.86497  Biso   1.000  C
  C101     1.0000 0.63558  0.33169  0.12848  Biso   1.000  C
  C102     1.0000 0.63558  0.33169  0.12845  Biso   1.000  C
  C103     1.0000 0.74601  0.43105  0.09964  Biso   1.000  C
  C104     1.0000 0.74601  0.43114  0.09964  Biso   1.000  C
  H85      1.0000 0.36356  0.36838  0.94649  Biso   1.000  H
  H86      1.0000 0.28564  0.32400  0.92241  Biso   1.000  H
  H87      1.0000 0.35258  0.23751  0.93829  Biso   1.000  H
  H88      1.0000 0.28564  0.32400  0.92238  Biso   1.000  H
  H89      1.0000 0.35252  0.23751  0.93829  Biso   1.000  H
  H90      1.0000 0.55962  0.96256  0.72470  Biso   1.000  H
  H91      1.0000 0.46717  0.95136  0.71021  Biso   1.000  H
  H92      1.0000 0.53892  0.93239  0.67981  Biso   1.000  H
  H93      1.0000 0.55962  0.96264  0.72470  Biso   1.000  H
  H94      1.0000 0.46717  0.95145  0.71021  Biso   1.000  H
  H95      1.0000 0.55968  0.96256  0.72470  Biso   1.000  H
  H96      1.0000 0.53898  0.93239  0.67981  Biso   1.000  H
  H97      1.0000 0.55968  0.96264  0.72470  Biso   1.000  H
  H98      1.0000 0.48305  0.86721  0.68948  Biso   1.000  H
  H99      1.0000 0.55984  0.90423  0.71579  Biso   1.000  H
  H100     1.0000 0.47528  0.87724  0.73619  Biso   1.000  H
  C105     1.0000 0.94157  0.22597  0.72758  Biso   1.000  C
  C106     1.0000 0.93742  0.26224  0.79714  Biso   1.000  C
  C107     1.0000 0.94157  0.22597  0.72755  Biso   1.000  C
  C108     1.0000 0.93748  0.26224  0.79714  Biso   1.000  C
  C109     1.0000 0.02405  0.37022  0.75510  Biso   1.000  C
  H101     1.0000 0.13556  0.45228  0.80761  Biso   1.000  H
  H102     1.0000 0.13556  0.45228  0.80758  Biso   1.000  H
  C110     1.0000 0.25405  0.56895  0.90036  Biso   1.000  C
  C111     1.0000 0.24813  0.61600  0.83286  Biso   1.000  C
  C112     1.0000 0.25405  0.56895  0.90033  Biso   1.000  C
  C113     1.0000 0.24820  0.61600  0.83286  Biso   1.000  C
  C114     1.0000 0.67751  0.33119  0.16449  Biso   1.000  C
  C115     1.0000 0.67751  0.33119  0.16446  Biso   1.000  C
  H103     1.0000 0.58372  0.29726  0.12639  Biso   1.000  H
  H104     1.0000 0.58372  0.29734  0.12639  Biso   1.000  H
  C116     1.0000 0.78767  0.43248  0.13503  Biso   1.000  C
  C117     1.0000 0.78773  0.43248  0.13503  Biso   1.000  C
  H105     1.0000 0.76991  0.46432  0.07729  Biso   1.000  H
  H106     1.0000 0.92346  0.18410  0.70541  Biso   1.000  H
  C118     1.0000 0.99827  0.30779  0.72244  Biso   1.000  C
  H107     1.0000 0.92346  0.18410  0.70538  Biso   1.000  H
  H108     1.0000 0.91703  0.24503  0.82240  Biso   1.000  H
  H109     1.0000 0.91709  0.24503  0.82240  Biso   1.000  H
  H110     1.0000 0.06188  0.42930  0.75169  Biso   1.000  H
  C119     1.0000 0.33137  0.61834  0.90430  Biso   1.000  C
  C120     1.0000 0.33137  0.61834  0.90427  Biso   1.000  C
  H111     1.0000 0.23015  0.53568  0.92271  Biso   1.000  H
  H112     1.0000 0.23015  0.53568  0.92268  Biso   1.000  H
  C121     1.0000 0.32255  0.66881  0.83551  Biso   1.000  C
  H113     1.0000 0.22064  0.61307  0.80811  Biso   1.000  H
  H114     1.0000 0.22064  0.61307  0.80808  Biso   1.000  H
  H115     1.0000 0.22064  0.61315  0.80811  Biso   1.000  H
  H116     1.0000 0.22064  0.61315  0.80808  Biso   1.000  H
  C122     1.0000 0.64419  0.27018  0.19971  Biso   1.000  C
  C123     1.0000 0.75193  0.38400  0.16714  Biso   1.000  C
  C124     1.0000 0.75193  0.38400  0.16711  Biso   1.000  C
  C125     1.0000 0.64419  0.27018  0.19968  Biso   1.000  C
  C126     1.0000 0.87149  0.48278  0.13744  Biso   1.000  C
  C127     1.0000 0.87149  0.48278  0.13742  Biso   1.000  C
  C128     1.0000 0.03207  0.33194  0.68189  Biso   1.000  C
  C129     1.0000 0.03207  0.33194  0.68186  Biso   1.000  C
  C130     1.0000 0.37027  0.61182  0.94217  Biso   1.000  C
  C131     1.0000 0.37027  0.61182  0.94214  Biso   1.000  C
  C132     1.0000 0.36448  0.66831  0.87152  Biso   1.000  C
  C133     1.0000 0.35587  0.72982  0.80029  Biso   1.000  C
  H117     1.0000 0.64289  0.32116  0.22259  Biso   1.000  H
  H118     1.0000 0.58799  0.24503  0.19389  Biso   1.000  H
  C134     1.0000 0.70188  0.16179  0.21009  Biso   1.000  C
  H119     1.0000 0.64289  0.32124  0.22259  Biso   1.000  H
  C135     1.0000 0.70194  0.16179  0.21009  Biso   1.000  C
  H120     1.0000 0.77942  0.38693  0.19189  Biso   1.000  H
  C136     1.0000 0.92210  0.47276  0.10516  Biso   1.000  C
  C137     1.0000 0.89898  0.54078  0.17049  Biso   1.000  C
  C138     1.0000 0.92210  0.47284  0.10516  Biso   1.000  C
  C139     1.0000 0.89904  0.54078  0.17049  Biso   1.000  C
  H121     1.0000 0.98644  0.33562  0.66261  Biso   1.000  H
  H122     1.0000 0.98644  0.33562  0.66258  Biso   1.000  H
  H123     1.0000 0.05905  0.40582  0.68230  Biso   1.000  H
  C140     1.0000 0.09212  0.24461  0.66860  Biso   1.000  C
  C141     1.0000 0.09218  0.24461  0.66860  Biso   1.000  C
  C142     1.0000 0.39294  0.60187  0.97622  Biso   1.000  C
  C143     1.0000 0.39300  0.60187  0.97622  Biso   1.000  C
  H124     1.0000 0.41635  0.70274  0.87361  Biso   1.000  H
  H125     1.0000 0.41634  0.70274  0.87358  Biso   1.000  H
  H126     1.0000 0.35717  0.67884  0.77741  Biso   1.000  H
  H127     1.0000 0.41207  0.75497  0.80611  Biso   1.000  H
  C144     1.0000 0.29818  0.83821  0.78991  Biso   1.000  C
  H128     1.0000 0.35717  0.67884  0.77738  Biso   1.000  H
  H129     1.0000 0.41207  0.75497  0.80608  Biso   1.000  H
  C145     1.0000 0.29818  0.83821  0.78988  Biso   1.000  C
  H130     1.0000 0.41207  0.75506  0.80611  Biso   1.000  H
  H131     1.0000 0.41207  0.75506  0.80608  Biso   1.000  H
  H132     1.0000 0.75840  0.18720  0.21500  Biso   1.000  H
  H133     1.0000 0.70190  0.11023  0.18739  Biso   1.000  H
  C146     1.0000 0.67162  0.10070  0.24599  Biso   1.000  C
  H134     1.0000 0.90367  0.43298  0.08250  Biso   1.000  H
  C147     1.0000 0.99899  0.52031  0.10575  Biso   1.000  C
  C148     1.0000 0.99899  0.52031  0.10572  Biso   1.000  C
  H135     1.0000 0.90373  0.43298  0.08250  Biso   1.000  H
  C149     1.0000 0.97573  0.58858  0.17217  Biso   1.000  C
  H136     1.0000 0.86450  0.54772  0.19239  Biso   1.000  H
  H137     1.0000 0.14013  0.24628  0.68651  Biso   1.000  H
  H138     1.0000 0.06683  0.16990  0.67090  Biso   1.000  H
  C150     1.0000 0.11965  0.26032  0.62750  Biso   1.000  C
  H139     1.0000 0.14013  0.24628  0.68648  Biso   1.000  H
  H140     1.0000 0.06689  0.16990  0.67090  Biso   1.000  H
  C151     1.0000 0.41351  0.57722  0.01573  Biso   1.000  C
  H141     1.0000 0.24166  0.81280  0.78500  Biso   1.000  H
  H142     1.0000 0.29816  0.88977  0.81261  Biso   1.000  H
  C152     1.0000 0.32845  0.89930  0.75401  Biso   1.000  C
  C153     1.0000 0.32844  0.89930  0.75398  Biso   1.000  C
  H143     1.0000 0.29816  0.88985  0.81261  Biso   1.000  H
  H144     1.0000 0.61218  0.09560  0.24461  Biso   1.000  H
  H145     1.0000 0.69490  0.02532  0.24681  Biso   1.000  H
  H146     1.0000 0.68821  0.14157  0.26980  Biso   1.000  H
  H147     1.0000 0.61218  0.09560  0.24458  Biso   1.000  H
  H148     1.0000 0.69490  0.02532  0.24678  Biso   1.000  H
  H149     1.0000 0.61225  0.09560  0.24461  Biso   1.000  H
  C154     1.0000 0.02530  0.57622  0.13953  Biso   1.000  C
  C155     1.0000 0.05199  0.51320  0.07041  Biso   1.000  C
  C156     1.0000 0.00510  0.65293  0.20680  Biso   1.000  C
  C157     1.0000 0.00510  0.65293  0.20677  Biso   1.000  C
  H150     1.0000 0.07237  0.26208  0.60960  Biso   1.000  H
  H151     1.0000 0.15527  0.19831  0.62030  Biso   1.000  H
  H152     1.0000 0.14945  0.33094  0.62550  Biso   1.000  H
  C158     1.0000 0.38891  0.47359  0.03069  Biso   1.000  C
  C159     1.0000 0.38891  0.47359  0.03066  Biso   1.000  C
  C160     1.0000 0.45849  0.64859  0.04045  Biso   1.000  C
  C161     1.0000 0.45855  0.64859  0.04045  Biso   1.000  C
  H153     1.0000 0.38788  0.90440  0.75539  Biso   1.000  H
  H154     1.0000 0.30516  0.97468  0.75319  Biso   1.000  H
  H155     1.0000 0.31185  0.85843  0.73020  Biso   1.000  H
  H156     1.0000 0.07852  0.60680  0.14041  Biso   1.000  H
  H157     1.0000 0.07852  0.60680  0.14038  Biso   1.000  H
  C162     1.0000 0.05122  0.42027  0.04592  Biso   1.000  C
  C163     1.0000 0.10249  0.60371  0.06162  Biso   1.000  C
  C164     1.0000 0.10249  0.60371  0.06159  Biso   1.000  C
  C165     1.0000 0.97601  0.62978  0.24490  Biso   1.000  C
  C166     1.0000 0.06264  0.73776  0.20286  Biso   1.000  C
  C167     1.0000 0.06258  0.73776  0.20286  Biso   1.000  C
  C168     1.0000 0.06264  0.73784  0.20286  Biso   1.000  C
  C169     1.0000 0.06258  0.73784  0.20286  Biso   1.000  C
  C170     1.0000 0.40989  0.43966  0.06818  Biso   1.000  C
  C171     1.0000 0.40989  0.43966  0.06815  Biso   1.000  C
  C172     1.0000 0.40989  0.43975  0.06818  Biso   1.000  C
  C173     1.0000 0.40989  0.43975  0.06815  Biso   1.000  C
  H158     1.0000 0.35693  0.42554  0.01449  Biso   1.000  H
  H159     1.0000 0.35687  0.42554  0.01449  Biso   1.000  H
  C174     1.0000 0.47742  0.61859  0.07850  Biso   1.000  C
  H160     1.0000 0.47622  0.71879  0.03069  Biso   1.000  H
  H161     1.0000 0.01602  0.35969  0.05151  Biso   1.000  H
  C175     1.0000 0.10091  0.41417  0.01338  Biso   1.000  C
  H162     1.0000 0.01602  0.35969  0.05148  Biso   1.000  H
  C176     1.0000 0.10091  0.41417  0.01335  Biso   1.000  C
  C177     1.0000 0.15250  0.59870  0.02946  Biso   1.000  C
  H163     1.0000 0.10241  0.66839  0.07779  Biso   1.000  H
  C178     1.0000 0.15250  0.59870  0.02943  Biso   1.000  C
  H164     1.0000 0.93818  0.57070  0.24831  Biso   1.000  H
  H165     1.0000 0.93818  0.57070  0.24828  Biso   1.000  H
  H166     1.0000 0.93825  0.57070  0.24831  Biso   1.000  H
  H167     1.0000 0.93824  0.57070  0.24828  Biso   1.000  H
  C179     1.0000 0.00179  0.69221  0.27756  Biso   1.000  C
  C180     1.0000 0.00179  0.69221  0.27754  Biso   1.000  C
  C181     1.0000 0.00185  0.69221  0.27756  Biso   1.000  C
  C182     1.0000 0.00185  0.69221  0.27754  Biso   1.000  C
  C183     1.0000 0.09062  0.79818  0.23605  Biso   1.000  C
  H168     1.0000 0.08303  0.75497  0.17760  Biso   1.000  H
  C184     1.0000 0.38790  0.32459  0.08129  Biso   1.000  C
  C185     1.0000 0.38790  0.32459  0.08126  Biso   1.000  C
  C186     1.0000 0.45350  0.51387  0.09190  Biso   1.000  C
  C187     1.0000 0.52313  0.69915  0.10502  Biso   1.000  C
  C188     1.0000 0.10234  0.31264  0.98756  Biso   1.000  C
  C189     1.0000 0.10240  0.31264  0.98756  Biso   1.000  C
  C190     1.0000 0.15291  0.50401  0.00567  Biso   1.000  C
  C191     1.0000 0.20459  0.69388  0.02090  Biso   1.000  C
  C192     1.0000 0.96799  0.66806  0.31811  Biso   1.000  C
  C193     1.0000 0.96799  0.66814  0.31811  Biso   1.000  C
  C194     1.0000 0.96805  0.66806  0.31811  Biso   1.000  C
  C195     1.0000 0.96805  0.66814  0.31811  Biso   1.000  C
  C196     1.0000 0.05849  0.77403  0.27242  Biso   1.000  C
  C197     1.0000 0.05855  0.77403  0.27242  Biso   1.000  C
  C198     1.0000 0.14999  0.88484  0.23079  Biso   1.000  C
  C199     1.0000 0.14999  0.88484  0.23076  Biso   1.000  C
  C200     1.0000 0.38220  0.23926  0.05298  Biso   1.000  C
  C201     1.0000 0.38220  0.23934  0.05298  Biso   1.000  C
  C202     1.0000 0.37031  0.29801  0.12022  Biso   1.000  C
  H169     1.0000 0.46750  0.49240  0.11801  Biso   1.000  H
  H170     1.0000 0.46750  0.49240  0.11798  Biso   1.000  H
  H171     1.0000 0.51589  0.77570  0.09449  Biso   1.000  H
  H172     1.0000 0.49859  0.69714  0.13139  Biso   1.000  H
  C203     1.0000 0.61182  0.67600  0.10940  Biso   1.000  C
  H173     1.0000 0.51595  0.77570  0.09449  Biso   1.000  H
  H174     1.0000 0.49865  0.69714  0.13139  Biso   1.000  H
  H175     1.0000 0.10588  0.33712  0.95981  Biso   1.000  H
  H176     1.0000 0.05035  0.27202  0.99039  Biso   1.000  H
  C204     1.0000 0.17078  0.23316  0.99624  Biso   1.000  C
  H177     1.0000 0.10588  0.33712  0.95978  Biso   1.000  H
  H178     1.0000 0.18867  0.50033  0.98409  Biso   1.000  H
  C205     1.0000 0.24662  0.77378  0.01461  Biso   1.000  C
  H179     1.0000 0.94101  0.59418  0.31770  Biso   1.000  H
  C206     1.0000 0.90794  0.75539  0.33140  Biso   1.000  C
  H180     1.0000 0.01362  0.66438  0.33739  Biso   1.000  H
  H181     1.0000 0.07660  0.81590  0.29459  Biso   1.000  H
  C207     1.0000 0.19851  0.95847  0.22588  Biso   1.000  C
  C208     1.0000 0.19851  0.95855  0.22588  Biso   1.000  C
  C209     1.0000 0.36130  0.13112  0.06277  Biso   1.000  C
  H182     1.0000 0.39300  0.25664  0.02631  Biso   1.000  H
  H183     1.0000 0.39300  0.25664  0.02628  Biso   1.000  H
  C210     1.0000 0.34933  0.19062  0.13098  Biso   1.000  C
  H184     1.0000 0.37303  0.35484  0.13971  Biso   1.000  H
  H185     1.0000 0.37303  0.35484  0.13968  Biso   1.000  H
  H186     1.0000 0.63542  0.72815  0.12909  Biso   1.000  H
  H187     1.0000 0.61929  0.59911  0.11960  Biso   1.000  H
  C211     1.0000 0.65631  0.68753  0.07247  Biso   1.000  C
  H188     1.0000 0.61935  0.59911  0.11960  Biso   1.000  H
  H189     1.0000 0.22274  0.27403  0.99430  Biso   1.000  H
  C212     1.0000 0.17244  0.13112  0.96840  Biso   1.000  C
  H190     1.0000 0.22280  0.27403  0.99430  Biso   1.000  H
  C213     1.0000 0.17250  0.13112  0.96840  Biso   1.000  C
  H191     1.0000 0.16613  0.20633  0.02361  Biso   1.000  H
  H192     1.0000 0.16613  0.20633  0.02358  Biso   1.000  H
  C214     1.0000 0.29733  0.86704  0.00835  Biso   1.000  C
  H193     1.0000 0.85993  0.75372  0.31349  Biso   1.000  H
  H194     1.0000 0.93323  0.83010  0.32910  Biso   1.000  H
  C215     1.0000 0.88041  0.73968  0.37250  Biso   1.000  C
  C216     1.0000 0.25503  0.04789  0.21912  Biso   1.000  C
  C217     1.0000 0.25503  0.04789  0.21909  Biso   1.000  C
  C218     1.0000 0.35503  0.04270  0.03228  Biso   1.000  C
  C219     1.0000 0.34538  0.10697  0.10240  Biso   1.000  C
  C220     1.0000 0.34538  0.10697  0.10237  Biso   1.000  C
  C221     1.0000 0.34544  0.10697  0.10240  Biso   1.000  C
  C222     1.0000 0.34544  0.10697  0.10237  Biso   1.000  C
  C223     1.0000 0.32868  0.16087  0.17243  Biso   1.000  C
  C224     1.0000 0.32874  0.16087  0.17243  Biso   1.000  C
  H195     1.0000 0.63650  0.63162  0.05351  Biso   1.000  H
  H196     1.0000 0.71442  0.67600  0.07759  Biso   1.000  H
  H197     1.0000 0.64748  0.76249  0.06171  Biso   1.000  H
  H198     1.0000 0.63649  0.63162  0.05348  Biso   1.000  H
  H199     1.0000 0.64748  0.76249  0.06168  Biso   1.000  H
  H200     1.0000 0.64754  0.76249  0.06171  Biso   1.000  H
  H201     1.0000 0.64754  0.76249  0.06168  Biso   1.000  H
  H202     1.0000 0.17339  0.15686  0.94111  Biso   1.000  H
  H203     1.0000 0.22128  0.08650  0.97410  Biso   1.000  H
  H204     1.0000 0.12407  0.08516  0.97239  Biso   1.000  H
  H205     1.0000 0.17339  0.15686  0.94108  Biso   1.000  H
  H206     1.0000 0.12407  0.08524  0.97239  Biso   1.000  H
  C225     1.0000 0.34077  0.87857  0.97401  Biso   1.000  C
  C226     1.0000 0.30410  0.95153  0.03748  Biso   1.000  C
  H207     1.0000 0.92769  0.73792  0.39040  Biso   1.000  H
  H208     1.0000 0.84479  0.80169  0.37970  Biso   1.000  H
  H209     1.0000 0.85061  0.66906  0.37450  Biso   1.000  H
  H210     1.0000 0.85061  0.66915  0.37450  Biso   1.000  H
  H211     1.0000 0.92775  0.73792  0.39040  Biso   1.000  H
  H212     1.0000 0.84485  0.80169  0.37970  Biso   1.000  H
  C227     1.0000 0.29062  0.10714  0.24946  Biso   1.000  C
  C228     1.0000 0.27523  0.07513  0.18007  Biso   1.000  C
  C229     1.0000 0.29062  0.10714  0.24943  Biso   1.000  C
  C230     1.0000 0.27523  0.07513  0.18005  Biso   1.000  C
  C231     1.0000 0.39936  0.04931  0.99732  Biso   1.000  C
  H213     1.0000 0.33199  0.03276  0.10981  Biso   1.000  H
  H214     1.0000 0.33199  0.03276  0.10978  Biso   1.000  H
  H215     1.0000 0.33199  0.03284  0.10981  Biso   1.000  H
  H216     1.0000 0.33199  0.03284  0.10978  Biso   1.000  H
  H217     1.0000 0.33205  0.03276  0.10981  Biso   1.000  H
  H218     1.0000 0.33205  0.03284  0.10981  Biso   1.000  H
  C232     1.0000 0.36340  0.21829  0.20389  Biso   1.000  C
  H219     1.0000 0.33476  0.82350  0.95411  Biso   1.000  H
  C233     1.0000 0.39264  0.96833  0.96784  Biso   1.000  C
  H220     1.0000 0.33476  0.82350  0.95408  Biso   1.000  H
  C234     1.0000 0.39270  0.96833  0.96784  Biso   1.000  C
  H221     1.0000 0.27343  0.94568  0.06080  Biso   1.000  H
  H222     1.0000 0.27337  0.94568  0.06080  Biso   1.000  H
  C235     1.0000 0.34563  0.19288  0.24276  Biso   1.000  C
  H223     1.0000 0.27719  0.08884  0.27571  Biso   1.000  H
  H224     1.0000 0.27719  0.08884  0.27568  Biso   1.000  H
  H225     1.0000 0.27725  0.08884  0.27571  Biso   1.000  H
  H226     1.0000 0.27725  0.08884  0.27568  Biso   1.000  H
  H227     1.0000 0.25169  0.03393  0.15891  Biso   1.000  H
  H228     1.0000 0.25175  0.03393  0.15891  Biso   1.000  H
  H229     1.0000 0.43487  0.11081  0.99371  Biso   1.000  H
  H230     1.0000 0.43486  0.11081  0.99368  Biso   1.000  H
  H231     1.0000 0.40062  0.27703  0.19880  Biso   1.000  H
  C236     1.0000 0.44134  0.97560  0.93144  Biso   1.000  C
  C237     1.0000 0.44140  0.97560  0.93144  Biso   1.000  C
  C238     1.0000 0.39403  0.24260  0.27639  Biso   1.000  C
  C239     1.0000 0.37309  0.27603  0.27480  Biso   1.000  C
  H232     1.0000 0.47355  0.90623  0.92900  Biso   1.000  H
  C240     1.0000 0.39267  0.99231  0.89366  Biso   1.000  C
  H233     1.0000 0.48006  0.03836  0.93441  Biso   1.000  H
  H234     1.0000 0.48006  0.03836  0.93438  Biso   1.000  H
  H235     1.0000 0.48006  0.03844  0.93441  Biso   1.000  H
  H236     1.0000 0.48006  0.03844  0.93438  Biso   1.000  H
  H237     1.0000 0.36384  0.22932  0.30079  Biso   1.000  H
  H238     1.0000 0.39644  0.32450  0.27239  Biso   1.000  H
  C241     1.0000 0.47629  0.20257  0.28259  Biso   1.000  C
  C242     1.0000 0.47635  0.20257  0.28259  Biso   1.000  C
  H239     1.0000 0.34509  0.25940  0.29961  Biso   1.000  H
  C243     1.0000 0.46371  0.26500  0.28080  Biso   1.000  C
  H240     1.0000 0.35919  0.35308  0.26669  Biso   1.000  H
  H241     1.0000 0.35429  0.92930  0.89019  Biso   1.000  H
  C244     1.0000 0.44619  0.99983  0.85770  Biso   1.000  C
  H242     1.0000 0.35423  0.92930  0.89019  Biso   1.000  H
  C245     1.0000 0.44618  0.99983  0.85768  Biso   1.000  C
  H243     1.0000 0.36044  0.06184  0.89569  Biso   1.000  H
  H244     1.0000 0.36050  0.06184  0.89569  Biso   1.000  H
  H245     1.0000 0.50783  0.21528  0.25851  Biso   1.000  H
  H246     1.0000 0.50251  0.24561  0.30420  Biso   1.000  H
  C246     1.0000 0.47782  0.07780  0.29291  Biso   1.000  C
  H247     1.0000 0.50783  0.21528  0.25848  Biso   1.000  H
  C247     1.0000 0.47782  0.07780  0.29288  Biso   1.000  C
  H248     1.0000 0.49161  0.29818  0.25810  Biso   1.000  H
  H249     1.0000 0.48061  0.30704  0.30470  Biso   1.000  H
  C248     1.0000 0.48901  0.14299  0.28521  Biso   1.000  C
  H250     1.0000 0.48038  0.93298  0.85629  Biso   1.000  H
  H251     1.0000 0.41186  0.00476  0.83389  Biso   1.000  H
  H252     1.0000 0.48068  0.06644  0.85970  Biso   1.000  H
  H253     1.0000 0.41186  0.00485  0.83389  Biso   1.000  H
  H254     1.0000 0.44044  0.03744  0.27530  Biso   1.000  H
  H255     1.0000 0.53289  0.04864  0.28979  Biso   1.000  H
  H256     1.0000 0.46114  0.06761  0.32019  Biso   1.000  H
  H257     1.0000 0.44038  0.03744  0.27530  Biso   1.000  H
  H258     1.0000 0.53296  0.04864  0.28979  Biso   1.000  H
  H259     1.0000 0.51701  0.13279  0.31049  Biso   1.000  H
  H260     1.0000 0.44022  0.09577  0.28421  Biso   1.000  H
  H261     1.0000 0.52484  0.12276  0.26381  Biso   1.000  H
  C249     1.0000 0.60739  0.00769  0.10631  Biso   1.000  C
  C250     1.0000 0.55872  0.02440  0.06856  Biso   1.000  C
  C251     1.0000 0.55872  0.02440  0.06853  Biso   1.000  C
  H262     1.0000 0.63962  0.93816  0.10431  Biso   1.000  H
  H263     1.0000 0.63962  0.93816  0.10428  Biso   1.000  H
  H264     1.0000 0.63962  0.93824  0.10431  Biso   1.000  H
  H265     1.0000 0.63962  0.93824  0.10428  Biso   1.000  H
  H266     1.0000 0.64577  0.07070  0.10981  Biso   1.000  H
  C252     1.0000 0.55388  0.00017  0.14230  Biso   1.000  C
  H267     1.0000 0.64577  0.07070  0.10978  Biso   1.000  H
  H268     1.0000 0.64583  0.07070  0.10981  Biso   1.000  H
  C253     1.0000 0.55394  0.00017  0.14230  Biso   1.000  C
  H269     1.0000 0.64583  0.07070  0.10978  Biso   1.000  H
  C254     1.0000 0.60742  0.03167  0.03216  Biso   1.000  C
  C255     1.0000 0.60736  0.03167  0.03216  Biso   1.000  C
  H270     1.0000 0.52000  0.96164  0.06559  Biso   1.000  H
  H271     1.0000 0.52651  0.09377  0.07100  Biso   1.000  H
  C256     1.0000 0.60739  0.00769  0.10634  Biso   1.000  C
  H272     1.0000 0.52651  0.09385  0.07100  Biso   1.000  H
  H273     1.0000 0.51938  0.93356  0.14030  Biso   1.000  H
  H274     1.0000 0.58820  0.99524  0.16611  Biso   1.000  H
  H275     1.0000 0.58820  0.99524  0.16608  Biso   1.000  H
  H276     1.0000 0.51938  0.93365  0.14030  Biso   1.000  H
  H277     1.0000 0.51944  0.93356  0.14030  Biso   1.000  H
  H278     1.0000 0.51944  0.93365  0.14030  Biso   1.000  H
  H279     1.0000 0.51968  0.06702  0.14371  Biso   1.000  H
  H280     1.0000 0.51968  0.06702  0.14368  Biso   1.000  H
  C257     1.0000 0.60070  0.95069  0.00268  Biso   1.000  C
  C258     1.0000 0.65929  0.12143  0.02599  Biso   1.000  C
  C259     1.0000 0.65929  0.12143  0.02596  Biso   1.000  C
  C260     1.0000 0.64503  0.95730  0.96772  Biso   1.000  C
  C261     1.0000 0.64509  0.95730  0.96772  Biso   1.000  C
  H281     1.0000 0.56520  0.88919  0.00629  Biso   1.000  H
  C262     1.0000 0.70273  0.13296  0.99165  Biso   1.000  C
  C263     1.0000 0.70273  0.13304  0.99165  Biso   1.000  C
  C264     1.0000 0.70279  0.13296  0.99165  Biso   1.000  C
  C265     1.0000 0.70279  0.13304  0.99165  Biso   1.000  C
  H282     1.0000 0.66530  0.17650  0.04589  Biso   1.000  H
  C266     1.0000 0.63876  0.86888  0.93723  Biso   1.000  C
  C267     1.0000 0.69596  0.04847  0.96252  Biso   1.000  C
  C268     1.0000 0.75344  0.22622  0.98539  Biso   1.000  C
  C269     1.0000 0.75344  0.22622  0.98536  Biso   1.000  C
  C270     1.0000 0.61786  0.76074  0.94702  Biso   1.000  C
  C271     1.0000 0.61786  0.76074  0.94699  Biso   1.000  C
  C272     1.0000 0.65468  0.89303  0.89760  Biso   1.000  C
  C273     1.0000 0.65462  0.89303  0.89760  Biso   1.000  C
  H283     1.0000 0.72663  0.05432  0.93920  Biso   1.000  H
  H284     1.0000 0.72669  0.05432  0.93920  Biso   1.000  H
  C274     1.0000 0.79547  0.30612  0.97910  Biso   1.000  C
  C275     1.0000 0.79547  0.30612  0.97907  Biso   1.000  C
  C276     1.0000 0.61216  0.67541  0.91871  Biso   1.000  C
  H285     1.0000 0.60706  0.74336  0.97369  Biso   1.000  H
  H286     1.0000 0.60706  0.74344  0.97369  Biso   1.000  H
  C277     1.0000 0.65073  0.80938  0.86902  Biso   1.000  C
  C278     1.0000 0.65079  0.80938  0.86902  Biso   1.000  C
  H287     1.0000 0.66807  0.96724  0.89019  Biso   1.000  H
  C279     1.0000 0.84756  0.40130  0.97054  Biso   1.000  C
  C280     1.0000 0.59017  0.56034  0.93182  Biso   1.000  C
  C281     1.0000 0.62975  0.70199  0.87978  Biso   1.000  C
  C282     1.0000 0.67138  0.83913  0.82757  Biso   1.000  C
  C283     1.0000 0.67132  0.83913  0.82757  Biso   1.000  C
  C284     1.0000 0.84715  0.49599  0.99433  Biso   1.000  C
  C285     1.0000 0.89757  0.39629  0.93838  Biso   1.000  C
  C286     1.0000 0.61115  0.52641  0.96931  Biso   1.000  C
  C287     1.0000 0.54656  0.48613  0.90810  Biso   1.000  C
  H288     1.0000 0.62703  0.64516  0.86029  Biso   1.000  H
  H289     1.0000 0.62703  0.64524  0.86029  Biso   1.000  H
  H290     1.0000 0.62709  0.64516  0.86029  Biso   1.000  H
  H291     1.0000 0.62709  0.64524  0.86029  Biso   1.000  H
  C288     1.0000 0.63666  0.78171  0.79611  Biso   1.000  C
  C289     1.0000 0.72483  0.92487  0.81993  Biso   1.000  C
  C290     1.0000 0.63666  0.78171  0.79608  Biso   1.000  C
  C291     1.0000 0.89915  0.58583  0.98662  Biso   1.000  C
  H292     1.0000 0.81139  0.49967  0.01591  Biso   1.000  H
  H293     1.0000 0.81139  0.49975  0.01591  Biso   1.000  H
  C292     1.0000 0.94807  0.48680  0.92959  Biso   1.000  C
  H294     1.0000 0.89765  0.33161  0.92221  Biso   1.000  H
  C293     1.0000 0.94807  0.48680  0.92956  Biso   1.000  C
  H295     1.0000 0.89765  0.33161  0.92218  Biso   1.000  H
  C294     1.0000 0.58656  0.42278  0.98427  Biso   1.000  C
  H296     1.0000 0.64313  0.57446  0.98551  Biso   1.000  H
  H297     1.0000 0.64313  0.57454  0.98551  Biso   1.000  H
  H298     1.0000 0.64319  0.57446  0.98551  Biso   1.000  H
  H299     1.0000 0.64319  0.57454  0.98551  Biso   1.000  H
  C295     1.0000 0.52264  0.38141  0.92150  Biso   1.000  C
  H300     1.0000 0.53256  0.50760  0.88199  Biso   1.000  H
  H301     1.0000 0.59944  0.72297  0.80120  Biso   1.000  H
  C296     1.0000 0.65443  0.80712  0.75724  Biso   1.000  C
  C297     1.0000 0.65449  0.80712  0.75724  Biso   1.000  C
  C298     1.0000 0.74503  0.95211  0.78088  Biso   1.000  C
  H302     1.0000 0.74837  0.96607  0.84109  Biso   1.000  H
  C299     1.0000 0.74509  0.95211  0.78088  Biso   1.000  C
  C300     1.0000 0.94884  0.57973  0.95408  Biso   1.000  C
  C301     1.0000 0.89772  0.68736  0.01244  Biso   1.000  C
  C302     1.0000 0.89772  0.68745  0.01244  Biso   1.000  C
  C303     1.0000 0.00107  0.47969  0.89425  Biso   1.000  C
  C304     1.0000 0.60712  0.39813  0.02378  Biso   1.000  C
  C305     1.0000 0.54158  0.35141  0.95955  Biso   1.000  C
  C306     1.0000 0.47693  0.30085  0.89498  Biso   1.000  C
  C307     1.0000 0.47693  0.30085  0.89495  Biso   1.000  C
  C308     1.0000 0.47693  0.30094  0.89498  Biso   1.000  C
  C309     1.0000 0.47693  0.30094  0.89495  Biso   1.000  C
  C310     1.0000 0.47699  0.30085  0.89498  Biso   1.000  C
  C311     1.0000 0.47699  0.30085  0.89495  Biso   1.000  C
  C312     1.0000 0.47699  0.30094  0.89498  Biso   1.000  C
  C313     1.0000 0.47699  0.30094  0.89495  Biso   1.000  C
  C314     1.0000 0.70944  0.89286  0.75054  Biso   1.000  C
  C315     1.0000 0.60603  0.75740  0.72361  Biso   1.000  C
  C316     1.0000 0.60603  0.75740  0.72358  Biso   1.000  C
  C317     1.0000 0.70944  0.89295  0.75054  Biso   1.000  C
  C318     1.0000 0.60609  0.75740  0.72361  Biso   1.000  C
  C319     1.0000 0.62697  0.72397  0.72520  Biso   1.000  C
  C320     1.0000 0.80155  0.04153  0.77412  Biso   1.000  C
  H303     1.0000 0.98404  0.64031  0.94849  Biso   1.000  H
  H304     1.0000 0.98410  0.64031  0.94849  Biso   1.000  H
  H305     1.0000 0.89418  0.66288  0.04019  Biso   1.000  H
  H306     1.0000 0.94971  0.72798  0.00961  Biso   1.000  H
  C321     1.0000 0.82928  0.76684  0.00376  Biso   1.000  C
  H307     1.0000 0.94971  0.72798  0.00958  Biso   1.000  H
  H308     1.0000 0.89424  0.66288  0.04019  Biso   1.000  H
  C322     1.0000 0.97476  0.42378  0.86047  Biso   1.000  C
  C323     1.0000 0.07796  0.52724  0.89484  Biso   1.000  C
  C324     1.0000 0.62979  0.38818  0.05783  Biso   1.000  C
  H309     1.0000 0.52384  0.28121  0.96931  Biso   1.000  H
  H310     1.0000 0.48417  0.22430  0.90551  Biso   1.000  H
  H311     1.0000 0.50147  0.30286  0.86861  Biso   1.000  H
  C325     1.0000 0.38825  0.32400  0.89060  Biso   1.000  C
  H312     1.0000 0.48417  0.22430  0.90548  Biso   1.000  H
  H313     1.0000 0.50147  0.30286  0.86858  Biso   1.000  H
  H314     1.0000 0.50147  0.30294  0.86861  Biso   1.000  H
  H315     1.0000 0.50147  0.30294  0.86858  Biso   1.000  H
  H316     1.0000 0.72287  0.91116  0.72429  Biso   1.000  H
  H317     1.0000 0.72287  0.91125  0.72429  Biso   1.000  H
  H318     1.0000 0.63623  0.77068  0.69921  Biso   1.000  H
  H319     1.0000 0.60362  0.67550  0.72761  Biso   1.000  H
  C326     1.0000 0.52377  0.79743  0.71741  Biso   1.000  C
  H320     1.0000 0.63622  0.77068  0.69918  Biso   1.000  H
  H321     1.0000 0.60362  0.67550  0.72758  Biso   1.000  H
  C327     1.0000 0.52371  0.79743  0.71738  Biso   1.000  C
  H322     1.0000 0.63629  0.77068  0.69921  Biso   1.000  H
  H323     1.0000 0.60368  0.67550  0.72761  Biso   1.000  H
  H324     1.0000 0.60368  0.67550  0.72758  Biso   1.000  H
  C328     1.0000 0.52377  0.79743  0.71738  Biso   1.000  C
  H325     1.0000 0.65497  0.74060  0.70039  Biso   1.000  H
  C329     1.0000 0.53635  0.73500  0.71920  Biso   1.000  C
  H326     1.0000 0.64087  0.64692  0.73328  Biso   1.000  H
  C330     1.0000 0.85007  0.11516  0.76921  Biso   1.000  C
  C331     1.0000 0.85007  0.11524  0.76921  Biso   1.000  C
  H327     1.0000 0.83393  0.79367  0.97639  Biso   1.000  H
  H328     1.0000 0.83393  0.79375  0.97639  Biso   1.000  H
  H329     1.0000 0.83399  0.79367  0.97639  Biso   1.000  H
  H330     1.0000 0.83399  0.79375  0.97639  Biso   1.000  H
  H331     1.0000 0.77732  0.72597  0.00570  Biso   1.000  H
  C332     1.0000 0.82762  0.86888  0.03160  Biso   1.000  C
  C333     1.0000 0.02433  0.41142  0.82783  Biso   1.000  C
  C334     1.0000 0.02433  0.41142  0.82780  Biso   1.000  C
  C335     1.0000 0.02439  0.41142  0.82783  Biso   1.000  C
  C336     1.0000 0.02439  0.41142  0.82780  Biso   1.000  C
  H332     1.0000 0.92154  0.39320  0.85959  Biso   1.000  H
  C337     1.0000 0.12857  0.51722  0.86256  Biso   1.000  C
  H333     1.0000 0.09639  0.56702  0.91750  Biso   1.000  H
  H334     1.0000 0.09633  0.56702  0.91750  Biso   1.000  H
  C338     1.0000 0.66869  0.38166  0.09570  Biso   1.000  C
  H335     1.0000 0.36464  0.27185  0.87091  Biso   1.000  H
  H336     1.0000 0.38077  0.40089  0.88040  Biso   1.000  H
  C339     1.0000 0.34375  0.31247  0.92753  Biso   1.000  C
  H337     1.0000 0.36464  0.27194  0.87091  Biso   1.000  H
  H338     1.0000 0.49223  0.78472  0.74149  Biso   1.000  H
  H339     1.0000 0.49755  0.75439  0.69580  Biso   1.000  H
  C340     1.0000 0.52224  0.92220  0.70709  Biso   1.000  C
  H340     1.0000 0.50845  0.70182  0.74190  Biso   1.000  H
  H341     1.0000 0.51945  0.69305  0.69530  Biso   1.000  H
  C341     1.0000 0.51105  0.85701  0.71479  Biso   1.000  C
  C342     1.0000 0.90944  0.20182  0.76395  Biso   1.000  C
  C343     1.0000 0.90944  0.20182  0.76392  Biso   1.000  C
  H342     1.0000 0.82667  0.84314  0.05889  Biso   1.000  H
  H343     1.0000 0.77878  0.91350  0.02590  Biso   1.000  H
  H344     1.0000 0.87599  0.91484  0.02761  Biso   1.000  H
  H345     1.0000 0.82673  0.84314  0.05889  Biso   1.000  H
  C344     1.0000 0.99496  0.34707  0.79320  Biso   1.000  C
  C345     1.0000 0.99496  0.34715  0.79320  Biso   1.000  C
  C346     1.0000 0.10108  0.45922  0.82951  Biso   1.000  C
  C347     1.0000 0.21239  0.56752  0.86497  Biso   1.000  C
  C348     1.0000 0.21233  0.56752  0.86497  Biso   1.000  C
  C349     1.0000 0.63558  0.33169  0.12848  Biso   1.000  C
  C350     1.0000 0.63558  0.33169  0.12845  Biso   1.000  C
  C351     1.0000 0.74601  0.43105  0.09964  Biso   1.000  C
  C352     1.0000 0.74601  0.43114  0.09964  Biso   1.000  C
  H346     1.0000 0.36356  0.36838  0.94649  Biso   1.000  H
  H347     1.0000 0.28564  0.32400  0.92241  Biso   1.000  H
  H348     1.0000 0.35258  0.23751  0.93829  Biso   1.000  H
  H349     1.0000 0.28564  0.32400  0.92238  Biso   1.000  H
  H350     1.0000 0.35252  0.23751  0.93829  Biso   1.000  H
  H351     1.0000 0.55962  0.96256  0.72470  Biso   1.000  H
  H352     1.0000 0.46717  0.95136  0.71021  Biso   1.000  H
  H353     1.0000 0.53892  0.93239  0.67981  Biso   1.000  H
  H354     1.0000 0.55962  0.96264  0.72470  Biso   1.000  H
  H355     1.0000 0.46717  0.95145  0.71021  Biso   1.000  H
  H356     1.0000 0.55968  0.96256  0.72470  Biso   1.000  H
  H357     1.0000 0.53898  0.93239  0.67981  Biso   1.000  H
  H358     1.0000 0.55968  0.96264  0.72470  Biso   1.000  H
  H359     1.0000 0.48305  0.86721  0.68948  Biso   1.000  H
  H360     1.0000 0.55984  0.90423  0.71579  Biso   1.000  H
  H361     1.0000 0.47528  0.87724  0.73619  Biso   1.000  H
  C353     1.0000 0.94157  0.22597  0.72758  Biso   1.000  C
  C354     1.0000 0.93742  0.26224  0.79714  Biso   1.000  C
  C355     1.0000 0.94157  0.22597  0.72755  Biso   1.000  C
  C356     1.0000 0.93748  0.26224  0.79714  Biso   1.000  C
  C357     1.0000 0.02405  0.37022  0.75510  Biso   1.000  C
  H362     1.0000 0.13556  0.45228  0.80761  Biso   1.000  H
  H363     1.0000 0.13556  0.45228  0.80758  Biso   1.000  H
  C358     1.0000 0.25405  0.56895  0.90036  Biso   1.000  C
  C359     1.0000 0.24813  0.61600  0.83286  Biso   1.000  C
  C360     1.0000 0.25405  0.56895  0.90033  Biso   1.000  C
  C361     1.0000 0.24820  0.61600  0.83286  Biso   1.000  C
  C362     1.0000 0.67751  0.33119  0.16449  Biso   1.000  C
  C363     1.0000 0.67751  0.33119  0.16446  Biso   1.000  C
  H364     1.0000 0.58372  0.29726  0.12639  Biso   1.000  H
  H365     1.0000 0.58372  0.29734  0.12639  Biso   1.000  H
  C364     1.0000 0.78767  0.43248  0.13503  Biso   1.000  C
  C365     1.0000 0.78773  0.43248  0.13503  Biso   1.000  C
  H366     1.0000 0.76991  0.46432  0.07729  Biso   1.000  H
  H367     1.0000 0.92346  0.18410  0.70541  Biso   1.000  H
  C366     1.0000 0.99827  0.30779  0.72244  Biso   1.000  C
  H368     1.0000 0.92346  0.18410  0.70538  Biso   1.000  H
  H369     1.0000 0.91703  0.24503  0.82240  Biso   1.000  H
  H370     1.0000 0.91709  0.24503  0.82240  Biso   1.000  H
  H371     1.0000 0.06188  0.42930  0.75169  Biso   1.000  H
  C367     1.0000 0.33137  0.61834  0.90430  Biso   1.000  C
  C368     1.0000 0.33137  0.61834  0.90427  Biso   1.000  C
  H372     1.0000 0.23015  0.53568  0.92271  Biso   1.000  H
  H373     1.0000 0.23015  0.53568  0.92268  Biso   1.000  H
  C369     1.0000 0.32255  0.66881  0.83551  Biso   1.000  C
  H374     1.0000 0.22064  0.61307  0.80811  Biso   1.000  H
  H375     1.0000 0.22064  0.61307  0.80808  Biso   1.000  H
  H376     1.0000 0.22064  0.61315  0.80811  Biso   1.000  H
  H377     1.0000 0.22064  0.61315  0.80808  Biso   1.000  H
  C370     1.0000 0.64419  0.27018  0.19971  Biso   1.000  C
  C371     1.0000 0.64419  0.27018  0.19968  Biso   1.000  C
  C372     1.0000 0.75193  0.38400  0.16714  Biso   1.000  C
  C373     1.0000 0.75193  0.38400  0.16711  Biso   1.000  C
  C374     1.0000 0.87149  0.48278  0.13744  Biso   1.000  C
  C375     1.0000 0.87149  0.48278  0.13742  Biso   1.000  C
  C376     1.0000 0.03207  0.33194  0.68189  Biso   1.000  C
  C377     1.0000 0.03207  0.33194  0.68186  Biso   1.000  C
  C378     1.0000 0.37027  0.61182  0.94217  Biso   1.000  C
  C379     1.0000 0.37027  0.61182  0.94214  Biso   1.000  C
  C380     1.0000 0.36448  0.66831  0.87152  Biso   1.000  C
  C381     1.0000 0.35587  0.72982  0.80029  Biso   1.000  C
  H378     1.0000 0.64289  0.32116  0.22259  Biso   1.000  H
  H379     1.0000 0.58799  0.24503  0.19389  Biso   1.000  H
  C382     1.0000 0.70188  0.16179  0.21009  Biso   1.000  C
  H380     1.0000 0.64289  0.32124  0.22259  Biso   1.000  H
  C383     1.0000 0.70194  0.16179  0.21009  Biso   1.000  C
  H381     1.0000 0.77942  0.38693  0.19189  Biso   1.000  H
  C384     1.0000 0.92210  0.47276  0.10516  Biso   1.000  C
  C385     1.0000 0.89898  0.54078  0.17049  Biso   1.000  C
  C386     1.0000 0.92210  0.47284  0.10516  Biso   1.000  C
  C387     1.0000 0.89904  0.54078  0.17049  Biso   1.000  C
  H382     1.0000 0.98644  0.33562  0.66261  Biso   1.000  H
  H383     1.0000 0.98644  0.33562  0.66258  Biso   1.000  H
  H384     1.0000 0.05905  0.40582  0.68230  Biso   1.000  H
  C388     1.0000 0.09212  0.24461  0.66860  Biso   1.000  C
  C389     1.0000 0.09218  0.24461  0.66860  Biso   1.000  C
  C390     1.0000 0.39294  0.60187  0.97622  Biso   1.000  C
  C391     1.0000 0.39300  0.60187  0.97622  Biso   1.000  C
  H385     1.0000 0.41635  0.70274  0.87361  Biso   1.000  H
  H386     1.0000 0.41634  0.70274  0.87358  Biso   1.000  H
  H387     1.0000 0.35717  0.67884  0.77741  Biso   1.000  H
  H388     1.0000 0.41207  0.75497  0.80611  Biso   1.000  H
  C392     1.0000 0.29818  0.83821  0.78991  Biso   1.000  C
  H389     1.0000 0.35717  0.67884  0.77738  Biso   1.000  H
  H390     1.0000 0.41207  0.75497  0.80608  Biso   1.000  H
  C393     1.0000 0.29818  0.83821  0.78988  Biso   1.000  C
  H391     1.0000 0.41207  0.75506  0.80611  Biso   1.000  H
  H392     1.0000 0.41207  0.75506  0.80608  Biso   1.000  H
  H393     1.0000 0.75840  0.18720  0.21500  Biso   1.000  H
  H394     1.0000 0.70190  0.11023  0.18739  Biso   1.000  H
  C394     1.0000 0.67162  0.10070  0.24599  Biso   1.000  C
  H395     1.0000 0.90367  0.43298  0.08250  Biso   1.000  H
  C395     1.0000 0.99899  0.52031  0.10575  Biso   1.000  C
  C396     1.0000 0.99899  0.52031  0.10572  Biso   1.000  C
  H396     1.0000 0.90373  0.43298  0.08250  Biso   1.000  H
  C397     1.0000 0.97573  0.58858  0.17217  Biso   1.000  C
  H397     1.0000 0.86450  0.54772  0.19239  Biso   1.000  H
  H398     1.0000 0.14013  0.24628  0.68651  Biso   1.000  H
  H399     1.0000 0.06683  0.16990  0.67090  Biso   1.000  H
  C398     1.0000 0.11965  0.26032  0.62750  Biso   1.000  C
  H400     1.0000 0.14013  0.24628  0.68648  Biso   1.000  H
  H401     1.0000 0.06689  0.16990  0.67090  Biso   1.000  H
  C399     1.0000 0.41351  0.57722  0.01573  Biso   1.000  C
  H402     1.0000 0.24166  0.81280  0.78500  Biso   1.000  H
  H403     1.0000 0.29816  0.88977  0.81261  Biso   1.000  H
  C400     1.0000 0.32845  0.89930  0.75401  Biso   1.000  C
  C401     1.0000 0.32844  0.89930  0.75398  Biso   1.000  C
  H404     1.0000 0.29816  0.88985  0.81261  Biso   1.000  H
  H405     1.0000 0.68821  0.14157  0.26980  Biso   1.000  H
  H406     1.0000 0.61218  0.09560  0.24461  Biso   1.000  H
  H407     1.0000 0.69490  0.02532  0.24681  Biso   1.000  H
  H408     1.0000 0.61218  0.09560  0.24458  Biso   1.000  H
  H409     1.0000 0.69490  0.02532  0.24678  Biso   1.000  H
  H410     1.0000 0.61225  0.09560  0.24461  Biso   1.000  H
  C402     1.0000 0.02530  0.57622  0.13953  Biso   1.000  C
  C403     1.0000 0.05199  0.51320  0.07041  Biso   1.000  C
  C404     1.0000 0.00510  0.65293  0.20680  Biso   1.000  C
  C405     1.0000 0.00510  0.65293  0.20677  Biso   1.000  C
  H411     1.0000 0.07237  0.26208  0.60960  Biso   1.000  H
  H412     1.0000 0.15527  0.19831  0.62030  Biso   1.000  H
  H413     1.0000 0.14945  0.33094  0.62550  Biso   1.000  H
  C406     1.0000 0.38891  0.47359  0.03069  Biso   1.000  C
  C407     1.0000 0.38891  0.47359  0.03066  Biso   1.000  C
  C408     1.0000 0.45849  0.64859  0.04045  Biso   1.000  C
  C409     1.0000 0.45855  0.64859  0.04045  Biso   1.000  C
  H414     1.0000 0.38788  0.90440  0.75539  Biso   1.000  H
  H415     1.0000 0.30516  0.97468  0.75319  Biso   1.000  H
  H416     1.0000 0.31185  0.85843  0.73020  Biso   1.000  H
  H417     1.0000 0.07852  0.60680  0.14041  Biso   1.000  H
  H418     1.0000 0.07852  0.60680  0.14038  Biso   1.000  H
  C410     1.0000 0.05122  0.42027  0.04592  Biso   1.000  C
  C411     1.0000 0.10249  0.60371  0.06162  Biso   1.000  C
  C412     1.0000 0.10249  0.60371  0.06159  Biso   1.000  C
  C413     1.0000 0.97601  0.62978  0.24490  Biso   1.000  C
  C414     1.0000 0.06264  0.73776  0.20286  Biso   1.000  C
  C415     1.0000 0.06258  0.73776  0.20286  Biso   1.000  C
  C416     1.0000 0.06264  0.73784  0.20286  Biso   1.000  C
  C417     1.0000 0.06258  0.73784  0.20286  Biso   1.000  C
  C418     1.0000 0.40989  0.43966  0.06818  Biso   1.000  C
  C419     1.0000 0.40989  0.43966  0.06815  Biso   1.000  C
  C420     1.0000 0.40989  0.43975  0.06818  Biso   1.000  C
  C421     1.0000 0.40989  0.43975  0.06815  Biso   1.000  C
  H419     1.0000 0.35693  0.42554  0.01449  Biso   1.000  H
  H420     1.0000 0.35687  0.42554  0.01449  Biso   1.000  H
  C422     1.0000 0.47742  0.61859  0.07850  Biso   1.000  C
  H421     1.0000 0.47622  0.71879  0.03069  Biso   1.000  H
  H422     1.0000 0.01602  0.35969  0.05151  Biso   1.000  H
  C423     1.0000 0.10091  0.41417  0.01338  Biso   1.000  C
  H423     1.0000 0.01602  0.35969  0.05148  Biso   1.000  H
  C424     1.0000 0.10091  0.41417  0.01335  Biso   1.000  C
  C425     1.0000 0.15250  0.59870  0.02946  Biso   1.000  C
  H424     1.0000 0.10241  0.66839  0.07779  Biso   1.000  H
  C426     1.0000 0.15250  0.59870  0.02943  Biso   1.000  C
  H425     1.0000 0.93818  0.57070  0.24831  Biso   1.000  H
  H426     1.0000 0.93818  0.57070  0.24828  Biso   1.000  H
  H427     1.0000 0.93825  0.57070  0.24831  Biso   1.000  H
  H428     1.0000 0.93824  0.57070  0.24828  Biso   1.000  H
  C427     1.0000 0.00179  0.69221  0.27756  Biso   1.000  C
  C428     1.0000 0.00179  0.69221  0.27754  Biso   1.000  C
  C429     1.0000 0.00185  0.69221  0.27756  Biso   1.000  C
  C430     1.0000 0.00185  0.69221  0.27754  Biso   1.000  C
  C431     1.0000 0.09062  0.79818  0.23605  Biso   1.000  C
  H429     1.0000 0.08303  0.75497  0.17760  Biso   1.000  H
  C432     1.0000 0.38790  0.32459  0.08129  Biso   1.000  C
  C433     1.0000 0.38790  0.32459  0.08126  Biso   1.000  C
  C434     1.0000 0.45350  0.51387  0.09190  Biso   1.000  C
  C435     1.0000 0.52313  0.69915  0.10502  Biso   1.000  C
  C436     1.0000 0.10234  0.31264  0.98756  Biso   1.000  C
  C437     1.0000 0.10240  0.31264  0.98756  Biso   1.000  C
  C438     1.0000 0.15291  0.50401  0.00567  Biso   1.000  C
  C439     1.0000 0.20459  0.69388  0.02090  Biso   1.000  C
  C440     1.0000 0.96799  0.66806  0.31811  Biso   1.000  C
  C441     1.0000 0.96799  0.66814  0.31811  Biso   1.000  C
  C442     1.0000 0.96805  0.66806  0.31811  Biso   1.000  C
  C443     1.0000 0.96805  0.66814  0.31811  Biso   1.000  C
  C444     1.0000 0.05849  0.77403  0.27242  Biso   1.000  C
  C445     1.0000 0.05855  0.77403  0.27242  Biso   1.000  C
  C446     1.0000 0.14999  0.88484  0.23079  Biso   1.000  C
  C447     1.0000 0.14999  0.88484  0.23076  Biso   1.000  C
  C448     1.0000 0.38220  0.23926  0.05298  Biso   1.000  C
  C449     1.0000 0.38220  0.23934  0.05298  Biso   1.000  C
  C450     1.0000 0.37031  0.29801  0.12022  Biso   1.000  C
  H430     1.0000 0.46750  0.49240  0.11801  Biso   1.000  H
  H431     1.0000 0.46750  0.49240  0.11798  Biso   1.000  H
  H432     1.0000 0.51589  0.77570  0.09449  Biso   1.000  H
  H433     1.0000 0.49859  0.69714  0.13139  Biso   1.000  H
  C451     1.0000 0.61182  0.67600  0.10940  Biso   1.000  C
  H434     1.0000 0.51595  0.77570  0.09449  Biso   1.000  H
  H435     1.0000 0.49865  0.69714  0.13139  Biso   1.000  H
  H436     1.0000 0.10588  0.33712  0.95981  Biso   1.000  H
  H437     1.0000 0.05035  0.27202  0.99039  Biso   1.000  H
  C452     1.0000 0.17078  0.23316  0.99624  Biso   1.000  C
  H438     1.0000 0.10588  0.33712  0.95978  Biso   1.000  H
  H439     1.0000 0.18867  0.50033  0.98409  Biso   1.000  H
  C453     1.0000 0.24662  0.77378  0.01461  Biso   1.000  C
  H440     1.0000 0.94101  0.59418  0.31770  Biso   1.000  H
  C454     1.0000 0.90794  0.75539  0.33140  Biso   1.000  C
  H441     1.0000 0.01362  0.66438  0.33739  Biso   1.000  H
  H442     1.0000 0.07660  0.81590  0.29459  Biso   1.000  H
  C455     1.0000 0.19851  0.95847  0.22588  Biso   1.000  C
  C456     1.0000 0.19851  0.95855  0.22588  Biso   1.000  C
  C457     1.0000 0.36130  0.13112  0.06277  Biso   1.000  C
  H443     1.0000 0.39300  0.25664  0.02631  Biso   1.000  H
  H444     1.0000 0.39300  0.25664  0.02628  Biso   1.000  H
  C458     1.0000 0.34933  0.19062  0.13098  Biso   1.000  C
  H445     1.0000 0.37303  0.35484  0.13971  Biso   1.000  H
  H446     1.0000 0.37303  0.35484  0.13968  Biso   1.000  H
  H447     1.0000 0.63542  0.72815  0.12909  Biso   1.000  H
  H448     1.0000 0.61929  0.59911  0.11960  Biso   1.000  H
  C459     1.0000 0.65631  0.68753  0.07247  Biso   1.000  C
  H449     1.0000 0.61935  0.59911  0.11960  Biso   1.000  H
  H450     1.0000 0.22274  0.27403  0.99430  Biso   1.000  H
  C460     1.0000 0.17244  0.13112  0.96840  Biso   1.000  C
  H451     1.0000 0.22280  0.27403  0.99430  Biso   1.000  H
  C461     1.0000 0.17250  0.13112  0.96840  Biso   1.000  C
  H452     1.0000 0.16613  0.20633  0.02361  Biso   1.000  H
  H453     1.0000 0.16613  0.20633  0.02358  Biso   1.000  H
  C462     1.0000 0.29733  0.86704  0.00835  Biso   1.000  C
  H454     1.0000 0.85993  0.75372  0.31349  Biso   1.000  H
  H455     1.0000 0.93323  0.83010  0.32910  Biso   1.000  H
  C463     1.0000 0.88041  0.73968  0.37250  Biso   1.000  C
  C464     1.0000 0.25503  0.04789  0.21912  Biso   1.000  C
  C465     1.0000 0.25503  0.04789  0.21909  Biso   1.000  C
  C466     1.0000 0.35503  0.04270  0.03228  Biso   1.000  C
  C467     1.0000 0.34538  0.10697  0.10240  Biso   1.000  C
  C468     1.0000 0.34538  0.10697  0.10237  Biso   1.000  C
  C469     1.0000 0.34544  0.10697  0.10240  Biso   1.000  C
  C470     1.0000 0.34544  0.10697  0.10237  Biso   1.000  C
  C471     1.0000 0.32868  0.16087  0.17243  Biso   1.000  C
  C472     1.0000 0.32874  0.16087  0.17243  Biso   1.000  C
  H456     1.0000 0.63650  0.63162  0.05351  Biso   1.000  H
  H457     1.0000 0.71442  0.67600  0.07759  Biso   1.000  H
  H458     1.0000 0.64748  0.76249  0.06171  Biso   1.000  H
  H459     1.0000 0.63649  0.63162  0.05348  Biso   1.000  H
  H460     1.0000 0.64748  0.76249  0.06168  Biso   1.000  H
  H461     1.0000 0.64754  0.76249  0.06171  Biso   1.000  H
  H462     1.0000 0.64754  0.76249  0.06168  Biso   1.000  H
  H463     1.0000 0.17339  0.15686  0.94111  Biso   1.000  H
  H464     1.0000 0.22128  0.08650  0.97410  Biso   1.000  H
  H465     1.0000 0.12407  0.08516  0.97239  Biso   1.000  H
  H466     1.0000 0.17339  0.15686  0.94108  Biso   1.000  H
  H467     1.0000 0.12407  0.08524  0.97239  Biso   1.000  H
  C473     1.0000 0.34077  0.87857  0.97401  Biso   1.000  C
  C474     1.0000 0.30410  0.95153  0.03748  Biso   1.000  C
  H468     1.0000 0.92769  0.73792  0.39040  Biso   1.000  H
  H469     1.0000 0.84479  0.80169  0.37970  Biso   1.000  H
  H470     1.0000 0.85061  0.66906  0.37450  Biso   1.000  H
  H471     1.0000 0.85061  0.66915  0.37450  Biso   1.000  H
  H472     1.0000 0.84485  0.80169  0.37970  Biso   1.000  H
  H473     1.0000 0.92775  0.73792  0.39040  Biso   1.000  H
  C475     1.0000 0.29062  0.10714  0.24946  Biso   1.000  C
  C476     1.0000 0.27523  0.07513  0.18007  Biso   1.000  C
  C477     1.0000 0.29062  0.10714  0.24943  Biso   1.000  C
  C478     1.0000 0.27523  0.07513  0.18005  Biso   1.000  C
  C479     1.0000 0.39936  0.04931  0.99732  Biso   1.000  C
  H474     1.0000 0.33199  0.03276  0.10981  Biso   1.000  H
  H475     1.0000 0.33199  0.03276  0.10978  Biso   1.000  H
  H476     1.0000 0.33199  0.03284  0.10981  Biso   1.000  H
  H477     1.0000 0.33199  0.03284  0.10978  Biso   1.000  H
  H478     1.0000 0.33205  0.03276  0.10981  Biso   1.000  H
  H479     1.0000 0.33205  0.03284  0.10981  Biso   1.000  H
  C480     1.0000 0.36340  0.21829  0.20389  Biso   1.000  C
  H480     1.0000 0.33476  0.82350  0.95411  Biso   1.000  H
  C481     1.0000 0.39264  0.96833  0.96784  Biso   1.000  C
  H481     1.0000 0.33476  0.82350  0.95408  Biso   1.000  H
  C482     1.0000 0.39270  0.96833  0.96784  Biso   1.000  C
  H482     1.0000 0.27343  0.94568  0.06080  Biso   1.000  H
  H483     1.0000 0.27337  0.94568  0.06080  Biso   1.000  H
  C483     1.0000 0.34563  0.19288  0.24276  Biso   1.000  C
  H484     1.0000 0.27719  0.08884  0.27571  Biso   1.000  H
  H485     1.0000 0.27719  0.08884  0.27568  Biso   1.000  H
  H486     1.0000 0.27725  0.08884  0.27571  Biso   1.000  H
  H487     1.0000 0.27725  0.08884  0.27568  Biso   1.000  H
  H488     1.0000 0.25169  0.03393  0.15891  Biso   1.000  H
  H489     1.0000 0.25175  0.03393  0.15891  Biso   1.000  H
  H490     1.0000 0.43487  0.11081  0.99371  Biso   1.000  H
  H491     1.0000 0.43486  0.11081  0.99368  Biso   1.000  H
  H492     1.0000 0.40062  0.27703  0.19880  Biso   1.000  H
  C484     1.0000 0.44134  0.97560  0.93144  Biso   1.000  C
  C485     1.0000 0.44140  0.97560  0.93144  Biso   1.000  C
  C486     1.0000 0.39403  0.24260  0.27639  Biso   1.000  C
  C487     1.0000 0.37309  0.27603  0.27480  Biso   1.000  C
  H493     1.0000 0.47355  0.90623  0.92900  Biso   1.000  H
  C488     1.0000 0.39267  0.99231  0.89366  Biso   1.000  C
  H494     1.0000 0.48006  0.03836  0.93441  Biso   1.000  H
  H495     1.0000 0.48006  0.03836  0.93438  Biso   1.000  H
  H496     1.0000 0.48006  0.03844  0.93441  Biso   1.000  H
  H497     1.0000 0.48006  0.03844  0.93438  Biso   1.000  H
  H498     1.0000 0.36384  0.22932  0.30079  Biso   1.000  H
  H499     1.0000 0.39644  0.32450  0.27239  Biso   1.000  H
  C489     1.0000 0.47629  0.20257  0.28259  Biso   1.000  C
  C490     1.0000 0.47635  0.20257  0.28259  Biso   1.000  C
  H500     1.0000 0.34509  0.25940  0.29961  Biso   1.000  H
  C491     1.0000 0.46371  0.26500  0.28080  Biso   1.000  C
  H501     1.0000 0.35919  0.35308  0.26669  Biso   1.000  H
  H502     1.0000 0.35429  0.92930  0.89019  Biso   1.000  H
  C492     1.0000 0.44619  0.99983  0.85770  Biso   1.000  C
  H503     1.0000 0.35423  0.92930  0.89019  Biso   1.000  H
  C493     1.0000 0.44618  0.99983  0.85768  Biso   1.000  C
  H504     1.0000 0.36044  0.06184  0.89569  Biso   1.000  H
  H505     1.0000 0.36050  0.06184  0.89569  Biso   1.000  H
  H506     1.0000 0.50783  0.21528  0.25851  Biso   1.000  H
  H507     1.0000 0.50251  0.24561  0.30420  Biso   1.000  H
  C494     1.0000 0.47782  0.07780  0.29291  Biso   1.000  C
  H508     1.0000 0.50783  0.21528  0.25848  Biso   1.000  H
  C495     1.0000 0.47782  0.07780  0.29288  Biso   1.000  C
  H509     1.0000 0.49161  0.29818  0.25810  Biso   1.000  H
  H510     1.0000 0.48061  0.30704  0.30470  Biso   1.000  H
  C496     1.0000 0.48901  0.14299  0.28521  Biso   1.000  C
  H511     1.0000 0.48038  0.93298  0.85629  Biso   1.000  H
  H512     1.0000 0.41186  0.00476  0.83389  Biso   1.000  H
  H513     1.0000 0.48068  0.06644  0.85970  Biso   1.000  H
  H514     1.0000 0.41186  0.00485  0.83389  Biso   1.000  H
  H515     1.0000 0.44044  0.03744  0.27530  Biso   1.000  H
  H516     1.0000 0.53289  0.04864  0.28979  Biso   1.000  H
  H517     1.0000 0.46114  0.06761  0.32019  Biso   1.000  H
  H518     1.0000 0.44038  0.03744  0.27530  Biso   1.000  H
  H519     1.0000 0.53296  0.04864  0.28979  Biso   1.000  H
  H520     1.0000 0.51701  0.13279  0.31049  Biso   1.000  H
  H521     1.0000 0.44022  0.09577  0.28421  Biso   1.000  H
  H522     1.0000 0.52484  0.12276  0.26381  Biso   1.000  H
  C497     1.0000 0.60739  0.00769  0.10631  Biso   1.000  C
  C498     1.0000 0.55872  0.02440  0.06856  Biso   1.000  C
  C499     1.0000 0.55872  0.02440  0.06853  Biso   1.000  C
  H523     1.0000 0.63962  0.93816  0.10431  Biso   1.000  H
  H524     1.0000 0.63962  0.93816  0.10428  Biso   1.000  H
  H525     1.0000 0.63962  0.93824  0.10431  Biso   1.000  H
  H526     1.0000 0.63962  0.93824  0.10428  Biso   1.000  H
  H527     1.0000 0.64577  0.07070  0.10981  Biso   1.000  H
  C500     1.0000 0.55388  0.00017  0.14230  Biso   1.000  C
  H528     1.0000 0.64577  0.07070  0.10978  Biso   1.000  H
  H529     1.0000 0.64583  0.07070  0.10981  Biso   1.000  H
  C501     1.0000 0.55394  0.00017  0.14230  Biso   1.000  C
  H530     1.0000 0.64583  0.07070  0.10978  Biso   1.000  H
  C502     1.0000 0.60742  0.03167  0.03216  Biso   1.000  C
  C503     1.0000 0.60736  0.03167  0.03216  Biso   1.000  C
  H531     1.0000 0.52000  0.96164  0.06559  Biso   1.000  H
  H532     1.0000 0.52651  0.09377  0.07100  Biso   1.000  H
  C504     1.0000 0.60739  0.00769  0.10634  Biso   1.000  C
  H533     1.0000 0.52651  0.09385  0.07100  Biso   1.000  H
  H534     1.0000 0.58820  0.99524  0.16611  Biso   1.000  H
  H535     1.0000 0.58820  0.99524  0.16608  Biso   1.000  H
  H536     1.0000 0.51938  0.93356  0.14030  Biso   1.000  H
  H537     1.0000 0.51938  0.93365  0.14030  Biso   1.000  H
  H538     1.0000 0.51944  0.93356  0.14030  Biso   1.000  H
  H539     1.0000 0.51944  0.93365  0.14030  Biso   1.000  H
  H540     1.0000 0.51968  0.06702  0.14371  Biso   1.000  H
  H541     1.0000 0.51968  0.06702  0.14368  Biso   1.000  H
  C505     1.0000 0.60070  0.95069  0.00268  Biso   1.000  C
  C506     1.0000 0.65929  0.12143  0.02599  Biso   1.000  C
  C507     1.0000 0.65929  0.12143  0.02596  Biso   1.000  C
  C508     1.0000 0.64503  0.95730  0.96772  Biso   1.000  C
  C509     1.0000 0.64509  0.95730  0.96772  Biso   1.000  C
  H542     1.0000 0.56520  0.88919  0.00629  Biso   1.000  H
  C510     1.0000 0.70273  0.13296  0.99165  Biso   1.000  C
  C511     1.0000 0.70273  0.13304  0.99165  Biso   1.000  C
  C512     1.0000 0.70279  0.13296  0.99165  Biso   1.000  C
  C513     1.0000 0.70279  0.13304  0.99165  Biso   1.000  C
  H543     1.0000 0.66530  0.17650  0.04589  Biso   1.000  H
  C514     1.0000 0.63876  0.86888  0.93723  Biso   1.000  C
  C515     1.0000 0.69596  0.04847  0.96252  Biso   1.000  C
  C516     1.0000 0.75344  0.22622  0.98539  Biso   1.000  C
  C517     1.0000 0.75344  0.22622  0.98536  Biso   1.000  C
  C518     1.0000 0.61786  0.76074  0.94702  Biso   1.000  C
  C519     1.0000 0.61786  0.76074  0.94699  Biso   1.000  C
  C520     1.0000 0.65468  0.89303  0.89760  Biso   1.000  C
  C521     1.0000 0.65462  0.89303  0.89760  Biso   1.000  C
  H544     1.0000 0.72663  0.05432  0.93920  Biso   1.000  H
  H545     1.0000 0.72669  0.05432  0.93920  Biso   1.000  H
  C522     1.0000 0.79547  0.30612  0.97910  Biso   1.000  C
  C523     1.0000 0.79547  0.30612  0.97907  Biso   1.000  C
  C524     1.0000 0.61216  0.67541  0.91871  Biso   1.000  C
  H546     1.0000 0.60706  0.74336  0.97369  Biso   1.000  H
  H547     1.0000 0.60706  0.74344  0.97369  Biso   1.000  H
  C525     1.0000 0.65073  0.80938  0.86902  Biso   1.000  C
  C526     1.0000 0.65079  0.80938  0.86902  Biso   1.000  C
  H548     1.0000 0.66807  0.96724  0.89019  Biso   1.000  H
  C527     1.0000 0.84756  0.40130  0.97054  Biso   1.000  C
  C528     1.0000 0.59017  0.56034  0.93182  Biso   1.000  C
  C529     1.0000 0.62975  0.70199  0.87978  Biso   1.000  C
  C530     1.0000 0.67138  0.83913  0.82757  Biso   1.000  C
  C531     1.0000 0.67132  0.83913  0.82757  Biso   1.000  C
  C532     1.0000 0.84715  0.49599  0.99433  Biso   1.000  C
  C533     1.0000 0.89757  0.39629  0.93838  Biso   1.000  C
  C534     1.0000 0.61115  0.52641  0.96931  Biso   1.000  C
  C535     1.0000 0.54656  0.48613  0.90810  Biso   1.000  C
  H549     1.0000 0.62703  0.64516  0.86029  Biso   1.000  H
  H550     1.0000 0.62703  0.64524  0.86029  Biso   1.000  H
  H551     1.0000 0.62709  0.64516  0.86029  Biso   1.000  H
  H552     1.0000 0.62709  0.64524  0.86029  Biso   1.000  H
  C536     1.0000 0.63666  0.78171  0.79611  Biso   1.000  C
  C537     1.0000 0.72483  0.92487  0.81993  Biso   1.000  C
  C538     1.0000 0.63666  0.78171  0.79608  Biso   1.000  C
  C539     1.0000 0.89915  0.58583  0.98662  Biso   1.000  C
  H553     1.0000 0.81139  0.49967  0.01591  Biso   1.000  H
  H554     1.0000 0.81139  0.49975  0.01591  Biso   1.000  H
  C540     1.0000 0.94807  0.48680  0.92959  Biso   1.000  C
  H555     1.0000 0.89765  0.33161  0.92221  Biso   1.000  H
  C541     1.0000 0.94807  0.48680  0.92956  Biso   1.000  C
  H556     1.0000 0.89765  0.33161  0.92218  Biso   1.000  H
  C542     1.0000 0.58656  0.42278  0.98427  Biso   1.000  C
  H557     1.0000 0.64313  0.57446  0.98551  Biso   1.000  H
  H558     1.0000 0.64313  0.57454  0.98551  Biso   1.000  H
  H559     1.0000 0.64319  0.57446  0.98551  Biso   1.000  H
  H560     1.0000 0.64319  0.57454  0.98551  Biso   1.000  H
  C543     1.0000 0.52264  0.38141  0.92150  Biso   1.000  C
  H561     1.0000 0.53256  0.50760  0.88199  Biso   1.000  H
  H562     1.0000 0.59944  0.72297  0.80120  Biso   1.000  H
  C544     1.0000 0.65443  0.80712  0.75724  Biso   1.000  C
  C545     1.0000 0.65449  0.80712  0.75724  Biso   1.000  C
  C546     1.0000 0.74503  0.95211  0.78088  Biso   1.000  C
  H563     1.0000 0.74837  0.96607  0.84109  Biso   1.000  H
  C547     1.0000 0.74509  0.95211  0.78088  Biso   1.000  C
  C548     1.0000 0.94884  0.57973  0.95408  Biso   1.000  C
  C549     1.0000 0.89772  0.68736  0.01244  Biso   1.000  C
  C550     1.0000 0.89772  0.68745  0.01244  Biso   1.000  C
  C551     1.0000 0.00107  0.47969  0.89425  Biso   1.000  C
  C552     1.0000 0.60712  0.39813  0.02378  Biso   1.000  C
  C553     1.0000 0.54158  0.35141  0.95955  Biso   1.000  C
  C554     1.0000 0.47693  0.30085  0.89498  Biso   1.000  C
  C555     1.0000 0.47693  0.30085  0.89495  Biso   1.000  C
  C556     1.0000 0.47693  0.30094  0.89498  Biso   1.000  C
  C557     1.0000 0.47693  0.30094  0.89495  Biso   1.000  C
  C558     1.0000 0.47699  0.30085  0.89498  Biso   1.000  C
  C559     1.0000 0.47699  0.30085  0.89495  Biso   1.000  C
  C560     1.0000 0.47699  0.30094  0.89498  Biso   1.000  C
  C561     1.0000 0.47699  0.30094  0.89495  Biso   1.000  C
  C562     1.0000 0.70944  0.89286  0.75054  Biso   1.000  C
  C563     1.0000 0.60603  0.75740  0.72361  Biso   1.000  C
  C564     1.0000 0.60603  0.75740  0.72358  Biso   1.000  C
  C565     1.0000 0.70944  0.89295  0.75054  Biso   1.000  C
  C566     1.0000 0.60609  0.75740  0.72361  Biso   1.000  C
  C567     1.0000 0.62697  0.72397  0.72520  Biso   1.000  C
  C568     1.0000 0.80155  0.04153  0.77412  Biso   1.000  C
  H564     1.0000 0.98404  0.64031  0.94849  Biso   1.000  H
  H565     1.0000 0.98410  0.64031  0.94849  Biso   1.000  H
  H566     1.0000 0.89418  0.66288  0.04019  Biso   1.000  H
  H567     1.0000 0.94971  0.72798  0.00961  Biso   1.000  H
  C569     1.0000 0.82928  0.76684  0.00376  Biso   1.000  C
  H568     1.0000 0.94971  0.72798  0.00958  Biso   1.000  H
  H569     1.0000 0.89424  0.66288  0.04019  Biso   1.000  H
  C570     1.0000 0.97476  0.42378  0.86047  Biso   1.000  C
  C571     1.0000 0.07796  0.52724  0.89484  Biso   1.000  C
  C572     1.0000 0.62979  0.38818  0.05783  Biso   1.000  C
  H570     1.0000 0.52384  0.28121  0.96931  Biso   1.000  H
  H571     1.0000 0.48417  0.22430  0.90551  Biso   1.000  H
  H572     1.0000 0.50147  0.30286  0.86861  Biso   1.000  H
  C573     1.0000 0.38825  0.32400  0.89060  Biso   1.000  C
  H573     1.0000 0.48417  0.22430  0.90548  Biso   1.000  H
  H574     1.0000 0.50147  0.30286  0.86858  Biso   1.000  H
  H575     1.0000 0.50147  0.30294  0.86861  Biso   1.000  H
  H576     1.0000 0.50147  0.30294  0.86858  Biso   1.000  H
  H577     1.0000 0.72287  0.91116  0.72429  Biso   1.000  H
  H578     1.0000 0.72287  0.91125  0.72429  Biso   1.000  H
  H579     1.0000 0.63623  0.77068  0.69921  Biso   1.000  H
  H580     1.0000 0.60362  0.67550  0.72761  Biso   1.000  H
  C574     1.0000 0.52377  0.79743  0.71741  Biso   1.000  C
  H581     1.0000 0.63622  0.77068  0.69918  Biso   1.000  H
  H582     1.0000 0.60362  0.67550  0.72758  Biso   1.000  H
  C575     1.0000 0.52371  0.79743  0.71738  Biso   1.000  C
  H583     1.0000 0.63629  0.77068  0.69921  Biso   1.000  H
  H584     1.0000 0.60368  0.67550  0.72761  Biso   1.000  H
  H585     1.0000 0.60368  0.67550  0.72758  Biso   1.000  H
  C576     1.0000 0.52377  0.79743  0.71738  Biso   1.000  C
  H586     1.0000 0.65497  0.74060  0.70039  Biso   1.000  H
  C577     1.0000 0.53635  0.73500  0.71920  Biso   1.000  C
  H587     1.0000 0.64087  0.64692  0.73328  Biso   1.000  H
  C578     1.0000 0.85007  0.11516  0.76921  Biso   1.000  C
  C579     1.0000 0.85007  0.11524  0.76921  Biso   1.000  C
  H588     1.0000 0.83393  0.79367  0.97639  Biso   1.000  H
  H589     1.0000 0.83393  0.79375  0.97639  Biso   1.000  H
  H590     1.0000 0.83399  0.79367  0.97639  Biso   1.000  H
  H591     1.0000 0.83399  0.79375  0.97639  Biso   1.000  H
  H592     1.0000 0.77732  0.72597  0.00570  Biso   1.000  H
  C580     1.0000 0.82762  0.86888  0.03160  Biso   1.000  C
  C581     1.0000 0.02433  0.41142  0.82783  Biso   1.000  C
  C582     1.0000 0.02433  0.41142  0.82780  Biso   1.000  C
  C583     1.0000 0.02439  0.41142  0.82783  Biso   1.000  C
  C584     1.0000 0.02439  0.41142  0.82780  Biso   1.000  C
  H593     1.0000 0.92154  0.39320  0.85959  Biso   1.000  H
  C585     1.0000 0.12857  0.51722  0.86256  Biso   1.000  C
  H594     1.0000 0.09639  0.56702  0.91750  Biso   1.000  H
  H595     1.0000 0.09633  0.56702  0.91750  Biso   1.000  H
  C586     1.0000 0.66869  0.38166  0.09570  Biso   1.000  C
  H596     1.0000 0.36464  0.27185  0.87091  Biso   1.000  H
  H597     1.0000 0.38077  0.40089  0.88040  Biso   1.000  H
  C587     1.0000 0.34375  0.31247  0.92753  Biso   1.000  C
  H598     1.0000 0.36464  0.27194  0.87091  Biso   1.000  H
  H599     1.0000 0.49223  0.78472  0.74149  Biso   1.000  H
  H600     1.0000 0.49755  0.75439  0.69580  Biso   1.000  H
  C588     1.0000 0.52224  0.92220  0.70709  Biso   1.000  C
  H601     1.0000 0.50845  0.70182  0.74190  Biso   1.000  H
  H602     1.0000 0.51945  0.69305  0.69530  Biso   1.000  H
  C589     1.0000 0.51105  0.85701  0.71479  Biso   1.000  C
  C590     1.0000 0.90944  0.20182  0.76395  Biso   1.000  C
  C591     1.0000 0.90944  0.20182  0.76392  Biso   1.000  C
  H603     1.0000 0.82667  0.84314  0.05889  Biso   1.000  H
  H604     1.0000 0.77878  0.91350  0.02590  Biso   1.000  H
  H605     1.0000 0.87599  0.91484  0.02761  Biso   1.000  H
  H606     1.0000 0.82673  0.84314  0.05889  Biso   1.000  H
  C592     1.0000 0.99496  0.34707  0.79320  Biso   1.000  C
  C593     1.0000 0.99496  0.34715  0.79320  Biso   1.000  C
  C594     1.0000 0.10108  0.45922  0.82951  Biso   1.000  C
  C595     1.0000 0.21239  0.56752  0.86497  Biso   1.000  C
  C596     1.0000 0.21233  0.56752  0.86497  Biso   1.000  C
  C597     1.0000 0.63558  0.33169  0.12848  Biso   1.000  C
  C598     1.0000 0.63558  0.33169  0.12845  Biso   1.000  C
  C599     1.0000 0.74601  0.43105  0.09964  Biso   1.000  C
  C600     1.0000 0.74601  0.43114  0.09964  Biso   1.000  C
  H607     1.0000 0.36356  0.36838  0.94649  Biso   1.000  H
  H608     1.0000 0.28564  0.32400  0.92241  Biso   1.000  H
  H609     1.0000 0.35258  0.23751  0.93829  Biso   1.000  H
  H610     1.0000 0.28564  0.32400  0.92238  Biso   1.000  H
  H611     1.0000 0.35252  0.23751  0.93829  Biso   1.000  H
  H612     1.0000 0.55962  0.96256  0.72470  Biso   1.000  H
  H613     1.0000 0.46717  0.95136  0.71021  Biso   1.000  H
  H614     1.0000 0.53892  0.93239  0.67981  Biso   1.000  H
  H615     1.0000 0.55962  0.96264  0.72470  Biso   1.000  H
  H616     1.0000 0.46717  0.95145  0.71021  Biso   1.000  H
  H617     1.0000 0.55968  0.96256  0.72470  Biso   1.000  H
  H618     1.0000 0.53898  0.93239  0.67981  Biso   1.000  H
  H619     1.0000 0.55968  0.96264  0.72470  Biso   1.000  H
  H620     1.0000 0.48305  0.86721  0.68948  Biso   1.000  H
  H621     1.0000 0.55984  0.90423  0.71579  Biso   1.000  H
  H622     1.0000 0.47528  0.87724  0.73619  Biso   1.000  H
  C601     1.0000 0.94157  0.22597  0.72758  Biso   1.000  C
  C602     1.0000 0.93742  0.26224  0.79714  Biso   1.000  C
  C603     1.0000 0.94157  0.22597  0.72755  Biso   1.000  C
  C604     1.0000 0.93748  0.26224  0.79714  Biso   1.000  C
  C605     1.0000 0.02405  0.37022  0.75510  Biso   1.000  C
  H623     1.0000 0.13556  0.45228  0.80761  Biso   1.000  H
  H624     1.0000 0.13556  0.45228  0.80758  Biso   1.000  H
  C606     1.0000 0.25405  0.56895  0.90036  Biso   1.000  C
  C607     1.0000 0.24813  0.61600  0.83286  Biso   1.000  C
  C608     1.0000 0.25405  0.56895  0.90033  Biso   1.000  C
  C609     1.0000 0.24820  0.61600  0.83286  Biso   1.000  C
  C610     1.0000 0.67751  0.33119  0.16449  Biso   1.000  C
  C611     1.0000 0.67751  0.33119  0.16446  Biso   1.000  C
  H625     1.0000 0.58372  0.29726  0.12639  Biso   1.000  H
  H626     1.0000 0.58372  0.29734  0.12639  Biso   1.000  H
  C612     1.0000 0.78767  0.43248  0.13503  Biso   1.000  C
  C613     1.0000 0.78773  0.43248  0.13503  Biso   1.000  C
  H627     1.0000 0.76991  0.46432  0.07729  Biso   1.000  H
  H628     1.0000 0.92346  0.18410  0.70541  Biso   1.000  H
  C614     1.0000 0.99827  0.30779  0.72244  Biso   1.000  C
  H629     1.0000 0.92346  0.18410  0.70538  Biso   1.000  H
  H630     1.0000 0.91703  0.24503  0.82240  Biso   1.000  H
  H631     1.0000 0.91709  0.24503  0.82240  Biso   1.000  H
  H632     1.0000 0.06188  0.42930  0.75169  Biso   1.000  H
  C615     1.0000 0.33137  0.61834  0.90430  Biso   1.000  C
  C616     1.0000 0.33137  0.61834  0.90427  Biso   1.000  C
  H633     1.0000 0.23015  0.53568  0.92271  Biso   1.000  H
  H634     1.0000 0.23015  0.53568  0.92268  Biso   1.000  H
  C617     1.0000 0.32255  0.66881  0.83551  Biso   1.000  C
  H635     1.0000 0.22064  0.61307  0.80811  Biso   1.000  H
  H636     1.0000 0.22064  0.61307  0.80808  Biso   1.000  H
  H637     1.0000 0.22064  0.61315  0.80811  Biso   1.000  H
  H638     1.0000 0.22064  0.61315  0.80808  Biso   1.000  H
  C618     1.0000 0.64419  0.27018  0.19971  Biso   1.000  C
  C619     1.0000 0.64419  0.27018  0.19968  Biso   1.000  C
  C620     1.0000 0.75193  0.38400  0.16714  Biso   1.000  C
  C621     1.0000 0.75193  0.38400  0.16711  Biso   1.000  C
  C622     1.0000 0.87149  0.48278  0.13744  Biso   1.000  C
  C623     1.0000 0.87149  0.48278  0.13742  Biso   1.000  C
  C624     1.0000 0.03207  0.33194  0.68189  Biso   1.000  C
  C625     1.0000 0.03207  0.33194  0.68186  Biso   1.000  C
  C626     1.0000 0.37027  0.61182  0.94217  Biso   1.000  C
  C627     1.0000 0.37027  0.61182  0.94214  Biso   1.000  C
  C628     1.0000 0.36448  0.66831  0.87152  Biso   1.000  C
  C629     1.0000 0.35587  0.72982  0.80029  Biso   1.000  C
  H639     1.0000 0.58799  0.24503  0.19389  Biso   1.000  H
  C630     1.0000 0.70188  0.16179  0.21009  Biso   1.000  C
  H640     1.0000 0.64289  0.32116  0.22259  Biso   1.000  H
  H641     1.0000 0.64289  0.32124  0.22259  Biso   1.000  H
  C631     1.0000 0.70194  0.16179  0.21009  Biso   1.000  C
  H642     1.0000 0.77942  0.38693  0.19189  Biso   1.000  H
  C632     1.0000 0.89898  0.54078  0.17049  Biso   1.000  C
  C633     1.0000 0.92210  0.47276  0.10516  Biso   1.000  C
  C634     1.0000 0.92210  0.47284  0.10516  Biso   1.000  C
  C635     1.0000 0.89904  0.54078  0.17049  Biso   1.000  C
  H643     1.0000 0.98644  0.33562  0.66261  Biso   1.000  H
  H644     1.0000 0.98644  0.33562  0.66258  Biso   1.000  H
  H645     1.0000 0.05905  0.40582  0.68230  Biso   1.000  H
  C636     1.0000 0.09212  0.24461  0.66860  Biso   1.000  C
  C637     1.0000 0.09218  0.24461  0.66860  Biso   1.000  C
  C638     1.0000 0.39294  0.60187  0.97622  Biso   1.000  C
  C639     1.0000 0.39300  0.60187  0.97622  Biso   1.000  C
  H646     1.0000 0.41635  0.70274  0.87361  Biso   1.000  H
  H647     1.0000 0.41634  0.70274  0.87358  Biso   1.000  H
  H648     1.0000 0.35717  0.67884  0.77741  Biso   1.000  H
  H649     1.0000 0.41207  0.75497  0.80611  Biso   1.000  H
  C640     1.0000 0.29818  0.83821  0.78991  Biso   1.000  C
  H650     1.0000 0.35717  0.67884  0.77738  Biso   1.000  H
  H651     1.0000 0.41207  0.75497  0.80608  Biso   1.000  H
  C641     1.0000 0.29818  0.83821  0.78988  Biso   1.000  C
  H652     1.0000 0.41207  0.75506  0.80611  Biso   1.000  H
  H653     1.0000 0.41207  0.75506  0.80608  Biso   1.000  H
  H654     1.0000 0.75840  0.18720  0.21500  Biso   1.000  H
  H655     1.0000 0.70190  0.11023  0.18739  Biso   1.000  H
  C642     1.0000 0.67162  0.10070  0.24599  Biso   1.000  C
  C643     1.0000 0.97573  0.58858  0.17217  Biso   1.000  C
  H656     1.0000 0.86450  0.54772  0.19239  Biso   1.000  H
  H657     1.0000 0.90367  0.43298  0.08250  Biso   1.000  H
  C644     1.0000 0.99899  0.52031  0.10575  Biso   1.000  C
  C645     1.0000 0.99899  0.52031  0.10572  Biso   1.000  C
  H658     1.0000 0.90373  0.43298  0.08250  Biso   1.000  H
  H659     1.0000 0.14013  0.24628  0.68651  Biso   1.000  H
  H660     1.0000 0.06683  0.16990  0.67090  Biso   1.000  H
  C646     1.0000 0.11965  0.26032  0.62750  Biso   1.000  C
  H661     1.0000 0.14013  0.24628  0.68648  Biso   1.000  H
  H662     1.0000 0.06689  0.16990  0.67090  Biso   1.000  H
  C647     1.0000 0.41351  0.57722  0.01573  Biso   1.000  C
  H663     1.0000 0.24166  0.81280  0.78500  Biso   1.000  H
  H664     1.0000 0.29816  0.88977  0.81261  Biso   1.000  H
  C648     1.0000 0.32845  0.89930  0.75401  Biso   1.000  C
  C649     1.0000 0.32844  0.89930  0.75398  Biso   1.000  C
  H665     1.0000 0.29816  0.88985  0.81261  Biso   1.000  H
  H666     1.0000 0.68821  0.14157  0.26980  Biso   1.000  H
  H667     1.0000 0.69490  0.02532  0.24681  Biso   1.000  H
  H668     1.0000 0.61218  0.09560  0.24458  Biso   1.000  H
  H669     1.0000 0.69490  0.02532  0.24678  Biso   1.000  H
  H670     1.0000 0.61218  0.09560  0.24461  Biso   1.000  H
  H671     1.0000 0.61225  0.09560  0.24461  Biso   1.000  H
  C650     1.0000 0.02530  0.57622  0.13953  Biso   1.000  C
  C651     1.0000 0.00510  0.65293  0.20680  Biso   1.000  C
  C652     1.0000 0.00510  0.65293  0.20677  Biso   1.000  C
  C653     1.0000 0.05199  0.51320  0.07041  Biso   1.000  C
  H672     1.0000 0.07237  0.26208  0.60960  Biso   1.000  H
  H673     1.0000 0.15527  0.19831  0.62030  Biso   1.000  H
  H674     1.0000 0.14945  0.33094  0.62550  Biso   1.000  H
  C654     1.0000 0.38891  0.47359  0.03069  Biso   1.000  C
  C655     1.0000 0.38891  0.47359  0.03066  Biso   1.000  C
  C656     1.0000 0.45849  0.64859  0.04045  Biso   1.000  C
  C657     1.0000 0.45855  0.64859  0.04045  Biso   1.000  C
  H675     1.0000 0.38788  0.90440  0.75539  Biso   1.000  H
  H676     1.0000 0.30516  0.97468  0.75319  Biso   1.000  H
  H677     1.0000 0.31185  0.85843  0.73020  Biso   1.000  H
  H678     1.0000 0.07852  0.60680  0.14041  Biso   1.000  H
  H679     1.0000 0.07852  0.60680  0.14038  Biso   1.000  H
  C658     1.0000 0.97601  0.62978  0.24490  Biso   1.000  C
  C659     1.0000 0.06264  0.73776  0.20286  Biso   1.000  C
  C660     1.0000 0.06258  0.73776  0.20286  Biso   1.000  C
  C661     1.0000 0.06264  0.73784  0.20286  Biso   1.000  C
  C662     1.0000 0.06258  0.73784  0.20286  Biso   1.000  C
  C663     1.0000 0.05122  0.42027  0.04592  Biso   1.000  C
  C664     1.0000 0.10249  0.60371  0.06162  Biso   1.000  C
  C665     1.0000 0.10249  0.60371  0.06159  Biso   1.000  C
  C666     1.0000 0.40989  0.43966  0.06818  Biso   1.000  C
  C667     1.0000 0.40989  0.43966  0.06815  Biso   1.000  C
  C668     1.0000 0.40989  0.43975  0.06818  Biso   1.000  C
  C669     1.0000 0.40989  0.43975  0.06815  Biso   1.000  C
  H680     1.0000 0.35693  0.42554  0.01449  Biso   1.000  H
  H681     1.0000 0.35687  0.42554  0.01449  Biso   1.000  H
  C670     1.0000 0.47742  0.61859  0.07850  Biso   1.000  C
  H682     1.0000 0.47622  0.71879  0.03069  Biso   1.000  H
  H683     1.0000 0.93818  0.57070  0.24831  Biso   1.000  H
  H684     1.0000 0.93818  0.57070  0.24828  Biso   1.000  H
  H685     1.0000 0.93825  0.57070  0.24831  Biso   1.000  H
  H686     1.0000 0.93824  0.57070  0.24828  Biso   1.000  H
  C671     1.0000 0.00179  0.69221  0.27756  Biso   1.000  C
  C672     1.0000 0.00179  0.69221  0.27754  Biso   1.000  C
  C673     1.0000 0.00185  0.69221  0.27756  Biso   1.000  C
  C674     1.0000 0.00185  0.69221  0.27754  Biso   1.000  C
  C675     1.0000 0.09062  0.79818  0.23605  Biso   1.000  C
  H687     1.0000 0.08303  0.75497  0.17760  Biso   1.000  H
  H688     1.0000 0.01602  0.35969  0.05151  Biso   1.000  H
  C676     1.0000 0.10091  0.41417  0.01338  Biso   1.000  C
  H689     1.0000 0.01602  0.35969  0.05148  Biso   1.000  H
  C677     1.0000 0.10091  0.41417  0.01335  Biso   1.000  C
  C678     1.0000 0.15250  0.59870  0.02946  Biso   1.000  C
  H690     1.0000 0.10241  0.66839  0.07779  Biso   1.000  H
  C679     1.0000 0.15250  0.59870  0.02943  Biso   1.000  C
  C680     1.0000 0.38790  0.32459  0.08129  Biso   1.000  C
  C681     1.0000 0.38790  0.32459  0.08126  Biso   1.000  C
  C682     1.0000 0.45350  0.51387  0.09190  Biso   1.000  C
  C683     1.0000 0.52313  0.69915  0.10502  Biso   1.000  C
  C684     1.0000 0.96799  0.66806  0.31811  Biso   1.000  C
  C685     1.0000 0.96799  0.66814  0.31811  Biso   1.000  C
  C686     1.0000 0.96805  0.66806  0.31811  Biso   1.000  C
  C687     1.0000 0.96805  0.66814  0.31811  Biso   1.000  C
  C688     1.0000 0.05849  0.77403  0.27242  Biso   1.000  C
  C689     1.0000 0.05855  0.77403  0.27242  Biso   1.000  C
  C690     1.0000 0.14999  0.88484  0.23079  Biso   1.000  C
  C691     1.0000 0.14999  0.88484  0.23076  Biso   1.000  C
  C692     1.0000 0.10234  0.31264  0.98756  Biso   1.000  C
  C693     1.0000 0.10240  0.31264  0.98756  Biso   1.000  C
  C694     1.0000 0.15291  0.50401  0.00567  Biso   1.000  C
  C695     1.0000 0.20459  0.69388  0.02090  Biso   1.000  C
  C696     1.0000 0.37031  0.29801  0.12022  Biso   1.000  C
  C697     1.0000 0.38220  0.23926  0.05298  Biso   1.000  C
  C698     1.0000 0.38220  0.23934  0.05298  Biso   1.000  C
  H691     1.0000 0.46750  0.49240  0.11801  Biso   1.000  H
  H692     1.0000 0.46750  0.49240  0.11798  Biso   1.000  H
  H693     1.0000 0.51589  0.77570  0.09449  Biso   1.000  H
  H694     1.0000 0.49859  0.69714  0.13139  Biso   1.000  H
  C699     1.0000 0.61182  0.67600  0.10940  Biso   1.000  C
  H695     1.0000 0.51595  0.77570  0.09449  Biso   1.000  H
  H696     1.0000 0.49865  0.69714  0.13139  Biso   1.000  H
  H697     1.0000 0.94101  0.59418  0.31770  Biso   1.000  H
  C700     1.0000 0.90794  0.75539  0.33140  Biso   1.000  C
  H698     1.0000 0.01362  0.66438  0.33739  Biso   1.000  H
  H699     1.0000 0.07660  0.81590  0.29459  Biso   1.000  H
  C701     1.0000 0.19851  0.95847  0.22588  Biso   1.000  C
  C702     1.0000 0.19851  0.95855  0.22588  Biso   1.000  C
  H700     1.0000 0.10588  0.33712  0.95981  Biso   1.000  H
  H701     1.0000 0.05035  0.27202  0.99039  Biso   1.000  H
  C703     1.0000 0.17078  0.23316  0.99624  Biso   1.000  C
  H702     1.0000 0.10588  0.33712  0.95978  Biso   1.000  H
  H703     1.0000 0.18867  0.50033  0.98409  Biso   1.000  H
  C704     1.0000 0.24662  0.77378  0.01461  Biso   1.000  C
  C705     1.0000 0.34933  0.19062  0.13098  Biso   1.000  C
  H704     1.0000 0.37303  0.35484  0.13971  Biso   1.000  H
  H705     1.0000 0.37303  0.35484  0.13968  Biso   1.000  H
  C706     1.0000 0.36130  0.13112  0.06277  Biso   1.000  C
  H706     1.0000 0.39300  0.25664  0.02631  Biso   1.000  H
  H707     1.0000 0.39300  0.25664  0.02628  Biso   1.000  H
  H708     1.0000 0.63542  0.72815  0.12909  Biso   1.000  H
  H709     1.0000 0.61929  0.59911  0.11960  Biso   1.000  H
  C707     1.0000 0.65631  0.68753  0.07247  Biso   1.000  C
  H710     1.0000 0.61935  0.59911  0.11960  Biso   1.000  H
  H711     1.0000 0.85993  0.75372  0.31349  Biso   1.000  H
  H712     1.0000 0.93323  0.83010  0.32910  Biso   1.000  H
  C708     1.0000 0.88041  0.73968  0.37250  Biso   1.000  C
  C709     1.0000 0.25503  0.04789  0.21912  Biso   1.000  C
  C710     1.0000 0.25503  0.04789  0.21909  Biso   1.000  C
  H713     1.0000 0.22274  0.27403  0.99430  Biso   1.000  H
  C711     1.0000 0.17244  0.13112  0.96840  Biso   1.000  C
  H714     1.0000 0.22280  0.27403  0.99430  Biso   1.000  H
  C712     1.0000 0.17250  0.13112  0.96840  Biso   1.000  C
  H715     1.0000 0.16613  0.20633  0.02361  Biso   1.000  H
  H716     1.0000 0.16613  0.20633  0.02358  Biso   1.000  H
  C713     1.0000 0.29733  0.86704  0.00835  Biso   1.000  C
  C714     1.0000 0.32868  0.16087  0.17243  Biso   1.000  C
  C715     1.0000 0.32874  0.16087  0.17243  Biso   1.000  C
  C716     1.0000 0.34538  0.10697  0.10240  Biso   1.000  C
  C717     1.0000 0.34538  0.10697  0.10237  Biso   1.000  C
  C718     1.0000 0.34544  0.10697  0.10240  Biso   1.000  C
  C719     1.0000 0.34544  0.10697  0.10237  Biso   1.000  C
  C720     1.0000 0.35503  0.04270  0.03228  Biso   1.000  C
  H717     1.0000 0.63650  0.63162  0.05351  Biso   1.000  H
  H718     1.0000 0.71442  0.67600  0.07759  Biso   1.000  H
  H719     1.0000 0.64748  0.76249  0.06171  Biso   1.000  H
  H720     1.0000 0.63649  0.63162  0.05348  Biso   1.000  H
  H721     1.0000 0.64748  0.76249  0.06168  Biso   1.000  H
  H722     1.0000 0.64754  0.76249  0.06171  Biso   1.000  H
  H723     1.0000 0.64754  0.76249  0.06168  Biso   1.000  H
  H724     1.0000 0.92769  0.73792  0.39040  Biso   1.000  H
  H725     1.0000 0.84479  0.80169  0.37970  Biso   1.000  H
  H726     1.0000 0.85061  0.66906  0.37450  Biso   1.000  H
  H727     1.0000 0.84485  0.80169  0.37970  Biso   1.000  H
  H728     1.0000 0.85061  0.66915  0.37450  Biso   1.000  H
  H729     1.0000 0.92775  0.73792  0.39040  Biso   1.000  H
  C721     1.0000 0.29062  0.10714  0.24946  Biso   1.000  C
  C722     1.0000 0.27523  0.07513  0.18007  Biso   1.000  C
  C723     1.0000 0.29062  0.10714  0.24943  Biso   1.000  C
  C724     1.0000 0.27523  0.07513  0.18005  Biso   1.000  C
  H730     1.0000 0.17339  0.15686  0.94111  Biso   1.000  H
  H731     1.0000 0.22128  0.08650  0.97410  Biso   1.000  H
  H732     1.0000 0.12407  0.08516  0.97239  Biso   1.000  H
  H733     1.0000 0.17339  0.15686  0.94108  Biso   1.000  H
  H734     1.0000 0.12407  0.08524  0.97239  Biso   1.000  H
  C725     1.0000 0.34077  0.87857  0.97401  Biso   1.000  C
  C726     1.0000 0.30410  0.95153  0.03748  Biso   1.000  C
  C727     1.0000 0.36340  0.21829  0.20389  Biso   1.000  C
  H735     1.0000 0.33199  0.03276  0.10981  Biso   1.000  H
  H736     1.0000 0.33199  0.03276  0.10978  Biso   1.000  H
  H737     1.0000 0.33199  0.03284  0.10981  Biso   1.000  H
  H738     1.0000 0.33199  0.03284  0.10978  Biso   1.000  H
  H739     1.0000 0.33205  0.03276  0.10981  Biso   1.000  H
  H740     1.0000 0.33205  0.03284  0.10981  Biso   1.000  H
  C728     1.0000 0.39936  0.04931  0.99732  Biso   1.000  C
  C729     1.0000 0.34563  0.19288  0.24276  Biso   1.000  C
  H741     1.0000 0.27719  0.08884  0.27571  Biso   1.000  H
  H742     1.0000 0.27719  0.08884  0.27568  Biso   1.000  H
  H743     1.0000 0.27725  0.08884  0.27571  Biso   1.000  H
  H744     1.0000 0.27725  0.08884  0.27568  Biso   1.000  H
  H745     1.0000 0.25169  0.03393  0.15891  Biso   1.000  H
  H746     1.0000 0.25175  0.03393  0.15891  Biso   1.000  H
  H747     1.0000 0.33476  0.82350  0.95411  Biso   1.000  H
  C730     1.0000 0.39264  0.96833  0.96784  Biso   1.000  C
  H748     1.0000 0.33476  0.82350  0.95408  Biso   1.000  H
  C731     1.0000 0.39270  0.96833  0.96784  Biso   1.000  C
  H749     1.0000 0.27343  0.94568  0.06080  Biso   1.000  H
  H750     1.0000 0.27337  0.94568  0.06080  Biso   1.000  H
  H751     1.0000 0.40062  0.27703  0.19880  Biso   1.000  H
  H752     1.0000 0.43487  0.11081  0.99371  Biso   1.000  H
  H753     1.0000 0.43486  0.11081  0.99368  Biso   1.000  H
  C732     1.0000 0.39403  0.24260  0.27639  Biso   1.000  C
  C733     1.0000 0.37309  0.27603  0.27480  Biso   1.000  C
  C734     1.0000 0.44134  0.97560  0.93144  Biso   1.000  C
  C735     1.0000 0.44140  0.97560  0.93144  Biso   1.000  C
  H754     1.0000 0.36384  0.22932  0.30079  Biso   1.000  H
  H755     1.0000 0.39644  0.32450  0.27239  Biso   1.000  H
  C736     1.0000 0.47629  0.20257  0.28259  Biso   1.000  C
  C737     1.0000 0.47635  0.20257  0.28259  Biso   1.000  C
  H756     1.0000 0.34509  0.25940  0.29961  Biso   1.000  H
  C738     1.0000 0.46371  0.26500  0.28080  Biso   1.000  C
  H757     1.0000 0.35919  0.35308  0.26669  Biso   1.000  H
  H758     1.0000 0.47355  0.90623  0.92900  Biso   1.000  H
  C739     1.0000 0.39267  0.99231  0.89366  Biso   1.000  C
  H759     1.0000 0.48006  0.03836  0.93441  Biso   1.000  H
  H760     1.0000 0.48006  0.03836  0.93438  Biso   1.000  H
  H761     1.0000 0.48006  0.03844  0.93441  Biso   1.000  H
  H762     1.0000 0.48006  0.03844  0.93438  Biso   1.000  H
  H763     1.0000 0.50783  0.21528  0.25851  Biso   1.000  H
  H764     1.0000 0.50251  0.24561  0.30420  Biso   1.000  H
  C740     1.0000 0.47782  0.07780  0.29291  Biso   1.000  C
  H765     1.0000 0.50783  0.21528  0.25848  Biso   1.000  H
  C741     1.0000 0.47782  0.07780  0.29288  Biso   1.000  C
  H766     1.0000 0.49161  0.29818  0.25810  Biso   1.000  H
  H767     1.0000 0.48061  0.30704  0.30470  Biso   1.000  H
  C742     1.0000 0.48901  0.14299  0.28521  Biso   1.000  C
  H768     1.0000 0.35429  0.92930  0.89019  Biso   1.000  H
  C743     1.0000 0.44619  0.99983  0.85770  Biso   1.000  C
  H769     1.0000 0.35423  0.92930  0.89019  Biso   1.000  H
  C744     1.0000 0.44618  0.99983  0.85768  Biso   1.000  C
  H770     1.0000 0.36044  0.06184  0.89569  Biso   1.000  H
  H771     1.0000 0.36050  0.06184  0.89569  Biso   1.000  H
  H772     1.0000 0.44044  0.03744  0.27530  Biso   1.000  H
  H773     1.0000 0.53289  0.04864  0.28979  Biso   1.000  H
  H774     1.0000 0.46114  0.06761  0.32019  Biso   1.000  H
  H775     1.0000 0.44038  0.03744  0.27530  Biso   1.000  H
  H776     1.0000 0.53296  0.04864  0.28979  Biso   1.000  H
  H777     1.0000 0.51701  0.13279  0.31049  Biso   1.000  H
  H778     1.0000 0.44022  0.09577  0.28421  Biso   1.000  H
  H779     1.0000 0.52484  0.12276  0.26381  Biso   1.000  H
  H780     1.0000 0.48038  0.93298  0.85629  Biso   1.000  H
  H781     1.0000 0.41186  0.00476  0.83389  Biso   1.000  H
  H782     1.0000 0.48068  0.06644  0.85970  Biso   1.000  H
  H783     1.0000 0.41186  0.00485  0.83389  Biso   1.000  H
  C745     1.0000 0.60739  0.00769  0.10631  Biso   1.000  C
  C746     1.0000 0.55872  0.02440  0.06856  Biso   1.000  C
  C747     1.0000 0.55872  0.02440  0.06853  Biso   1.000  C
  H784     1.0000 0.63962  0.93816  0.10431  Biso   1.000  H
  H785     1.0000 0.63962  0.93816  0.10428  Biso   1.000  H
  H786     1.0000 0.63962  0.93824  0.10431  Biso   1.000  H
  H787     1.0000 0.63962  0.93824  0.10428  Biso   1.000  H
  H788     1.0000 0.64577  0.07070  0.10981  Biso   1.000  H
  C748     1.0000 0.55388  0.00017  0.14230  Biso   1.000  C
  H789     1.0000 0.64577  0.07070  0.10978  Biso   1.000  H
  H790     1.0000 0.64583  0.07070  0.10981  Biso   1.000  H
  C749     1.0000 0.55394  0.00017  0.14230  Biso   1.000  C
  H791     1.0000 0.64583  0.07070  0.10978  Biso   1.000  H
  C750     1.0000 0.60742  0.03167  0.03216  Biso   1.000  C
  C751     1.0000 0.60736  0.03167  0.03216  Biso   1.000  C
  H792     1.0000 0.52000  0.96164  0.06559  Biso   1.000  H
  H793     1.0000 0.52651  0.09377  0.07100  Biso   1.000  H
  C752     1.0000 0.60739  0.00769  0.10634  Biso   1.000  C
  H794     1.0000 0.52651  0.09385  0.07100  Biso   1.000  H
  H795     1.0000 0.58820  0.99524  0.16611  Biso   1.000  H
  H796     1.0000 0.58820  0.99524  0.16608  Biso   1.000  H
  H797     1.0000 0.51938  0.93356  0.14030  Biso   1.000  H
  H798     1.0000 0.51938  0.93365  0.14030  Biso   1.000  H
  H799     1.0000 0.51944  0.93356  0.14030  Biso   1.000  H
  H800     1.0000 0.51944  0.93365  0.14030  Biso   1.000  H
  H801     1.0000 0.51968  0.06702  0.14371  Biso   1.000  H
  H802     1.0000 0.51968  0.06702  0.14368  Biso   1.000  H
  C753     1.0000 0.60070  0.95069  0.00268  Biso   1.000  C
  C754     1.0000 0.65929  0.12143  0.02599  Biso   1.000  C
  C755     1.0000 0.65929  0.12143  0.02596  Biso   1.000  C
  C756     1.0000 0.64503  0.95730  0.96772  Biso   1.000  C
  C757     1.0000 0.64509  0.95730  0.96772  Biso   1.000  C
  H803     1.0000 0.56520  0.88919  0.00629  Biso   1.000  H
  C758     1.0000 0.70273  0.13296  0.99165  Biso   1.000  C
  C759     1.0000 0.70273  0.13304  0.99165  Biso   1.000  C
  C760     1.0000 0.70279  0.13296  0.99165  Biso   1.000  C
  C761     1.0000 0.70279  0.13304  0.99165  Biso   1.000  C
  H804     1.0000 0.66530  0.17650  0.04589  Biso   1.000  H
  C762     1.0000 0.63876  0.86888  0.93723  Biso   1.000  C
  C763     1.0000 0.69596  0.04847  0.96252  Biso   1.000  C
  C764     1.0000 0.75344  0.22622  0.98539  Biso   1.000  C
  C765     1.0000 0.75344  0.22622  0.98536  Biso   1.000  C
  C766     1.0000 0.61786  0.76074  0.94702  Biso   1.000  C
  C767     1.0000 0.61786  0.76074  0.94699  Biso   1.000  C
  C768     1.0000 0.65468  0.89303  0.89760  Biso   1.000  C
  C769     1.0000 0.65462  0.89303  0.89760  Biso   1.000  C
  H805     1.0000 0.72663  0.05432  0.93920  Biso   1.000  H
  H806     1.0000 0.72669  0.05432  0.93920  Biso   1.000  H
  C770     1.0000 0.79547  0.30612  0.97910  Biso   1.000  C
  C771     1.0000 0.79547  0.30612  0.97907  Biso   1.000  C
  C772     1.0000 0.61216  0.67541  0.91871  Biso   1.000  C
  H807     1.0000 0.60706  0.74336  0.97369  Biso   1.000  H
  H808     1.0000 0.60706  0.74344  0.97369  Biso   1.000  H
  C773     1.0000 0.65073  0.80938  0.86902  Biso   1.000  C
  C774     1.0000 0.65079  0.80938  0.86902  Biso   1.000  C
  H809     1.0000 0.66807  0.96724  0.89019  Biso   1.000  H
  C775     1.0000 0.84756  0.40130  0.97054  Biso   1.000  C
  C776     1.0000 0.59017  0.56034  0.93182  Biso   1.000  C
  C777     1.0000 0.62975  0.70199  0.87978  Biso   1.000  C
  C778     1.0000 0.67138  0.83913  0.82757  Biso   1.000  C
  C779     1.0000 0.67132  0.83913  0.82757  Biso   1.000  C
  C780     1.0000 0.84715  0.49599  0.99433  Biso   1.000  C
  C781     1.0000 0.89757  0.39629  0.93838  Biso   1.000  C
  C782     1.0000 0.61115  0.52641  0.96931  Biso   1.000  C
  C783     1.0000 0.54656  0.48613  0.90810  Biso   1.000  C
  H810     1.0000 0.62703  0.64516  0.86029  Biso   1.000  H
  H811     1.0000 0.62703  0.64524  0.86029  Biso   1.000  H
  H812     1.0000 0.62709  0.64516  0.86029  Biso   1.000  H
  H813     1.0000 0.62709  0.64524  0.86029  Biso   1.000  H
  C784     1.0000 0.63666  0.78171  0.79611  Biso   1.000  C
  C785     1.0000 0.72483  0.92487  0.81993  Biso   1.000  C
  C786     1.0000 0.63666  0.78171  0.79608  Biso   1.000  C
  C787     1.0000 0.89915  0.58583  0.98662  Biso   1.000  C
  H814     1.0000 0.81139  0.49967  0.01591  Biso   1.000  H
  H815     1.0000 0.81139  0.49975  0.01591  Biso   1.000  H
  C788     1.0000 0.94807  0.48680  0.92959  Biso   1.000  C
  H816     1.0000 0.89765  0.33161  0.92221  Biso   1.000  H
  C789     1.0000 0.94807  0.48680  0.92956  Biso   1.000  C
  H817     1.0000 0.89765  0.33161  0.92218  Biso   1.000  H
  C790     1.0000 0.58656  0.42278  0.98427  Biso   1.000  C
  H818     1.0000 0.64313  0.57446  0.98551  Biso   1.000  H
  H819     1.0000 0.64313  0.57454  0.98551  Biso   1.000  H
  H820     1.0000 0.64319  0.57446  0.98551  Biso   1.000  H
  H821     1.0000 0.64319  0.57454  0.98551  Biso   1.000  H
  C791     1.0000 0.52264  0.38141  0.92150  Biso   1.000  C
  H822     1.0000 0.53256  0.50760  0.88199  Biso   1.000  H
  H823     1.0000 0.59944  0.72297  0.80120  Biso   1.000  H
  C792     1.0000 0.65443  0.80712  0.75724  Biso   1.000  C
  C793     1.0000 0.65449  0.80712  0.75724  Biso   1.000  C
  C794     1.0000 0.74503  0.95211  0.78088  Biso   1.000  C
  H824     1.0000 0.74837  0.96607  0.84109  Biso   1.000  H
  C795     1.0000 0.74509  0.95211  0.78088  Biso   1.000  C
  C796     1.0000 0.94884  0.57973  0.95408  Biso   1.000  C
  C797     1.0000 0.89772  0.68736  0.01244  Biso   1.000  C
  C798     1.0000 0.89772  0.68745  0.01244  Biso   1.000  C
  C799     1.0000 0.00107  0.47969  0.89425  Biso   1.000  C
  C800     1.0000 0.60712  0.39813  0.02378  Biso   1.000  C
  C801     1.0000 0.54158  0.35141  0.95955  Biso   1.000  C
  C802     1.0000 0.47693  0.30085  0.89498  Biso   1.000  C
  C803     1.0000 0.47693  0.30085  0.89495  Biso   1.000  C
  C804     1.0000 0.47693  0.30094  0.89498  Biso   1.000  C
  C805     1.0000 0.47693  0.30094  0.89495  Biso   1.000  C
  C806     1.0000 0.47699  0.30085  0.89498  Biso   1.000  C
  C807     1.0000 0.47699  0.30085  0.89495  Biso   1.000  C
  C808     1.0000 0.47699  0.30094  0.89498  Biso   1.000  C
  C809     1.0000 0.47699  0.30094  0.89495  Biso   1.000  C
  C810     1.0000 0.70944  0.89286  0.75054  Biso   1.000  C
  C811     1.0000 0.60603  0.75740  0.72361  Biso   1.000  C
  C812     1.0000 0.60603  0.75740  0.72358  Biso   1.000  C
  C813     1.0000 0.70944  0.89295  0.75054  Biso   1.000  C
  C814     1.0000 0.60609  0.75740  0.72361  Biso   1.000  C
  C815     1.0000 0.62697  0.72397  0.72520  Biso   1.000  C
  C816     1.0000 0.80155  0.04153  0.77412  Biso   1.000  C
  H825     1.0000 0.98404  0.64031  0.94849  Biso   1.000  H
  H826     1.0000 0.98410  0.64031  0.94849  Biso   1.000  H
  H827     1.0000 0.89418  0.66288  0.04019  Biso   1.000  H
  H828     1.0000 0.94971  0.72798  0.00961  Biso   1.000  H
  C817     1.0000 0.82928  0.76684  0.00376  Biso   1.000  C
  H829     1.0000 0.94971  0.72798  0.00958  Biso   1.000  H
  H830     1.0000 0.89424  0.66288  0.04019  Biso   1.000  H
  C818     1.0000 0.97476  0.42378  0.86047  Biso   1.000  C
  C819     1.0000 0.07796  0.52724  0.89484  Biso   1.000  C
  C820     1.0000 0.62979  0.38818  0.05783  Biso   1.000  C
  H831     1.0000 0.52384  0.28121  0.96931  Biso   1.000  H
  H832     1.0000 0.48417  0.22430  0.90551  Biso   1.000  H
  H833     1.0000 0.50147  0.30286  0.86861  Biso   1.000  H
  C821     1.0000 0.38825  0.32400  0.89060  Biso   1.000  C
  H834     1.0000 0.48417  0.22430  0.90548  Biso   1.000  H
  H835     1.0000 0.50147  0.30286  0.86858  Biso   1.000  H
  H836     1.0000 0.50147  0.30294  0.86861  Biso   1.000  H
  H837     1.0000 0.50147  0.30294  0.86858  Biso   1.000  H
  H838     1.0000 0.72287  0.91116  0.72429  Biso   1.000  H
  H839     1.0000 0.72287  0.91125  0.72429  Biso   1.000  H
  H840     1.0000 0.63623  0.77068  0.69921  Biso   1.000  H
  H841     1.0000 0.60362  0.67550  0.72761  Biso   1.000  H
  C822     1.0000 0.52377  0.79743  0.71741  Biso   1.000  C
  H842     1.0000 0.63622  0.77068  0.69918  Biso   1.000  H
  H843     1.0000 0.60362  0.67550  0.72758  Biso   1.000  H
  C823     1.0000 0.52371  0.79743  0.71738  Biso   1.000  C
  H844     1.0000 0.63629  0.77068  0.69921  Biso   1.000  H
  H845     1.0000 0.60368  0.67550  0.72761  Biso   1.000  H
  H846     1.0000 0.60368  0.67550  0.72758  Biso   1.000  H
  C824     1.0000 0.52377  0.79743  0.71738  Biso   1.000  C
  H847     1.0000 0.65497  0.74060  0.70039  Biso   1.000  H
  C825     1.0000 0.53635  0.73500  0.71920  Biso   1.000  C
  H848     1.0000 0.64087  0.64692  0.73328  Biso   1.000  H
  C826     1.0000 0.85007  0.11516  0.76921  Biso   1.000  C
  C827     1.0000 0.85007  0.11524  0.76921  Biso   1.000  C
  H849     1.0000 0.83393  0.79367  0.97639  Biso   1.000  H
  H850     1.0000 0.83393  0.79375  0.97639  Biso   1.000  H
  H851     1.0000 0.83399  0.79367  0.97639  Biso   1.000  H
  H852     1.0000 0.83399  0.79375  0.97639  Biso   1.000  H
  H853     1.0000 0.77732  0.72597  0.00570  Biso   1.000  H
  C828     1.0000 0.82762  0.86888  0.03160  Biso   1.000  C
  C829     1.0000 0.02433  0.41142  0.82783  Biso   1.000  C
  C830     1.0000 0.02433  0.41142  0.82780  Biso   1.000  C
  C831     1.0000 0.02439  0.41142  0.82783  Biso   1.000  C
  C832     1.0000 0.02439  0.41142  0.82780  Biso   1.000  C
  H854     1.0000 0.92154  0.39320  0.85959  Biso   1.000  H
  C833     1.0000 0.12857  0.51722  0.86256  Biso   1.000  C
  H855     1.0000 0.09639  0.56702  0.91750  Biso   1.000  H
  H856     1.0000 0.09633  0.56702  0.91750  Biso   1.000  H
  C834     1.0000 0.66869  0.38166  0.09570  Biso   1.000  C
  H857     1.0000 0.36464  0.27185  0.87091  Biso   1.000  H
  H858     1.0000 0.38077  0.40089  0.88040  Biso   1.000  H
  C835     1.0000 0.34375  0.31247  0.92753  Biso   1.000  C
  H859     1.0000 0.36464  0.27194  0.87091  Biso   1.000  H
  H860     1.0000 0.49223  0.78472  0.74149  Biso   1.000  H
  H861     1.0000 0.49755  0.75439  0.69580  Biso   1.000  H
  C836     1.0000 0.52224  0.92220  0.70709  Biso   1.000  C
  H862     1.0000 0.50845  0.70182  0.74190  Biso   1.000  H
  H863     1.0000 0.51945  0.69305  0.69530  Biso   1.000  H
  C837     1.0000 0.51105  0.85701  0.71479  Biso   1.000  C
  C838     1.0000 0.90944  0.20182  0.76395  Biso   1.000  C
  C839     1.0000 0.90944  0.20182  0.76392  Biso   1.000  C
  H864     1.0000 0.82667  0.84314  0.05889  Biso   1.000  H
  H865     1.0000 0.77878  0.91350  0.02590  Biso   1.000  H
  H866     1.0000 0.87599  0.91484  0.02761  Biso   1.000  H
  H867     1.0000 0.82673  0.84314  0.05889  Biso   1.000  H
  C840     1.0000 0.99496  0.34707  0.79320  Biso   1.000  C
  C841     1.0000 0.99496  0.34715  0.79320  Biso   1.000  C
  C842     1.0000 0.10108  0.45922  0.82951  Biso   1.000  C
  C843     1.0000 0.21239  0.56752  0.86497  Biso   1.000  C
  C844     1.0000 0.21233  0.56752  0.86497  Biso   1.000  C
  C845     1.0000 0.63558  0.33169  0.12848  Biso   1.000  C
  C846     1.0000 0.63558  0.33169  0.12845  Biso   1.000  C
  C847     1.0000 0.74601  0.43105  0.09964  Biso   1.000  C
  C848     1.0000 0.74601  0.43114  0.09964  Biso   1.000  C
  H868     1.0000 0.36356  0.36838  0.94649  Biso   1.000  H
  H869     1.0000 0.28564  0.32400  0.92241  Biso   1.000  H
  H870     1.0000 0.35258  0.23751  0.93829  Biso   1.000  H
  H871     1.0000 0.28564  0.32400  0.92238  Biso   1.000  H
  H872     1.0000 0.35252  0.23751  0.93829  Biso   1.000  H
  H873     1.0000 0.55962  0.96256  0.72470  Biso   1.000  H
  H874     1.0000 0.46717  0.95136  0.71021  Biso   1.000  H
  H875     1.0000 0.53892  0.93239  0.67981  Biso   1.000  H
  H876     1.0000 0.55962  0.96264  0.72470  Biso   1.000  H
  H877     1.0000 0.46717  0.95145  0.71021  Biso   1.000  H
  H878     1.0000 0.55968  0.96256  0.72470  Biso   1.000  H
  H879     1.0000 0.53898  0.93239  0.67981  Biso   1.000  H
  H880     1.0000 0.55968  0.96264  0.72470  Biso   1.000  H
  H881     1.0000 0.48305  0.86721  0.68948  Biso   1.000  H
  H882     1.0000 0.55984  0.90423  0.71579  Biso   1.000  H
  H883     1.0000 0.47528  0.87724  0.73619  Biso   1.000  H
  C849     1.0000 0.94157  0.22597  0.72758  Biso   1.000  C
  C850     1.0000 0.93742  0.26224  0.79714  Biso   1.000  C
  C851     1.0000 0.94157  0.22597  0.72755  Biso   1.000  C
  C852     1.0000 0.93748  0.26224  0.79714  Biso   1.000  C
  C853     1.0000 0.02405  0.37022  0.75510  Biso   1.000  C
  H884     1.0000 0.13556  0.45228  0.80761  Biso   1.000  H
  H885     1.0000 0.13556  0.45228  0.80758  Biso   1.000  H
  C854     1.0000 0.25405  0.56895  0.90036  Biso   1.000  C
  C855     1.0000 0.24813  0.61600  0.83286  Biso   1.000  C
  C856     1.0000 0.25405  0.56895  0.90033  Biso   1.000  C
  C857     1.0000 0.24820  0.61600  0.83286  Biso   1.000  C
  C858     1.0000 0.67751  0.33119  0.16449  Biso   1.000  C
  C859     1.0000 0.67751  0.33119  0.16446  Biso   1.000  C
  H886     1.0000 0.58372  0.29726  0.12639  Biso   1.000  H
  H887     1.0000 0.58372  0.29734  0.12639  Biso   1.000  H
  C860     1.0000 0.78767  0.43248  0.13503  Biso   1.000  C
  C861     1.0000 0.78773  0.43248  0.13503  Biso   1.000  C
  H888     1.0000 0.76991  0.46432  0.07729  Biso   1.000  H
  H889     1.0000 0.92346  0.18410  0.70541  Biso   1.000  H
  C862     1.0000 0.99827  0.30779  0.72244  Biso   1.000  C
  H890     1.0000 0.92346  0.18410  0.70538  Biso   1.000  H
  H891     1.0000 0.91703  0.24503  0.82240  Biso   1.000  H
  H892     1.0000 0.91709  0.24503  0.82240  Biso   1.000  H
  H893     1.0000 0.06188  0.42930  0.75169  Biso   1.000  H
  C863     1.0000 0.33137  0.61834  0.90430  Biso   1.000  C
  C864     1.0000 0.33137  0.61834  0.90427  Biso   1.000  C
  H894     1.0000 0.23015  0.53568  0.92271  Biso   1.000  H
  H895     1.0000 0.23015  0.53568  0.92268  Biso   1.000  H
  C865     1.0000 0.32255  0.66881  0.83551  Biso   1.000  C
  H896     1.0000 0.22064  0.61307  0.80811  Biso   1.000  H
  H897     1.0000 0.22064  0.61307  0.80808  Biso   1.000  H
  H898     1.0000 0.22064  0.61315  0.80811  Biso   1.000  H
  H899     1.0000 0.22064  0.61315  0.80808  Biso   1.000  H
  C866     1.0000 0.64419  0.27018  0.19971  Biso   1.000  C
  C867     1.0000 0.64419  0.27018  0.19968  Biso   1.000  C
  C868     1.0000 0.75193  0.38400  0.16714  Biso   1.000  C
  C869     1.0000 0.75193  0.38400  0.16711  Biso   1.000  C
  C870     1.0000 0.87149  0.48278  0.13744  Biso   1.000  C
  C871     1.0000 0.87149  0.48278  0.13742  Biso   1.000  C
  C872     1.0000 0.03207  0.33194  0.68189  Biso   1.000  C
  C873     1.0000 0.03207  0.33194  0.68186  Biso   1.000  C
  C874     1.0000 0.37027  0.61182  0.94217  Biso   1.000  C
  C875     1.0000 0.37027  0.61182  0.94214  Biso   1.000  C
  C876     1.0000 0.36448  0.66831  0.87152  Biso   1.000  C
  C877     1.0000 0.35587  0.72982  0.80029  Biso   1.000  C
  H900     1.0000 0.58799  0.24503  0.19389  Biso   1.000  H
  C878     1.0000 0.70188  0.16179  0.21009  Biso   1.000  C
  H901     1.0000 0.64289  0.32116  0.22259  Biso   1.000  H
  H902     1.0000 0.64289  0.32124  0.22259  Biso   1.000  H
  C879     1.0000 0.70194  0.16179  0.21009  Biso   1.000  C
  H903     1.0000 0.77942  0.38693  0.19189  Biso   1.000  H
  C880     1.0000 0.89898  0.54078  0.17049  Biso   1.000  C
  C881     1.0000 0.92210  0.47276  0.10516  Biso   1.000  C
  C882     1.0000 0.92210  0.47284  0.10516  Biso   1.000  C
  C883     1.0000 0.89904  0.54078  0.17049  Biso   1.000  C
  H904     1.0000 0.98644  0.33562  0.66261  Biso   1.000  H
  H905     1.0000 0.98644  0.33562  0.66258  Biso   1.000  H
  H906     1.0000 0.05905  0.40582  0.68230  Biso   1.000  H
  C884     1.0000 0.09212  0.24461  0.66860  Biso   1.000  C
  C885     1.0000 0.09218  0.24461  0.66860  Biso   1.000  C
  C886     1.0000 0.39294  0.60187  0.97622  Biso   1.000  C
  C887     1.0000 0.39300  0.60187  0.97622  Biso   1.000  C
  H907     1.0000 0.41635  0.70274  0.87361  Biso   1.000  H
  H908     1.0000 0.41634  0.70274  0.87358  Biso   1.000  H
  H909     1.0000 0.35717  0.67884  0.77741  Biso   1.000  H
  H910     1.0000 0.41207  0.75497  0.80611  Biso   1.000  H
  C888     1.0000 0.29818  0.83821  0.78991  Biso   1.000  C
  H911     1.0000 0.35717  0.67884  0.77738  Biso   1.000  H
  H912     1.0000 0.41207  0.75497  0.80608  Biso   1.000  H
  C889     1.0000 0.29818  0.83821  0.78988  Biso   1.000  C
  H913     1.0000 0.41207  0.75506  0.80611  Biso   1.000  H
  H914     1.0000 0.41207  0.75506  0.80608  Biso   1.000  H
  H915     1.0000 0.75840  0.18720  0.21500  Biso   1.000  H
  H916     1.0000 0.70190  0.11023  0.18739  Biso   1.000  H
  C890     1.0000 0.67162  0.10070  0.24599  Biso   1.000  C
  C891     1.0000 0.97573  0.58858  0.17217  Biso   1.000  C
  H917     1.0000 0.86450  0.54772  0.19239  Biso   1.000  H
  H918     1.0000 0.90367  0.43298  0.08250  Biso   1.000  H
  C892     1.0000 0.99899  0.52031  0.10575  Biso   1.000  C
  H919     1.0000 0.90373  0.43298  0.08250  Biso   1.000  H
  C893     1.0000 0.99899  0.52031  0.10572  Biso   1.000  C
  H920     1.0000 0.14013  0.24628  0.68651  Biso   1.000  H
  H921     1.0000 0.06683  0.16990  0.67090  Biso   1.000  H
  C894     1.0000 0.11965  0.26032  0.62750  Biso   1.000  C
  H922     1.0000 0.14013  0.24628  0.68648  Biso   1.000  H
  H923     1.0000 0.06689  0.16990  0.67090  Biso   1.000  H
  C895     1.0000 0.41351  0.57722  0.01573  Biso   1.000  C
  H924     1.0000 0.24166  0.81280  0.78500  Biso   1.000  H
  H925     1.0000 0.29816  0.88977  0.81261  Biso   1.000  H
  C896     1.0000 0.32845  0.89930  0.75401  Biso   1.000  C
  C897     1.0000 0.32844  0.89930  0.75398  Biso   1.000  C
  H926     1.0000 0.29816  0.88985  0.81261  Biso   1.000  H
  H927     1.0000 0.68821  0.14157  0.26980  Biso   1.000  H
  H928     1.0000 0.69490  0.02532  0.24681  Biso   1.000  H
  H929     1.0000 0.61218  0.09560  0.24458  Biso   1.000  H
  H930     1.0000 0.69490  0.02532  0.24678  Biso   1.000  H
  H931     1.0000 0.61218  0.09560  0.24461  Biso   1.000  H
  H932     1.0000 0.61225  0.09560  0.24461  Biso   1.000  H
  C898     1.0000 0.02530  0.57622  0.13953  Biso   1.000  C
  C899     1.0000 0.00510  0.65293  0.20680  Biso   1.000  C
  C900     1.0000 0.00510  0.65293  0.20677  Biso   1.000  C
  C901     1.0000 0.05199  0.51320  0.07041  Biso   1.000  C
  H933     1.0000 0.07237  0.26208  0.60960  Biso   1.000  H
  H934     1.0000 0.15527  0.19831  0.62030  Biso   1.000  H
  H935     1.0000 0.14945  0.33094  0.62550  Biso   1.000  H
  C902     1.0000 0.38891  0.47359  0.03069  Biso   1.000  C
  C903     1.0000 0.38891  0.47359  0.03066  Biso   1.000  C
  C904     1.0000 0.45849  0.64859  0.04045  Biso   1.000  C
  C905     1.0000 0.45855  0.64859  0.04045  Biso   1.000  C
  H936     1.0000 0.38788  0.90440  0.75539  Biso   1.000  H
  H937     1.0000 0.30516  0.97468  0.75319  Biso   1.000  H
  H938     1.0000 0.31185  0.85843  0.73020  Biso   1.000  H
  H939     1.0000 0.07852  0.60680  0.14041  Biso   1.000  H
  H940     1.0000 0.07852  0.60680  0.14038  Biso   1.000  H
  C906     1.0000 0.97601  0.62978  0.24490  Biso   1.000  C
  C907     1.0000 0.06264  0.73776  0.20286  Biso   1.000  C
  C908     1.0000 0.06258  0.73776  0.20286  Biso   1.000  C
  C909     1.0000 0.06264  0.73784  0.20286  Biso   1.000  C
  C910     1.0000 0.06258  0.73784  0.20286  Biso   1.000  C
  C911     1.0000 0.05122  0.42027  0.04592  Biso   1.000  C
  C912     1.0000 0.10249  0.60371  0.06162  Biso   1.000  C
  C913     1.0000 0.10249  0.60371  0.06159  Biso   1.000  C
  C914     1.0000 0.40989  0.43966  0.06818  Biso   1.000  C
  C915     1.0000 0.40989  0.43966  0.06815  Biso   1.000  C
  C916     1.0000 0.40989  0.43975  0.06818  Biso   1.000  C
  C917     1.0000 0.40989  0.43975  0.06815  Biso   1.000  C
  H941     1.0000 0.35693  0.42554  0.01449  Biso   1.000  H
  H942     1.0000 0.35687  0.42554  0.01449  Biso   1.000  H
  C918     1.0000 0.47742  0.61859  0.07850  Biso   1.000  C
  H943     1.0000 0.47622  0.71879  0.03069  Biso   1.000  H
  H944     1.0000 0.93818  0.57070  0.24831  Biso   1.000  H
  H945     1.0000 0.93818  0.57070  0.24828  Biso   1.000  H
  H946     1.0000 0.93825  0.57070  0.24831  Biso   1.000  H
  H947     1.0000 0.93824  0.57070  0.24828  Biso   1.000  H
  C919     1.0000 0.00179  0.69221  0.27756  Biso   1.000  C
  C920     1.0000 0.00179  0.69221  0.27754  Biso   1.000  C
  C921     1.0000 0.00185  0.69221  0.27756  Biso   1.000  C
  C922     1.0000 0.00185  0.69221  0.27754  Biso   1.000  C
  C923     1.0000 0.09062  0.79818  0.23605  Biso   1.000  C
  H948     1.0000 0.08303  0.75497  0.17760  Biso   1.000  H
  H949     1.0000 0.01602  0.35969  0.05151  Biso   1.000  H
  C924     1.0000 0.10091  0.41417  0.01338  Biso   1.000  C
  H950     1.0000 0.01602  0.35969  0.05148  Biso   1.000  H
  C925     1.0000 0.10091  0.41417  0.01335  Biso   1.000  C
  C926     1.0000 0.15250  0.59870  0.02946  Biso   1.000  C
  H951     1.0000 0.10241  0.66839  0.07779  Biso   1.000  H
  C927     1.0000 0.15250  0.59870  0.02943  Biso   1.000  C
  C928     1.0000 0.38790  0.32459  0.08129  Biso   1.000  C
  C929     1.0000 0.38790  0.32459  0.08126  Biso   1.000  C
  C930     1.0000 0.45350  0.51387  0.09190  Biso   1.000  C
  C931     1.0000 0.52313  0.69915  0.10502  Biso   1.000  C
  C932     1.0000 0.96799  0.66806  0.31811  Biso   1.000  C
  C933     1.0000 0.96799  0.66814  0.31811  Biso   1.000  C
  C934     1.0000 0.96805  0.66806  0.31811  Biso   1.000  C
  C935     1.0000 0.96805  0.66814  0.31811  Biso   1.000  C
  C936     1.0000 0.05849  0.77403  0.27242  Biso   1.000  C
  C937     1.0000 0.05855  0.77403  0.27242  Biso   1.000  C
  C938     1.0000 0.14999  0.88484  0.23079  Biso   1.000  C
  C939     1.0000 0.14999  0.88484  0.23076  Biso   1.000  C
  C940     1.0000 0.10234  0.31264  0.98756  Biso   1.000  C
  C941     1.0000 0.10240  0.31264  0.98756  Biso   1.000  C
  C942     1.0000 0.15291  0.50401  0.00567  Biso   1.000  C
  C943     1.0000 0.20459  0.69388  0.02090  Biso   1.000  C
  C944     1.0000 0.37031  0.29801  0.12022  Biso   1.000  C
  C945     1.0000 0.38220  0.23926  0.05298  Biso   1.000  C
  C946     1.0000 0.38220  0.23934  0.05298  Biso   1.000  C
  H952     1.0000 0.46750  0.49240  0.11801  Biso   1.000  H
  H953     1.0000 0.46750  0.49240  0.11798  Biso   1.000  H
  H954     1.0000 0.51589  0.77570  0.09449  Biso   1.000  H
  H955     1.0000 0.49859  0.69714  0.13139  Biso   1.000  H
  C947     1.0000 0.61182  0.67600  0.10940  Biso   1.000  C
  H956     1.0000 0.51595  0.77570  0.09449  Biso   1.000  H
  H957     1.0000 0.49865  0.69714  0.13139  Biso   1.000  H
  H958     1.0000 0.94101  0.59418  0.31770  Biso   1.000  H
  C948     1.0000 0.90794  0.75539  0.33140  Biso   1.000  C
  H959     1.0000 0.01362  0.66438  0.33739  Biso   1.000  H
  H960     1.0000 0.07660  0.81590  0.29459  Biso   1.000  H
  C949     1.0000 0.19851  0.95847  0.22588  Biso   1.000  C
  C950     1.0000 0.19851  0.95855  0.22588  Biso   1.000  C
  H961     1.0000 0.10588  0.33712  0.95981  Biso   1.000  H
  H962     1.0000 0.05035  0.27202  0.99039  Biso   1.000  H
  C951     1.0000 0.17078  0.23316  0.99624  Biso   1.000  C
  H963     1.0000 0.10588  0.33712  0.95978  Biso   1.000  H
  H964     1.0000 0.18867  0.50033  0.98409  Biso   1.000  H
  C952     1.0000 0.24662  0.77378  0.01461  Biso   1.000  C
  C953     1.0000 0.34933  0.19062  0.13098  Biso   1.000  C
  H965     1.0000 0.37303  0.35484  0.13971  Biso   1.000  H
  H966     1.0000 0.37303  0.35484  0.13968  Biso   1.000  H
  C954     1.0000 0.36130  0.13112  0.06277  Biso   1.000  C
  H967     1.0000 0.39300  0.25664  0.02631  Biso   1.000  H
  H968     1.0000 0.39300  0.25664  0.02628  Biso   1.000  H
  H969     1.0000 0.63542  0.72815  0.12909  Biso   1.000  H
  H970     1.0000 0.61929  0.59911  0.11960  Biso   1.000  H
  C955     1.0000 0.65631  0.68753  0.07247  Biso   1.000  C
  H971     1.0000 0.61935  0.59911  0.11960  Biso   1.000  H
  H972     1.0000 0.85993  0.75372  0.31349  Biso   1.000  H
  H973     1.0000 0.93323  0.83010  0.32910  Biso   1.000  H
  C956     1.0000 0.88041  0.73968  0.37250  Biso   1.000  C
  C957     1.0000 0.25503  0.04789  0.21912  Biso   1.000  C
  C958     1.0000 0.25503  0.04789  0.21909  Biso   1.000  C
  H974     1.0000 0.22274  0.27403  0.99430  Biso   1.000  H
  C959     1.0000 0.17244  0.13112  0.96840  Biso   1.000  C
  H975     1.0000 0.22280  0.27403  0.99430  Biso   1.000  H
  C960     1.0000 0.17250  0.13112  0.96840  Biso   1.000  C
  H976     1.0000 0.16613  0.20633  0.02361  Biso   1.000  H
  H977     1.0000 0.16613  0.20633  0.02358  Biso   1.000  H
  C961     1.0000 0.29733  0.86704  0.00835  Biso   1.000  C
  C962     1.0000 0.32868  0.16087  0.17243  Biso   1.000  C
  C963     1.0000 0.32874  0.16087  0.17243  Biso   1.000  C
  C964     1.0000 0.34538  0.10697  0.10240  Biso   1.000  C
  C965     1.0000 0.34538  0.10697  0.10237  Biso   1.000  C
  C966     1.0000 0.34544  0.10697  0.10240  Biso   1.000  C
  C967     1.0000 0.34544  0.10697  0.10237  Biso   1.000  C
  C968     1.0000 0.35503  0.04270  0.03228  Biso   1.000  C
  H978     1.0000 0.63650  0.63162  0.05351  Biso   1.000  H
  H979     1.0000 0.71442  0.67600  0.07759  Biso   1.000  H
  H980     1.0000 0.64748  0.76249  0.06171  Biso   1.000  H
  H981     1.0000 0.63649  0.63162  0.05348  Biso   1.000  H
  H982     1.0000 0.64748  0.76249  0.06168  Biso   1.000  H
  H983     1.0000 0.64754  0.76249  0.06171  Biso   1.000  H
  H984     1.0000 0.64754  0.76249  0.06168  Biso   1.000  H
  H985     1.0000 0.92769  0.73792  0.39040  Biso   1.000  H
  H986     1.0000 0.84479  0.80169  0.37970  Biso   1.000  H
  H987     1.0000 0.85061  0.66906  0.37450  Biso   1.000  H
  H988     1.0000 0.84485  0.80169  0.37970  Biso   1.000  H
  H989     1.0000 0.85061  0.66915  0.37450  Biso   1.000  H
  H990     1.0000 0.92775  0.73792  0.39040  Biso   1.000  H
  C969     1.0000 0.29062  0.10714  0.24946  Biso   1.000  C
  C970     1.0000 0.27523  0.07513  0.18007  Biso   1.000  C
  C971     1.0000 0.29062  0.10714  0.24943  Biso   1.000  C
  C972     1.0000 0.27523  0.07513  0.18005  Biso   1.000  C
  H991     1.0000 0.17339  0.15686  0.94111  Biso   1.000  H
  H992     1.0000 0.22128  0.08650  0.97410  Biso   1.000  H
  H993     1.0000 0.12407  0.08516  0.97239  Biso   1.000  H
  H994     1.0000 0.17339  0.15686  0.94108  Biso   1.000  H
  H995     1.0000 0.12407  0.08524  0.97239  Biso   1.000  H
  C973     1.0000 0.34077  0.87857  0.97401  Biso   1.000  C
  C974     1.0000 0.30410  0.95153  0.03748  Biso   1.000  C
  C975     1.0000 0.36340  0.21829  0.20389  Biso   1.000  C
  H996     1.0000 0.33199  0.03276  0.10981  Biso   1.000  H
  H997     1.0000 0.33199  0.03276  0.10978  Biso   1.000  H
  H998     1.0000 0.33199  0.03284  0.10981  Biso   1.000  H
  H999     1.0000 0.33199  0.03284  0.10978  Biso   1.000  H
  H1000    1.0000 0.33205  0.03276  0.10981  Biso   1.000  H
  H1001    1.0000 0.33205  0.03284  0.10981  Biso   1.000  H
  C976     1.0000 0.39936  0.04931  0.99732  Biso   1.000  C
  C977     1.0000 0.34563  0.19288  0.24276  Biso   1.000  C
  H1002    1.0000 0.27719  0.08884  0.27571  Biso   1.000  H
  H1003    1.0000 0.27719  0.08884  0.27568  Biso   1.000  H
  H1004    1.0000 0.27725  0.08884  0.27571  Biso   1.000  H
  H1005    1.0000 0.27725  0.08884  0.27568  Biso   1.000  H
  H1006    1.0000 0.25169  0.03393  0.15891  Biso   1.000  H
  H1007    1.0000 0.25175  0.03393  0.15891  Biso   1.000  H
  H1008    1.0000 0.33476  0.82350  0.95411  Biso   1.000  H
  C978     1.0000 0.39264  0.96833  0.96784  Biso   1.000  C
  H1009    1.0000 0.33476  0.82350  0.95408  Biso   1.000  H
  C979     1.0000 0.39270  0.96833  0.96784  Biso   1.000  C
  H1010    1.0000 0.27343  0.94568  0.06080  Biso   1.000  H
  H1011    1.0000 0.27337  0.94568  0.06080  Biso   1.000  H
  H1012    1.0000 0.40062  0.27703  0.19880  Biso   1.000  H
  H1013    1.0000 0.43487  0.11081  0.99371  Biso   1.000  H
  H1014    1.0000 0.43486  0.11081  0.99368  Biso   1.000  H
  C980     1.0000 0.39403  0.24260  0.27639  Biso   1.000  C
  C981     1.0000 0.37309  0.27603  0.27480  Biso   1.000  C
  C982     1.0000 0.44134  0.97560  0.93144  Biso   1.000  C
  C983     1.0000 0.44140  0.97560  0.93144  Biso   1.000  C
  H1015    1.0000 0.36384  0.22932  0.30079  Biso   1.000  H
  H1016    1.0000 0.39644  0.32450  0.27239  Biso   1.000  H
  C984     1.0000 0.47629  0.20257  0.28259  Biso   1.000  C
  C985     1.0000 0.47635  0.20257  0.28259  Biso   1.000  C
  H1017    1.0000 0.34509  0.25940  0.29961  Biso   1.000  H
  C986     1.0000 0.46371  0.26500  0.28080  Biso   1.000  C
  H1018    1.0000 0.35919  0.35308  0.26669  Biso   1.000  H
  H1019    1.0000 0.47355  0.90623  0.92900  Biso   1.000  H
  C987     1.0000 0.39267  0.99231  0.89366  Biso   1.000  C
  H1020    1.0000 0.48006  0.03836  0.93441  Biso   1.000  H
  H1021    1.0000 0.48006  0.03836  0.93438  Biso   1.000  H
  H1022    1.0000 0.48006  0.03844  0.93441  Biso   1.000  H
  H1023    1.0000 0.48006  0.03844  0.93438  Biso   1.000  H
  H1024    1.0000 0.50783  0.21528  0.25851  Biso   1.000  H
  H1025    1.0000 0.50251  0.24561  0.30420  Biso   1.000  H
  C988     1.0000 0.47782  0.07780  0.29291  Biso   1.000  C
  H1026    1.0000 0.50783  0.21528  0.25848  Biso   1.000  H
  C989     1.0000 0.47782  0.07780  0.29288  Biso   1.000  C
  H1027    1.0000 0.49161  0.29818  0.25810  Biso   1.000  H
  H1028    1.0000 0.48061  0.30704  0.30470  Biso   1.000  H
  C990     1.0000 0.48901  0.14299  0.28521  Biso   1.000  C
  H1029    1.0000 0.35429  0.92930  0.89019  Biso   1.000  H
  C991     1.0000 0.44619  0.99983  0.85770  Biso   1.000  C
  H1030    1.0000 0.35423  0.92930  0.89019  Biso   1.000  H
  C992     1.0000 0.44618  0.99983  0.85768  Biso   1.000  C
  H1031    1.0000 0.36044  0.06184  0.89569  Biso   1.000  H
  H1032    1.0000 0.36050  0.06184  0.89569  Biso   1.000  H
  H1033    1.0000 0.44044  0.03744  0.27530  Biso   1.000  H
  H1034    1.0000 0.53289  0.04864  0.28979  Biso   1.000  H
  H1035    1.0000 0.46114  0.06761  0.32019  Biso   1.000  H
  H1036    1.0000 0.44038  0.03744  0.27530  Biso   1.000  H
  H1037    1.0000 0.53296  0.04864  0.28979  Biso   1.000  H
  H1038    1.0000 0.51701  0.13279  0.31049  Biso   1.000  H
  H1039    1.0000 0.44022  0.09577  0.28421  Biso   1.000  H
  H1040    1.0000 0.52484  0.12276  0.26381  Biso   1.000  H
  H1041    1.0000 0.48038  0.93298  0.85629  Biso   1.000  H
  H1042    1.0000 0.41186  0.00476  0.83389  Biso   1.000  H
  H1043    1.0000 0.48068  0.06644  0.85970  Biso   1.000  H
  H1044    1.0000 0.41186  0.00485  0.83389  Biso   1.000  H
  C993     1.0000 0.60739  0.00769  0.10631  Biso   1.000  C
  C994     1.0000 0.55872  0.02440  0.06856  Biso   1.000  C
  C995     1.0000 0.55872  0.02440  0.06853  Biso   1.000  C
  H1045    1.0000 0.63962  0.93816  0.10431  Biso   1.000  H
  H1046    1.0000 0.63962  0.93816  0.10428  Biso   1.000  H
  H1047    1.0000 0.63962  0.93824  0.10431  Biso   1.000  H
  H1048    1.0000 0.63962  0.93824  0.10428  Biso   1.000  H
  H1049    1.0000 0.64577  0.07070  0.10981  Biso   1.000  H
  C996     1.0000 0.55388  0.00017  0.14230  Biso   1.000  C
  H1050    1.0000 0.64577  0.07070  0.10978  Biso   1.000  H
  H1051    1.0000 0.64583  0.07070  0.10981  Biso   1.000  H
  C997     1.0000 0.55394  0.00017  0.14230  Biso   1.000  C
  H1052    1.0000 0.64583  0.07070  0.10978  Biso   1.000  H
  C998     1.0000 0.60742  0.03167  0.03216  Biso   1.000  C
  C999     1.0000 0.60736  0.03167  0.03216  Biso   1.000  C
  H1053    1.0000 0.52000  0.96164  0.06559  Biso   1.000  H
  H1054    1.0000 0.52651  0.09377  0.07100  Biso   1.000  H
  C1000    1.0000 0.60739  0.00769  0.10634  Biso   1.000  C
  H1055    1.0000 0.52651  0.09385  0.07100  Biso   1.000  H
  H1056    1.0000 0.58820  0.99524  0.16611  Biso   1.000  H
  H1057    1.0000 0.51938  0.93356  0.14030  Biso   1.000  H
  H1058    1.0000 0.58820  0.99524  0.16608  Biso   1.000  H
  H1059    1.0000 0.51938  0.93365  0.14030  Biso   1.000  H
  H1060    1.0000 0.51944  0.93356  0.14030  Biso   1.000  H
  H1061    1.0000 0.51944  0.93365  0.14030  Biso   1.000  H
  H1062    1.0000 0.51968  0.06702  0.14371  Biso   1.000  H
  H1063    1.0000 0.51968  0.06702  0.14368  Biso   1.000  H
  C1001    1.0000 0.60070  0.95069  0.00268  Biso   1.000  C
  C1002    1.0000 0.65929  0.12143  0.02599  Biso   1.000  C
  C1003    1.0000 0.65929  0.12143  0.02596  Biso   1.000  C
  C1004    1.0000 0.64503  0.95730  0.96772  Biso   1.000  C
  C1005    1.0000 0.64509  0.95730  0.96772  Biso   1.000  C
  H1064    1.0000 0.56520  0.88919  0.00629  Biso   1.000  H
  C1006    1.0000 0.70273  0.13296  0.99165  Biso   1.000  C
  C1007    1.0000 0.70273  0.13304  0.99165  Biso   1.000  C
  C1008    1.0000 0.70279  0.13296  0.99165  Biso   1.000  C
  C1009    1.0000 0.70279  0.13304  0.99165  Biso   1.000  C
  H1065    1.0000 0.66530  0.17650  0.04589  Biso   1.000  H
  C1010    1.0000 0.63876  0.86888  0.93723  Biso   1.000  C
  C1011    1.0000 0.69596  0.04847  0.96252  Biso   1.000  C
  C1012    1.0000 0.75344  0.22622  0.98539  Biso   1.000  C
  C1013    1.0000 0.75344  0.22622  0.98536  Biso   1.000  C
  C1014    1.0000 0.61786  0.76074  0.94702  Biso   1.000  C
  C1015    1.0000 0.61786  0.76074  0.94699  Biso   1.000  C
  C1016    1.0000 0.65468  0.89303  0.89760  Biso   1.000  C
  C1017    1.0000 0.65462  0.89303  0.89760  Biso   1.000  C
  H1066    1.0000 0.72663  0.05432  0.93920  Biso   1.000  H
  H1067    1.0000 0.72669  0.05432  0.93920  Biso   1.000  H
  C1018    1.0000 0.79547  0.30612  0.97910  Biso   1.000  C
  C1019    1.0000 0.79547  0.30612  0.97907  Biso   1.000  C
  C1020    1.0000 0.61216  0.67541  0.91871  Biso   1.000  C
  H1068    1.0000 0.60706  0.74336  0.97369  Biso   1.000  H
  H1069    1.0000 0.60706  0.74344  0.97369  Biso   1.000  H
  C1021    1.0000 0.65073  0.80938  0.86902  Biso   1.000  C
  C1022    1.0000 0.65079  0.80938  0.86902  Biso   1.000  C
  H1070    1.0000 0.66807  0.96724  0.89019  Biso   1.000  H
  C1023    1.0000 0.84756  0.40130  0.97054  Biso   1.000  C
  C1024    1.0000 0.59017  0.56034  0.93182  Biso   1.000  C
  C1025    1.0000 0.62975  0.70199  0.87978  Biso   1.000  C
  C1026    1.0000 0.67138  0.83913  0.82757  Biso   1.000  C
  C1027    1.0000 0.67132  0.83913  0.82757  Biso   1.000  C
  C1028    1.0000 0.84715  0.49599  0.99433  Biso   1.000  C
  C1029    1.0000 0.89757  0.39629  0.93838  Biso   1.000  C
  C1030    1.0000 0.61115  0.52641  0.96931  Biso   1.000  C
  C1031    1.0000 0.54656  0.48613  0.90810  Biso   1.000  C
  H1071    1.0000 0.62703  0.64516  0.86029  Biso   1.000  H
  H1072    1.0000 0.62703  0.64524  0.86029  Biso   1.000  H
  H1073    1.0000 0.62709  0.64516  0.86029  Biso   1.000  H
  H1074    1.0000 0.62709  0.64524  0.86029  Biso   1.000  H
  C1032    1.0000 0.63666  0.78171  0.79611  Biso   1.000  C
  C1033    1.0000 0.72483  0.92487  0.81993  Biso   1.000  C
  C1034    1.0000 0.63666  0.78171  0.79608  Biso   1.000  C
  C1035    1.0000 0.89915  0.58583  0.98662  Biso   1.000  C
  H1075    1.0000 0.81139  0.49967  0.01591  Biso   1.000  H
  H1076    1.0000 0.81139  0.49975  0.01591  Biso   1.000  H
  C1036    1.0000 0.94807  0.48680  0.92959  Biso   1.000  C
  H1077    1.0000 0.89765  0.33161  0.92221  Biso   1.000  H
  C1037    1.0000 0.94807  0.48680  0.92956  Biso   1.000  C
  H1078    1.0000 0.89765  0.33161  0.92218  Biso   1.000  H
  C1038    1.0000 0.58656  0.42278  0.98427  Biso   1.000  C
  H1079    1.0000 0.64313  0.57446  0.98551  Biso   1.000  H
  H1080    1.0000 0.64313  0.57454  0.98551  Biso   1.000  H
  H1081    1.0000 0.64319  0.57446  0.98551  Biso   1.000  H
  H1082    1.0000 0.64319  0.57454  0.98551  Biso   1.000  H
  C1039    1.0000 0.52264  0.38141  0.92150  Biso   1.000  C
  H1083    1.0000 0.53256  0.50760  0.88199  Biso   1.000  H
  H1084    1.0000 0.59944  0.72297  0.80120  Biso   1.000  H
  C1040    1.0000 0.65443  0.80712  0.75724  Biso   1.000  C
  C1041    1.0000 0.65449  0.80712  0.75724  Biso   1.000  C
  C1042    1.0000 0.74503  0.95211  0.78088  Biso   1.000  C
  H1085    1.0000 0.74837  0.96607  0.84109  Biso   1.000  H
  C1043    1.0000 0.74509  0.95211  0.78088  Biso   1.000  C
  C1044    1.0000 0.94884  0.57973  0.95408  Biso   1.000  C
  C1045    1.0000 0.89772  0.68736  0.01244  Biso   1.000  C
  C1046    1.0000 0.89772  0.68745  0.01244  Biso   1.000  C
  C1047    1.0000 0.00107  0.47969  0.89425  Biso   1.000  C
  C1048    1.0000 0.60712  0.39813  0.02378  Biso   1.000  C
  C1049    1.0000 0.54158  0.35141  0.95955  Biso   1.000  C
  C1050    1.0000 0.47693  0.30085  0.89498  Biso   1.000  C
  C1051    1.0000 0.47693  0.30085  0.89495  Biso   1.000  C
  C1052    1.0000 0.47693  0.30094  0.89498  Biso   1.000  C
  C1053    1.0000 0.47693  0.30094  0.89495  Biso   1.000  C
  C1054    1.0000 0.47699  0.30085  0.89498  Biso   1.000  C
  C1055    1.0000 0.47699  0.30085  0.89495  Biso   1.000  C
  C1056    1.0000 0.47699  0.30094  0.89498  Biso   1.000  C
  C1057    1.0000 0.47699  0.30094  0.89495  Biso   1.000  C
  C1058    1.0000 0.70944  0.89286  0.75054  Biso   1.000  C
  C1059    1.0000 0.60603  0.75740  0.72361  Biso   1.000  C
  C1060    1.0000 0.60603  0.75740  0.72358  Biso   1.000  C
  C1061    1.0000 0.70944  0.89295  0.75054  Biso   1.000  C
  C1062    1.0000 0.60609  0.75740  0.72361  Biso   1.000  C
  C1063    1.0000 0.62697  0.72397  0.72520  Biso   1.000  C
  C1064    1.0000 0.80155  0.04153  0.77412  Biso   1.000  C
  H1086    1.0000 0.98404  0.64031  0.94849  Biso   1.000  H
  H1087    1.0000 0.98410  0.64031  0.94849  Biso   1.000  H
  H1088    1.0000 0.89418  0.66288  0.04019  Biso   1.000  H
  H1089    1.0000 0.94971  0.72798  0.00961  Biso   1.000  H
  C1065    1.0000 0.82928  0.76684  0.00376  Biso   1.000  C
  H1090    1.0000 0.94971  0.72798  0.00958  Biso   1.000  H
  H1091    1.0000 0.89424  0.66288  0.04019  Biso   1.000  H
  C1066    1.0000 0.97476  0.42378  0.86047  Biso   1.000  C
  C1067    1.0000 0.07796  0.52724  0.89484  Biso   1.000  C
  C1068    1.0000 0.62979  0.38818  0.05783  Biso   1.000  C
  H1092    1.0000 0.52384  0.28121  0.96931  Biso   1.000  H
  H1093    1.0000 0.48417  0.22430  0.90551  Biso   1.000  H
  H1094    1.0000 0.50147  0.30286  0.86861  Biso   1.000  H
  C1069    1.0000 0.38825  0.32400  0.89060  Biso   1.000  C
  H1095    1.0000 0.48417  0.22430  0.90548  Biso   1.000  H
  H1096    1.0000 0.50147  0.30286  0.86858  Biso   1.000  H
  H1097    1.0000 0.50147  0.30294  0.86861  Biso   1.000  H
  H1098    1.0000 0.50147  0.30294  0.86858  Biso   1.000  H
  H1099    1.0000 0.72287  0.91116  0.72429  Biso   1.000  H
  H1100    1.0000 0.72287  0.91125  0.72429  Biso   1.000  H
  H1101    1.0000 0.63623  0.77068  0.69921  Biso   1.000  H
  H1102    1.0000 0.60362  0.67550  0.72761  Biso   1.000  H
  C1070    1.0000 0.52377  0.79743  0.71741  Biso   1.000  C
  H1103    1.0000 0.63622  0.77068  0.69918  Biso   1.000  H
  H1104    1.0000 0.60362  0.67550  0.72758  Biso   1.000  H
  C1071    1.0000 0.52371  0.79743  0.71738  Biso   1.000  C
  H1105    1.0000 0.63629  0.77068  0.69921  Biso   1.000  H
  H1106    1.0000 0.60368  0.67550  0.72761  Biso   1.000  H
  H1107    1.0000 0.60368  0.67550  0.72758  Biso   1.000  H
  C1072    1.0000 0.52377  0.79743  0.71738  Biso   1.000  C
  H1108    1.0000 0.65497  0.74060  0.70039  Biso   1.000  H
  C1073    1.0000 0.53635  0.73500  0.71920  Biso   1.000  C
  H1109    1.0000 0.64087  0.64692  0.73328  Biso   1.000  H
  C1074    1.0000 0.85007  0.11516  0.76921  Biso   1.000  C
  C1075    1.0000 0.85007  0.11524  0.76921  Biso   1.000  C
  H1110    1.0000 0.83393  0.79367  0.97639  Biso   1.000  H
  H1111    1.0000 0.83393  0.79375  0.97639  Biso   1.000  H
  H1112    1.0000 0.83399  0.79367  0.97639  Biso   1.000  H
  H1113    1.0000 0.83399  0.79375  0.97639  Biso   1.000  H
  H1114    1.0000 0.77732  0.72597  0.00570  Biso   1.000  H
  C1076    1.0000 0.82762  0.86888  0.03160  Biso   1.000  C
  C1077    1.0000 0.02433  0.41142  0.82783  Biso   1.000  C
  C1078    1.0000 0.02433  0.41142  0.82780  Biso   1.000  C
  C1079    1.0000 0.02439  0.41142  0.82783  Biso   1.000  C
  C1080    1.0000 0.02439  0.41142  0.82780  Biso   1.000  C
  H1115    1.0000 0.92154  0.39320  0.85959  Biso   1.000  H
  C1081    1.0000 0.12857  0.51722  0.86256  Biso   1.000  C
  H1116    1.0000 0.09639  0.56702  0.91750  Biso   1.000  H
  H1117    1.0000 0.09633  0.56702  0.91750  Biso   1.000  H
  C1082    1.0000 0.66869  0.38166  0.09570  Biso   1.000  C
  H1118    1.0000 0.36464  0.27185  0.87091  Biso   1.000  H
  H1119    1.0000 0.38077  0.40089  0.88040  Biso   1.000  H
  C1083    1.0000 0.34375  0.31247  0.92753  Biso   1.000  C
  H1120    1.0000 0.36464  0.27194  0.87091  Biso   1.000  H
  H1121    1.0000 0.49223  0.78472  0.74149  Biso   1.000  H
  H1122    1.0000 0.49755  0.75439  0.69580  Biso   1.000  H
  C1084    1.0000 0.52224  0.92220  0.70709  Biso   1.000  C
  H1123    1.0000 0.50845  0.70182  0.74190  Biso   1.000  H
  H1124    1.0000 0.51945  0.69305  0.69530  Biso   1.000  H
  C1085    1.0000 0.51105  0.85701  0.71479  Biso   1.000  C
  C1086    1.0000 0.90944  0.20182  0.76395  Biso   1.000  C
  C1087    1.0000 0.90944  0.20182  0.76392  Biso   1.000  C
  H1125    1.0000 0.82667  0.84314  0.05889  Biso   1.000  H
  H1126    1.0000 0.77878  0.91350  0.02590  Biso   1.000  H
  H1127    1.0000 0.87599  0.91484  0.02761  Biso   1.000  H
  H1128    1.0000 0.82673  0.84314  0.05889  Biso   1.000  H
  C1088    1.0000 0.99496  0.34707  0.79320  Biso   1.000  C
  C1089    1.0000 0.99496  0.34715  0.79320  Biso   1.000  C
  C1090    1.0000 0.10108  0.45922  0.82951  Biso   1.000  C
  C1091    1.0000 0.21239  0.56752  0.86497  Biso   1.000  C
  C1092    1.0000 0.21233  0.56752  0.86497  Biso   1.000  C
  C1093    1.0000 0.63558  0.33169  0.12848  Biso   1.000  C
  C1094    1.0000 0.63558  0.33169  0.12845  Biso   1.000  C
  C1095    1.0000 0.74601  0.43105  0.09964  Biso   1.000  C
  C1096    1.0000 0.74601  0.43114  0.09964  Biso   1.000  C
  H1129    1.0000 0.36356  0.36838  0.94649  Biso   1.000  H
  H1130    1.0000 0.28564  0.32400  0.92241  Biso   1.000  H
  H1131    1.0000 0.35258  0.23751  0.93829  Biso   1.000  H
  H1132    1.0000 0.28564  0.32400  0.92238  Biso   1.000  H
  H1133    1.0000 0.35252  0.23751  0.93829  Biso   1.000  H
  H1134    1.0000 0.55962  0.96256  0.72470  Biso   1.000  H
  H1135    1.0000 0.46717  0.95136  0.71021  Biso   1.000  H
  H1136    1.0000 0.53892  0.93239  0.67981  Biso   1.000  H
  H1137    1.0000 0.55962  0.96264  0.72470  Biso   1.000  H
  H1138    1.0000 0.46717  0.95145  0.71021  Biso   1.000  H
  H1139    1.0000 0.55968  0.96256  0.72470  Biso   1.000  H
  H1140    1.0000 0.53898  0.93239  0.67981  Biso   1.000  H
  H1141    1.0000 0.55968  0.96264  0.72470  Biso   1.000  H
  H1142    1.0000 0.48305  0.86721  0.68948  Biso   1.000  H
  H1143    1.0000 0.55984  0.90423  0.71579  Biso   1.000  H
  H1144    1.0000 0.47528  0.87724  0.73619  Biso   1.000  H
  C1097    1.0000 0.94157  0.22597  0.72758  Biso   1.000  C
  C1098    1.0000 0.93742  0.26224  0.79714  Biso   1.000  C
  C1099    1.0000 0.94157  0.22597  0.72755  Biso   1.000  C
  C1100    1.0000 0.93748  0.26224  0.79714  Biso   1.000  C
  C1101    1.0000 0.02405  0.37022  0.75510  Biso   1.000  C
  H1145    1.0000 0.13556  0.45228  0.80761  Biso   1.000  H
  H1146    1.0000 0.13556  0.45228  0.80758  Biso   1.000  H
  C1102    1.0000 0.25405  0.56895  0.90036  Biso   1.000  C
  C1103    1.0000 0.24813  0.61600  0.83286  Biso   1.000  C
  C1104    1.0000 0.25405  0.56895  0.90033  Biso   1.000  C
  C1105    1.0000 0.24820  0.61600  0.83286  Biso   1.000  C
  C1106    1.0000 0.67751  0.33119  0.16449  Biso   1.000  C
  C1107    1.0000 0.67751  0.33119  0.16446  Biso   1.000  C
  H1147    1.0000 0.58372  0.29726  0.12639  Biso   1.000  H
  H1148    1.0000 0.58372  0.29734  0.12639  Biso   1.000  H
  C1108    1.0000 0.78767  0.43248  0.13503  Biso   1.000  C
  C1109    1.0000 0.78773  0.43248  0.13503  Biso   1.000  C
  H1149    1.0000 0.76991  0.46432  0.07729  Biso   1.000  H
  H1150    1.0000 0.92346  0.18410  0.70541  Biso   1.000  H
  C1110    1.0000 0.99827  0.30779  0.72244  Biso   1.000  C
  H1151    1.0000 0.92346  0.18410  0.70538  Biso   1.000  H
  H1152    1.0000 0.91703  0.24503  0.82240  Biso   1.000  H
  H1153    1.0000 0.91709  0.24503  0.82240  Biso   1.000  H
  H1154    1.0000 0.06188  0.42930  0.75169  Biso   1.000  H
  C1111    1.0000 0.33137  0.61834  0.90430  Biso   1.000  C
  C1112    1.0000 0.33137  0.61834  0.90427  Biso   1.000  C
  H1155    1.0000 0.23015  0.53568  0.92271  Biso   1.000  H
  H1156    1.0000 0.23015  0.53568  0.92268  Biso   1.000  H
  C1113    1.0000 0.32255  0.66881  0.83551  Biso   1.000  C
  H1157    1.0000 0.22064  0.61307  0.80811  Biso   1.000  H
  H1158    1.0000 0.22064  0.61307  0.80808  Biso   1.000  H
  H1159    1.0000 0.22064  0.61315  0.80811  Biso   1.000  H
  H1160    1.0000 0.22064  0.61315  0.80808  Biso   1.000  H
  C1114    1.0000 0.64419  0.27018  0.19971  Biso   1.000  C
  C1115    1.0000 0.64419  0.27018  0.19968  Biso   1.000  C
  C1116    1.0000 0.75193  0.38400  0.16714  Biso   1.000  C
  C1117    1.0000 0.75193  0.38400  0.16711  Biso   1.000  C
  C1118    1.0000 0.87149  0.48278  0.13744  Biso   1.000  C
  C1119    1.0000 0.87149  0.48278  0.13742  Biso   1.000  C
  C1120    1.0000 0.03207  0.33194  0.68189  Biso   1.000  C
  C1121    1.0000 0.03207  0.33194  0.68186  Biso   1.000  C
  C1122    1.0000 0.37027  0.61182  0.94217  Biso   1.000  C
  C1123    1.0000 0.37027  0.61182  0.94214  Biso   1.000  C
  C1124    1.0000 0.36448  0.66831  0.87152  Biso   1.000  C
  C1125    1.0000 0.35587  0.72982  0.80029  Biso   1.000  C
  C1126    1.0000 0.70188  0.16179  0.21009  Biso   1.000  C
  C1127    1.0000 0.70194  0.16179  0.21009  Biso   1.000  C
  H1161    1.0000 0.58799  0.24503  0.19389  Biso   1.000  H
  H1162    1.0000 0.64289  0.32116  0.22259  Biso   1.000  H
  H1163    1.0000 0.64289  0.32124  0.22259  Biso   1.000  H
  H1164    1.0000 0.77942  0.38693  0.19189  Biso   1.000  H
  C1128    1.0000 0.92210  0.47276  0.10516  Biso   1.000  C
  C1129    1.0000 0.89898  0.54078  0.17049  Biso   1.000  C
  C1130    1.0000 0.92210  0.47284  0.10516  Biso   1.000  C
  C1131    1.0000 0.89904  0.54078  0.17049  Biso   1.000  C
  H1165    1.0000 0.98644  0.33562  0.66261  Biso   1.000  H
  H1166    1.0000 0.98644  0.33562  0.66258  Biso   1.000  H
  H1167    1.0000 0.05905  0.40582  0.68230  Biso   1.000  H
  C1132    1.0000 0.09212  0.24461  0.66860  Biso   1.000  C
  C1133    1.0000 0.09218  0.24461  0.66860  Biso   1.000  C
  C1134    1.0000 0.39294  0.60187  0.97622  Biso   1.000  C
  C1135    1.0000 0.39300  0.60187  0.97622  Biso   1.000  C
  H1168    1.0000 0.41635  0.70274  0.87361  Biso   1.000  H
  H1169    1.0000 0.41634  0.70274  0.87358  Biso   1.000  H
  H1170    1.0000 0.35717  0.67884  0.77741  Biso   1.000  H
  H1171    1.0000 0.41207  0.75497  0.80611  Biso   1.000  H
  C1136    1.0000 0.29818  0.83821  0.78991  Biso   1.000  C
  H1172    1.0000 0.35717  0.67884  0.77738  Biso   1.000  H
  H1173    1.0000 0.41207  0.75497  0.80608  Biso   1.000  H
  C1137    1.0000 0.29818  0.83821  0.78988  Biso   1.000  C
  H1174    1.0000 0.41207  0.75506  0.80611  Biso   1.000  H
  H1175    1.0000 0.41207  0.75506  0.80608  Biso   1.000  H
  C1138    1.0000 0.67162  0.10070  0.24599  Biso   1.000  C
  H1176    1.0000 0.75840  0.18720  0.21500  Biso   1.000  H
  H1177    1.0000 0.70190  0.11023  0.18739  Biso   1.000  H
  H1178    1.0000 0.90367  0.43298  0.08250  Biso   1.000  H
  C1139    1.0000 0.99899  0.52031  0.10575  Biso   1.000  C
  C1140    1.0000 0.99899  0.52031  0.10572  Biso   1.000  C
  H1179    1.0000 0.90373  0.43298  0.08250  Biso   1.000  H
  C1141    1.0000 0.97573  0.58858  0.17217  Biso   1.000  C
  H1180    1.0000 0.86450  0.54772  0.19239  Biso   1.000  H
  H1181    1.0000 0.14013  0.24628  0.68651  Biso   1.000  H
  H1182    1.0000 0.06683  0.16990  0.67090  Biso   1.000  H
  C1142    1.0000 0.11965  0.26032  0.62750  Biso   1.000  C
  H1183    1.0000 0.14013  0.24628  0.68648  Biso   1.000  H
  H1184    1.0000 0.06689  0.16990  0.67090  Biso   1.000  H
  C1143    1.0000 0.41351  0.57722  0.01573  Biso   1.000  C
  H1185    1.0000 0.24166  0.81280  0.78500  Biso   1.000  H
  H1186    1.0000 0.29816  0.88977  0.81261  Biso   1.000  H
  C1144    1.0000 0.32845  0.89930  0.75401  Biso   1.000  C
  C1145    1.0000 0.32844  0.89930  0.75398  Biso   1.000  C
  H1187    1.0000 0.29816  0.88985  0.81261  Biso   1.000  H
  H1188    1.0000 0.68821  0.14157  0.26980  Biso   1.000  H
  H1189    1.0000 0.61218  0.09560  0.24461  Biso   1.000  H
  H1190    1.0000 0.69490  0.02532  0.24681  Biso   1.000  H
  H1191    1.0000 0.61218  0.09560  0.24458  Biso   1.000  H
  H1192    1.0000 0.69490  0.02532  0.24678  Biso   1.000  H
  H1193    1.0000 0.61225  0.09560  0.24461  Biso   1.000  H
  C1146    1.0000 0.02530  0.57622  0.13953  Biso   1.000  C
  C1147    1.0000 0.05199  0.51320  0.07041  Biso   1.000  C
  C1148    1.0000 0.00510  0.65293  0.20680  Biso   1.000  C
  C1149    1.0000 0.00510  0.65293  0.20677  Biso   1.000  C
  H1194    1.0000 0.07237  0.26208  0.60960  Biso   1.000  H
  H1195    1.0000 0.15527  0.19831  0.62030  Biso   1.000  H
  H1196    1.0000 0.14945  0.33094  0.62550  Biso   1.000  H
  C1150    1.0000 0.38891  0.47359  0.03069  Biso   1.000  C
  C1151    1.0000 0.38891  0.47359  0.03066  Biso   1.000  C
  C1152    1.0000 0.45849  0.64859  0.04045  Biso   1.000  C
  C1153    1.0000 0.45855  0.64859  0.04045  Biso   1.000  C
  H1197    1.0000 0.38788  0.90440  0.75539  Biso   1.000  H
  H1198    1.0000 0.30516  0.97468  0.75319  Biso   1.000  H
  H1199    1.0000 0.31185  0.85843  0.73020  Biso   1.000  H
  H1200    1.0000 0.07852  0.60680  0.14041  Biso   1.000  H
  H1201    1.0000 0.07852  0.60680  0.14038  Biso   1.000  H
  C1154    1.0000 0.05122  0.42027  0.04592  Biso   1.000  C
  C1155    1.0000 0.10249  0.60371  0.06162  Biso   1.000  C
  C1156    1.0000 0.10249  0.60371  0.06159  Biso   1.000  C
  C1157    1.0000 0.97601  0.62978  0.24490  Biso   1.000  C
  C1158    1.0000 0.06264  0.73776  0.20286  Biso   1.000  C
  C1159    1.0000 0.06258  0.73776  0.20286  Biso   1.000  C
  C1160    1.0000 0.06264  0.73784  0.20286  Biso   1.000  C
  C1161    1.0000 0.06258  0.73784  0.20286  Biso   1.000  C
  C1162    1.0000 0.40989  0.43966  0.06818  Biso   1.000  C
  C1163    1.0000 0.40989  0.43966  0.06815  Biso   1.000  C
  C1164    1.0000 0.40989  0.43975  0.06818  Biso   1.000  C
  C1165    1.0000 0.40989  0.43975  0.06815  Biso   1.000  C
  H1202    1.0000 0.35693  0.42554  0.01449  Biso   1.000  H
  H1203    1.0000 0.35687  0.42554  0.01449  Biso   1.000  H
  C1166    1.0000 0.47742  0.61859  0.07850  Biso   1.000  C
  H1204    1.0000 0.47622  0.71879  0.03069  Biso   1.000  H
  H1205    1.0000 0.01602  0.35969  0.05151  Biso   1.000  H
  C1167    1.0000 0.10091  0.41417  0.01338  Biso   1.000  C
  H1206    1.0000 0.01602  0.35969  0.05148  Biso   1.000  H
  C1168    1.0000 0.10091  0.41417  0.01335  Biso   1.000  C
  C1169    1.0000 0.15250  0.59870  0.02946  Biso   1.000  C
  H1207    1.0000 0.10241  0.66839  0.07779  Biso   1.000  H
  C1170    1.0000 0.15250  0.59870  0.02943  Biso   1.000  C
  H1208    1.0000 0.93818  0.57070  0.24831  Biso   1.000  H
  H1209    1.0000 0.93818  0.57070  0.24828  Biso   1.000  H
  H1210    1.0000 0.93825  0.57070  0.24831  Biso   1.000  H
  H1211    1.0000 0.93824  0.57070  0.24828  Biso   1.000  H
  C1171    1.0000 0.00179  0.69221  0.27756  Biso   1.000  C
  C1172    1.0000 0.00179  0.69221  0.27754  Biso   1.000  C
  C1173    1.0000 0.00185  0.69221  0.27756  Biso   1.000  C
  C1174    1.0000 0.00185  0.69221  0.27754  Biso   1.000  C
  C1175    1.0000 0.09062  0.79818  0.23605  Biso   1.000  C
  H1212    1.0000 0.08303  0.75497  0.17760  Biso   1.000  H
  C1176    1.0000 0.38790  0.32459  0.08129  Biso   1.000  C
  C1177    1.0000 0.38790  0.32459  0.08126  Biso   1.000  C
  C1178    1.0000 0.45350  0.51387  0.09190  Biso   1.000  C
  C1179    1.0000 0.52313  0.69915  0.10502  Biso   1.000  C
  C1180    1.0000 0.10234  0.31264  0.98756  Biso   1.000  C
  C1181    1.0000 0.10240  0.31264  0.98756  Biso   1.000  C
  C1182    1.0000 0.15291  0.50401  0.00567  Biso   1.000  C
  C1183    1.0000 0.20459  0.69388  0.02090  Biso   1.000  C
  C1184    1.0000 0.96799  0.66806  0.31811  Biso   1.000  C
  C1185    1.0000 0.96799  0.66814  0.31811  Biso   1.000  C
  C1186    1.0000 0.96805  0.66806  0.31811  Biso   1.000  C
  C1187    1.0000 0.96805  0.66814  0.31811  Biso   1.000  C
  C1188    1.0000 0.05849  0.77403  0.27242  Biso   1.000  C
  C1189    1.0000 0.05855  0.77403  0.27242  Biso   1.000  C
  C1190    1.0000 0.14999  0.88484  0.23079  Biso   1.000  C
  C1191    1.0000 0.14999  0.88484  0.23076  Biso   1.000  C
  C1192    1.0000 0.38220  0.23926  0.05298  Biso   1.000  C
  C1193    1.0000 0.38220  0.23934  0.05298  Biso   1.000  C
  C1194    1.0000 0.37031  0.29801  0.12022  Biso   1.000  C
  H1213    1.0000 0.46750  0.49240  0.11801  Biso   1.000  H
  H1214    1.0000 0.46750  0.49240  0.11798  Biso   1.000  H
  H1215    1.0000 0.51589  0.77570  0.09449  Biso   1.000  H
  H1216    1.0000 0.49859  0.69714  0.13139  Biso   1.000  H
  C1195    1.0000 0.61182  0.67600  0.10940  Biso   1.000  C
  H1217    1.0000 0.51595  0.77570  0.09449  Biso   1.000  H
  H1218    1.0000 0.49865  0.69714  0.13139  Biso   1.000  H
  H1219    1.0000 0.10588  0.33712  0.95981  Biso   1.000  H
  H1220    1.0000 0.05035  0.27202  0.99039  Biso   1.000  H
  C1196    1.0000 0.17078  0.23316  0.99624  Biso   1.000  C
  H1221    1.0000 0.10588  0.33712  0.95978  Biso   1.000  H
  H1222    1.0000 0.18867  0.50033  0.98409  Biso   1.000  H
  C1197    1.0000 0.24662  0.77378  0.01461  Biso   1.000  C
  H1223    1.0000 0.94101  0.59418  0.31770  Biso   1.000  H
  C1198    1.0000 0.90794  0.75539  0.33140  Biso   1.000  C
  H1224    1.0000 0.01362  0.66438  0.33739  Biso   1.000  H
  H1225    1.0000 0.07660  0.81590  0.29459  Biso   1.000  H
  C1199    1.0000 0.19851  0.95847  0.22588  Biso   1.000  C
  C1200    1.0000 0.19851  0.95855  0.22588  Biso   1.000  C
  C1201    1.0000 0.36130  0.13112  0.06277  Biso   1.000  C
  H1226    1.0000 0.39300  0.25664  0.02631  Biso   1.000  H
  H1227    1.0000 0.39300  0.25664  0.02628  Biso   1.000  H
  C1202    1.0000 0.34933  0.19062  0.13098  Biso   1.000  C
  H1228    1.0000 0.37303  0.35484  0.13971  Biso   1.000  H
  H1229    1.0000 0.37303  0.35484  0.13968  Biso   1.000  H
  H1230    1.0000 0.63542  0.72815  0.12909  Biso   1.000  H
  H1231    1.0000 0.61929  0.59911  0.11960  Biso   1.000  H
  C1203    1.0000 0.65631  0.68753  0.07247  Biso   1.000  C
  H1232    1.0000 0.61935  0.59911  0.11960  Biso   1.000  H
  H1233    1.0000 0.22274  0.27403  0.99430  Biso   1.000  H
  C1204    1.0000 0.17244  0.13112  0.96840  Biso   1.000  C
  H1234    1.0000 0.22280  0.27403  0.99430  Biso   1.000  H
  C1205    1.0000 0.17250  0.13112  0.96840  Biso   1.000  C
  H1235    1.0000 0.16613  0.20633  0.02361  Biso   1.000  H
  H1236    1.0000 0.16613  0.20633  0.02358  Biso   1.000  H
  C1206    1.0000 0.29733  0.86704  0.00835  Biso   1.000  C
  H1237    1.0000 0.85993  0.75372  0.31349  Biso   1.000  H
  H1238    1.0000 0.93323  0.83010  0.32910  Biso   1.000  H
  C1207    1.0000 0.88041  0.73968  0.37250  Biso   1.000  C
  C1208    1.0000 0.25503  0.04789  0.21912  Biso   1.000  C
  C1209    1.0000 0.25503  0.04789  0.21909  Biso   1.000  C
  C1210    1.0000 0.35503  0.04270  0.03228  Biso   1.000  C
  C1211    1.0000 0.34538  0.10697  0.10240  Biso   1.000  C
  C1212    1.0000 0.34538  0.10697  0.10237  Biso   1.000  C
  C1213    1.0000 0.34544  0.10697  0.10240  Biso   1.000  C
  C1214    1.0000 0.34544  0.10697  0.10237  Biso   1.000  C
  C1215    1.0000 0.32868  0.16087  0.17243  Biso   1.000  C
  C1216    1.0000 0.32874  0.16087  0.17243  Biso   1.000  C
  H1239    1.0000 0.63650  0.63162  0.05351  Biso   1.000  H
  H1240    1.0000 0.71442  0.67600  0.07759  Biso   1.000  H
  H1241    1.0000 0.64748  0.76249  0.06171  Biso   1.000  H
  H1242    1.0000 0.63649  0.63162  0.05348  Biso   1.000  H
  H1243    1.0000 0.64748  0.76249  0.06168  Biso   1.000  H
  H1244    1.0000 0.64754  0.76249  0.06171  Biso   1.000  H
  H1245    1.0000 0.64754  0.76249  0.06168  Biso   1.000  H
  H1246    1.0000 0.17339  0.15686  0.94111  Biso   1.000  H
  H1247    1.0000 0.22128  0.08650  0.97410  Biso   1.000  H
  H1248    1.0000 0.12407  0.08516  0.97239  Biso   1.000  H
  H1249    1.0000 0.17339  0.15686  0.94108  Biso   1.000  H
  H1250    1.0000 0.12407  0.08524  0.97239  Biso   1.000  H
  C1217    1.0000 0.34077  0.87857  0.97401  Biso   1.000  C
  C1218    1.0000 0.30410  0.95153  0.03748  Biso   1.000  C
  H1251    1.0000 0.92769  0.73792  0.39040  Biso   1.000  H
  H1252    1.0000 0.84479  0.80169  0.37970  Biso   1.000  H
  H1253    1.0000 0.85061  0.66906  0.37450  Biso   1.000  H
  H1254    1.0000 0.85061  0.66915  0.37450  Biso   1.000  H
  H1255    1.0000 0.92775  0.73792  0.39040  Biso   1.000  H
  H1256    1.0000 0.84485  0.80169  0.37970  Biso   1.000  H
  C1219    1.0000 0.29062  0.10714  0.24946  Biso   1.000  C
  C1220    1.0000 0.27523  0.07513  0.18007  Biso   1.000  C
  C1221    1.0000 0.29062  0.10714  0.24943  Biso   1.000  C
  C1222    1.0000 0.27523  0.07513  0.18005  Biso   1.000  C
  C1223    1.0000 0.39936  0.04931  0.99732  Biso   1.000  C
  H1257    1.0000 0.33199  0.03276  0.10981  Biso   1.000  H
  H1258    1.0000 0.33199  0.03276  0.10978  Biso   1.000  H
  H1259    1.0000 0.33199  0.03284  0.10981  Biso   1.000  H
  H1260    1.0000 0.33199  0.03284  0.10978  Biso   1.000  H
  H1261    1.0000 0.33205  0.03276  0.10981  Biso   1.000  H
  H1262    1.0000 0.33205  0.03284  0.10981  Biso   1.000  H
  C1224    1.0000 0.36340  0.21829  0.20389  Biso   1.000  C
  H1263    1.0000 0.33476  0.82350  0.95411  Biso   1.000  H
  C1225    1.0000 0.39264  0.96833  0.96784  Biso   1.000  C
  H1264    1.0000 0.33476  0.82350  0.95408  Biso   1.000  H
  C1226    1.0000 0.39270  0.96833  0.96784  Biso   1.000  C
  H1265    1.0000 0.27343  0.94568  0.06080  Biso   1.000  H
  H1266    1.0000 0.27337  0.94568  0.06080  Biso   1.000  H
  C1227    1.0000 0.34563  0.19288  0.24276  Biso   1.000  C
  H1267    1.0000 0.27719  0.08884  0.27571  Biso   1.000  H
  H1268    1.0000 0.27719  0.08884  0.27568  Biso   1.000  H
  H1269    1.0000 0.27725  0.08884  0.27571  Biso   1.000  H
  H1270    1.0000 0.27725  0.08884  0.27568  Biso   1.000  H
  H1271    1.0000 0.25169  0.03393  0.15891  Biso   1.000  H
  H1272    1.0000 0.25175  0.03393  0.15891  Biso   1.000  H
  H1273    1.0000 0.43487  0.11081  0.99371  Biso   1.000  H
  H1274    1.0000 0.43486  0.11081  0.99368  Biso   1.000  H
  H1275    1.0000 0.40062  0.27703  0.19880  Biso   1.000  H
  C1228    1.0000 0.44134  0.97560  0.93144  Biso   1.000  C
  C1229    1.0000 0.44140  0.97560  0.93144  Biso   1.000  C
  C1230    1.0000 0.39403  0.24260  0.27639  Biso   1.000  C
  C1231    1.0000 0.37309  0.27603  0.27480  Biso   1.000  C
  H1276    1.0000 0.47355  0.90623  0.92900  Biso   1.000  H
  C1232    1.0000 0.39267  0.99231  0.89366  Biso   1.000  C
  H1277    1.0000 0.48006  0.03836  0.93441  Biso   1.000  H
  H1278    1.0000 0.48006  0.03836  0.93438  Biso   1.000  H
  H1279    1.0000 0.48006  0.03844  0.93441  Biso   1.000  H
  H1280    1.0000 0.48006  0.03844  0.93438  Biso   1.000  H
  H1281    1.0000 0.36384  0.22932  0.30079  Biso   1.000  H
  H1282    1.0000 0.39644  0.32450  0.27239  Biso   1.000  H
  C1233    1.0000 0.47629  0.20257  0.28259  Biso   1.000  C
  C1234    1.0000 0.47635  0.20257  0.28259  Biso   1.000  C
  H1283    1.0000 0.34509  0.25940  0.29961  Biso   1.000  H
  C1235    1.0000 0.46371  0.26500  0.28080  Biso   1.000  C
  H1284    1.0000 0.35919  0.35308  0.26669  Biso   1.000  H
  H1285    1.0000 0.35429  0.92930  0.89019  Biso   1.000  H
  C1236    1.0000 0.44619  0.99983  0.85770  Biso   1.000  C
  H1286    1.0000 0.35423  0.92930  0.89019  Biso   1.000  H
  C1237    1.0000 0.44618  0.99983  0.85768  Biso   1.000  C
  H1287    1.0000 0.36044  0.06184  0.89569  Biso   1.000  H
  H1288    1.0000 0.36050  0.06184  0.89569  Biso   1.000  H
  H1289    1.0000 0.50783  0.21528  0.25851  Biso   1.000  H
  H1290    1.0000 0.50251  0.24561  0.30420  Biso   1.000  H
  C1238    1.0000 0.47782  0.07780  0.29291  Biso   1.000  C
  H1291    1.0000 0.50783  0.21528  0.25848  Biso   1.000  H
  C1239    1.0000 0.47782  0.07780  0.29288  Biso   1.000  C
  H1292    1.0000 0.49161  0.29818  0.25810  Biso   1.000  H
  H1293    1.0000 0.48061  0.30704  0.30470  Biso   1.000  H
  C1240    1.0000 0.48901  0.14299  0.28521  Biso   1.000  C
  H1294    1.0000 0.48038  0.93298  0.85629  Biso   1.000  H
  H1295    1.0000 0.41186  0.00476  0.83389  Biso   1.000  H
  H1296    1.0000 0.48068  0.06644  0.85970  Biso   1.000  H
  H1297    1.0000 0.41186  0.00485  0.83389  Biso   1.000  H
  H1298    1.0000 0.44044  0.03744  0.27530  Biso   1.000  H
  H1299    1.0000 0.53289  0.04864  0.28979  Biso   1.000  H
  H1300    1.0000 0.46114  0.06761  0.32019  Biso   1.000  H
  H1301    1.0000 0.44038  0.03744  0.27530  Biso   1.000  H
  H1302    1.0000 0.53296  0.04864  0.28979  Biso   1.000  H
  H1303    1.0000 0.51701  0.13279  0.31049  Biso   1.000  H
  H1304    1.0000 0.44022  0.09577  0.28421  Biso   1.000  H
  H1305    1.0000 0.52484  0.12276  0.26381  Biso   1.000  H
  C1241    1.0000 0.60739  0.00769  0.10631  Biso   1.000  C
  C1242    1.0000 0.55872  0.02440  0.06856  Biso   1.000  C
  C1243    1.0000 0.55872  0.02440  0.06853  Biso   1.000  C
  H1306    1.0000 0.63962  0.93816  0.10431  Biso   1.000  H
  H1307    1.0000 0.63962  0.93816  0.10428  Biso   1.000  H
  H1308    1.0000 0.63962  0.93824  0.10431  Biso   1.000  H
  H1309    1.0000 0.63962  0.93824  0.10428  Biso   1.000  H
  H1310    1.0000 0.64577  0.07070  0.10981  Biso   1.000  H
  C1244    1.0000 0.55388  0.00017  0.14230  Biso   1.000  C
  H1311    1.0000 0.64577  0.07070  0.10978  Biso   1.000  H
  H1312    1.0000 0.64583  0.07070  0.10981  Biso   1.000  H
  C1245    1.0000 0.55394  0.00017  0.14230  Biso   1.000  C
  H1313    1.0000 0.64583  0.07070  0.10978  Biso   1.000  H
  C1246    1.0000 0.60742  0.03167  0.03216  Biso   1.000  C
  C1247    1.0000 0.60736  0.03167  0.03216  Biso   1.000  C
  H1314    1.0000 0.52000  0.96164  0.06559  Biso   1.000  H
  H1315    1.0000 0.52651  0.09377  0.07100  Biso   1.000  H
  C1248    1.0000 0.60739  0.00769  0.10634  Biso   1.000  C
  H1316    1.0000 0.52651  0.09385  0.07100  Biso   1.000  H
  H1317    1.0000 0.58820  0.99524  0.16611  Biso   1.000  H
  H1318    1.0000 0.51938  0.93356  0.14030  Biso   1.000  H
  H1319    1.0000 0.58820  0.99524  0.16608  Biso   1.000  H
  H1320    1.0000 0.51938  0.93365  0.14030  Biso   1.000  H
  H1321    1.0000 0.51944  0.93356  0.14030  Biso   1.000  H
  H1322    1.0000 0.51944  0.93365  0.14030  Biso   1.000  H
  H1323    1.0000 0.51968  0.06702  0.14371  Biso   1.000  H
  H1324    1.0000 0.51968  0.06702  0.14368  Biso   1.000  H
  C1249    1.0000 0.60070  0.95069  0.00268  Biso   1.000  C
  C1250    1.0000 0.65929  0.12143  0.02599  Biso   1.000  C
  C1251    1.0000 0.65929  0.12143  0.02596  Biso   1.000  C
  C1252    1.0000 0.64503  0.95730  0.96772  Biso   1.000  C
  C1253    1.0000 0.64509  0.95730  0.96772  Biso   1.000  C
  H1325    1.0000 0.56520  0.88919  0.00629  Biso   1.000  H
  C1254    1.0000 0.70273  0.13296  0.99165  Biso   1.000  C
  C1255    1.0000 0.70273  0.13304  0.99165  Biso   1.000  C
  C1256    1.0000 0.70279  0.13296  0.99165  Biso   1.000  C
  C1257    1.0000 0.70279  0.13304  0.99165  Biso   1.000  C
  H1326    1.0000 0.66530  0.17650  0.04589  Biso   1.000  H
  C1258    1.0000 0.63876  0.86888  0.93723  Biso   1.000  C
  C1259    1.0000 0.69596  0.04847  0.96252  Biso   1.000  C
  C1260    1.0000 0.75344  0.22622  0.98539  Biso   1.000  C
  C1261    1.0000 0.75344  0.22622  0.98536  Biso   1.000  C
  C1262    1.0000 0.61786  0.76074  0.94702  Biso   1.000  C
  C1263    1.0000 0.61786  0.76074  0.94699  Biso   1.000  C
  C1264    1.0000 0.65468  0.89303  0.89760  Biso   1.000  C
  C1265    1.0000 0.65462  0.89303  0.89760  Biso   1.000  C
  H1327    1.0000 0.72663  0.05432  0.93920  Biso   1.000  H
  H1328    1.0000 0.72669  0.05432  0.93920  Biso   1.000  H
  C1266    1.0000 0.79547  0.30612  0.97910  Biso   1.000  C
  C1267    1.0000 0.79547  0.30612  0.97907  Biso   1.000  C
  C1268    1.0000 0.61216  0.67541  0.91871  Biso   1.000  C
  H1329    1.0000 0.60706  0.74336  0.97369  Biso   1.000  H
  H1330    1.0000 0.60706  0.74344  0.97369  Biso   1.000  H
  C1269    1.0000 0.65073  0.80938  0.86902  Biso   1.000  C
  C1270    1.0000 0.65079  0.80938  0.86902  Biso   1.000  C
  H1331    1.0000 0.66807  0.96724  0.89019  Biso   1.000  H
  C1271    1.0000 0.84756  0.40130  0.97054  Biso   1.000  C
  C1272    1.0000 0.59017  0.56034  0.93182  Biso   1.000  C
  C1273    1.0000 0.62975  0.70199  0.87978  Biso   1.000  C
  C1274    1.0000 0.67138  0.83913  0.82757  Biso   1.000  C
  C1275    1.0000 0.67132  0.83913  0.82757  Biso   1.000  C
  C1276    1.0000 0.84715  0.49599  0.99433  Biso   1.000  C
  C1277    1.0000 0.89757  0.39629  0.93838  Biso   1.000  C
  C1278    1.0000 0.61115  0.52641  0.96931  Biso   1.000  C
  C1279    1.0000 0.54656  0.48613  0.90810  Biso   1.000  C
  H1332    1.0000 0.62703  0.64516  0.86029  Biso   1.000  H
  H1333    1.0000 0.62703  0.64524  0.86029  Biso   1.000  H
  H1334    1.0000 0.62709  0.64516  0.86029  Biso   1.000  H
  H1335    1.0000 0.62709  0.64524  0.86029  Biso   1.000  H
  C1280    1.0000 0.63666  0.78171  0.79611  Biso   1.000  C
  C1281    1.0000 0.72483  0.92487  0.81993  Biso   1.000  C
  C1282    1.0000 0.63666  0.78171  0.79608  Biso   1.000  C
  C1283    1.0000 0.89915  0.58583  0.98662  Biso   1.000  C
  H1336    1.0000 0.81139  0.49967  0.01591  Biso   1.000  H
  H1337    1.0000 0.81139  0.49975  0.01591  Biso   1.000  H
  C1284    1.0000 0.94807  0.48680  0.92959  Biso   1.000  C
  H1338    1.0000 0.89765  0.33161  0.92221  Biso   1.000  H
  C1285    1.0000 0.94807  0.48680  0.92956  Biso   1.000  C
  H1339    1.0000 0.89765  0.33161  0.92218  Biso   1.000  H
  C1286    1.0000 0.58656  0.42278  0.98427  Biso   1.000  C
  H1340    1.0000 0.64313  0.57446  0.98551  Biso   1.000  H
  H1341    1.0000 0.64313  0.57454  0.98551  Biso   1.000  H
  H1342    1.0000 0.64319  0.57446  0.98551  Biso   1.000  H
  H1343    1.0000 0.64319  0.57454  0.98551  Biso   1.000  H
  C1287    1.0000 0.52264  0.38141  0.92150  Biso   1.000  C
  H1344    1.0000 0.53256  0.50760  0.88199  Biso   1.000  H
  H1345    1.0000 0.59944  0.72297  0.80120  Biso   1.000  H
  C1288    1.0000 0.65443  0.80712  0.75724  Biso   1.000  C
  C1289    1.0000 0.65449  0.80712  0.75724  Biso   1.000  C
  C1290    1.0000 0.74503  0.95211  0.78088  Biso   1.000  C
  H1346    1.0000 0.74837  0.96607  0.84109  Biso   1.000  H
  C1291    1.0000 0.74509  0.95211  0.78088  Biso   1.000  C
  C1292    1.0000 0.94884  0.57973  0.95408  Biso   1.000  C
  C1293    1.0000 0.89772  0.68736  0.01244  Biso   1.000  C
  C1294    1.0000 0.89772  0.68745  0.01244  Biso   1.000  C
  C1295    1.0000 0.00107  0.47969  0.89425  Biso   1.000  C
  C1296    1.0000 0.60712  0.39813  0.02378  Biso   1.000  C
  C1297    1.0000 0.54158  0.35141  0.95955  Biso   1.000  C
  C1298    1.0000 0.47693  0.30085  0.89498  Biso   1.000  C
  C1299    1.0000 0.47693  0.30085  0.89495  Biso   1.000  C
  C1300    1.0000 0.47693  0.30094  0.89498  Biso   1.000  C
  C1301    1.0000 0.47693  0.30094  0.89495  Biso   1.000  C
  C1302    1.0000 0.47699  0.30085  0.89498  Biso   1.000  C
  C1303    1.0000 0.47699  0.30085  0.89495  Biso   1.000  C
  C1304    1.0000 0.47699  0.30094  0.89498  Biso   1.000  C
  C1305    1.0000 0.47699  0.30094  0.89495  Biso   1.000  C
  C1306    1.0000 0.70944  0.89286  0.75054  Biso   1.000  C
  C1307    1.0000 0.60603  0.75740  0.72361  Biso   1.000  C
  C1308    1.0000 0.60603  0.75740  0.72358  Biso   1.000  C
  C1309    1.0000 0.70944  0.89295  0.75054  Biso   1.000  C
  C1310    1.0000 0.60609  0.75740  0.72361  Biso   1.000  C
  C1311    1.0000 0.62697  0.72397  0.72520  Biso   1.000  C
  C1312    1.0000 0.80155  0.04153  0.77412  Biso   1.000  C
  H1347    1.0000 0.98404  0.64031  0.94849  Biso   1.000  H
  H1348    1.0000 0.98410  0.64031  0.94849  Biso   1.000  H
  H1349    1.0000 0.89418  0.66288  0.04019  Biso   1.000  H
  H1350    1.0000 0.94971  0.72798  0.00961  Biso   1.000  H
  C1313    1.0000 0.82928  0.76684  0.00376  Biso   1.000  C
  H1351    1.0000 0.94971  0.72798  0.00958  Biso   1.000  H
  H1352    1.0000 0.89424  0.66288  0.04019  Biso   1.000  H
  C1314    1.0000 0.97476  0.42378  0.86047  Biso   1.000  C
  C1315    1.0000 0.07796  0.52724  0.89484  Biso   1.000  C
  C1316    1.0000 0.62979  0.38818  0.05783  Biso   1.000  C
  H1353    1.0000 0.52384  0.28121  0.96931  Biso   1.000  H
  H1354    1.0000 0.48417  0.22430  0.90551  Biso   1.000  H
  H1355    1.0000 0.50147  0.30286  0.86861  Biso   1.000  H
  C1317    1.0000 0.38825  0.32400  0.89060  Biso   1.000  C
  H1356    1.0000 0.48417  0.22430  0.90548  Biso   1.000  H
  H1357    1.0000 0.50147  0.30286  0.86858  Biso   1.000  H
  H1358    1.0000 0.50147  0.30294  0.86861  Biso   1.000  H
  H1359    1.0000 0.50147  0.30294  0.86858  Biso   1.000  H
  H1360    1.0000 0.72287  0.91116  0.72429  Biso   1.000  H
  H1361    1.0000 0.72287  0.91125  0.72429  Biso   1.000  H
  H1362    1.0000 0.63623  0.77068  0.69921  Biso   1.000  H
  H1363    1.0000 0.60362  0.67550  0.72761  Biso   1.000  H
  C1318    1.0000 0.52377  0.79743  0.71741  Biso   1.000  C
  H1364    1.0000 0.63622  0.77068  0.69918  Biso   1.000  H
  H1365    1.0000 0.60362  0.67550  0.72758  Biso   1.000  H
  C1319    1.0000 0.52371  0.79743  0.71738  Biso   1.000  C
  H1366    1.0000 0.63629  0.77068  0.69921  Biso   1.000  H
  H1367    1.0000 0.60368  0.67550  0.72761  Biso   1.000  H
  H1368    1.0000 0.60368  0.67550  0.72758  Biso   1.000  H
  C1320    1.0000 0.52377  0.79743  0.71738  Biso   1.000  C
  H1369    1.0000 0.65497  0.74060  0.70039  Biso   1.000  H
  C1321    1.0000 0.53635  0.73500  0.71920  Biso   1.000  C
  H1370    1.0000 0.64087  0.64692  0.73328  Biso   1.000  H
  C1322    1.0000 0.85007  0.11516  0.76921  Biso   1.000  C
  C1323    1.0000 0.85007  0.11524  0.76921  Biso   1.000  C
  H1371    1.0000 0.83393  0.79367  0.97639  Biso   1.000  H
  H1372    1.0000 0.83393  0.79375  0.97639  Biso   1.000  H
  H1373    1.0000 0.83399  0.79367  0.97639  Biso   1.000  H
  H1374    1.0000 0.83399  0.79375  0.97639  Biso   1.000  H
  H1375    1.0000 0.77732  0.72597  0.00570  Biso   1.000  H
  C1324    1.0000 0.82762  0.86888  0.03160  Biso   1.000  C
  C1325    1.0000 0.02433  0.41142  0.82783  Biso   1.000  C
  C1326    1.0000 0.02433  0.41142  0.82780  Biso   1.000  C
  C1327    1.0000 0.02439  0.41142  0.82783  Biso   1.000  C
  C1328    1.0000 0.02439  0.41142  0.82780  Biso   1.000  C
  H1376    1.0000 0.92154  0.39320  0.85959  Biso   1.000  H
  C1329    1.0000 0.12857  0.51722  0.86256  Biso   1.000  C
  H1377    1.0000 0.09639  0.56702  0.91750  Biso   1.000  H
  H1378    1.0000 0.09633  0.56702  0.91750  Biso   1.000  H
  C1330    1.0000 0.66869  0.38166  0.09570  Biso   1.000  C
  H1379    1.0000 0.36464  0.27185  0.87091  Biso   1.000  H
  H1380    1.0000 0.38077  0.40089  0.88040  Biso   1.000  H
  C1331    1.0000 0.34375  0.31247  0.92753  Biso   1.000  C
  H1381    1.0000 0.36464  0.27194  0.87091  Biso   1.000  H
  H1382    1.0000 0.49223  0.78472  0.74149  Biso   1.000  H
  H1383    1.0000 0.49755  0.75439  0.69580  Biso   1.000  H
  C1332    1.0000 0.52224  0.92220  0.70709  Biso   1.000  C
  H1384    1.0000 0.50845  0.70182  0.74190  Biso   1.000  H
  H1385    1.0000 0.51945  0.69305  0.69530  Biso   1.000  H
  C1333    1.0000 0.51105  0.85701  0.71479  Biso   1.000  C
  C1334    1.0000 0.90944  0.20182  0.76395  Biso   1.000  C
  C1335    1.0000 0.90944  0.20182  0.76392  Biso   1.000  C
  H1386    1.0000 0.82667  0.84314  0.05889  Biso   1.000  H
  H1387    1.0000 0.77878  0.91350  0.02590  Biso   1.000  H
  H1388    1.0000 0.87599  0.91484  0.02761  Biso   1.000  H
  H1389    1.0000 0.82673  0.84314  0.05889  Biso   1.000  H
  C1336    1.0000 0.99496  0.34707  0.79320  Biso   1.000  C
  C1337    1.0000 0.99496  0.34715  0.79320  Biso   1.000  C
  C1338    1.0000 0.10108  0.45922  0.82951  Biso   1.000  C
  C1339    1.0000 0.21239  0.56752  0.86497  Biso   1.000  C
  C1340    1.0000 0.21233  0.56752  0.86497  Biso   1.000  C
  C1341    1.0000 0.63558  0.33169  0.12848  Biso   1.000  C
  C1342    1.0000 0.63558  0.33169  0.12845  Biso   1.000  C
  C1343    1.0000 0.74601  0.43105  0.09964  Biso   1.000  C
  C1344    1.0000 0.74601  0.43114  0.09964  Biso   1.000  C
  H1390    1.0000 0.36356  0.36838  0.94649  Biso   1.000  H
  H1391    1.0000 0.28564  0.32400  0.92241  Biso   1.000  H
  H1392    1.0000 0.35258  0.23751  0.93829  Biso   1.000  H
  H1393    1.0000 0.28564  0.32400  0.92238  Biso   1.000  H
  H1394    1.0000 0.35252  0.23751  0.93829  Biso   1.000  H
  H1395    1.0000 0.55962  0.96256  0.72470  Biso   1.000  H
  H1396    1.0000 0.46717  0.95136  0.71021  Biso   1.000  H
  H1397    1.0000 0.53892  0.93239  0.67981  Biso   1.000  H
  H1398    1.0000 0.55962  0.96264  0.72470  Biso   1.000  H
  H1399    1.0000 0.46717  0.95145  0.71021  Biso   1.000  H
  H1400    1.0000 0.55968  0.96256  0.72470  Biso   1.000  H
  H1401    1.0000 0.53898  0.93239  0.67981  Biso   1.000  H
  H1402    1.0000 0.55968  0.96264  0.72470  Biso   1.000  H
  H1403    1.0000 0.48305  0.86721  0.68948  Biso   1.000  H
  H1404    1.0000 0.55984  0.90423  0.71579  Biso   1.000  H
  H1405    1.0000 0.47528  0.87724  0.73619  Biso   1.000  H
  C1345    1.0000 0.94157  0.22597  0.72758  Biso   1.000  C
  C1346    1.0000 0.93742  0.26224  0.79714  Biso   1.000  C
  C1347    1.0000 0.94157  0.22597  0.72755  Biso   1.000  C
  C1348    1.0000 0.93748  0.26224  0.79714  Biso   1.000  C
  C1349    1.0000 0.02405  0.37022  0.75510  Biso   1.000  C
  H1406    1.0000 0.13556  0.45228  0.80761  Biso   1.000  H
  H1407    1.0000 0.13556  0.45228  0.80758  Biso   1.000  H
  C1350    1.0000 0.25405  0.56895  0.90036  Biso   1.000  C
  C1351    1.0000 0.24813  0.61600  0.83286  Biso   1.000  C
  C1352    1.0000 0.25405  0.56895  0.90033  Biso   1.000  C
  C1353    1.0000 0.24820  0.61600  0.83286  Biso   1.000  C
  C1354    1.0000 0.67751  0.33119  0.16449  Biso   1.000  C
  C1355    1.0000 0.67751  0.33119  0.16446  Biso   1.000  C
  H1408    1.0000 0.58372  0.29726  0.12639  Biso   1.000  H
  H1409    1.0000 0.58372  0.29734  0.12639  Biso   1.000  H
  C1356    1.0000 0.78767  0.43248  0.13503  Biso   1.000  C
  C1357    1.0000 0.78773  0.43248  0.13503  Biso   1.000  C
  H1410    1.0000 0.76991  0.46432  0.07729  Biso   1.000  H
  H1411    1.0000 0.92346  0.18410  0.70541  Biso   1.000  H
  C1358    1.0000 0.99827  0.30779  0.72244  Biso   1.000  C
  H1412    1.0000 0.92346  0.18410  0.70538  Biso   1.000  H
  H1413    1.0000 0.91703  0.24503  0.82240  Biso   1.000  H
  H1414    1.0000 0.91709  0.24503  0.82240  Biso   1.000  H
  H1415    1.0000 0.06188  0.42930  0.75169  Biso   1.000  H
  C1359    1.0000 0.33137  0.61834  0.90430  Biso   1.000  C
  C1360    1.0000 0.33137  0.61834  0.90427  Biso   1.000  C
  H1416    1.0000 0.23015  0.53568  0.92271  Biso   1.000  H
  H1417    1.0000 0.23015  0.53568  0.92268  Biso   1.000  H
  C1361    1.0000 0.32255  0.66881  0.83551  Biso   1.000  C
  H1418    1.0000 0.22064  0.61307  0.80811  Biso   1.000  H
  H1419    1.0000 0.22064  0.61307  0.80808  Biso   1.000  H
  H1420    1.0000 0.22064  0.61315  0.80811  Biso   1.000  H
  H1421    1.0000 0.22064  0.61315  0.80808  Biso   1.000  H
  C1362    1.0000 0.64419  0.27018  0.19971  Biso   1.000  C
  C1363    1.0000 0.64419  0.27018  0.19968  Biso   1.000  C
  C1364    1.0000 0.75193  0.38400  0.16714  Biso   1.000  C
  C1365    1.0000 0.75193  0.38400  0.16711  Biso   1.000  C
  C1366    1.0000 0.87149  0.48278  0.13744  Biso   1.000  C
  C1367    1.0000 0.87149  0.48278  0.13742  Biso   1.000  C
  C1368    1.0000 0.03207  0.33194  0.68189  Biso   1.000  C
  C1369    1.0000 0.03207  0.33194  0.68186  Biso   1.000  C
  C1370    1.0000 0.37027  0.61182  0.94217  Biso   1.000  C
  C1371    1.0000 0.37027  0.61182  0.94214  Biso   1.000  C
  C1372    1.0000 0.36448  0.66831  0.87152  Biso   1.000  C
  C1373    1.0000 0.35587  0.72982  0.80029  Biso   1.000  C
  C1374    1.0000 0.70188  0.16179  0.21009  Biso   1.000  C
  C1375    1.0000 0.70194  0.16179  0.21009  Biso   1.000  C
  H1422    1.0000 0.58799  0.24503  0.19389  Biso   1.000  H
  H1423    1.0000 0.64289  0.32116  0.22259  Biso   1.000  H
  H1424    1.0000 0.64289  0.32124  0.22259  Biso   1.000  H
  H1425    1.0000 0.77942  0.38693  0.19189  Biso   1.000  H
  C1376    1.0000 0.92210  0.47276  0.10516  Biso   1.000  C
  C1377    1.0000 0.89898  0.54078  0.17049  Biso   1.000  C
  C1378    1.0000 0.92210  0.47284  0.10516  Biso   1.000  C
  C1379    1.0000 0.89904  0.54078  0.17049  Biso   1.000  C
  H1426    1.0000 0.98644  0.33562  0.66261  Biso   1.000  H
  H1427    1.0000 0.98644  0.33562  0.66258  Biso   1.000  H
  H1428    1.0000 0.05905  0.40582  0.68230  Biso   1.000  H
  C1380    1.0000 0.09212  0.24461  0.66860  Biso   1.000  C
  C1381    1.0000 0.09218  0.24461  0.66860  Biso   1.000  C
  C1382    1.0000 0.39294  0.60187  0.97622  Biso   1.000  C
  C1383    1.0000 0.39300  0.60187  0.97622  Biso   1.000  C
  H1429    1.0000 0.41635  0.70274  0.87361  Biso   1.000  H
  H1430    1.0000 0.41634  0.70274  0.87358  Biso   1.000  H
  H1431    1.0000 0.35717  0.67884  0.77741  Biso   1.000  H
  H1432    1.0000 0.41207  0.75497  0.80611  Biso   1.000  H
  C1384    1.0000 0.29818  0.83821  0.78991  Biso   1.000  C
  H1433    1.0000 0.35717  0.67884  0.77738  Biso   1.000  H
  H1434    1.0000 0.41207  0.75497  0.80608  Biso   1.000  H
  C1385    1.0000 0.29818  0.83821  0.78988  Biso   1.000  C
  H1435    1.0000 0.41207  0.75506  0.80611  Biso   1.000  H
  H1436    1.0000 0.41207  0.75506  0.80608  Biso   1.000  H
  C1386    1.0000 0.67162  0.10070  0.24599  Biso   1.000  C
  H1437    1.0000 0.75840  0.18720  0.21500  Biso   1.000  H
  H1438    1.0000 0.70190  0.11023  0.18739  Biso   1.000  H
  H1439    1.0000 0.90367  0.43298  0.08250  Biso   1.000  H
  C1387    1.0000 0.99899  0.52031  0.10575  Biso   1.000  C
  C1388    1.0000 0.99899  0.52031  0.10572  Biso   1.000  C
  H1440    1.0000 0.90373  0.43298  0.08250  Biso   1.000  H
  C1389    1.0000 0.97573  0.58858  0.17217  Biso   1.000  C
  H1441    1.0000 0.86450  0.54772  0.19239  Biso   1.000  H
  H1442    1.0000 0.14013  0.24628  0.68651  Biso   1.000  H
  H1443    1.0000 0.06683  0.16990  0.67090  Biso   1.000  H
  C1390    1.0000 0.11965  0.26032  0.62750  Biso   1.000  C
  H1444    1.0000 0.14013  0.24628  0.68648  Biso   1.000  H
  H1445    1.0000 0.06689  0.16990  0.67090  Biso   1.000  H
  C1391    1.0000 0.41351  0.57722  0.01573  Biso   1.000  C
  H1446    1.0000 0.24166  0.81280  0.78500  Biso   1.000  H
  H1447    1.0000 0.29816  0.88977  0.81261  Biso   1.000  H
  C1392    1.0000 0.32845  0.89930  0.75401  Biso   1.000  C
  C1393    1.0000 0.32844  0.89930  0.75398  Biso   1.000  C
  H1448    1.0000 0.29816  0.88985  0.81261  Biso   1.000  H
  H1449    1.0000 0.68821  0.14157  0.26980  Biso   1.000  H
  H1450    1.0000 0.61218  0.09560  0.24461  Biso   1.000  H
  H1451    1.0000 0.69490  0.02532  0.24681  Biso   1.000  H
  H1452    1.0000 0.61218  0.09560  0.24458  Biso   1.000  H
  H1453    1.0000 0.69490  0.02532  0.24678  Biso   1.000  H
  H1454    1.0000 0.61225  0.09560  0.24461  Biso   1.000  H
  C1394    1.0000 0.02530  0.57622  0.13953  Biso   1.000  C
  C1395    1.0000 0.05199  0.51320  0.07041  Biso   1.000  C
  C1396    1.0000 0.00510  0.65293  0.20680  Biso   1.000  C
  C1397    1.0000 0.00510  0.65293  0.20677  Biso   1.000  C
  H1455    1.0000 0.07237  0.26208  0.60960  Biso   1.000  H
  H1456    1.0000 0.15527  0.19831  0.62030  Biso   1.000  H
  H1457    1.0000 0.14945  0.33094  0.62550  Biso   1.000  H
  C1398    1.0000 0.38891  0.47359  0.03069  Biso   1.000  C
  C1399    1.0000 0.38891  0.47359  0.03066  Biso   1.000  C
  C1400    1.0000 0.45849  0.64859  0.04045  Biso   1.000  C
  C1401    1.0000 0.45855  0.64859  0.04045  Biso   1.000  C
  H1458    1.0000 0.38788  0.90440  0.75539  Biso   1.000  H
  H1459    1.0000 0.30516  0.97468  0.75319  Biso   1.000  H
  H1460    1.0000 0.31185  0.85843  0.73020  Biso   1.000  H
  H1461    1.0000 0.07852  0.60680  0.14041  Biso   1.000  H
  H1462    1.0000 0.07852  0.60680  0.14038  Biso   1.000  H
  C1402    1.0000 0.05122  0.42027  0.04592  Biso   1.000  C
  C1403    1.0000 0.10249  0.60371  0.06162  Biso   1.000  C
  C1404    1.0000 0.10249  0.60371  0.06159  Biso   1.000  C
  C1405    1.0000 0.97601  0.62978  0.24490  Biso   1.000  C
  C1406    1.0000 0.06264  0.73776  0.20286  Biso   1.000  C
  C1407    1.0000 0.06258  0.73776  0.20286  Biso   1.000  C
  C1408    1.0000 0.06264  0.73784  0.20286  Biso   1.000  C
  C1409    1.0000 0.06258  0.73784  0.20286  Biso   1.000  C
  C1410    1.0000 0.40989  0.43966  0.06818  Biso   1.000  C
  C1411    1.0000 0.40989  0.43966  0.06815  Biso   1.000  C
  C1412    1.0000 0.40989  0.43975  0.06818  Biso   1.000  C
  C1413    1.0000 0.40989  0.43975  0.06815  Biso   1.000  C
  H1463    1.0000 0.35693  0.42554  0.01449  Biso   1.000  H
  H1464    1.0000 0.35687  0.42554  0.01449  Biso   1.000  H
  C1414    1.0000 0.47742  0.61859  0.07850  Biso   1.000  C
  H1465    1.0000 0.47622  0.71879  0.03069  Biso   1.000  H
  H1466    1.0000 0.01602  0.35969  0.05151  Biso   1.000  H
  C1415    1.0000 0.10091  0.41417  0.01338  Biso   1.000  C
  H1467    1.0000 0.01602  0.35969  0.05148  Biso   1.000  H
  C1416    1.0000 0.10091  0.41417  0.01335  Biso   1.000  C
  C1417    1.0000 0.15250  0.59870  0.02946  Biso   1.000  C
  H1468    1.0000 0.10241  0.66839  0.07779  Biso   1.000  H
  C1418    1.0000 0.15250  0.59870  0.02943  Biso   1.000  C
  H1469    1.0000 0.93818  0.57070  0.24831  Biso   1.000  H
  H1470    1.0000 0.93818  0.57070  0.24828  Biso   1.000  H
  H1471    1.0000 0.93825  0.57070  0.24831  Biso   1.000  H
  H1472    1.0000 0.93824  0.57070  0.24828  Biso   1.000  H
  C1419    1.0000 0.00179  0.69221  0.27756  Biso   1.000  C
  C1420    1.0000 0.00179  0.69221  0.27754  Biso   1.000  C
  C1421    1.0000 0.00185  0.69221  0.27756  Biso   1.000  C
  C1422    1.0000 0.00185  0.69221  0.27754  Biso   1.000  C
  C1423    1.0000 0.09062  0.79818  0.23605  Biso   1.000  C
  H1473    1.0000 0.08303  0.75497  0.17760  Biso   1.000  H
  C1424    1.0000 0.38790  0.32459  0.08129  Biso   1.000  C
  C1425    1.0000 0.38790  0.32459  0.08126  Biso   1.000  C
  C1426    1.0000 0.45350  0.51387  0.09190  Biso   1.000  C
  C1427    1.0000 0.52313  0.69915  0.10502  Biso   1.000  C
  C1428    1.0000 0.10234  0.31264  0.98756  Biso   1.000  C
  C1429    1.0000 0.10240  0.31264  0.98756  Biso   1.000  C
  C1430    1.0000 0.15291  0.50401  0.00567  Biso   1.000  C
  C1431    1.0000 0.20459  0.69388  0.02090  Biso   1.000  C
  C1432    1.0000 0.96799  0.66806  0.31811  Biso   1.000  C
  C1433    1.0000 0.96799  0.66814  0.31811  Biso   1.000  C
  C1434    1.0000 0.96805  0.66806  0.31811  Biso   1.000  C
  C1435    1.0000 0.96805  0.66814  0.31811  Biso   1.000  C
  C1436    1.0000 0.05849  0.77403  0.27242  Biso   1.000  C
  C1437    1.0000 0.05855  0.77403  0.27242  Biso   1.000  C
  C1438    1.0000 0.14999  0.88484  0.23079  Biso   1.000  C
  C1439    1.0000 0.14999  0.88484  0.23076  Biso   1.000  C
  C1440    1.0000 0.38220  0.23926  0.05298  Biso   1.000  C
  C1441    1.0000 0.38220  0.23934  0.05298  Biso   1.000  C
  C1442    1.0000 0.37031  0.29801  0.12022  Biso   1.000  C
  H1474    1.0000 0.46750  0.49240  0.11801  Biso   1.000  H
  H1475    1.0000 0.46750  0.49240  0.11798  Biso   1.000  H
  H1476    1.0000 0.51589  0.77570  0.09449  Biso   1.000  H
  H1477    1.0000 0.49859  0.69714  0.13139  Biso   1.000  H
  C1443    1.0000 0.61182  0.67600  0.10940  Biso   1.000  C
  H1478    1.0000 0.51595  0.77570  0.09449  Biso   1.000  H
  H1479    1.0000 0.49865  0.69714  0.13139  Biso   1.000  H
  H1480    1.0000 0.10588  0.33712  0.95981  Biso   1.000  H
  H1481    1.0000 0.05035  0.27202  0.99039  Biso   1.000  H
  C1444    1.0000 0.17078  0.23316  0.99624  Biso   1.000  C
  H1482    1.0000 0.10588  0.33712  0.95978  Biso   1.000  H
  H1483    1.0000 0.18867  0.50033  0.98409  Biso   1.000  H
  C1445    1.0000 0.24662  0.77378  0.01461  Biso   1.000  C
  H1484    1.0000 0.94101  0.59418  0.31770  Biso   1.000  H
  C1446    1.0000 0.90794  0.75539  0.33140  Biso   1.000  C
  H1485    1.0000 0.01362  0.66438  0.33739  Biso   1.000  H
  H1486    1.0000 0.07660  0.81590  0.29459  Biso   1.000  H
  C1447    1.0000 0.19851  0.95847  0.22588  Biso   1.000  C
  C1448    1.0000 0.19851  0.95855  0.22588  Biso   1.000  C
  C1449    1.0000 0.36130  0.13112  0.06277  Biso   1.000  C
  H1487    1.0000 0.39300  0.25664  0.02631  Biso   1.000  H
  H1488    1.0000 0.39300  0.25664  0.02628  Biso   1.000  H
  C1450    1.0000 0.34933  0.19062  0.13098  Biso   1.000  C
  H1489    1.0000 0.37303  0.35484  0.13971  Biso   1.000  H
  H1490    1.0000 0.37303  0.35484  0.13968  Biso   1.000  H
  H1491    1.0000 0.63542  0.72815  0.12909  Biso   1.000  H
  H1492    1.0000 0.61929  0.59911  0.11960  Biso   1.000  H
  C1451    1.0000 0.65631  0.68753  0.07247  Biso   1.000  C
  H1493    1.0000 0.61935  0.59911  0.11960  Biso   1.000  H
  H1494    1.0000 0.22274  0.27403  0.99430  Biso   1.000  H
  C1452    1.0000 0.17244  0.13112  0.96840  Biso   1.000  C
  H1495    1.0000 0.22280  0.27403  0.99430  Biso   1.000  H
  C1453    1.0000 0.17250  0.13112  0.96840  Biso   1.000  C
  H1496    1.0000 0.16613  0.20633  0.02361  Biso   1.000  H
  H1497    1.0000 0.16613  0.20633  0.02358  Biso   1.000  H
  C1454    1.0000 0.29733  0.86704  0.00835  Biso   1.000  C
  H1498    1.0000 0.85993  0.75372  0.31349  Biso   1.000  H
  H1499    1.0000 0.93323  0.83010  0.32910  Biso   1.000  H
  C1455    1.0000 0.88041  0.73968  0.37250  Biso   1.000  C
  C1456    1.0000 0.25503  0.04789  0.21912  Biso   1.000  C
  C1457    1.0000 0.25503  0.04789  0.21909  Biso   1.000  C
  C1458    1.0000 0.35503  0.04270  0.03228  Biso   1.000  C
  C1459    1.0000 0.34538  0.10697  0.10240  Biso   1.000  C
  C1460    1.0000 0.34538  0.10697  0.10237  Biso   1.000  C
  C1461    1.0000 0.34544  0.10697  0.10240  Biso   1.000  C
  C1462    1.0000 0.34544  0.10697  0.10237  Biso   1.000  C
  C1463    1.0000 0.32868  0.16087  0.17243  Biso   1.000  C
  C1464    1.0000 0.32874  0.16087  0.17243  Biso   1.000  C
  H1500    1.0000 0.63650  0.63162  0.05351  Biso   1.000  H
  H1501    1.0000 0.71442  0.67600  0.07759  Biso   1.000  H
  H1502    1.0000 0.64748  0.76249  0.06171  Biso   1.000  H
  H1503    1.0000 0.63649  0.63162  0.05348  Biso   1.000  H
  H1504    1.0000 0.64748  0.76249  0.06168  Biso   1.000  H
  H1505    1.0000 0.64754  0.76249  0.06171  Biso   1.000  H
  H1506    1.0000 0.64754  0.76249  0.06168  Biso   1.000  H
  H1507    1.0000 0.17339  0.15686  0.94111  Biso   1.000  H
  H1508    1.0000 0.22128  0.08650  0.97410  Biso   1.000  H
  H1509    1.0000 0.12407  0.08516  0.97239  Biso   1.000  H
  H1510    1.0000 0.17339  0.15686  0.94108  Biso   1.000  H
  H1511    1.0000 0.12407  0.08524  0.97239  Biso   1.000  H
  C1465    1.0000 0.34077  0.87857  0.97401  Biso   1.000  C
  C1466    1.0000 0.30410  0.95153  0.03748  Biso   1.000  C
  H1512    1.0000 0.92769  0.73792  0.39040  Biso   1.000  H
  H1513    1.0000 0.84479  0.80169  0.37970  Biso   1.000  H
  H1514    1.0000 0.85061  0.66906  0.37450  Biso   1.000  H
  H1515    1.0000 0.85061  0.66915  0.37450  Biso   1.000  H
  H1516    1.0000 0.92775  0.73792  0.39040  Biso   1.000  H
  H1517    1.0000 0.84485  0.80169  0.37970  Biso   1.000  H
  C1467    1.0000 0.29062  0.10714  0.24946  Biso   1.000  C
  C1468    1.0000 0.27523  0.07513  0.18007  Biso   1.000  C
  C1469    1.0000 0.29062  0.10714  0.24943  Biso   1.000  C
  C1470    1.0000 0.27523  0.07513  0.18005  Biso   1.000  C
  C1471    1.0000 0.39936  0.04931  0.99732  Biso   1.000  C
  H1518    1.0000 0.33199  0.03276  0.10981  Biso   1.000  H
  H1519    1.0000 0.33199  0.03276  0.10978  Biso   1.000  H
  H1520    1.0000 0.33199  0.03284  0.10981  Biso   1.000  H
  H1521    1.0000 0.33199  0.03284  0.10978  Biso   1.000  H
  H1522    1.0000 0.33205  0.03276  0.10981  Biso   1.000  H
  H1523    1.0000 0.33205  0.03284  0.10981  Biso   1.000  H
  C1472    1.0000 0.36340  0.21829  0.20389  Biso   1.000  C
  H1524    1.0000 0.33476  0.82350  0.95411  Biso   1.000  H
  C1473    1.0000 0.39264  0.96833  0.96784  Biso   1.000  C
  H1525    1.0000 0.33476  0.82350  0.95408  Biso   1.000  H
  C1474    1.0000 0.39270  0.96833  0.96784  Biso   1.000  C
  H1526    1.0000 0.27343  0.94568  0.06080  Biso   1.000  H
  H1527    1.0000 0.27337  0.94568  0.06080  Biso   1.000  H
  C1475    1.0000 0.34563  0.19288  0.24276  Biso   1.000  C
  H1528    1.0000 0.27719  0.08884  0.27571  Biso   1.000  H
  H1529    1.0000 0.27719  0.08884  0.27568  Biso   1.000  H
  H1530    1.0000 0.27725  0.08884  0.27571  Biso   1.000  H
  H1531    1.0000 0.27725  0.08884  0.27568  Biso   1.000  H
  H1532    1.0000 0.25169  0.03393  0.15891  Biso   1.000  H
  H1533    1.0000 0.25175  0.03393  0.15891  Biso   1.000  H
  H1534    1.0000 0.43487  0.11081  0.99371  Biso   1.000  H
  H1535    1.0000 0.43486  0.11081  0.99368  Biso   1.000  H
  H1536    1.0000 0.40062  0.27703  0.19880  Biso   1.000  H
  C1476    1.0000 0.44134  0.97560  0.93144  Biso   1.000  C
  C1477    1.0000 0.44140  0.97560  0.93144  Biso   1.000  C
  C1478    1.0000 0.39403  0.24260  0.27639  Biso   1.000  C
  C1479    1.0000 0.37309  0.27603  0.27480  Biso   1.000  C
  H1537    1.0000 0.47355  0.90623  0.92900  Biso   1.000  H
  C1480    1.0000 0.39267  0.99231  0.89366  Biso   1.000  C
  H1538    1.0000 0.48006  0.03836  0.93441  Biso   1.000  H
  H1539    1.0000 0.48006  0.03836  0.93438  Biso   1.000  H
  H1540    1.0000 0.48006  0.03844  0.93441  Biso   1.000  H
  H1541    1.0000 0.48006  0.03844  0.93438  Biso   1.000  H
  H1542    1.0000 0.36384  0.22932  0.30079  Biso   1.000  H
  H1543    1.0000 0.39644  0.32450  0.27239  Biso   1.000  H
  C1481    1.0000 0.47629  0.20257  0.28259  Biso   1.000  C
  C1482    1.0000 0.47635  0.20257  0.28259  Biso   1.000  C
  H1544    1.0000 0.34509  0.25940  0.29961  Biso   1.000  H
  C1483    1.0000 0.46371  0.26500  0.28080  Biso   1.000  C
  H1545    1.0000 0.35919  0.35308  0.26669  Biso   1.000  H
  H1546    1.0000 0.35429  0.92930  0.89019  Biso   1.000  H
  C1484    1.0000 0.44619  0.99983  0.85770  Biso   1.000  C
  H1547    1.0000 0.35423  0.92930  0.89019  Biso   1.000  H
  C1485    1.0000 0.44618  0.99983  0.85768  Biso   1.000  C
  H1548    1.0000 0.36044  0.06184  0.89569  Biso   1.000  H
  H1549    1.0000 0.36050  0.06184  0.89569  Biso   1.000  H
  H1550    1.0000 0.50783  0.21528  0.25851  Biso   1.000  H
  H1551    1.0000 0.50251  0.24561  0.30420  Biso   1.000  H
  C1486    1.0000 0.47782  0.07780  0.29291  Biso   1.000  C
  H1552    1.0000 0.50783  0.21528  0.25848  Biso   1.000  H
  C1487    1.0000 0.47782  0.07780  0.29288  Biso   1.000  C
  H1553    1.0000 0.49161  0.29818  0.25810  Biso   1.000  H
  H1554    1.0000 0.48061  0.30704  0.30470  Biso   1.000  H
  C1488    1.0000 0.48901  0.14299  0.28521  Biso   1.000  C
  H1555    1.0000 0.48038  0.93298  0.85629  Biso   1.000  H
  H1556    1.0000 0.41186  0.00476  0.83389  Biso   1.000  H
  H1557    1.0000 0.48068  0.06644  0.85970  Biso   1.000  H
  H1558    1.0000 0.41186  0.00485  0.83389  Biso   1.000  H
  H1559    1.0000 0.44044  0.03744  0.27530  Biso   1.000  H
  H1560    1.0000 0.53289  0.04864  0.28979  Biso   1.000  H
  H1561    1.0000 0.46114  0.06761  0.32019  Biso   1.000  H
  H1562    1.0000 0.44038  0.03744  0.27530  Biso   1.000  H
  H1563    1.0000 0.53296  0.04864  0.28979  Biso   1.000  H
  H1564    1.0000 0.51701  0.13279  0.31049  Biso   1.000  H
  H1565    1.0000 0.44022  0.09577  0.28421  Biso   1.000  H
  H1566    1.0000 0.52484  0.12276  0.26381  Biso   1.000  H
  C1489    1.0000 0.60739  0.00769  0.10631  Biso   1.000  C
  C1490    1.0000 0.55872  0.02440  0.06856  Biso   1.000  C
  C1491    1.0000 0.55872  0.02440  0.06853  Biso   1.000  C
  H1567    1.0000 0.63962  0.93816  0.10431  Biso   1.000  H
  H1568    1.0000 0.63962  0.93816  0.10428  Biso   1.000  H
  H1569    1.0000 0.63962  0.93824  0.10431  Biso   1.000  H
  H1570    1.0000 0.63962  0.93824  0.10428  Biso   1.000  H
  H1571    1.0000 0.64577  0.07070  0.10981  Biso   1.000  H
  C1492    1.0000 0.55388  0.00017  0.14230  Biso   1.000  C
  H1572    1.0000 0.64577  0.07070  0.10978  Biso   1.000  H
  H1573    1.0000 0.64583  0.07070  0.10981  Biso   1.000  H
  C1493    1.0000 0.55394  0.00017  0.14230  Biso   1.000  C
  H1574    1.0000 0.64583  0.07070  0.10978  Biso   1.000  H
  C1494    1.0000 0.60742  0.03167  0.03216  Biso   1.000  C
  C1495    1.0000 0.60736  0.03167  0.03216  Biso   1.000  C
  H1575    1.0000 0.52000  0.96164  0.06559  Biso   1.000  H
  H1576    1.0000 0.52651  0.09377  0.07100  Biso   1.000  H
  C1496    1.0000 0.60739  0.00769  0.10634  Biso   1.000  C
  H1577    1.0000 0.52651  0.09385  0.07100  Biso   1.000  H
  H1578    1.0000 0.58820  0.99524  0.16611  Biso   1.000  H
  H1579    1.0000 0.51938  0.93356  0.14030  Biso   1.000  H
  H1580    1.0000 0.58820  0.99524  0.16608  Biso   1.000  H
  H1581    1.0000 0.51938  0.93365  0.14030  Biso   1.000  H
  H1582    1.0000 0.51944  0.93356  0.14030  Biso   1.000  H
  H1583    1.0000 0.51944  0.93365  0.14030  Biso   1.000  H
  H1584    1.0000 0.51968  0.06702  0.14371  Biso   1.000  H
  H1585    1.0000 0.51968  0.06702  0.14368  Biso   1.000  H
  C1497    1.0000 0.60070  0.95069  0.00268  Biso   1.000  C
  C1498    1.0000 0.65929  0.12143  0.02599  Biso   1.000  C
  C1499    1.0000 0.65929  0.12143  0.02596  Biso   1.000  C
  C1500    1.0000 0.64503  0.95730  0.96772  Biso   1.000  C
  C1501    1.0000 0.64509  0.95730  0.96772  Biso   1.000  C
  H1586    1.0000 0.56520  0.88919  0.00629  Biso   1.000  H
  C1502    1.0000 0.70273  0.13296  0.99165  Biso   1.000  C
  C1503    1.0000 0.70273  0.13304  0.99165  Biso   1.000  C
  C1504    1.0000 0.70279  0.13296  0.99165  Biso   1.000  C
  C1505    1.0000 0.70279  0.13304  0.99165  Biso   1.000  C
  H1587    1.0000 0.66530  0.17650  0.04589  Biso   1.000  H
  C1506    1.0000 0.63876  0.86888  0.93723  Biso   1.000  C
  C1507    1.0000 0.69596  0.04847  0.96252  Biso   1.000  C
  C1508    1.0000 0.75344  0.22622  0.98539  Biso   1.000  C
  C1509    1.0000 0.75344  0.22622  0.98536  Biso   1.000  C
  C1510    1.0000 0.61786  0.76074  0.94702  Biso   1.000  C
  C1511    1.0000 0.61786  0.76074  0.94699  Biso   1.000  C
  C1512    1.0000 0.65468  0.89303  0.89760  Biso   1.000  C
  C1513    1.0000 0.65462  0.89303  0.89760  Biso   1.000  C
  H1588    1.0000 0.72663  0.05432  0.93920  Biso   1.000  H
  H1589    1.0000 0.72669  0.05432  0.93920  Biso   1.000  H
  C1514    1.0000 0.79547  0.30612  0.97910  Biso   1.000  C
  C1515    1.0000 0.79547  0.30612  0.97907  Biso   1.000  C
  C1516    1.0000 0.61216  0.67541  0.91871  Biso   1.000  C
  H1590    1.0000 0.60706  0.74336  0.97369  Biso   1.000  H
  H1591    1.0000 0.60706  0.74344  0.97369  Biso   1.000  H
  C1517    1.0000 0.65073  0.80938  0.86902  Biso   1.000  C
  C1518    1.0000 0.65079  0.80938  0.86902  Biso   1.000  C
  H1592    1.0000 0.66807  0.96724  0.89019  Biso   1.000  H
  C1519    1.0000 0.84756  0.40130  0.97054  Biso   1.000  C
  C1520    1.0000 0.59017  0.56034  0.93182  Biso   1.000  C
  C1521    1.0000 0.62975  0.70199  0.87978  Biso   1.000  C
  C1522    1.0000 0.67138  0.83913  0.82757  Biso   1.000  C
  C1523    1.0000 0.67132  0.83913  0.82757  Biso   1.000  C
  C1524    1.0000 0.84715  0.49599  0.99433  Biso   1.000  C
  C1525    1.0000 0.89757  0.39629  0.93838  Biso   1.000  C
  C1526    1.0000 0.61115  0.52641  0.96931  Biso   1.000  C
  C1527    1.0000 0.54656  0.48613  0.90810  Biso   1.000  C
  H1593    1.0000 0.62703  0.64516  0.86029  Biso   1.000  H
  H1594    1.0000 0.62703  0.64524  0.86029  Biso   1.000  H
  H1595    1.0000 0.62709  0.64516  0.86029  Biso   1.000  H
  H1596    1.0000 0.62709  0.64524  0.86029  Biso   1.000  H
  C1528    1.0000 0.63666  0.78171  0.79611  Biso   1.000  C
  C1529    1.0000 0.72483  0.92487  0.81993  Biso   1.000  C
  C1530    1.0000 0.63666  0.78171  0.79608  Biso   1.000  C
  C1531    1.0000 0.89915  0.58583  0.98662  Biso   1.000  C
  H1597    1.0000 0.81139  0.49967  0.01591  Biso   1.000  H
  H1598    1.0000 0.81139  0.49975  0.01591  Biso   1.000  H
  C1532    1.0000 0.94807  0.48680  0.92959  Biso   1.000  C
  H1599    1.0000 0.89765  0.33161  0.92221  Biso   1.000  H
  C1533    1.0000 0.94807  0.48680  0.92956  Biso   1.000  C
  H1600    1.0000 0.89765  0.33161  0.92218  Biso   1.000  H
  C1534    1.0000 0.58656  0.42278  0.98427  Biso   1.000  C
  H1601    1.0000 0.64313  0.57446  0.98551  Biso   1.000  H
  H1602    1.0000 0.64313  0.57454  0.98551  Biso   1.000  H
  H1603    1.0000 0.64319  0.57446  0.98551  Biso   1.000  H
  H1604    1.0000 0.64319  0.57454  0.98551  Biso   1.000  H
  C1535    1.0000 0.52264  0.38141  0.92150  Biso   1.000  C
  H1605    1.0000 0.53256  0.50760  0.88199  Biso   1.000  H
  H1606    1.0000 0.59944  0.72297  0.80120  Biso   1.000  H
  C1536    1.0000 0.65443  0.80712  0.75724  Biso   1.000  C
  C1537    1.0000 0.65449  0.80712  0.75724  Biso   1.000  C
  C1538    1.0000 0.74503  0.95211  0.78088  Biso   1.000  C
  H1607    1.0000 0.74837  0.96607  0.84109  Biso   1.000  H
  C1539    1.0000 0.74509  0.95211  0.78088  Biso   1.000  C
  C1540    1.0000 0.94884  0.57973  0.95408  Biso   1.000  C
  C1541    1.0000 0.89772  0.68736  0.01244  Biso   1.000  C
  C1542    1.0000 0.89772  0.68745  0.01244  Biso   1.000  C
  C1543    1.0000 0.00107  0.47969  0.89425  Biso   1.000  C
  C1544    1.0000 0.60712  0.39813  0.02378  Biso   1.000  C
  C1545    1.0000 0.54158  0.35141  0.95955  Biso   1.000  C
  C1546    1.0000 0.47693  0.30085  0.89498  Biso   1.000  C
  C1547    1.0000 0.47693  0.30085  0.89495  Biso   1.000  C
  C1548    1.0000 0.47693  0.30094  0.89498  Biso   1.000  C
  C1549    1.0000 0.47693  0.30094  0.89495  Biso   1.000  C
  C1550    1.0000 0.47699  0.30085  0.89498  Biso   1.000  C
  C1551    1.0000 0.47699  0.30085  0.89495  Biso   1.000  C
  C1552    1.0000 0.47699  0.30094  0.89498  Biso   1.000  C
  C1553    1.0000 0.47699  0.30094  0.89495  Biso   1.000  C
  C1554    1.0000 0.70944  0.89286  0.75054  Biso   1.000  C
  C1555    1.0000 0.60603  0.75740  0.72361  Biso   1.000  C
  C1556    1.0000 0.60603  0.75740  0.72358  Biso   1.000  C
  C1557    1.0000 0.70944  0.89295  0.75054  Biso   1.000  C
  C1558    1.0000 0.60609  0.75740  0.72361  Biso   1.000  C
  C1559    1.0000 0.62697  0.72397  0.72520  Biso   1.000  C
  C1560    1.0000 0.80155  0.04153  0.77412  Biso   1.000  C
  H1608    1.0000 0.98404  0.64031  0.94849  Biso   1.000  H
  H1609    1.0000 0.98410  0.64031  0.94849  Biso   1.000  H
  H1610    1.0000 0.89418  0.66288  0.04019  Biso   1.000  H
  H1611    1.0000 0.94971  0.72798  0.00961  Biso   1.000  H
  C1561    1.0000 0.82928  0.76684  0.00376  Biso   1.000  C
  H1612    1.0000 0.94971  0.72798  0.00958  Biso   1.000  H
  H1613    1.0000 0.89424  0.66288  0.04019  Biso   1.000  H
  C1562    1.0000 0.97476  0.42378  0.86047  Biso   1.000  C
  C1563    1.0000 0.07796  0.52724  0.89484  Biso   1.000  C
  C1564    1.0000 0.62979  0.38818  0.05783  Biso   1.000  C
  H1614    1.0000 0.52384  0.28121  0.96931  Biso   1.000  H
  H1615    1.0000 0.48417  0.22430  0.90551  Biso   1.000  H
  H1616    1.0000 0.50147  0.30286  0.86861  Biso   1.000  H
  C1565    1.0000 0.38825  0.32400  0.89060  Biso   1.000  C
  H1617    1.0000 0.48417  0.22430  0.90548  Biso   1.000  H
  H1618    1.0000 0.50147  0.30286  0.86858  Biso   1.000  H
  H1619    1.0000 0.50147  0.30294  0.86861  Biso   1.000  H
  H1620    1.0000 0.50147  0.30294  0.86858  Biso   1.000  H
  H1621    1.0000 0.72287  0.91116  0.72429  Biso   1.000  H
  H1622    1.0000 0.72287  0.91125  0.72429  Biso   1.000  H
  H1623    1.0000 0.63623  0.77068  0.69921  Biso   1.000  H
  H1624    1.0000 0.60362  0.67550  0.72761  Biso   1.000  H
  C1566    1.0000 0.52377  0.79743  0.71741  Biso   1.000  C
  H1625    1.0000 0.63622  0.77068  0.69918  Biso   1.000  H
  H1626    1.0000 0.60362  0.67550  0.72758  Biso   1.000  H
  C1567    1.0000 0.52371  0.79743  0.71738  Biso   1.000  C
  H1627    1.0000 0.63629  0.77068  0.69921  Biso   1.000  H
  H1628    1.0000 0.60368  0.67550  0.72761  Biso   1.000  H
  H1629    1.0000 0.60368  0.67550  0.72758  Biso   1.000  H
  C1568    1.0000 0.52377  0.79743  0.71738  Biso   1.000  C
  H1630    1.0000 0.65497  0.74060  0.70039  Biso   1.000  H
  C1569    1.0000 0.53635  0.73500  0.71920  Biso   1.000  C
  H1631    1.0000 0.64087  0.64692  0.73328  Biso   1.000  H
  C1570    1.0000 0.85007  0.11516  0.76921  Biso   1.000  C
  C1571    1.0000 0.85007  0.11524  0.76921  Biso   1.000  C
  H1632    1.0000 0.83393  0.79367  0.97639  Biso   1.000  H
  H1633    1.0000 0.83393  0.79375  0.97639  Biso   1.000  H
  H1634    1.0000 0.83399  0.79367  0.97639  Biso   1.000  H
  H1635    1.0000 0.83399  0.79375  0.97639  Biso   1.000  H
  H1636    1.0000 0.77732  0.72597  0.00570  Biso   1.000  H
  C1572    1.0000 0.82762  0.86888  0.03160  Biso   1.000  C
  C1573    1.0000 0.02433  0.41142  0.82783  Biso   1.000  C
  C1574    1.0000 0.02433  0.41142  0.82780  Biso   1.000  C
  C1575    1.0000 0.02439  0.41142  0.82783  Biso   1.000  C
  C1576    1.0000 0.02439  0.41142  0.82780  Biso   1.000  C
  H1637    1.0000 0.92154  0.39320  0.85959  Biso   1.000  H
  C1577    1.0000 0.12857  0.51722  0.86256  Biso   1.000  C
  H1638    1.0000 0.09639  0.56702  0.91750  Biso   1.000  H
  H1639    1.0000 0.09633  0.56702  0.91750  Biso   1.000  H
  C1578    1.0000 0.66869  0.38166  0.09570  Biso   1.000  C
  H1640    1.0000 0.36464  0.27185  0.87091  Biso   1.000  H
  H1641    1.0000 0.38077  0.40089  0.88040  Biso   1.000  H
  C1579    1.0000 0.34375  0.31247  0.92753  Biso   1.000  C
  H1642    1.0000 0.36464  0.27194  0.87091  Biso   1.000  H
  H1643    1.0000 0.49223  0.78472  0.74149  Biso   1.000  H
  H1644    1.0000 0.49755  0.75439  0.69580  Biso   1.000  H
  C1580    1.0000 0.52224  0.92220  0.70709  Biso   1.000  C
  H1645    1.0000 0.50845  0.70182  0.74190  Biso   1.000  H
  H1646    1.0000 0.51945  0.69305  0.69530  Biso   1.000  H
  C1581    1.0000 0.51105  0.85701  0.71479  Biso   1.000  C
  C1582    1.0000 0.90944  0.20182  0.76395  Biso   1.000  C
  C1583    1.0000 0.90944  0.20182  0.76392  Biso   1.000  C
  H1647    1.0000 0.82667  0.84314  0.05889  Biso   1.000  H
  H1648    1.0000 0.77878  0.91350  0.02590  Biso   1.000  H
  H1649    1.0000 0.87599  0.91484  0.02761  Biso   1.000  H
  H1650    1.0000 0.82673  0.84314  0.05889  Biso   1.000  H
  C1584    1.0000 0.99496  0.34707  0.79320  Biso   1.000  C
  C1585    1.0000 0.99496  0.34715  0.79320  Biso   1.000  C
  C1586    1.0000 0.10108  0.45922  0.82951  Biso   1.000  C
  C1587    1.0000 0.21239  0.56752  0.86497  Biso   1.000  C
  C1588    1.0000 0.21233  0.56752  0.86497  Biso   1.000  C
  C1589    1.0000 0.63558  0.33169  0.12848  Biso   1.000  C
  C1590    1.0000 0.63558  0.33169  0.12845  Biso   1.000  C
  C1591    1.0000 0.74601  0.43105  0.09964  Biso   1.000  C
  C1592    1.0000 0.74601  0.43114  0.09964  Biso   1.000  C
  H1651    1.0000 0.36356  0.36838  0.94649  Biso   1.000  H
  H1652    1.0000 0.28564  0.32400  0.92241  Biso   1.000  H
  H1653    1.0000 0.35258  0.23751  0.93829  Biso   1.000  H
  H1654    1.0000 0.28564  0.32400  0.92238  Biso   1.000  H
  H1655    1.0000 0.35252  0.23751  0.93829  Biso   1.000  H
  H1656    1.0000 0.55962  0.96256  0.72470  Biso   1.000  H
  H1657    1.0000 0.46717  0.95136  0.71021  Biso   1.000  H
  H1658    1.0000 0.53892  0.93239  0.67981  Biso   1.000  H
  H1659    1.0000 0.55962  0.96264  0.72470  Biso   1.000  H
  H1660    1.0000 0.46717  0.95145  0.71021  Biso   1.000  H
  H1661    1.0000 0.55968  0.96256  0.72470  Biso   1.000  H
  H1662    1.0000 0.53898  0.93239  0.67981  Biso   1.000  H
  H1663    1.0000 0.55968  0.96264  0.72470  Biso   1.000  H
  H1664    1.0000 0.48305  0.86721  0.68948  Biso   1.000  H
  H1665    1.0000 0.55984  0.90423  0.71579  Biso   1.000  H
  H1666    1.0000 0.47528  0.87724  0.73619  Biso   1.000  H
  C1593    1.0000 0.94157  0.22597  0.72758  Biso   1.000  C
  C1594    1.0000 0.93742  0.26224  0.79714  Biso   1.000  C
  C1595    1.0000 0.94157  0.22597  0.72755  Biso   1.000  C
  C1596    1.0000 0.93748  0.26224  0.79714  Biso   1.000  C
  C1597    1.0000 0.02405  0.37022  0.75510  Biso   1.000  C
  H1667    1.0000 0.13556  0.45228  0.80761  Biso   1.000  H
  H1668    1.0000 0.13556  0.45228  0.80758  Biso   1.000  H
  C1598    1.0000 0.25405  0.56895  0.90036  Biso   1.000  C
  C1599    1.0000 0.24813  0.61600  0.83286  Biso   1.000  C
  C1600    1.0000 0.25405  0.56895  0.90033  Biso   1.000  C
  C1601    1.0000 0.24820  0.61600  0.83286  Biso   1.000  C
  C1602    1.0000 0.67751  0.33119  0.16449  Biso   1.000  C
  C1603    1.0000 0.67751  0.33119  0.16446  Biso   1.000  C
  H1669    1.0000 0.58372  0.29726  0.12639  Biso   1.000  H
  H1670    1.0000 0.58372  0.29734  0.12639  Biso   1.000  H
  C1604    1.0000 0.78767  0.43248  0.13503  Biso   1.000  C
  C1605    1.0000 0.78773  0.43248  0.13503  Biso   1.000  C
  H1671    1.0000 0.76991  0.46432  0.07729  Biso   1.000  H
  H1672    1.0000 0.92346  0.18410  0.70541  Biso   1.000  H
  C1606    1.0000 0.99827  0.30779  0.72244  Biso   1.000  C
  H1673    1.0000 0.92346  0.18410  0.70538  Biso   1.000  H
  H1674    1.0000 0.91703  0.24503  0.82240  Biso   1.000  H
  H1675    1.0000 0.91709  0.24503  0.82240  Biso   1.000  H
  H1676    1.0000 0.06188  0.42930  0.75169  Biso   1.000  H
  C1607    1.0000 0.33137  0.61834  0.90430  Biso   1.000  C
  C1608    1.0000 0.33137  0.61834  0.90427  Biso   1.000  C
  H1677    1.0000 0.23015  0.53568  0.92271  Biso   1.000  H
  H1678    1.0000 0.23015  0.53568  0.92268  Biso   1.000  H
  C1609    1.0000 0.32255  0.66881  0.83551  Biso   1.000  C
  H1679    1.0000 0.22064  0.61307  0.80811  Biso   1.000  H
  H1680    1.0000 0.22064  0.61307  0.80808  Biso   1.000  H
  H1681    1.0000 0.22064  0.61315  0.80811  Biso   1.000  H
  H1682    1.0000 0.22064  0.61315  0.80808  Biso   1.000  H
  C1610    1.0000 0.64419  0.27018  0.19971  Biso   1.000  C
  C1611    1.0000 0.64419  0.27018  0.19968  Biso   1.000  C
  C1612    1.0000 0.75193  0.38400  0.16714  Biso   1.000  C
  C1613    1.0000 0.75193  0.38400  0.16711  Biso   1.000  C
  C1614    1.0000 0.87149  0.48278  0.13744  Biso   1.000  C
  C1615    1.0000 0.87149  0.48278  0.13742  Biso   1.000  C
  C1616    1.0000 0.03207  0.33194  0.68189  Biso   1.000  C
  C1617    1.0000 0.03207  0.33194  0.68186  Biso   1.000  C
  C1618    1.0000 0.37027  0.61182  0.94217  Biso   1.000  C
  C1619    1.0000 0.37027  0.61182  0.94214  Biso   1.000  C
  C1620    1.0000 0.36448  0.66831  0.87152  Biso   1.000  C
  C1621    1.0000 0.35587  0.72982  0.80029  Biso   1.000  C
  C1622    1.0000 0.70188  0.16179  0.21009  Biso   1.000  C
  C1623    1.0000 0.70194  0.16179  0.21009  Biso   1.000  C
  H1683    1.0000 0.58799  0.24503  0.19389  Biso   1.000  H
  H1684    1.0000 0.64289  0.32116  0.22259  Biso   1.000  H
  H1685    1.0000 0.64289  0.32124  0.22259  Biso   1.000  H
  H1686    1.0000 0.77942  0.38693  0.19189  Biso   1.000  H
  C1624    1.0000 0.92210  0.47276  0.10516  Biso   1.000  C
  C1625    1.0000 0.89898  0.54078  0.17049  Biso   1.000  C
  C1626    1.0000 0.92210  0.47284  0.10516  Biso   1.000  C
  C1627    1.0000 0.89904  0.54078  0.17049  Biso   1.000  C
  H1687    1.0000 0.98644  0.33562  0.66261  Biso   1.000  H
  H1688    1.0000 0.98644  0.33562  0.66258  Biso   1.000  H
  H1689    1.0000 0.05905  0.40582  0.68230  Biso   1.000  H
  C1628    1.0000 0.09212  0.24461  0.66860  Biso   1.000  C
  C1629    1.0000 0.09218  0.24461  0.66860  Biso   1.000  C
  C1630    1.0000 0.39294  0.60187  0.97622  Biso   1.000  C
  C1631    1.0000 0.39300  0.60187  0.97622  Biso   1.000  C
  H1690    1.0000 0.41635  0.70274  0.87361  Biso   1.000  H
  H1691    1.0000 0.41634  0.70274  0.87358  Biso   1.000  H
  H1692    1.0000 0.35717  0.67884  0.77741  Biso   1.000  H
  H1693    1.0000 0.41207  0.75497  0.80611  Biso   1.000  H
  C1632    1.0000 0.29818  0.83821  0.78991  Biso   1.000  C
  H1694    1.0000 0.35717  0.67884  0.77738  Biso   1.000  H
  H1695    1.0000 0.41207  0.75497  0.80608  Biso   1.000  H
  C1633    1.0000 0.29818  0.83821  0.78988  Biso   1.000  C
  H1696    1.0000 0.41207  0.75506  0.80611  Biso   1.000  H
  H1697    1.0000 0.41207  0.75506  0.80608  Biso   1.000  H
  C1634    1.0000 0.67162  0.10070  0.24599  Biso   1.000  C
  H1698    1.0000 0.75840  0.18720  0.21500  Biso   1.000  H
  H1699    1.0000 0.70190  0.11023  0.18739  Biso   1.000  H
  H1700    1.0000 0.90367  0.43298  0.08250  Biso   1.000  H
  C1635    1.0000 0.99899  0.52031  0.10575  Biso   1.000  C
  C1636    1.0000 0.99899  0.52031  0.10572  Biso   1.000  C
  H1701    1.0000 0.90373  0.43298  0.08250  Biso   1.000  H
  C1637    1.0000 0.97573  0.58858  0.17217  Biso   1.000  C
  H1702    1.0000 0.86450  0.54772  0.19239  Biso   1.000  H
  H1703    1.0000 0.14013  0.24628  0.68651  Biso   1.000  H
  H1704    1.0000 0.06683  0.16990  0.67090  Biso   1.000  H
  C1638    1.0000 0.11965  0.26032  0.62750  Biso   1.000  C
  H1705    1.0000 0.14013  0.24628  0.68648  Biso   1.000  H
  H1706    1.0000 0.06689  0.16990  0.67090  Biso   1.000  H
  C1639    1.0000 0.41351  0.57722  0.01573  Biso   1.000  C
  H1707    1.0000 0.24166  0.81280  0.78500  Biso   1.000  H
  H1708    1.0000 0.29816  0.88977  0.81261  Biso   1.000  H
  C1640    1.0000 0.32845  0.89930  0.75401  Biso   1.000  C
  C1641    1.0000 0.32844  0.89930  0.75398  Biso   1.000  C
  H1709    1.0000 0.29816  0.88985  0.81261  Biso   1.000  H
  H1710    1.0000 0.68821  0.14157  0.26980  Biso   1.000  H
  H1711    1.0000 0.61218  0.09560  0.24461  Biso   1.000  H
  H1712    1.0000 0.69490  0.02532  0.24681  Biso   1.000  H
  H1713    1.0000 0.61218  0.09560  0.24458  Biso   1.000  H
  H1714    1.0000 0.69490  0.02532  0.24678  Biso   1.000  H
  H1715    1.0000 0.61225  0.09560  0.24461  Biso   1.000  H
  C1642    1.0000 0.02530  0.57622  0.13953  Biso   1.000  C
  C1643    1.0000 0.05199  0.51320  0.07041  Biso   1.000  C
  C1644    1.0000 0.00510  0.65293  0.20680  Biso   1.000  C
  C1645    1.0000 0.00510  0.65293  0.20677  Biso   1.000  C
  H1716    1.0000 0.07237  0.26208  0.60960  Biso   1.000  H
  H1717    1.0000 0.15527  0.19831  0.62030  Biso   1.000  H
  H1718    1.0000 0.14945  0.33094  0.62550  Biso   1.000  H
  C1646    1.0000 0.38891  0.47359  0.03069  Biso   1.000  C
  C1647    1.0000 0.38891  0.47359  0.03066  Biso   1.000  C
  C1648    1.0000 0.45849  0.64859  0.04045  Biso   1.000  C
  C1649    1.0000 0.45855  0.64859  0.04045  Biso   1.000  C
  H1719    1.0000 0.38788  0.90440  0.75539  Biso   1.000  H
  H1720    1.0000 0.30516  0.97468  0.75319  Biso   1.000  H
  H1721    1.0000 0.31185  0.85843  0.73020  Biso   1.000  H
  H1722    1.0000 0.07852  0.60680  0.14041  Biso   1.000  H
  H1723    1.0000 0.07852  0.60680  0.14038  Biso   1.000  H
  C1650    1.0000 0.05122  0.42027  0.04592  Biso   1.000  C
  C1651    1.0000 0.10249  0.60371  0.06162  Biso   1.000  C
  C1652    1.0000 0.10249  0.60371  0.06159  Biso   1.000  C
  C1653    1.0000 0.97601  0.62978  0.24490  Biso   1.000  C
  C1654    1.0000 0.06264  0.73776  0.20286  Biso   1.000  C
  C1655    1.0000 0.06258  0.73776  0.20286  Biso   1.000  C
  C1656    1.0000 0.06264  0.73784  0.20286  Biso   1.000  C
  C1657    1.0000 0.06258  0.73784  0.20286  Biso   1.000  C
  C1658    1.0000 0.40989  0.43966  0.06818  Biso   1.000  C
  C1659    1.0000 0.40989  0.43966  0.06815  Biso   1.000  C
  C1660    1.0000 0.40989  0.43975  0.06818  Biso   1.000  C
  C1661    1.0000 0.40989  0.43975  0.06815  Biso   1.000  C
  H1724    1.0000 0.35693  0.42554  0.01449  Biso   1.000  H
  H1725    1.0000 0.35687  0.42554  0.01449  Biso   1.000  H
  C1662    1.0000 0.47742  0.61859  0.07850  Biso   1.000  C
  H1726    1.0000 0.47622  0.71879  0.03069  Biso   1.000  H
  H1727    1.0000 0.01602  0.35969  0.05151  Biso   1.000  H
  C1663    1.0000 0.10091  0.41417  0.01338  Biso   1.000  C
  H1728    1.0000 0.01602  0.35969  0.05148  Biso   1.000  H
  C1664    1.0000 0.10091  0.41417  0.01335  Biso   1.000  C
  C1665    1.0000 0.15250  0.59870  0.02946  Biso   1.000  C
  H1729    1.0000 0.10241  0.66839  0.07779  Biso   1.000  H
  C1666    1.0000 0.15250  0.59870  0.02943  Biso   1.000  C
  H1730    1.0000 0.93818  0.57070  0.24831  Biso   1.000  H
  H1731    1.0000 0.93818  0.57070  0.24828  Biso   1.000  H
  H1732    1.0000 0.93825  0.57070  0.24831  Biso   1.000  H
  H1733    1.0000 0.93824  0.57070  0.24828  Biso   1.000  H
  C1667    1.0000 0.00179  0.69221  0.27756  Biso   1.000  C
  C1668    1.0000 0.00179  0.69221  0.27754  Biso   1.000  C
  C1669    1.0000 0.00185  0.69221  0.27756  Biso   1.000  C
  C1670    1.0000 0.00185  0.69221  0.27754  Biso   1.000  C
  C1671    1.0000 0.09062  0.79818  0.23605  Biso   1.000  C
  H1734    1.0000 0.08303  0.75497  0.17760  Biso   1.000  H
  C1672    1.0000 0.38790  0.32459  0.08129  Biso   1.000  C
  C1673    1.0000 0.38790  0.32459  0.08126  Biso   1.000  C
  C1674    1.0000 0.45350  0.51387  0.09190  Biso   1.000  C
  C1675    1.0000 0.52313  0.69915  0.10502  Biso   1.000  C
  C1676    1.0000 0.10234  0.31264  0.98756  Biso   1.000  C
  C1677    1.0000 0.10240  0.31264  0.98756  Biso   1.000  C
  C1678    1.0000 0.15291  0.50401  0.00567  Biso   1.000  C
  C1679    1.0000 0.20459  0.69388  0.02090  Biso   1.000  C
  C1680    1.0000 0.96799  0.66806  0.31811  Biso   1.000  C
  C1681    1.0000 0.96799  0.66814  0.31811  Biso   1.000  C
  C1682    1.0000 0.96805  0.66806  0.31811  Biso   1.000  C
  C1683    1.0000 0.96805  0.66814  0.31811  Biso   1.000  C
  C1684    1.0000 0.05849  0.77403  0.27242  Biso   1.000  C
  C1685    1.0000 0.05855  0.77403  0.27242  Biso   1.000  C
  C1686    1.0000 0.14999  0.88484  0.23079  Biso   1.000  C
  C1687    1.0000 0.14999  0.88484  0.23076  Biso   1.000  C
  C1688    1.0000 0.38220  0.23926  0.05298  Biso   1.000  C
  C1689    1.0000 0.38220  0.23934  0.05298  Biso   1.000  C
  C1690    1.0000 0.37031  0.29801  0.12022  Biso   1.000  C
  H1735    1.0000 0.46750  0.49240  0.11801  Biso   1.000  H
  H1736    1.0000 0.46750  0.49240  0.11798  Biso   1.000  H
  H1737    1.0000 0.51589  0.77570  0.09449  Biso   1.000  H
  H1738    1.0000 0.49859  0.69714  0.13139  Biso   1.000  H
  C1691    1.0000 0.61182  0.67600  0.10940  Biso   1.000  C
  H1739    1.0000 0.51595  0.77570  0.09449  Biso   1.000  H
  H1740    1.0000 0.49865  0.69714  0.13139  Biso   1.000  H
  H1741    1.0000 0.10588  0.33712  0.95981  Biso   1.000  H
  H1742    1.0000 0.05035  0.27202  0.99039  Biso   1.000  H
  C1692    1.0000 0.17078  0.23316  0.99624  Biso   1.000  C
  H1743    1.0000 0.10588  0.33712  0.95978  Biso   1.000  H
  H1744    1.0000 0.18867  0.50033  0.98409  Biso   1.000  H
  C1693    1.0000 0.24662  0.77378  0.01461  Biso   1.000  C
  H1745    1.0000 0.94101  0.59418  0.31770  Biso   1.000  H
  C1694    1.0000 0.90794  0.75539  0.33140  Biso   1.000  C
  H1746    1.0000 0.01362  0.66438  0.33739  Biso   1.000  H
  H1747    1.0000 0.07660  0.81590  0.29459  Biso   1.000  H
  C1695    1.0000 0.19851  0.95847  0.22588  Biso   1.000  C
  C1696    1.0000 0.19851  0.95855  0.22588  Biso   1.000  C
  C1697    1.0000 0.36130  0.13112  0.06277  Biso   1.000  C
  H1748    1.0000 0.39300  0.25664  0.02631  Biso   1.000  H
  H1749    1.0000 0.39300  0.25664  0.02628  Biso   1.000  H
  C1698    1.0000 0.34933  0.19062  0.13098  Biso   1.000  C
  H1750    1.0000 0.37303  0.35484  0.13971  Biso   1.000  H
  H1751    1.0000 0.37303  0.35484  0.13968  Biso   1.000  H
  H1752    1.0000 0.63542  0.72815  0.12909  Biso   1.000  H
  H1753    1.0000 0.61929  0.59911  0.11960  Biso   1.000  H
  C1699    1.0000 0.65631  0.68753  0.07247  Biso   1.000  C
  H1754    1.0000 0.61935  0.59911  0.11960  Biso   1.000  H
  H1755    1.0000 0.22274  0.27403  0.99430  Biso   1.000  H
  C1700    1.0000 0.17244  0.13112  0.96840  Biso   1.000  C
  H1756    1.0000 0.22280  0.27403  0.99430  Biso   1.000  H
  C1701    1.0000 0.17250  0.13112  0.96840  Biso   1.000  C
  H1757    1.0000 0.16613  0.20633  0.02361  Biso   1.000  H
  H1758    1.0000 0.16613  0.20633  0.02358  Biso   1.000  H
  C1702    1.0000 0.29733  0.86704  0.00835  Biso   1.000  C
  H1759    1.0000 0.85993  0.75372  0.31349  Biso   1.000  H
  H1760    1.0000 0.93323  0.83010  0.32910  Biso   1.000  H
  C1703    1.0000 0.88041  0.73968  0.37250  Biso   1.000  C
  C1704    1.0000 0.25503  0.04789  0.21912  Biso   1.000  C
  C1705    1.0000 0.25503  0.04789  0.21909  Biso   1.000  C
  C1706    1.0000 0.35503  0.04270  0.03228  Biso   1.000  C
  C1707    1.0000 0.34538  0.10697  0.10240  Biso   1.000  C
  C1708    1.0000 0.34538  0.10697  0.10237  Biso   1.000  C
  C1709    1.0000 0.34544  0.10697  0.10240  Biso   1.000  C
  C1710    1.0000 0.34544  0.10697  0.10237  Biso   1.000  C
  C1711    1.0000 0.32868  0.16087  0.17243  Biso   1.000  C
  C1712    1.0000 0.32874  0.16087  0.17243  Biso   1.000  C
  H1761    1.0000 0.63650  0.63162  0.05351  Biso   1.000  H
  H1762    1.0000 0.71442  0.67600  0.07759  Biso   1.000  H
  H1763    1.0000 0.64748  0.76249  0.06171  Biso   1.000  H
  H1764    1.0000 0.63649  0.63162  0.05348  Biso   1.000  H
  H1765    1.0000 0.64748  0.76249  0.06168  Biso   1.000  H
  H1766    1.0000 0.64754  0.76249  0.06171  Biso   1.000  H
  H1767    1.0000 0.64754  0.76249  0.06168  Biso   1.000  H
  H1768    1.0000 0.17339  0.15686  0.94111  Biso   1.000  H
  H1769    1.0000 0.22128  0.08650  0.97410  Biso   1.000  H
  H1770    1.0000 0.12407  0.08516  0.97239  Biso   1.000  H
  H1771    1.0000 0.17339  0.15686  0.94108  Biso   1.000  H
  H1772    1.0000 0.12407  0.08524  0.97239  Biso   1.000  H
  C1713    1.0000 0.34077  0.87857  0.97401  Biso   1.000  C
  C1714    1.0000 0.30410  0.95153  0.03748  Biso   1.000  C
  H1773    1.0000 0.92769  0.73792  0.39040  Biso   1.000  H
  H1774    1.0000 0.84479  0.80169  0.37970  Biso   1.000  H
  H1775    1.0000 0.85061  0.66906  0.37450  Biso   1.000  H
  H1776    1.0000 0.85061  0.66915  0.37450  Biso   1.000  H
  H1777    1.0000 0.92775  0.73792  0.39040  Biso   1.000  H
  H1778    1.0000 0.84485  0.80169  0.37970  Biso   1.000  H
  C1715    1.0000 0.29062  0.10714  0.24946  Biso   1.000  C
  C1716    1.0000 0.27523  0.07513  0.18007  Biso   1.000  C
  C1717    1.0000 0.29062  0.10714  0.24943  Biso   1.000  C
  C1718    1.0000 0.27523  0.07513  0.18005  Biso   1.000  C
  C1719    1.0000 0.39936  0.04931  0.99732  Biso   1.000  C
  H1779    1.0000 0.33199  0.03276  0.10981  Biso   1.000  H
  H1780    1.0000 0.33199  0.03276  0.10978  Biso   1.000  H
  H1781    1.0000 0.33199  0.03284  0.10981  Biso   1.000  H
  H1782    1.0000 0.33199  0.03284  0.10978  Biso   1.000  H
  H1783    1.0000 0.33205  0.03276  0.10981  Biso   1.000  H
  H1784    1.0000 0.33205  0.03284  0.10981  Biso   1.000  H
  C1720    1.0000 0.36340  0.21829  0.20389  Biso   1.000  C
  H1785    1.0000 0.33476  0.82350  0.95411  Biso   1.000  H
  C1721    1.0000 0.39264  0.96833  0.96784  Biso   1.000  C
  H1786    1.0000 0.33476  0.82350  0.95408  Biso   1.000  H
  C1722    1.0000 0.39270  0.96833  0.96784  Biso   1.000  C
  H1787    1.0000 0.27343  0.94568  0.06080  Biso   1.000  H
  H1788    1.0000 0.27337  0.94568  0.06080  Biso   1.000  H
  C1723    1.0000 0.34563  0.19288  0.24276  Biso   1.000  C
  H1789    1.0000 0.27719  0.08884  0.27571  Biso   1.000  H
  H1790    1.0000 0.27719  0.08884  0.27568  Biso   1.000  H
  H1791    1.0000 0.27725  0.08884  0.27571  Biso   1.000  H
  H1792    1.0000 0.27725  0.08884  0.27568  Biso   1.000  H
  H1793    1.0000 0.25169  0.03393  0.15891  Biso   1.000  H
  H1794    1.0000 0.25175  0.03393  0.15891  Biso   1.000  H
  H1795    1.0000 0.43487  0.11081  0.99371  Biso   1.000  H
  H1796    1.0000 0.43486  0.11081  0.99368  Biso   1.000  H
  H1797    1.0000 0.40062  0.27703  0.19880  Biso   1.000  H
  C1724    1.0000 0.44134  0.97560  0.93144  Biso   1.000  C
  C1725    1.0000 0.44140  0.97560  0.93144  Biso   1.000  C
  C1726    1.0000 0.39403  0.24260  0.27639  Biso   1.000  C
  C1727    1.0000 0.37309  0.27603  0.27480  Biso   1.000  C
  H1798    1.0000 0.47355  0.90623  0.92900  Biso   1.000  H
  C1728    1.0000 0.39267  0.99231  0.89366  Biso   1.000  C
  H1799    1.0000 0.48006  0.03836  0.93441  Biso   1.000  H
  H1800    1.0000 0.48006  0.03836  0.93438  Biso   1.000  H
  H1801    1.0000 0.48006  0.03844  0.93441  Biso   1.000  H
  H1802    1.0000 0.48006  0.03844  0.93438  Biso   1.000  H
  H1803    1.0000 0.36384  0.22932  0.30079  Biso   1.000  H
  H1804    1.0000 0.39644  0.32450  0.27239  Biso   1.000  H
  C1729    1.0000 0.47629  0.20257  0.28259  Biso   1.000  C
  C1730    1.0000 0.47635  0.20257  0.28259  Biso   1.000  C
  H1805    1.0000 0.34509  0.25940  0.29961  Biso   1.000  H
  C1731    1.0000 0.46371  0.26500  0.28080  Biso   1.000  C
  H1806    1.0000 0.35919  0.35308  0.26669  Biso   1.000  H
  H1807    1.0000 0.35429  0.92930  0.89019  Biso   1.000  H
  C1732    1.0000 0.44619  0.99983  0.85770  Biso   1.000  C
  H1808    1.0000 0.35423  0.92930  0.89019  Biso   1.000  H
  C1733    1.0000 0.44618  0.99983  0.85768  Biso   1.000  C
  H1809    1.0000 0.36044  0.06184  0.89569  Biso   1.000  H
  H1810    1.0000 0.36050  0.06184  0.89569  Biso   1.000  H
  H1811    1.0000 0.50783  0.21528  0.25851  Biso   1.000  H
  H1812    1.0000 0.50251  0.24561  0.30420  Biso   1.000  H
  C1734    1.0000 0.47782  0.07780  0.29291  Biso   1.000  C
  H1813    1.0000 0.50783  0.21528  0.25848  Biso   1.000  H
  C1735    1.0000 0.47782  0.07780  0.29288  Biso   1.000  C
  H1814    1.0000 0.49161  0.29818  0.25810  Biso   1.000  H
  H1815    1.0000 0.48061  0.30704  0.30470  Biso   1.000  H
  C1736    1.0000 0.48901  0.14299  0.28521  Biso   1.000  C
  H1816    1.0000 0.48038  0.93298  0.85629  Biso   1.000  H
  H1817    1.0000 0.41186  0.00476  0.83389  Biso   1.000  H
  H1818    1.0000 0.48068  0.06644  0.85970  Biso   1.000  H
  H1819    1.0000 0.41186  0.00485  0.83389  Biso   1.000  H
  H1820    1.0000 0.44044  0.03744  0.27530  Biso   1.000  H
  H1821    1.0000 0.53289  0.04864  0.28979  Biso   1.000  H
  H1822    1.0000 0.46114  0.06761  0.32019  Biso   1.000  H
  H1823    1.0000 0.44038  0.03744  0.27530  Biso   1.000  H
  H1824    1.0000 0.53296  0.04864  0.28979  Biso   1.000  H
  H1825    1.0000 0.51701  0.13279  0.31049  Biso   1.000  H
  H1826    1.0000 0.44022  0.09577  0.28421  Biso   1.000  H
  H1827    1.0000 0.52484  0.12276  0.26381  Biso   1.000  H
  C1737    1.0000 0.60739  0.00769  0.10631  Biso   1.000  C
  C1738    1.0000 0.55872  0.02440  0.06856  Biso   1.000  C
  C1739    1.0000 0.55872  0.02440  0.06853  Biso   1.000  C
  H1828    1.0000 0.63962  0.93816  0.10431  Biso   1.000  H
  H1829    1.0000 0.63962  0.93816  0.10428  Biso   1.000  H
  H1830    1.0000 0.63962  0.93824  0.10431  Biso   1.000  H
  H1831    1.0000 0.63962  0.93824  0.10428  Biso   1.000  H
  H1832    1.0000 0.64577  0.07070  0.10981  Biso   1.000  H
  C1740    1.0000 0.55388  0.00017  0.14230  Biso   1.000  C
  H1833    1.0000 0.64577  0.07070  0.10978  Biso   1.000  H
  H1834    1.0000 0.64583  0.07070  0.10981  Biso   1.000  H
  C1741    1.0000 0.55394  0.00017  0.14230  Biso   1.000  C
  H1835    1.0000 0.64583  0.07070  0.10978  Biso   1.000  H
  C1742    1.0000 0.60742  0.03167  0.03216  Biso   1.000  C
  C1743    1.0000 0.60736  0.03167  0.03216  Biso   1.000  C
  H1836    1.0000 0.52000  0.96164  0.06559  Biso   1.000  H
  H1837    1.0000 0.52651  0.09377  0.07100  Biso   1.000  H
  C1744    1.0000 0.60739  0.00769  0.10634  Biso   1.000  C
  H1838    1.0000 0.52651  0.09385  0.07100  Biso   1.000  H
  H1839    1.0000 0.58820  0.99524  0.16611  Biso   1.000  H
  H1840    1.0000 0.51938  0.93356  0.14030  Biso   1.000  H
  H1841    1.0000 0.58820  0.99524  0.16608  Biso   1.000  H
  H1842    1.0000 0.51938  0.93365  0.14030  Biso   1.000  H
  H1843    1.0000 0.51944  0.93356  0.14030  Biso   1.000  H
  H1844    1.0000 0.51944  0.93365  0.14030  Biso   1.000  H
  H1845    1.0000 0.51968  0.06702  0.14371  Biso   1.000  H
  H1846    1.0000 0.51968  0.06702  0.14368  Biso   1.000  H
  C1745    1.0000 0.60070  0.95069  0.00268  Biso   1.000  C
  C1746    1.0000 0.65929  0.12143  0.02599  Biso   1.000  C
  C1747    1.0000 0.65929  0.12143  0.02596  Biso   1.000  C
  C1748    1.0000 0.64503  0.95730  0.96772  Biso   1.000  C
  C1749    1.0000 0.64509  0.95730  0.96772  Biso   1.000  C
  H1847    1.0000 0.56520  0.88919  0.00629  Biso   1.000  H
  C1750    1.0000 0.70273  0.13296  0.99165  Biso   1.000  C
  C1751    1.0000 0.70273  0.13304  0.99165  Biso   1.000  C
  C1752    1.0000 0.70279  0.13296  0.99165  Biso   1.000  C
  C1753    1.0000 0.70279  0.13304  0.99165  Biso   1.000  C
  H1848    1.0000 0.66530  0.17650  0.04589  Biso   1.000  H
  C1754    1.0000 0.63876  0.86888  0.93723  Biso   1.000  C
  C1755    1.0000 0.69596  0.04847  0.96252  Biso   1.000  C
  C1756    1.0000 0.75344  0.22622  0.98539  Biso   1.000  C
  C1757    1.0000 0.75344  0.22622  0.98536  Biso   1.000  C
  C1758    1.0000 0.61786  0.76074  0.94702  Biso   1.000  C
  C1759    1.0000 0.61786  0.76074  0.94699  Biso   1.000  C
  C1760    1.0000 0.65468  0.89303  0.89760  Biso   1.000  C
  C1761    1.0000 0.65462  0.89303  0.89760  Biso   1.000  C
  H1849    1.0000 0.72663  0.05432  0.93920  Biso   1.000  H
  H1850    1.0000 0.72669  0.05432  0.93920  Biso   1.000  H
  C1762    1.0000 0.79547  0.30612  0.97910  Biso   1.000  C
  C1763    1.0000 0.79547  0.30612  0.97907  Biso   1.000  C
  C1764    1.0000 0.61216  0.67541  0.91871  Biso   1.000  C
  H1851    1.0000 0.60706  0.74336  0.97369  Biso   1.000  H
  H1852    1.0000 0.60706  0.74344  0.97369  Biso   1.000  H
  C1765    1.0000 0.65073  0.80938  0.86902  Biso   1.000  C
  C1766    1.0000 0.65079  0.80938  0.86902  Biso   1.000  C
  H1853    1.0000 0.66807  0.96724  0.89019  Biso   1.000  H
  C1767    1.0000 0.84756  0.40130  0.97054  Biso   1.000  C
  C1768    1.0000 0.59017  0.56034  0.93182  Biso   1.000  C
  C1769    1.0000 0.62975  0.70199  0.87978  Biso   1.000  C
  C1770    1.0000 0.67138  0.83913  0.82757  Biso   1.000  C
  C1771    1.0000 0.67132  0.83913  0.82757  Biso   1.000  C
  C1772    1.0000 0.84715  0.49599  0.99433  Biso   1.000  C
  C1773    1.0000 0.89757  0.39629  0.93838  Biso   1.000  C
  C1774    1.0000 0.61115  0.52641  0.96931  Biso   1.000  C
  C1775    1.0000 0.54656  0.48613  0.90810  Biso   1.000  C
  H1854    1.0000 0.62703  0.64516  0.86029  Biso   1.000  H
  H1855    1.0000 0.62703  0.64524  0.86029  Biso   1.000  H
  H1856    1.0000 0.62709  0.64516  0.86029  Biso   1.000  H
  H1857    1.0000 0.62709  0.64524  0.86029  Biso   1.000  H
  C1776    1.0000 0.63666  0.78171  0.79611  Biso   1.000  C
  C1777    1.0000 0.72483  0.92487  0.81993  Biso   1.000  C
  C1778    1.0000 0.63666  0.78171  0.79608  Biso   1.000  C
  C1779    1.0000 0.89915  0.58583  0.98662  Biso   1.000  C
  H1858    1.0000 0.81139  0.49967  0.01591  Biso   1.000  H
  H1859    1.0000 0.81139  0.49975  0.01591  Biso   1.000  H
  C1780    1.0000 0.94807  0.48680  0.92959  Biso   1.000  C
  H1860    1.0000 0.89765  0.33161  0.92221  Biso   1.000  H
  C1781    1.0000 0.94807  0.48680  0.92956  Biso   1.000  C
  H1861    1.0000 0.89765  0.33161  0.92218  Biso   1.000  H
  C1782    1.0000 0.58656  0.42278  0.98427  Biso   1.000  C
  H1862    1.0000 0.64313  0.57446  0.98551  Biso   1.000  H
  H1863    1.0000 0.64313  0.57454  0.98551  Biso   1.000  H
  H1864    1.0000 0.64319  0.57446  0.98551  Biso   1.000  H
  H1865    1.0000 0.64319  0.57454  0.98551  Biso   1.000  H
  C1783    1.0000 0.52264  0.38141  0.92150  Biso   1.000  C
  H1866    1.0000 0.53256  0.50760  0.88199  Biso   1.000  H
  H1867    1.0000 0.59944  0.72297  0.80120  Biso   1.000  H
  C1784    1.0000 0.65443  0.80712  0.75724  Biso   1.000  C
  C1785    1.0000 0.65449  0.80712  0.75724  Biso   1.000  C
  C1786    1.0000 0.74503  0.95211  0.78088  Biso   1.000  C
  H1868    1.0000 0.74837  0.96607  0.84109  Biso   1.000  H
  C1787    1.0000 0.74509  0.95211  0.78088  Biso   1.000  C
  C1788    1.0000 0.94884  0.57973  0.95408  Biso   1.000  C
  C1789    1.0000 0.89772  0.68736  0.01244  Biso   1.000  C
  C1790    1.0000 0.89772  0.68745  0.01244  Biso   1.000  C
  C1791    1.0000 0.00107  0.47969  0.89425  Biso   1.000  C
  C1792    1.0000 0.60712  0.39813  0.02378  Biso   1.000  C
  C1793    1.0000 0.54158  0.35141  0.95955  Biso   1.000  C
  C1794    1.0000 0.47693  0.30085  0.89498  Biso   1.000  C
  C1795    1.0000 0.47693  0.30085  0.89495  Biso   1.000  C
  C1796    1.0000 0.47693  0.30094  0.89498  Biso   1.000  C
  C1797    1.0000 0.47693  0.30094  0.89495  Biso   1.000  C
  C1798    1.0000 0.47699  0.30085  0.89498  Biso   1.000  C
  C1799    1.0000 0.47699  0.30085  0.89495  Biso   1.000  C
  C1800    1.0000 0.47699  0.30094  0.89498  Biso   1.000  C
  C1801    1.0000 0.47699  0.30094  0.89495  Biso   1.000  C
  C1802    1.0000 0.70944  0.89286  0.75054  Biso   1.000  C
  C1803    1.0000 0.60603  0.75740  0.72361  Biso   1.000  C
  C1804    1.0000 0.60603  0.75740  0.72358  Biso   1.000  C
  C1805    1.0000 0.70944  0.89295  0.75054  Biso   1.000  C
  C1806    1.0000 0.60609  0.75740  0.72361  Biso   1.000  C
  C1807    1.0000 0.62697  0.72397  0.72520  Biso   1.000  C
  C1808    1.0000 0.80155  0.04153  0.77412  Biso   1.000  C
  H1869    1.0000 0.98404  0.64031  0.94849  Biso   1.000  H
  H1870    1.0000 0.98410  0.64031  0.94849  Biso   1.000  H
  H1871    1.0000 0.89418  0.66288  0.04019  Biso   1.000  H
  H1872    1.0000 0.94971  0.72798  0.00961  Biso   1.000  H
  C1809    1.0000 0.82928  0.76684  0.00376  Biso   1.000  C
  H1873    1.0000 0.94971  0.72798  0.00958  Biso   1.000  H
  H1874    1.0000 0.89424  0.66288  0.04019  Biso   1.000  H
  C1810    1.0000 0.97476  0.42378  0.86047  Biso   1.000  C
  C1811    1.0000 0.07796  0.52724  0.89484  Biso   1.000  C
  C1812    1.0000 0.62979  0.38818  0.05783  Biso   1.000  C
  H1875    1.0000 0.52384  0.28121  0.96931  Biso   1.000  H
  H1876    1.0000 0.48417  0.22430  0.90551  Biso   1.000  H
  H1877    1.0000 0.50147  0.30286  0.86861  Biso   1.000  H
  C1813    1.0000 0.38825  0.32400  0.89060  Biso   1.000  C
  H1878    1.0000 0.48417  0.22430  0.90548  Biso   1.000  H
  H1879    1.0000 0.50147  0.30286  0.86858  Biso   1.000  H
  H1880    1.0000 0.50147  0.30294  0.86861  Biso   1.000  H
  H1881    1.0000 0.50147  0.30294  0.86858  Biso   1.000  H
  H1882    1.0000 0.72287  0.91116  0.72429  Biso   1.000  H
  H1883    1.0000 0.72287  0.91125  0.72429  Biso   1.000  H
  H1884    1.0000 0.63623  0.77068  0.69921  Biso   1.000  H
  H1885    1.0000 0.60362  0.67550  0.72761  Biso   1.000  H
  C1814    1.0000 0.52377  0.79743  0.71741  Biso   1.000  C
  H1886    1.0000 0.63622  0.77068  0.69918  Biso   1.000  H
  H1887    1.0000 0.60362  0.67550  0.72758  Biso   1.000  H
  C1815    1.0000 0.52371  0.79743  0.71738  Biso   1.000  C
  H1888    1.0000 0.63629  0.77068  0.69921  Biso   1.000  H
  H1889    1.0000 0.60368  0.67550  0.72761  Biso   1.000  H
  H1890    1.0000 0.60368  0.67550  0.72758  Biso   1.000  H
  C1816    1.0000 0.52377  0.79743  0.71738  Biso   1.000  C
  H1891    1.0000 0.65497  0.74060  0.70039  Biso   1.000  H
  C1817    1.0000 0.53635  0.73500  0.71920  Biso   1.000  C
  H1892    1.0000 0.64087  0.64692  0.73328  Biso   1.000  H
  C1818    1.0000 0.85007  0.11516  0.76921  Biso   1.000  C
  C1819    1.0000 0.85007  0.11524  0.76921  Biso   1.000  C
  H1893    1.0000 0.83393  0.79367  0.97639  Biso   1.000  H
  H1894    1.0000 0.83393  0.79375  0.97639  Biso   1.000  H
  H1895    1.0000 0.83399  0.79367  0.97639  Biso   1.000  H
  H1896    1.0000 0.83399  0.79375  0.97639  Biso   1.000  H
  H1897    1.0000 0.77732  0.72597  0.00570  Biso   1.000  H
  C1820    1.0000 0.82762  0.86888  0.03160  Biso   1.000  C
  C1821    1.0000 0.02433  0.41142  0.82783  Biso   1.000  C
  C1822    1.0000 0.02433  0.41142  0.82780  Biso   1.000  C
  C1823    1.0000 0.02439  0.41142  0.82783  Biso   1.000  C
  C1824    1.0000 0.02439  0.41142  0.82780  Biso   1.000  C
  H1898    1.0000 0.92154  0.39320  0.85959  Biso   1.000  H
  C1825    1.0000 0.12857  0.51722  0.86256  Biso   1.000  C
  H1899    1.0000 0.09639  0.56702  0.91750  Biso   1.000  H
  H1900    1.0000 0.09633  0.56702  0.91750  Biso   1.000  H
  C1826    1.0000 0.66869  0.38166  0.09570  Biso   1.000  C
  H1901    1.0000 0.36464  0.27185  0.87091  Biso   1.000  H
  H1902    1.0000 0.38077  0.40089  0.88040  Biso   1.000  H
  C1827    1.0000 0.34375  0.31247  0.92753  Biso   1.000  C
  H1903    1.0000 0.36464  0.27194  0.87091  Biso   1.000  H
  H1904    1.0000 0.49223  0.78472  0.74149  Biso   1.000  H
  H1905    1.0000 0.49755  0.75439  0.69580  Biso   1.000  H
  C1828    1.0000 0.52224  0.92220  0.70709  Biso   1.000  C
  H1906    1.0000 0.50845  0.70182  0.74190  Biso   1.000  H
  H1907    1.0000 0.51945  0.69305  0.69530  Biso   1.000  H
  C1829    1.0000 0.51105  0.85701  0.71479  Biso   1.000  C
  C1830    1.0000 0.90944  0.20182  0.76395  Biso   1.000  C
  C1831    1.0000 0.90944  0.20182  0.76392  Biso   1.000  C
  H1908    1.0000 0.82667  0.84314  0.05889  Biso   1.000  H
  H1909    1.0000 0.77878  0.91350  0.02590  Biso   1.000  H
  H1910    1.0000 0.87599  0.91484  0.02761  Biso   1.000  H
  H1911    1.0000 0.82673  0.84314  0.05889  Biso   1.000  H
  C1832    1.0000 0.99496  0.34707  0.79320  Biso   1.000  C
  C1833    1.0000 0.99496  0.34715  0.79320  Biso   1.000  C
  C1834    1.0000 0.10108  0.45922  0.82951  Biso   1.000  C
  C1835    1.0000 0.21239  0.56752  0.86497  Biso   1.000  C
  C1836    1.0000 0.21233  0.56752  0.86497  Biso   1.000  C
  C1837    1.0000 0.63558  0.33169  0.12848  Biso   1.000  C
  C1838    1.0000 0.63558  0.33169  0.12845  Biso   1.000  C
  C1839    1.0000 0.74601  0.43105  0.09964  Biso   1.000  C
  C1840    1.0000 0.74601  0.43114  0.09964  Biso   1.000  C
  H1912    1.0000 0.36356  0.36838  0.94649  Biso   1.000  H
  H1913    1.0000 0.28564  0.32400  0.92241  Biso   1.000  H
  H1914    1.0000 0.35258  0.23751  0.93829  Biso   1.000  H
  H1915    1.0000 0.28564  0.32400  0.92238  Biso   1.000  H
  H1916    1.0000 0.35252  0.23751  0.93829  Biso   1.000  H
  H1917    1.0000 0.55962  0.96256  0.72470  Biso   1.000  H
  H1918    1.0000 0.46717  0.95136  0.71021  Biso   1.000  H
  H1919    1.0000 0.53892  0.93239  0.67981  Biso   1.000  H
  H1920    1.0000 0.55962  0.96264  0.72470  Biso   1.000  H
  H1921    1.0000 0.46717  0.95145  0.71021  Biso   1.000  H
  H1922    1.0000 0.55968  0.96256  0.72470  Biso   1.000  H
  H1923    1.0000 0.53898  0.93239  0.67981  Biso   1.000  H
  H1924    1.0000 0.55968  0.96264  0.72470  Biso   1.000  H
  H1925    1.0000 0.48305  0.86721  0.68948  Biso   1.000  H
  H1926    1.0000 0.55984  0.90423  0.71579  Biso   1.000  H
  H1927    1.0000 0.47528  0.87724  0.73619  Biso   1.000  H
  C1841    1.0000 0.94157  0.22597  0.72758  Biso   1.000  C
  C1842    1.0000 0.93742  0.26224  0.79714  Biso   1.000  C
  C1843    1.0000 0.94157  0.22597  0.72755  Biso   1.000  C
  C1844    1.0000 0.93748  0.26224  0.79714  Biso   1.000  C
  C1845    1.0000 0.02405  0.37022  0.75510  Biso   1.000  C
  H1928    1.0000 0.13556  0.45228  0.80761  Biso   1.000  H
  H1929    1.0000 0.13556  0.45228  0.80758  Biso   1.000  H
  C1846    1.0000 0.25405  0.56895  0.90036  Biso   1.000  C
  C1847    1.0000 0.24813  0.61600  0.83286  Biso   1.000  C
  C1848    1.0000 0.25405  0.56895  0.90033  Biso   1.000  C
  C1849    1.0000 0.24820  0.61600  0.83286  Biso   1.000  C
  C1850    1.0000 0.67751  0.33119  0.16449  Biso   1.000  C
  C1851    1.0000 0.67751  0.33119  0.16446  Biso   1.000  C
  H1930    1.0000 0.58372  0.29726  0.12639  Biso   1.000  H
  H1931    1.0000 0.58372  0.29734  0.12639  Biso   1.000  H
  C1852    1.0000 0.78767  0.43248  0.13503  Biso   1.000  C
  C1853    1.0000 0.78773  0.43248  0.13503  Biso   1.000  C
  H1932    1.0000 0.76991  0.46432  0.07729  Biso   1.000  H
  H1933    1.0000 0.92346  0.18410  0.70541  Biso   1.000  H
  C1854    1.0000 0.99827  0.30779  0.72244  Biso   1.000  C
  H1934    1.0000 0.92346  0.18410  0.70538  Biso   1.000  H
  H1935    1.0000 0.91703  0.24503  0.82240  Biso   1.000  H
  H1936    1.0000 0.91709  0.24503  0.82240  Biso   1.000  H
  H1937    1.0000 0.06188  0.42930  0.75169  Biso   1.000  H
  C1855    1.0000 0.33137  0.61834  0.90430  Biso   1.000  C
  C1856    1.0000 0.33137  0.61834  0.90427  Biso   1.000  C
  H1938    1.0000 0.23015  0.53568  0.92271  Biso   1.000  H
  H1939    1.0000 0.23015  0.53568  0.92268  Biso   1.000  H
  C1857    1.0000 0.32255  0.66881  0.83551  Biso   1.000  C
  H1940    1.0000 0.22064  0.61307  0.80811  Biso   1.000  H
  H1941    1.0000 0.22064  0.61307  0.80808  Biso   1.000  H
  H1942    1.0000 0.22064  0.61315  0.80811  Biso   1.000  H
  H1943    1.0000 0.22064  0.61315  0.80808  Biso   1.000  H
  C1858    1.0000 0.64419  0.27018  0.19971  Biso   1.000  C
  C1859    1.0000 0.64419  0.27018  0.19968  Biso   1.000  C
  C1860    1.0000 0.75193  0.38400  0.16714  Biso   1.000  C
  C1861    1.0000 0.75193  0.38400  0.16711  Biso   1.000  C
  C1862    1.0000 0.87149  0.48278  0.13744  Biso   1.000  C
  C1863    1.0000 0.87149  0.48278  0.13742  Biso   1.000  C
  C1864    1.0000 0.03207  0.33194  0.68189  Biso   1.000  C
  C1865    1.0000 0.03207  0.33194  0.68186  Biso   1.000  C
  C1866    1.0000 0.37027  0.61182  0.94217  Biso   1.000  C
  C1867    1.0000 0.37027  0.61182  0.94214  Biso   1.000  C
  C1868    1.0000 0.36448  0.66831  0.87152  Biso   1.000  C
  C1869    1.0000 0.35587  0.72982  0.80029  Biso   1.000  C
  C1870    1.0000 0.70188  0.16179  0.21009  Biso   1.000  C
  C1871    1.0000 0.70194  0.16179  0.21009  Biso   1.000  C
  H1944    1.0000 0.58799  0.24503  0.19389  Biso   1.000  H
  H1945    1.0000 0.64289  0.32116  0.22259  Biso   1.000  H
  H1946    1.0000 0.64289  0.32124  0.22259  Biso   1.000  H
  H1947    1.0000 0.77942  0.38693  0.19189  Biso   1.000  H
  C1872    1.0000 0.92210  0.47276  0.10516  Biso   1.000  C
  C1873    1.0000 0.89898  0.54078  0.17049  Biso   1.000  C
  C1874    1.0000 0.92210  0.47284  0.10516  Biso   1.000  C
  C1875    1.0000 0.89904  0.54078  0.17049  Biso   1.000  C
  H1948    1.0000 0.98644  0.33562  0.66261  Biso   1.000  H
  H1949    1.0000 0.98644  0.33562  0.66258  Biso   1.000  H
  H1950    1.0000 0.05905  0.40582  0.68230  Biso   1.000  H
  C1876    1.0000 0.09212  0.24461  0.66860  Biso   1.000  C
  C1877    1.0000 0.09218  0.24461  0.66860  Biso   1.000  C
  C1878    1.0000 0.39294  0.60187  0.97622  Biso   1.000  C
  C1879    1.0000 0.39300  0.60187  0.97622  Biso   1.000  C
  H1951    1.0000 0.41635  0.70274  0.87361  Biso   1.000  H
  H1952    1.0000 0.41634  0.70274  0.87358  Biso   1.000  H
  H1953    1.0000 0.35717  0.67884  0.77741  Biso   1.000  H
  H1954    1.0000 0.41207  0.75497  0.80611  Biso   1.000  H
  C1880    1.0000 0.29818  0.83821  0.78991  Biso   1.000  C
  H1955    1.0000 0.35717  0.67884  0.77738  Biso   1.000  H
  H1956    1.0000 0.41207  0.75497  0.80608  Biso   1.000  H
  C1881    1.0000 0.29818  0.83821  0.78988  Biso   1.000  C
  H1957    1.0000 0.41207  0.75506  0.80611  Biso   1.000  H
  H1958    1.0000 0.41207  0.75506  0.80608  Biso   1.000  H
  C1882    1.0000 0.67162  0.10070  0.24599  Biso   1.000  C
  H1959    1.0000 0.75840  0.18720  0.21500  Biso   1.000  H
  H1960    1.0000 0.70190  0.11023  0.18739  Biso   1.000  H
  H1961    1.0000 0.90367  0.43298  0.08250  Biso   1.000  H
  C1883    1.0000 0.99899  0.52031  0.10575  Biso   1.000  C
  C1884    1.0000 0.99899  0.52031  0.10572  Biso   1.000  C
  H1962    1.0000 0.90373  0.43298  0.08250  Biso   1.000  H
  C1885    1.0000 0.97573  0.58858  0.17217  Biso   1.000  C
  H1963    1.0000 0.86450  0.54772  0.19239  Biso   1.000  H
  H1964    1.0000 0.14013  0.24628  0.68651  Biso   1.000  H
  H1965    1.0000 0.06683  0.16990  0.67090  Biso   1.000  H
  C1886    1.0000 0.11965  0.26032  0.62750  Biso   1.000  C
  H1966    1.0000 0.14013  0.24628  0.68648  Biso   1.000  H
  H1967    1.0000 0.06689  0.16990  0.67090  Biso   1.000  H
  C1887    1.0000 0.41351  0.57722  0.01573  Biso   1.000  C
  H1968    1.0000 0.24166  0.81280  0.78500  Biso   1.000  H
  H1969    1.0000 0.29816  0.88977  0.81261  Biso   1.000  H
  C1888    1.0000 0.32845  0.89930  0.75401  Biso   1.000  C
  C1889    1.0000 0.32844  0.89930  0.75398  Biso   1.000  C
  H1970    1.0000 0.29816  0.88985  0.81261  Biso   1.000  H
  H1971    1.0000 0.68821  0.14157  0.26980  Biso   1.000  H
  H1972    1.0000 0.61218  0.09560  0.24461  Biso   1.000  H
  H1973    1.0000 0.69490  0.02532  0.24681  Biso   1.000  H
  H1974    1.0000 0.61218  0.09560  0.24458  Biso   1.000  H
  H1975    1.0000 0.69490  0.02532  0.24678  Biso   1.000  H
  H1976    1.0000 0.61225  0.09560  0.24461  Biso   1.000  H
  C1890    1.0000 0.02530  0.57622  0.13953  Biso   1.000  C
  C1891    1.0000 0.05199  0.51320  0.07041  Biso   1.000  C
  C1892    1.0000 0.00510  0.65293  0.20680  Biso   1.000  C
  C1893    1.0000 0.00510  0.65293  0.20677  Biso   1.000  C
  H1977    1.0000 0.07237  0.26208  0.60960  Biso   1.000  H
  H1978    1.0000 0.15527  0.19831  0.62030  Biso   1.000  H
  H1979    1.0000 0.14945  0.33094  0.62550  Biso   1.000  H
  C1894    1.0000 0.38891  0.47359  0.03069  Biso   1.000  C
  C1895    1.0000 0.38891  0.47359  0.03066  Biso   1.000  C
  C1896    1.0000 0.45849  0.64859  0.04045  Biso   1.000  C
  C1897    1.0000 0.45855  0.64859  0.04045  Biso   1.000  C
  H1980    1.0000 0.38788  0.90440  0.75539  Biso   1.000  H
  H1981    1.0000 0.30516  0.97468  0.75319  Biso   1.000  H
  H1982    1.0000 0.31185  0.85843  0.73020  Biso   1.000  H
  H1983    1.0000 0.07852  0.60680  0.14041  Biso   1.000  H
  H1984    1.0000 0.07852  0.60680  0.14038  Biso   1.000  H
  C1898    1.0000 0.05122  0.42027  0.04592  Biso   1.000  C
  C1899    1.0000 0.10249  0.60371  0.06162  Biso   1.000  C
  C1900    1.0000 0.10249  0.60371  0.06159  Biso   1.000  C
  C1901    1.0000 0.97601  0.62978  0.24490  Biso   1.000  C
  C1902    1.0000 0.06264  0.73776  0.20286  Biso   1.000  C
  C1903    1.0000 0.06258  0.73776  0.20286  Biso   1.000  C
  C1904    1.0000 0.06264  0.73784  0.20286  Biso   1.000  C
  C1905    1.0000 0.06258  0.73784  0.20286  Biso   1.000  C
  C1906    1.0000 0.40989  0.43966  0.06818  Biso   1.000  C
  C1907    1.0000 0.40989  0.43966  0.06815  Biso   1.000  C
  C1908    1.0000 0.40989  0.43975  0.06818  Biso   1.000  C
  C1909    1.0000 0.40989  0.43975  0.06815  Biso   1.000  C
  H1985    1.0000 0.35693  0.42554  0.01449  Biso   1.000  H
  H1986    1.0000 0.35687  0.42554  0.01449  Biso   1.000  H
  C1910    1.0000 0.47742  0.61859  0.07850  Biso   1.000  C
  H1987    1.0000 0.47622  0.71879  0.03069  Biso   1.000  H
  H1988    1.0000 0.01602  0.35969  0.05151  Biso   1.000  H
  C1911    1.0000 0.10091  0.41417  0.01338  Biso   1.000  C
  H1989    1.0000 0.01602  0.35969  0.05148  Biso   1.000  H
  C1912    1.0000 0.10091  0.41417  0.01335  Biso   1.000  C
  C1913    1.0000 0.15250  0.59870  0.02946  Biso   1.000  C
  H1990    1.0000 0.10241  0.66839  0.07779  Biso   1.000  H
  C1914    1.0000 0.15250  0.59870  0.02943  Biso   1.000  C
  H1991    1.0000 0.93818  0.57070  0.24831  Biso   1.000  H
  H1992    1.0000 0.93818  0.57070  0.24828  Biso   1.000  H
  H1993    1.0000 0.93825  0.57070  0.24831  Biso   1.000  H
  H1994    1.0000 0.93824  0.57070  0.24828  Biso   1.000  H
  C1915    1.0000 0.00179  0.69221  0.27756  Biso   1.000  C
  C1916    1.0000 0.00179  0.69221  0.27754  Biso   1.000  C
  C1917    1.0000 0.00185  0.69221  0.27756  Biso   1.000  C
  C1918    1.0000 0.00185  0.69221  0.27754  Biso   1.000  C
  C1919    1.0000 0.09062  0.79818  0.23605  Biso   1.000  C
  H1995    1.0000 0.08303  0.75497  0.17760  Biso   1.000  H
  C1920    1.0000 0.38790  0.32459  0.08129  Biso   1.000  C
  C1921    1.0000 0.38790  0.32459  0.08126  Biso   1.000  C
  C1922    1.0000 0.45350  0.51387  0.09190  Biso   1.000  C
  C1923    1.0000 0.52313  0.69915  0.10502  Biso   1.000  C
  C1924    1.0000 0.10234  0.31264  0.98756  Biso   1.000  C
  C1925    1.0000 0.10240  0.31264  0.98756  Biso   1.000  C
  C1926    1.0000 0.15291  0.50401  0.00567  Biso   1.000  C
  C1927    1.0000 0.20459  0.69388  0.02090  Biso   1.000  C
  C1928    1.0000 0.96799  0.66806  0.31811  Biso   1.000  C
  C1929    1.0000 0.96799  0.66814  0.31811  Biso   1.000  C
  C1930    1.0000 0.96805  0.66806  0.31811  Biso   1.000  C
  C1931    1.0000 0.96805  0.66814  0.31811  Biso   1.000  C
  C1932    1.0000 0.05849  0.77403  0.27242  Biso   1.000  C
  C1933    1.0000 0.05855  0.77403  0.27242  Biso   1.000  C
  C1934    1.0000 0.14999  0.88484  0.23079  Biso   1.000  C
  C1935    1.0000 0.14999  0.88484  0.23076  Biso   1.000  C
  C1936    1.0000 0.38220  0.23926  0.05298  Biso   1.000  C
  C1937    1.0000 0.38220  0.23934  0.05298  Biso   1.000  C
  C1938    1.0000 0.37031  0.29801  0.12022  Biso   1.000  C
  H1996    1.0000 0.46750  0.49240  0.11801  Biso   1.000  H
  H1997    1.0000 0.46750  0.49240  0.11798  Biso   1.000  H
  H1998    1.0000 0.51589  0.77570  0.09449  Biso   1.000  H
  H1999    1.0000 0.49859  0.69714  0.13139  Biso   1.000  H
  C1939    1.0000 0.61182  0.67600  0.10940  Biso   1.000  C
  H2000    1.0000 0.51595  0.77570  0.09449  Biso   1.000  H
  H2001    1.0000 0.49865  0.69714  0.13139  Biso   1.000  H
  H2002    1.0000 0.10588  0.33712  0.95981  Biso   1.000  H
  H2003    1.0000 0.05035  0.27202  0.99039  Biso   1.000  H
  C1940    1.0000 0.17078  0.23316  0.99624  Biso   1.000  C
  H2004    1.0000 0.10588  0.33712  0.95978  Biso   1.000  H
  H2005    1.0000 0.18867  0.50033  0.98409  Biso   1.000  H
  C1941    1.0000 0.24662  0.77378  0.01461  Biso   1.000  C
  H2006    1.0000 0.94101  0.59418  0.31770  Biso   1.000  H
  C1942    1.0000 0.90794  0.75539  0.33140  Biso   1.000  C
  H2007    1.0000 0.01362  0.66438  0.33739  Biso   1.000  H
  H2008    1.0000 0.07660  0.81590  0.29459  Biso   1.000  H
  C1943    1.0000 0.19851  0.95847  0.22588  Biso   1.000  C
  C1944    1.0000 0.19851  0.95855  0.22588  Biso   1.000  C
  C1945    1.0000 0.36130  0.13112  0.06277  Biso   1.000  C
  H2009    1.0000 0.39300  0.25664  0.02631  Biso   1.000  H
  H2010    1.0000 0.39300  0.25664  0.02628  Biso   1.000  H
  C1946    1.0000 0.34933  0.19062  0.13098  Biso   1.000  C
  H2011    1.0000 0.37303  0.35484  0.13971  Biso   1.000  H
  H2012    1.0000 0.37303  0.35484  0.13968  Biso   1.000  H
  H2013    1.0000 0.63542  0.72815  0.12909  Biso   1.000  H
  H2014    1.0000 0.61929  0.59911  0.11960  Biso   1.000  H
  C1947    1.0000 0.65631  0.68753  0.07247  Biso   1.000  C
  H2015    1.0000 0.61935  0.59911  0.11960  Biso   1.000  H
  H2016    1.0000 0.22274  0.27403  0.99430  Biso   1.000  H
  C1948    1.0000 0.17244  0.13112  0.96840  Biso   1.000  C
  H2017    1.0000 0.22280  0.27403  0.99430  Biso   1.000  H
  C1949    1.0000 0.17250  0.13112  0.96840  Biso   1.000  C
  H2018    1.0000 0.16613  0.20633  0.02361  Biso   1.000  H
  H2019    1.0000 0.16613  0.20633  0.02358  Biso   1.000  H
  C1950    1.0000 0.29733  0.86704  0.00835  Biso   1.000  C
  H2020    1.0000 0.85993  0.75372  0.31349  Biso   1.000  H
  H2021    1.0000 0.93323  0.83010  0.32910  Biso   1.000  H
  C1951    1.0000 0.88041  0.73968  0.37250  Biso   1.000  C
  C1952    1.0000 0.25503  0.04789  0.21912  Biso   1.000  C
  C1953    1.0000 0.25503  0.04789  0.21909  Biso   1.000  C
  C1954    1.0000 0.35503  0.04270  0.03228  Biso   1.000  C
  C1955    1.0000 0.34538  0.10697  0.10240  Biso   1.000  C
  C1956    1.0000 0.34538  0.10697  0.10237  Biso   1.000  C
  C1957    1.0000 0.34544  0.10697  0.10240  Biso   1.000  C
  C1958    1.0000 0.34544  0.10697  0.10237  Biso   1.000  C
  C1959    1.0000 0.32868  0.16087  0.17243  Biso   1.000  C
  C1960    1.0000 0.32874  0.16087  0.17243  Biso   1.000  C
  H2022    1.0000 0.63650  0.63162  0.05351  Biso   1.000  H
  H2023    1.0000 0.71442  0.67600  0.07759  Biso   1.000  H
  H2024    1.0000 0.64748  0.76249  0.06171  Biso   1.000  H
  H2025    1.0000 0.63649  0.63162  0.05348  Biso   1.000  H
  H2026    1.0000 0.64748  0.76249  0.06168  Biso   1.000  H
  H2027    1.0000 0.64754  0.76249  0.06171  Biso   1.000  H
  H2028    1.0000 0.64754  0.76249  0.06168  Biso   1.000  H
  H2029    1.0000 0.17339  0.15686  0.94111  Biso   1.000  H
  H2030    1.0000 0.22128  0.08650  0.97410  Biso   1.000  H
  H2031    1.0000 0.12407  0.08516  0.97239  Biso   1.000  H
  H2032    1.0000 0.17339  0.15686  0.94108  Biso   1.000  H
  H2033    1.0000 0.12407  0.08524  0.97239  Biso   1.000  H
  C1961    1.0000 0.34077  0.87857  0.97401  Biso   1.000  C
  C1962    1.0000 0.30410  0.95153  0.03748  Biso   1.000  C
  H2034    1.0000 0.92769  0.73792  0.39040  Biso   1.000  H
  H2035    1.0000 0.84479  0.80169  0.37970  Biso   1.000  H
  H2036    1.0000 0.85061  0.66906  0.37450  Biso   1.000  H
  H2037    1.0000 0.85061  0.66915  0.37450  Biso   1.000  H
  H2038    1.0000 0.92775  0.73792  0.39040  Biso   1.000  H
  H2039    1.0000 0.84485  0.80169  0.37970  Biso   1.000  H
  C1963    1.0000 0.29062  0.10714  0.24946  Biso   1.000  C
  C1964    1.0000 0.27523  0.07513  0.18007  Biso   1.000  C
  C1965    1.0000 0.29062  0.10714  0.24943  Biso   1.000  C
  C1966    1.0000 0.27523  0.07513  0.18005  Biso   1.000  C
  C1967    1.0000 0.39936  0.04931  0.99732  Biso   1.000  C
  H2040    1.0000 0.33199  0.03276  0.10981  Biso   1.000  H
  H2041    1.0000 0.33199  0.03276  0.10978  Biso   1.000  H
  H2042    1.0000 0.33199  0.03284  0.10981  Biso   1.000  H
  H2043    1.0000 0.33199  0.03284  0.10978  Biso   1.000  H
  H2044    1.0000 0.33205  0.03276  0.10981  Biso   1.000  H
  H2045    1.0000 0.33205  0.03284  0.10981  Biso   1.000  H
  C1968    1.0000 0.36340  0.21829  0.20389  Biso   1.000  C
  H2046    1.0000 0.33476  0.82350  0.95411  Biso   1.000  H
  C1969    1.0000 0.39264  0.96833  0.96784  Biso   1.000  C
  H2047    1.0000 0.33476  0.82350  0.95408  Biso   1.000  H
  C1970    1.0000 0.39270  0.96833  0.96784  Biso   1.000  C
  H2048    1.0000 0.27343  0.94568  0.06080  Biso   1.000  H
  H2049    1.0000 0.27337  0.94568  0.06080  Biso   1.000  H
  C1971    1.0000 0.34563  0.19288  0.24276  Biso   1.000  C
  H2050    1.0000 0.27719  0.08884  0.27571  Biso   1.000  H
  H2051    1.0000 0.27719  0.08884  0.27568  Biso   1.000  H
  H2052    1.0000 0.27725  0.08884  0.27571  Biso   1.000  H
  H2053    1.0000 0.27725  0.08884  0.27568  Biso   1.000  H
  H2054    1.0000 0.25169  0.03393  0.15891  Biso   1.000  H
  H2055    1.0000 0.25175  0.03393  0.15891  Biso   1.000  H
  H2056    1.0000 0.43487  0.11081  0.99371  Biso   1.000  H
  H2057    1.0000 0.43486  0.11081  0.99368  Biso   1.000  H
  H2058    1.0000 0.40062  0.27703  0.19880  Biso   1.000  H
  C1972    1.0000 0.44134  0.97560  0.93144  Biso   1.000  C
  C1973    1.0000 0.44140  0.97560  0.93144  Biso   1.000  C
  C1974    1.0000 0.39403  0.24260  0.27639  Biso   1.000  C
  C1975    1.0000 0.37309  0.27603  0.27480  Biso   1.000  C
  H2059    1.0000 0.47355  0.90623  0.92900  Biso   1.000  H
  C1976    1.0000 0.39267  0.99231  0.89366  Biso   1.000  C
  H2060    1.0000 0.48006  0.03836  0.93441  Biso   1.000  H
  H2061    1.0000 0.48006  0.03836  0.93438  Biso   1.000  H
  H2062    1.0000 0.48006  0.03844  0.93441  Biso   1.000  H
  H2063    1.0000 0.48006  0.03844  0.93438  Biso   1.000  H
  H2064    1.0000 0.36384  0.22932  0.30079  Biso   1.000  H
  H2065    1.0000 0.39644  0.32450  0.27239  Biso   1.000  H
  C1977    1.0000 0.47629  0.20257  0.28259  Biso   1.000  C
  C1978    1.0000 0.47635  0.20257  0.28259  Biso   1.000  C
  H2066    1.0000 0.34509  0.25940  0.29961  Biso   1.000  H
  C1979    1.0000 0.46371  0.26500  0.28080  Biso   1.000  C
  H2067    1.0000 0.35919  0.35308  0.26669  Biso   1.000  H
  H2068    1.0000 0.35429  0.92930  0.89019  Biso   1.000  H
  C1980    1.0000 0.44619  0.99983  0.85770  Biso   1.000  C
  H2069    1.0000 0.35423  0.92930  0.89019  Biso   1.000  H
  C1981    1.0000 0.44618  0.99983  0.85768  Biso   1.000  C
  H2070    1.0000 0.36044  0.06184  0.89569  Biso   1.000  H
  H2071    1.0000 0.36050  0.06184  0.89569  Biso   1.000  H
  H2072    1.0000 0.50783  0.21528  0.25851  Biso   1.000  H
  H2073    1.0000 0.50251  0.24561  0.30420  Biso   1.000  H
  C1982    1.0000 0.47782  0.07780  0.29291  Biso   1.000  C
  H2074    1.0000 0.50783  0.21528  0.25848  Biso   1.000  H
  C1983    1.0000 0.47782  0.07780  0.29288  Biso   1.000  C
  H2075    1.0000 0.49161  0.29818  0.25810  Biso   1.000  H
  H2076    1.0000 0.48061  0.30704  0.30470  Biso   1.000  H
  C1984    1.0000 0.48901  0.14299  0.28521  Biso   1.000  C
  H2077    1.0000 0.48038  0.93298  0.85629  Biso   1.000  H
  H2078    1.0000 0.41186  0.00476  0.83389  Biso   1.000  H
  H2079    1.0000 0.48068  0.06644  0.85970  Biso   1.000  H
  H2080    1.0000 0.41186  0.00485  0.83389  Biso   1.000  H
  H2081    1.0000 0.44044  0.03744  0.27530  Biso   1.000  H
  H2082    1.0000 0.53289  0.04864  0.28979  Biso   1.000  H
  H2083    1.0000 0.46114  0.06761  0.32019  Biso   1.000  H
  H2084    1.0000 0.44038  0.03744  0.27530  Biso   1.000  H
  H2085    1.0000 0.53296  0.04864  0.28979  Biso   1.000  H
  H2086    1.0000 0.51701  0.13279  0.31049  Biso   1.000  H
  H2087    1.0000 0.44022  0.09577  0.28421  Biso   1.000  H
  H2088    1.0000 0.52484  0.12276  0.26381  Biso   1.000  H
  C1985    1.0000 0.44611  0.50017  0.35768  Biso   1.000  C
  C1986    1.0000 0.39260  0.50769  0.39366  Biso   1.000  C
  C1987    1.0000 0.39266  0.50769  0.39366  Biso   1.000  C
  H2089    1.0000 0.48031  0.56702  0.35630  Biso   1.000  H
  H2090    1.0000 0.41179  0.49524  0.33389  Biso   1.000  H
  H2091    1.0000 0.48061  0.43365  0.35971  Biso   1.000  H
  H2092    1.0000 0.41185  0.49524  0.33389  Biso   1.000  H
  C1988    1.0000 0.44133  0.52440  0.43144  Biso   1.000  C
  H2093    1.0000 0.35422  0.57070  0.39020  Biso   1.000  H
  H2094    1.0000 0.36043  0.43824  0.39569  Biso   1.000  H
  C1989    1.0000 0.39263  0.53167  0.46784  Biso   1.000  C
  H2095    1.0000 0.47999  0.46164  0.43441  Biso   1.000  H
  H2096    1.0000 0.47354  0.59377  0.42900  Biso   1.000  H
  H2097    1.0000 0.48005  0.46164  0.43441  Biso   1.000  H
  C1990    1.0000 0.39935  0.45069  0.49733  Biso   1.000  C
  C1991    1.0000 0.34069  0.62143  0.47401  Biso   1.000  C
  C1992    1.0000 0.34076  0.62143  0.47401  Biso   1.000  C
  C1993    1.0000 0.35502  0.45730  0.53229  Biso   1.000  C
  H2098    1.0000 0.43479  0.38919  0.49371  Biso   1.000  H
  H2099    1.0000 0.43485  0.38919  0.49371  Biso   1.000  H
  C1994    1.0000 0.29732  0.63304  0.50835  Biso   1.000  C
  H2100    1.0000 0.33475  0.67650  0.45411  Biso   1.000  H
  C1995    1.0000 0.36135  0.36888  0.56277  Biso   1.000  C
  C1996    1.0000 0.30415  0.54847  0.53749  Biso   1.000  C
  C1997    1.0000 0.24661  0.72622  0.51462  Biso   1.000  C
  C1998    1.0000 0.38225  0.26074  0.55298  Biso   1.000  C
  C1999    1.0000 0.34543  0.39303  0.60240  Biso   1.000  C
  H2101    1.0000 0.27342  0.55432  0.56080  Biso   1.000  H
  C2000    1.0000 0.20464  0.80612  0.52091  Biso   1.000  C
  C2001    1.0000 0.38795  0.17541  0.58127  Biso   1.000  C
  H2102    1.0000 0.39305  0.24344  0.52629  Biso   1.000  H
  C2002    1.0000 0.34932  0.30938  0.63098  Biso   1.000  C
  H2103    1.0000 0.33204  0.46724  0.60981  Biso   1.000  H
  C2003    1.0000 0.15255  0.90130  0.52946  Biso   1.000  C
  C2004    1.0000 0.40994  0.06034  0.56818  Biso   1.000  C
  C2005    1.0000 0.37030  0.20199  0.62022  Biso   1.000  C
  C2006    1.0000 0.37037  0.20199  0.62022  Biso   1.000  C
  C2007    1.0000 0.32873  0.33913  0.67243  Biso   1.000  C
  C2008    1.0000 0.15290  0.99599  0.50568  Biso   1.000  C
  C2009    1.0000 0.10254  0.89629  0.56160  Biso   1.000  C
  C2010    1.0000 0.15296  0.99599  0.50568  Biso   1.000  C
  C2011    1.0000 0.38890  0.02641  0.53067  Biso   1.000  C
  C2012    1.0000 0.38896  0.02641  0.53067  Biso   1.000  C
  C2013    1.0000 0.45355  0.98613  0.59191  Biso   1.000  C
  H2104    1.0000 0.37302  0.14516  0.63971  Biso   1.000  H
  C2014    1.0000 0.36345  0.28171  0.70389  Biso   1.000  C
  C2015    1.0000 0.27522  0.42487  0.68005  Biso   1.000  C
  H2105    1.0000 0.18860  0.99975  0.48410  Biso   1.000  H
  C2016    1.0000 0.10090  0.08583  0.51338  Biso   1.000  C
  C2017    1.0000 0.10096  0.08583  0.51338  Biso   1.000  C
  C2018    1.0000 0.05204  0.98680  0.57042  Biso   1.000  C
  H2106    1.0000 0.10240  0.83161  0.57780  Biso   1.000  H
  H2107    1.0000 0.10246  0.83161  0.57780  Biso   1.000  H
  C2019    1.0000 0.41349  0.92278  0.51573  Biso   1.000  C
  C2020    1.0000 0.41356  0.92278  0.51573  Biso   1.000  C
  H2108    1.0000 0.35692  0.07446  0.51450  Biso   1.000  H
  C2021    1.0000 0.47741  0.88141  0.57850  Biso   1.000  C
  C2022    1.0000 0.47747  0.88141  0.57850  Biso   1.000  C
  H2109    1.0000 0.46755  0.00760  0.61799  Biso   1.000  H
  H2110    1.0000 0.40061  0.22297  0.69881  Biso   1.000  H
  C2023    1.0000 0.34562  0.30712  0.74276  Biso   1.000  C
  H2111    1.0000 0.40067  0.22297  0.69881  Biso   1.000  H
  C2024    1.0000 0.25502  0.45211  0.71912  Biso   1.000  C
  H2112    1.0000 0.25174  0.46607  0.65891  Biso   1.000  H
  C2025    1.0000 0.05121  0.07973  0.54593  Biso   1.000  C
  C2026    1.0000 0.10233  0.18745  0.48757  Biso   1.000  C
  C2027    1.0000 0.99904  0.97969  0.60573  Biso   1.000  C
  C2028    1.0000 0.39293  0.89813  0.47622  Biso   1.000  C
  C2029    1.0000 0.45854  0.85141  0.54046  Biso   1.000  C
  C2030    1.0000 0.52312  0.80094  0.60502  Biso   1.000  C
  C2031    1.0000 0.29061  0.39286  0.74946  Biso   1.000  C
  C2032    1.0000 0.39402  0.25740  0.77639  Biso   1.000  C
  C2033    1.0000 0.37314  0.22397  0.77481  Biso   1.000  C
  C2034    1.0000 0.19850  0.54153  0.72588  Biso   1.000  C
  C2035    1.0000 0.19856  0.54153  0.72588  Biso   1.000  C
  H2113    1.0000 0.01601  0.14031  0.55151  Biso   1.000  H
  H2114    1.0000 0.10581  0.16288  0.45981  Biso   1.000  H
  H2115    1.0000 0.05034  0.22798  0.49039  Biso   1.000  H
  C2036    1.0000 0.17071  0.26684  0.49624  Biso   1.000  C
  C2037    1.0000 0.92209  0.02724  0.60517  Biso   1.000  C
  C2038    1.0000 0.92215  0.02724  0.60517  Biso   1.000  C
  C2039    1.0000 0.02535  0.92378  0.63954  Biso   1.000  C
  C2040    1.0000 0.37020  0.88818  0.44217  Biso   1.000  C
  C2041    1.0000 0.37026  0.88818  0.44217  Biso   1.000  C
  H2116    1.0000 0.47621  0.78121  0.53070  Biso   1.000  H
  H2117    1.0000 0.51594  0.72430  0.59450  Biso   1.000  H
  H2118    1.0000 0.49864  0.80286  0.63139  Biso   1.000  H
  C2042    1.0000 0.61180  0.82400  0.60940  Biso   1.000  C
  C2043    1.0000 0.61187  0.82400  0.60940  Biso   1.000  C
  H2119    1.0000 0.27724  0.41116  0.77569  Biso   1.000  H
  H2120    1.0000 0.36382  0.27068  0.80079  Biso   1.000  H
  H2121    1.0000 0.39643  0.17550  0.77239  Biso   1.000  H
  C2044    1.0000 0.47634  0.29743  0.78260  Biso   1.000  C
  H2122    1.0000 0.34514  0.24060  0.79959  Biso   1.000  H
  C2045    1.0000 0.46370  0.23500  0.78080  Biso   1.000  C
  H2123    1.0000 0.35924  0.14692  0.76669  Biso   1.000  H
  C2046    1.0000 0.15004  0.61524  0.73079  Biso   1.000  C
  H2124    1.0000 0.22273  0.22597  0.49430  Biso   1.000  H
  H2125    1.0000 0.16612  0.29375  0.52361  Biso   1.000  H
  C2047    1.0000 0.17243  0.36888  0.46840  Biso   1.000  C
  C2048    1.0000 0.87154  0.01722  0.63742  Biso   1.000  C
  H2126    1.0000 0.90372  0.06702  0.58250  Biso   1.000  H
  C2049    1.0000 0.97572  0.91142  0.67217  Biso   1.000  C
  H2127    1.0000 0.07851  0.89320  0.64039  Biso   1.000  H
  C2050    1.0000 0.33129  0.88166  0.40428  Biso   1.000  C
  C2051    1.0000 0.33136  0.88166  0.40428  Biso   1.000  C
  H2128    1.0000 0.63541  0.77194  0.62910  Biso   1.000  H
  H2129    1.0000 0.61934  0.90089  0.61960  Biso   1.000  H
  C2052    1.0000 0.65630  0.81247  0.57247  Biso   1.000  C
  C2053    1.0000 0.65636  0.81247  0.57247  Biso   1.000  C
  H2130    1.0000 0.50782  0.28472  0.75849  Biso   1.000  H
  H2131    1.0000 0.50256  0.25439  0.80421  Biso   1.000  H
  C2054    1.0000 0.47781  0.42220  0.79289  Biso   1.000  C
  C2055    1.0000 0.47787  0.42220  0.79289  Biso   1.000  C
  H2132    1.0000 0.49166  0.20182  0.75811  Biso   1.000  H
  H2133    1.0000 0.48066  0.19296  0.80470  Biso   1.000  H
  C2056    1.0000 0.48906  0.35701  0.78521  Biso   1.000  C
  C2057    1.0000 0.09061  0.70182  0.73606  Biso   1.000  C
  H2134    1.0000 0.17331  0.34314  0.44109  Biso   1.000  H
  H2135    1.0000 0.22121  0.41350  0.47410  Biso   1.000  H
  H2136    1.0000 0.12400  0.41484  0.47240  Biso   1.000  H
  H2137    1.0000 0.12406  0.41484  0.47240  Biso   1.000  H
  C2058    1.0000 0.78772  0.06752  0.63504  Biso   1.000  C
  C2059    1.0000 0.89903  0.95922  0.67049  Biso   1.000  C
  C2060    1.0000 0.00515  0.84707  0.70680  Biso   1.000  C
  C2061    1.0000 0.25404  0.93114  0.40034  Biso   1.000  C
  C2062    1.0000 0.36441  0.83169  0.37153  Biso   1.000  C
  H2138    1.0000 0.63655  0.86838  0.55351  Biso   1.000  H
  H2139    1.0000 0.71441  0.82400  0.57759  Biso   1.000  H
  H2140    1.0000 0.64753  0.73751  0.56171  Biso   1.000  H
  H2141    1.0000 0.44043  0.46264  0.77530  Biso   1.000  H
  H2142    1.0000 0.53294  0.45136  0.78980  Biso   1.000  H
  H2143    1.0000 0.46113  0.43239  0.82020  Biso   1.000  H
  H2144    1.0000 0.51706  0.36721  0.81050  Biso   1.000  H
  H2145    1.0000 0.44021  0.40423  0.78421  Biso   1.000  H
  H2146    1.0000 0.52483  0.37724  0.76381  Biso   1.000  H
  C2063    1.0000 0.05854  0.72597  0.77242  Biso   1.000  C
  C2064    1.0000 0.06263  0.76224  0.70286  Biso   1.000  C
  C2065    1.0000 0.74600  0.06895  0.59964  Biso   1.000  C
  C2066    1.0000 0.74606  0.06895  0.59964  Biso   1.000  C
  C2067    1.0000 0.75192  0.11600  0.66714  Biso   1.000  C
  H2147    1.0000 0.86455  0.95228  0.69240  Biso   1.000  H
  C2068    1.0000 0.97600  0.87022  0.74491  Biso   1.000  C
  C2069    1.0000 0.97606  0.87022  0.74491  Biso   1.000  C
  C2070    1.0000 0.21232  0.93248  0.36497  Biso   1.000  C
  H2148    1.0000 0.23014  0.96432  0.42271  Biso   1.000  H
  C2071    1.0000 0.32254  0.83119  0.33551  Biso   1.000  C
  H2149    1.0000 0.41634  0.79726  0.37361  Biso   1.000  H
  H2150    1.0000 0.07665  0.68410  0.79459  Biso   1.000  H
  C2072    1.0000 0.00184  0.80779  0.77754  Biso   1.000  C
  H2151    1.0000 0.08302  0.74503  0.67761  Biso   1.000  H
  C2073    1.0000 0.66874  0.11834  0.59570  Biso   1.000  C
  H2152    1.0000 0.76990  0.03568  0.57730  Biso   1.000  H
  H2153    1.0000 0.76996  0.03568  0.57730  Biso   1.000  H
  C2074    1.0000 0.67750  0.16881  0.66447  Biso   1.000  C
  H2154    1.0000 0.77941  0.11307  0.69190  Biso   1.000  H
  H2155    1.0000 0.93823  0.92930  0.74829  Biso   1.000  H
  C2075    1.0000 0.12850  0.98278  0.36256  Biso   1.000  C
  C2076    1.0000 0.24812  0.88400  0.33287  Biso   1.000  C
  C2077    1.0000 0.35580  0.77018  0.30029  Biso   1.000  C
  C2078    1.0000 0.96804  0.83194  0.81811  Biso   1.000  C
  C2079    1.0000 0.62984  0.11182  0.55783  Biso   1.000  C
  C2080    1.0000 0.63563  0.16831  0.62848  Biso   1.000  C
  C2081    1.0000 0.64424  0.22982  0.69969  Biso   1.000  C
  C2082    1.0000 0.10101  0.04078  0.32951  Biso   1.000  C
  C2083    1.0000 0.07789  0.97284  0.39484  Biso   1.000  C
  C2084    1.0000 0.07795  0.97284  0.39484  Biso   1.000  C
  H2156    1.0000 0.22063  0.88693  0.30811  Biso   1.000  H
  H2157    1.0000 0.35709  0.82116  0.27739  Biso   1.000  H
  H2158    1.0000 0.41200  0.74503  0.30611  Biso   1.000  H
  C2085    1.0000 0.29811  0.66179  0.28991  Biso   1.000  C
  H2159    1.0000 0.35715  0.82116  0.27739  Biso   1.000  H
  H2160    1.0000 0.41206  0.74503  0.30611  Biso   1.000  H
  H2161    1.0000 0.01361  0.83562  0.83740  Biso   1.000  H
  H2162    1.0000 0.01367  0.83562  0.83740  Biso   1.000  H
  H2163    1.0000 0.94100  0.90582  0.81770  Biso   1.000  H
  C2086    1.0000 0.90793  0.74461  0.83140  Biso   1.000  C
  H2164    1.0000 0.94106  0.90582  0.81770  Biso   1.000  H
  C2087    1.0000 0.60711  0.10187  0.52379  Biso   1.000  C
  H2165    1.0000 0.58370  0.20274  0.62639  Biso   1.000  H
  H2166    1.0000 0.64294  0.17884  0.72259  Biso   1.000  H
  H2167    1.0000 0.58804  0.25497  0.69390  Biso   1.000  H
  C2088    1.0000 0.70193  0.33821  0.71010  Biso   1.000  C
  C2089    1.0000 0.02432  0.08858  0.32781  Biso   1.000  C
  H2168    1.0000 0.13549  0.04772  0.30761  Biso   1.000  H
  H2169    1.0000 0.13555  0.04772  0.30761  Biso   1.000  H
  C2090    1.0000 0.00100  0.02031  0.39425  Biso   1.000  C
  H2170    1.0000 0.09632  0.93298  0.41751  Biso   1.000  H
  H2171    1.0000 0.24158  0.68720  0.28500  Biso   1.000  H
  H2172    1.0000 0.29815  0.61023  0.31261  Biso   1.000  H
  C2091    1.0000 0.32843  0.60070  0.25399  Biso   1.000  C
  H2173    1.0000 0.24165  0.68720  0.28500  Biso   1.000  H
  H2174    1.0000 0.85992  0.74628  0.81350  Biso   1.000  H
  H2175    1.0000 0.93322  0.66990  0.82911  Biso   1.000  H
  C2092    1.0000 0.88040  0.76032  0.87250  Biso   1.000  C
  C2093    1.0000 0.88046  0.76032  0.87250  Biso   1.000  C
  C2094    1.0000 0.58648  0.07722  0.48428  Biso   1.000  C
  C2095    1.0000 0.58654  0.07722  0.48428  Biso   1.000  C
  H2176    1.0000 0.75839  0.31280  0.71501  Biso   1.000  H
  H2177    1.0000 0.70189  0.38977  0.68740  Biso   1.000  H
  C2096    1.0000 0.67161  0.39930  0.74599  Biso   1.000  C
  H2178    1.0000 0.75845  0.31280  0.71501  Biso   1.000  H
  H2179    1.0000 0.70196  0.38977  0.68740  Biso   1.000  H
  C2097    1.0000 0.99489  0.15293  0.29321  Biso   1.000  C
  C2098    1.0000 0.99495  0.15293  0.29321  Biso   1.000  C
  C2099    1.0000 0.97469  0.07622  0.36047  Biso   1.000  C
  C2100    1.0000 0.97475  0.07622  0.36047  Biso   1.000  C
  C2101    1.0000 0.94800  0.01320  0.42959  Biso   1.000  C
  H2180    1.0000 0.38781  0.59560  0.25540  Biso   1.000  H
  H2181    1.0000 0.30509  0.52532  0.25319  Biso   1.000  H
  H2182    1.0000 0.31184  0.64157  0.23020  Biso   1.000  H
  H2183    1.0000 0.30515  0.52532  0.25319  Biso   1.000  H
  H2184    1.0000 0.92774  0.76208  0.89041  Biso   1.000  H
  H2185    1.0000 0.84484  0.69831  0.87970  Biso   1.000  H
  H2186    1.0000 0.85060  0.83094  0.87450  Biso   1.000  H
  H2187    1.0000 0.85066  0.83094  0.87450  Biso   1.000  H
  C2102    1.0000 0.61114  0.97359  0.46931  Biso   1.000  C
  C2103    1.0000 0.54150  0.14859  0.45955  Biso   1.000  C
  H2188    1.0000 0.61223  0.40440  0.74461  Biso   1.000  H
  H2189    1.0000 0.69495  0.47468  0.74679  Biso   1.000  H
  H2190    1.0000 0.68820  0.35843  0.76981  Biso   1.000  H
  H2191    1.0000 0.68826  0.35843  0.76981  Biso   1.000  H
  C2104    1.0000 0.02398  0.12978  0.25510  Biso   1.000  C
  C2105    1.0000 0.02404  0.12978  0.25510  Biso   1.000  C
  C2106    1.0000 0.93741  0.23784  0.29714  Biso   1.000  C
  H2192    1.0000 0.92153  0.10680  0.35959  Biso   1.000  H
  C2107    1.0000 0.94883  0.92027  0.45408  Biso   1.000  C
  C2108    1.0000 0.89750  0.10371  0.43838  Biso   1.000  C
  C2109    1.0000 0.59010  0.93975  0.43183  Biso   1.000  C
  H2193    1.0000 0.64312  0.92554  0.48551  Biso   1.000  H
  C2110    1.0000 0.52263  0.11859  0.42151  Biso   1.000  C
  H2194    1.0000 0.52383  0.21879  0.46931  Biso   1.000  H
  C2111    1.0000 0.99820  0.19221  0.22244  Biso   1.000  C
  H2195    1.0000 0.06180  0.07070  0.25169  Biso   1.000  H
  C2112    1.0000 0.90943  0.29818  0.26395  Biso   1.000  C
  H2196    1.0000 0.91702  0.25497  0.32240  Biso   1.000  H
  H2197    1.0000 0.98403  0.85969  0.44850  Biso   1.000  H
  C2113    1.0000 0.89914  0.91417  0.48663  Biso   1.000  C
  C2114    1.0000 0.84749  0.09870  0.47055  Biso   1.000  C
  H2198    1.0000 0.89764  0.16839  0.42221  Biso   1.000  H
  C2115    1.0000 0.84755  0.09870  0.47055  Biso   1.000  C
  C2116    1.0000 0.61209  0.82459  0.41871  Biso   1.000  C
  C2117    1.0000 0.61215  0.82459  0.41871  Biso   1.000  C
  C2118    1.0000 0.54649  0.01387  0.40810  Biso   1.000  C
  C2119    1.0000 0.47692  0.19915  0.39496  Biso   1.000  C
  C2120    1.0000 0.03200  0.16814  0.18187  Biso   1.000  C
  C2121    1.0000 0.94150  0.27403  0.22758  Biso   1.000  C
  C2122    1.0000 0.85000  0.38484  0.26921  Biso   1.000  C
  C2123    1.0000 0.89771  0.81264  0.51244  Biso   1.000  C
  C2124    1.0000 0.84714  0.00401  0.49433  Biso   1.000  C
  C2125    1.0000 0.79540  0.19388  0.47910  Biso   1.000  C
  C2126    1.0000 0.62974  0.79801  0.37979  Biso   1.000  C
  C2127    1.0000 0.61779  0.73934  0.44700  Biso   1.000  C
  C2128    1.0000 0.61785  0.73934  0.44700  Biso   1.000  C
  H2199    1.0000 0.53249  0.99240  0.38199  Biso   1.000  H
  H2200    1.0000 0.53255  0.99240  0.38199  Biso   1.000  H
  H2201    1.0000 0.48410  0.27570  0.40551  Biso   1.000  H
  H2202    1.0000 0.50140  0.19714  0.36859  Biso   1.000  H
  C2129    1.0000 0.38823  0.17600  0.39061  Biso   1.000  C
  C2130    1.0000 0.09211  0.25539  0.16861  Biso   1.000  C
  H2203    1.0000 0.05904  0.09418  0.18231  Biso   1.000  H
  H2204    1.0000 0.98643  0.16438  0.16261  Biso   1.000  H
  H2205    1.0000 0.92339  0.31590  0.20539  Biso   1.000  H
  H2206    1.0000 0.92345  0.31590  0.20539  Biso   1.000  H
  C2131    1.0000 0.80148  0.45847  0.27412  Biso   1.000  C
  C2132    1.0000 0.80154  0.45847  0.27412  Biso   1.000  C
  H2207    1.0000 0.89423  0.83712  0.54019  Biso   1.000  H
  H2208    1.0000 0.94970  0.77202  0.50959  Biso   1.000  H
  C2133    1.0000 0.82933  0.73316  0.50377  Biso   1.000  C
  H2209    1.0000 0.81144  0.00033  0.51591  Biso   1.000  H
  C2134    1.0000 0.75343  0.27378  0.48539  Biso   1.000  C
  C2135    1.0000 0.65072  0.69062  0.36903  Biso   1.000  C
  H2210    1.0000 0.62702  0.85484  0.36030  Biso   1.000  H
  C2136    1.0000 0.63869  0.63112  0.43724  Biso   1.000  C
  C2137    1.0000 0.63875  0.63112  0.43724  Biso   1.000  C
  H2211    1.0000 0.60699  0.75664  0.47369  Biso   1.000  H
  H2212    1.0000 0.60705  0.75664  0.47369  Biso   1.000  H
  H2213    1.0000 0.36463  0.22815  0.37091  Biso   1.000  H
  H2214    1.0000 0.38070  0.09911  0.38041  Biso   1.000  H
  C2138    1.0000 0.34368  0.18753  0.42753  Biso   1.000  C
  C2139    1.0000 0.34374  0.18753  0.42753  Biso   1.000  C
  H2215    1.0000 0.14012  0.25372  0.18651  Biso   1.000  H
  H2216    1.0000 0.06682  0.33010  0.17090  Biso   1.000  H
  C2140    1.0000 0.11958  0.23968  0.12751  Biso   1.000  C
  C2141    1.0000 0.11964  0.23968  0.12751  Biso   1.000  C
  C2142    1.0000 0.74502  0.54789  0.28089  Biso   1.000  C
  H2217    1.0000 0.77731  0.77403  0.50571  Biso   1.000  H
  H2218    1.0000 0.83392  0.70633  0.47640  Biso   1.000  H
  C2143    1.0000 0.82761  0.63112  0.53161  Biso   1.000  C
  C2144    1.0000 0.70272  0.36704  0.49165  Biso   1.000  C
  C2145    1.0000 0.67131  0.66087  0.32757  Biso   1.000  C
  C2146    1.0000 0.65461  0.60697  0.39760  Biso   1.000  C
  C2147    1.0000 0.64502  0.54270  0.46772  Biso   1.000  C
  H2219    1.0000 0.36349  0.13162  0.44650  Biso   1.000  H
  H2220    1.0000 0.28563  0.17600  0.42239  Biso   1.000  H
  H2221    1.0000 0.35251  0.26249  0.43829  Biso   1.000  H
  H2222    1.0000 0.07230  0.23792  0.10960  Biso   1.000  H
  H2223    1.0000 0.15520  0.30169  0.12030  Biso   1.000  H
  H2224    1.0000 0.14938  0.16906  0.12551  Biso   1.000  H
  H2225    1.0000 0.14944  0.16906  0.12551  Biso   1.000  H
  C2148    1.0000 0.70943  0.60714  0.25055  Biso   1.000  C
  C2149    1.0000 0.72482  0.57513  0.31993  Biso   1.000  C
  H2226    1.0000 0.82672  0.65686  0.55889  Biso   1.000  H
  H2227    1.0000 0.77883  0.58650  0.52591  Biso   1.000  H
  H2228    1.0000 0.87604  0.58516  0.52761  Biso   1.000  H
  C2150    1.0000 0.65934  0.37857  0.52599  Biso   1.000  C
  C2151    1.0000 0.69589  0.45153  0.46252  Biso   1.000  C
  C2152    1.0000 0.69595  0.45153  0.46252  Biso   1.000  C
  C2153    1.0000 0.63658  0.71829  0.29609  Biso   1.000  C
  C2154    1.0000 0.63665  0.71829  0.29609  Biso   1.000  C
  H2229    1.0000 0.66800  0.53284  0.39020  Biso   1.000  H
  C2155    1.0000 0.60069  0.54931  0.50268  Biso   1.000  C
  C2156    1.0000 0.60075  0.54931  0.50268  Biso   1.000  C
  C2157    1.0000 0.65442  0.69288  0.25725  Biso   1.000  C
  H2230    1.0000 0.72280  0.58884  0.22429  Biso   1.000  H
  H2231    1.0000 0.74830  0.53393  0.34110  Biso   1.000  H
  H2232    1.0000 0.66529  0.32350  0.54590  Biso   1.000  H
  C2158    1.0000 0.60741  0.46833  0.53217  Biso   1.000  C
  H2233    1.0000 0.66535  0.32350  0.54590  Biso   1.000  H
  H2234    1.0000 0.72662  0.44568  0.43921  Biso   1.000  H
  H2235    1.0000 0.59943  0.77703  0.30120  Biso   1.000  H
  H2236    1.0000 0.56519  0.61081  0.50630  Biso   1.000  H
  H2237    1.0000 0.56525  0.61081  0.50630  Biso   1.000  H
  C2159    1.0000 0.60602  0.74260  0.22359  Biso   1.000  C
  C2160    1.0000 0.62690  0.77603  0.22520  Biso   1.000  C
  C2161    1.0000 0.55871  0.47560  0.56856  Biso   1.000  C
  H2238    1.0000 0.63621  0.72932  0.19921  Biso   1.000  H
  H2239    1.0000 0.60361  0.82450  0.22761  Biso   1.000  H
  C2162    1.0000 0.52370  0.70257  0.21741  Biso   1.000  C
  H2240    1.0000 0.65490  0.75940  0.20039  Biso   1.000  H
  C2163    1.0000 0.53634  0.76500  0.21921  Biso   1.000  C
  H2241    1.0000 0.64079  0.85308  0.23329  Biso   1.000  H
  H2242    1.0000 0.51999  0.53844  0.56560  Biso   1.000  H
  H2243    1.0000 0.52650  0.40623  0.57100  Biso   1.000  H
  C2164    1.0000 0.60744  0.49231  0.60634  Biso   1.000  C
  H2244    1.0000 0.52005  0.53844  0.56560  Biso   1.000  H
  H2245    1.0000 0.49222  0.71528  0.24149  Biso   1.000  H
  H2246    1.0000 0.49748  0.74561  0.19580  Biso   1.000  H
  C2165    1.0000 0.52217  0.57780  0.20709  Biso   1.000  C
  H2247    1.0000 0.49754  0.74561  0.19580  Biso   1.000  H
  C2166    1.0000 0.52223  0.57780  0.20709  Biso   1.000  C
  H2248    1.0000 0.50844  0.79818  0.24190  Biso   1.000  H
  H2249    1.0000 0.51944  0.80704  0.19530  Biso   1.000  H
  C2167    1.0000 0.51104  0.64299  0.21480  Biso   1.000  C
  H2250    1.0000 0.64582  0.42930  0.60981  Biso   1.000  H
  H2251    1.0000 0.63961  0.56184  0.60429  Biso   1.000  H
  C2168    1.0000 0.55393  0.49983  0.64230  Biso   1.000  C
  H2252    1.0000 0.55961  0.53744  0.22470  Biso   1.000  H
  H2253    1.0000 0.46709  0.54864  0.21021  Biso   1.000  H
  H2254    1.0000 0.53891  0.56761  0.17981  Biso   1.000  H
  H2255    1.0000 0.48304  0.63279  0.18951  Biso   1.000  H
  H2256    1.0000 0.55983  0.59577  0.21580  Biso   1.000  H
  H2257    1.0000 0.47521  0.62276  0.23620  Biso   1.000  H
  H2258    1.0000 0.51973  0.43298  0.64371  Biso   1.000  H
  H2259    1.0000 0.58825  0.50476  0.66611  Biso   1.000  H
  H2260    1.0000 0.51943  0.56644  0.64030  Biso   1.000  H
  C2169    1.0000 0.44611  0.50017  0.35768  Biso   1.000  C
  C2170    1.0000 0.39260  0.50769  0.39366  Biso   1.000  C
  C2171    1.0000 0.39266  0.50769  0.39366  Biso   1.000  C
  H2261    1.0000 0.48031  0.56702  0.35630  Biso   1.000  H
  H2262    1.0000 0.48061  0.43365  0.35971  Biso   1.000  H
  H2263    1.0000 0.41179  0.49524  0.33389  Biso   1.000  H
  H2264    1.0000 0.41185  0.49524  0.33389  Biso   1.000  H
  C2172    1.0000 0.44133  0.52440  0.43144  Biso   1.000  C
  H2265    1.0000 0.35422  0.57070  0.39020  Biso   1.000  H
  H2266    1.0000 0.36043  0.43824  0.39569  Biso   1.000  H
  C2173    1.0000 0.39263  0.53167  0.46784  Biso   1.000  C
  H2267    1.0000 0.47354  0.59377  0.42900  Biso   1.000  H
  H2268    1.0000 0.47999  0.46164  0.43441  Biso   1.000  H
  H2269    1.0000 0.48005  0.46164  0.43441  Biso   1.000  H
  C2174    1.0000 0.39935  0.45069  0.49733  Biso   1.000  C
  C2175    1.0000 0.34069  0.62143  0.47401  Biso   1.000  C
  C2176    1.0000 0.34076  0.62143  0.47401  Biso   1.000  C
  C2177    1.0000 0.35502  0.45730  0.53229  Biso   1.000  C
  H2270    1.0000 0.43479  0.38919  0.49371  Biso   1.000  H
  H2271    1.0000 0.43485  0.38919  0.49371  Biso   1.000  H
  C2178    1.0000 0.29732  0.63304  0.50835  Biso   1.000  C
  H2272    1.0000 0.33475  0.67650  0.45411  Biso   1.000  H
  C2179    1.0000 0.36135  0.36888  0.56277  Biso   1.000  C
  C2180    1.0000 0.30415  0.54847  0.53749  Biso   1.000  C
  C2181    1.0000 0.24661  0.72622  0.51462  Biso   1.000  C
  C2182    1.0000 0.38225  0.26074  0.55298  Biso   1.000  C
  C2183    1.0000 0.34543  0.39303  0.60240  Biso   1.000  C
  H2273    1.0000 0.27342  0.55432  0.56080  Biso   1.000  H
  C2184    1.0000 0.20464  0.80612  0.52091  Biso   1.000  C
  C2185    1.0000 0.38795  0.17541  0.58127  Biso   1.000  C
  H2274    1.0000 0.39305  0.24344  0.52629  Biso   1.000  H
  C2186    1.0000 0.34932  0.30938  0.63098  Biso   1.000  C
  H2275    1.0000 0.33204  0.46724  0.60981  Biso   1.000  H
  C2187    1.0000 0.15255  0.90130  0.52946  Biso   1.000  C
  C2188    1.0000 0.40994  0.06034  0.56818  Biso   1.000  C
  C2189    1.0000 0.37030  0.20199  0.62022  Biso   1.000  C
  C2190    1.0000 0.37037  0.20199  0.62022  Biso   1.000  C
  C2191    1.0000 0.32873  0.33913  0.67243  Biso   1.000  C
  C2192    1.0000 0.10254  0.89629  0.56160  Biso   1.000  C
  C2193    1.0000 0.15290  0.99599  0.50568  Biso   1.000  C
  C2194    1.0000 0.15296  0.99599  0.50568  Biso   1.000  C
  C2195    1.0000 0.38890  0.02641  0.53067  Biso   1.000  C
  C2196    1.0000 0.38896  0.02641  0.53067  Biso   1.000  C
  C2197    1.0000 0.45355  0.98613  0.59191  Biso   1.000  C
  H2276    1.0000 0.37302  0.14516  0.63971  Biso   1.000  H
  C2198    1.0000 0.36345  0.28171  0.70389  Biso   1.000  C
  C2199    1.0000 0.27522  0.42487  0.68005  Biso   1.000  C
  C2200    1.0000 0.05204  0.98680  0.57042  Biso   1.000  C
  H2277    1.0000 0.10240  0.83161  0.57780  Biso   1.000  H
  H2278    1.0000 0.10246  0.83161  0.57780  Biso   1.000  H
  C2201    1.0000 0.10090  0.08583  0.51338  Biso   1.000  C
  C2202    1.0000 0.10096  0.08583  0.51338  Biso   1.000  C
  H2279    1.0000 0.18860  0.99975  0.48410  Biso   1.000  H
  C2203    1.0000 0.41349  0.92278  0.51573  Biso   1.000  C
  C2204    1.0000 0.41356  0.92278  0.51573  Biso   1.000  C
  H2280    1.0000 0.35692  0.07446  0.51450  Biso   1.000  H
  C2205    1.0000 0.47741  0.88141  0.57850  Biso   1.000  C
  C2206    1.0000 0.47747  0.88141  0.57850  Biso   1.000  C
  H2281    1.0000 0.46755  0.00760  0.61799  Biso   1.000  H
  C2207    1.0000 0.34562  0.30712  0.74276  Biso   1.000  C
  H2282    1.0000 0.40061  0.22297  0.69881  Biso   1.000  H
  H2283    1.0000 0.40067  0.22297  0.69881  Biso   1.000  H
  C2208    1.0000 0.25502  0.45211  0.71912  Biso   1.000  C
  H2284    1.0000 0.25174  0.46607  0.65891  Biso   1.000  H
  C2209    1.0000 0.99904  0.97969  0.60573  Biso   1.000  C
  C2210    1.0000 0.05121  0.07973  0.54593  Biso   1.000  C
  C2211    1.0000 0.10233  0.18745  0.48757  Biso   1.000  C
  C2212    1.0000 0.39293  0.89813  0.47622  Biso   1.000  C
  C2213    1.0000 0.45854  0.85141  0.54046  Biso   1.000  C
  C2214    1.0000 0.52312  0.80094  0.60502  Biso   1.000  C
  C2215    1.0000 0.29061  0.39286  0.74946  Biso   1.000  C
  C2216    1.0000 0.39402  0.25740  0.77639  Biso   1.000  C
  C2217    1.0000 0.37314  0.22397  0.77481  Biso   1.000  C
  C2218    1.0000 0.19850  0.54153  0.72588  Biso   1.000  C
  C2219    1.0000 0.19856  0.54153  0.72588  Biso   1.000  C
  C2220    1.0000 0.92209  0.02724  0.60517  Biso   1.000  C
  C2221    1.0000 0.92215  0.02724  0.60517  Biso   1.000  C
  C2222    1.0000 0.02535  0.92378  0.63954  Biso   1.000  C
  H2285    1.0000 0.01601  0.14031  0.55151  Biso   1.000  H
  H2286    1.0000 0.10581  0.16288  0.45981  Biso   1.000  H
  H2287    1.0000 0.05034  0.22798  0.49039  Biso   1.000  H
  C2223    1.0000 0.17071  0.26684  0.49624  Biso   1.000  C
  C2224    1.0000 0.37020  0.88818  0.44217  Biso   1.000  C
  C2225    1.0000 0.37026  0.88818  0.44217  Biso   1.000  C
  H2288    1.0000 0.47621  0.78121  0.53070  Biso   1.000  H
  H2289    1.0000 0.51594  0.72430  0.59450  Biso   1.000  H
  H2290    1.0000 0.49864  0.80286  0.63139  Biso   1.000  H
  C2226    1.0000 0.61180  0.82400  0.60940  Biso   1.000  C
  C2227    1.0000 0.61187  0.82400  0.60940  Biso   1.000  C
  H2291    1.0000 0.27724  0.41116  0.77569  Biso   1.000  H
  H2292    1.0000 0.36382  0.27068  0.80079  Biso   1.000  H
  H2293    1.0000 0.39643  0.17550  0.77239  Biso   1.000  H
  C2228    1.0000 0.47634  0.29743  0.78260  Biso   1.000  C
  H2294    1.0000 0.34514  0.24060  0.79959  Biso   1.000  H
  C2229    1.0000 0.46370  0.23500  0.78080  Biso   1.000  C
  H2295    1.0000 0.35924  0.14692  0.76669  Biso   1.000  H
  C2230    1.0000 0.15004  0.61524  0.73079  Biso   1.000  C
  C2231    1.0000 0.87154  0.01722  0.63742  Biso   1.000  C
  H2296    1.0000 0.90372  0.06702  0.58250  Biso   1.000  H
  C2232    1.0000 0.97572  0.91142  0.67217  Biso   1.000  C
  H2297    1.0000 0.07851  0.89320  0.64039  Biso   1.000  H
  H2298    1.0000 0.22273  0.22597  0.49430  Biso   1.000  H
  H2299    1.0000 0.16612  0.29375  0.52361  Biso   1.000  H
  C2233    1.0000 0.17243  0.36888  0.46840  Biso   1.000  C
  C2234    1.0000 0.33129  0.88166  0.40428  Biso   1.000  C
  C2235    1.0000 0.33136  0.88166  0.40428  Biso   1.000  C
  H2300    1.0000 0.63541  0.77194  0.62910  Biso   1.000  H
  H2301    1.0000 0.61934  0.90089  0.61960  Biso   1.000  H
  C2236    1.0000 0.65630  0.81247  0.57247  Biso   1.000  C
  C2237    1.0000 0.65636  0.81247  0.57247  Biso   1.000  C
  H2302    1.0000 0.50782  0.28472  0.75849  Biso   1.000  H
  H2303    1.0000 0.50256  0.25439  0.80421  Biso   1.000  H
  C2238    1.0000 0.47781  0.42220  0.79289  Biso   1.000  C
  C2239    1.0000 0.47787  0.42220  0.79289  Biso   1.000  C
  H2304    1.0000 0.49166  0.20182  0.75811  Biso   1.000  H
  H2305    1.0000 0.48066  0.19296  0.80470  Biso   1.000  H
  C2240    1.0000 0.48906  0.35701  0.78521  Biso   1.000  C
  C2241    1.0000 0.09061  0.70182  0.73606  Biso   1.000  C
  C2242    1.0000 0.78772  0.06752  0.63504  Biso   1.000  C
  C2243    1.0000 0.89903  0.95922  0.67049  Biso   1.000  C
  C2244    1.0000 0.00515  0.84707  0.70680  Biso   1.000  C
  H2306    1.0000 0.17331  0.34314  0.44109  Biso   1.000  H
  H2307    1.0000 0.22121  0.41350  0.47410  Biso   1.000  H
  H2308    1.0000 0.12400  0.41484  0.47240  Biso   1.000  H
  H2309    1.0000 0.12406  0.41484  0.47240  Biso   1.000  H
  C2245    1.0000 0.25404  0.93114  0.40034  Biso   1.000  C
  C2246    1.0000 0.36441  0.83169  0.37153  Biso   1.000  C
  H2310    1.0000 0.63655  0.86838  0.55351  Biso   1.000  H
  H2311    1.0000 0.71441  0.82400  0.57759  Biso   1.000  H
  H2312    1.0000 0.64753  0.73751  0.56171  Biso   1.000  H
  H2313    1.0000 0.44043  0.46264  0.77530  Biso   1.000  H
  H2314    1.0000 0.53294  0.45136  0.78980  Biso   1.000  H
  H2315    1.0000 0.46113  0.43239  0.82020  Biso   1.000  H
  H2316    1.0000 0.51706  0.36721  0.81050  Biso   1.000  H
  H2317    1.0000 0.44021  0.40423  0.78421  Biso   1.000  H
  H2318    1.0000 0.52483  0.37724  0.76381  Biso   1.000  H
  C2247    1.0000 0.06263  0.76224  0.70286  Biso   1.000  C
  C2248    1.0000 0.05854  0.72597  0.77242  Biso   1.000  C
  C2249    1.0000 0.74600  0.06895  0.59964  Biso   1.000  C
  C2250    1.0000 0.74606  0.06895  0.59964  Biso   1.000  C
  C2251    1.0000 0.75192  0.11600  0.66714  Biso   1.000  C
  H2319    1.0000 0.86455  0.95228  0.69240  Biso   1.000  H
  C2252    1.0000 0.97600  0.87022  0.74491  Biso   1.000  C
  C2253    1.0000 0.97606  0.87022  0.74491  Biso   1.000  C
  C2254    1.0000 0.21232  0.93248  0.36497  Biso   1.000  C
  H2320    1.0000 0.23014  0.96432  0.42271  Biso   1.000  H
  C2255    1.0000 0.32254  0.83119  0.33551  Biso   1.000  C
  H2321    1.0000 0.41634  0.79726  0.37361  Biso   1.000  H
  H2322    1.0000 0.08302  0.74503  0.67761  Biso   1.000  H
  C2256    1.0000 0.00184  0.80779  0.77754  Biso   1.000  C
  H2323    1.0000 0.07665  0.68410  0.79459  Biso   1.000  H
  C2257    1.0000 0.66874  0.11834  0.59570  Biso   1.000  C
  H2324    1.0000 0.76990  0.03568  0.57730  Biso   1.000  H
  H2325    1.0000 0.76996  0.03568  0.57730  Biso   1.000  H
  C2258    1.0000 0.67750  0.16881  0.66447  Biso   1.000  C
  H2326    1.0000 0.77941  0.11307  0.69190  Biso   1.000  H
  H2327    1.0000 0.93823  0.92930  0.74829  Biso   1.000  H
  C2259    1.0000 0.12850  0.98278  0.36256  Biso   1.000  C
  C2260    1.0000 0.24812  0.88400  0.33287  Biso   1.000  C
  C2261    1.0000 0.35580  0.77018  0.30029  Biso   1.000  C
  C2262    1.0000 0.96804  0.83194  0.81811  Biso   1.000  C
  C2263    1.0000 0.62984  0.11182  0.55783  Biso   1.000  C
  C2264    1.0000 0.63563  0.16831  0.62848  Biso   1.000  C
  C2265    1.0000 0.64424  0.22982  0.69969  Biso   1.000  C
  C2266    1.0000 0.10101  0.04078  0.32951  Biso   1.000  C
  C2267    1.0000 0.07789  0.97284  0.39484  Biso   1.000  C
  C2268    1.0000 0.07795  0.97284  0.39484  Biso   1.000  C
  H2328    1.0000 0.22063  0.88693  0.30811  Biso   1.000  H
  H2329    1.0000 0.35709  0.82116  0.27739  Biso   1.000  H
  H2330    1.0000 0.41200  0.74503  0.30611  Biso   1.000  H
  C2269    1.0000 0.29811  0.66179  0.28991  Biso   1.000  C
  H2331    1.0000 0.35715  0.82116  0.27739  Biso   1.000  H
  H2332    1.0000 0.41206  0.74503  0.30611  Biso   1.000  H
  H2333    1.0000 0.94100  0.90582  0.81770  Biso   1.000  H
  C2270    1.0000 0.90793  0.74461  0.83140  Biso   1.000  C
  H2334    1.0000 0.94106  0.90582  0.81770  Biso   1.000  H
  H2335    1.0000 0.01361  0.83562  0.83740  Biso   1.000  H
  H2336    1.0000 0.01367  0.83562  0.83740  Biso   1.000  H
  C2271    1.0000 0.60711  0.10187  0.52379  Biso   1.000  C
  H2337    1.0000 0.58370  0.20274  0.62639  Biso   1.000  H
  H2338    1.0000 0.64294  0.17884  0.72259  Biso   1.000  H
  H2339    1.0000 0.58804  0.25497  0.69390  Biso   1.000  H
  C2272    1.0000 0.70193  0.33821  0.71010  Biso   1.000  C
  C2273    1.0000 0.02432  0.08858  0.32781  Biso   1.000  C
  H2340    1.0000 0.13549  0.04772  0.30761  Biso   1.000  H
  H2341    1.0000 0.13555  0.04772  0.30761  Biso   1.000  H
  C2274    1.0000 0.00100  0.02031  0.39425  Biso   1.000  C
  H2342    1.0000 0.09632  0.93298  0.41751  Biso   1.000  H
  H2343    1.0000 0.24158  0.68720  0.28500  Biso   1.000  H
  H2344    1.0000 0.29815  0.61023  0.31261  Biso   1.000  H
  C2275    1.0000 0.32843  0.60070  0.25399  Biso   1.000  C
  H2345    1.0000 0.24165  0.68720  0.28500  Biso   1.000  H
  H2346    1.0000 0.85992  0.74628  0.81350  Biso   1.000  H
  H2347    1.0000 0.93322  0.66990  0.82911  Biso   1.000  H
  C2276    1.0000 0.88040  0.76032  0.87250  Biso   1.000  C
  C2277    1.0000 0.88046  0.76032  0.87250  Biso   1.000  C
  C2278    1.0000 0.58648  0.07722  0.48428  Biso   1.000  C
  C2279    1.0000 0.58654  0.07722  0.48428  Biso   1.000  C
  H2348    1.0000 0.75839  0.31280  0.71501  Biso   1.000  H
  H2349    1.0000 0.70189  0.38977  0.68740  Biso   1.000  H
  C2280    1.0000 0.67161  0.39930  0.74599  Biso   1.000  C
  H2350    1.0000 0.75845  0.31280  0.71501  Biso   1.000  H
  H2351    1.0000 0.70196  0.38977  0.68740  Biso   1.000  H
  C2281    1.0000 0.99489  0.15293  0.29321  Biso   1.000  C
  C2282    1.0000 0.99495  0.15293  0.29321  Biso   1.000  C
  C2283    1.0000 0.97469  0.07622  0.36047  Biso   1.000  C
  C2284    1.0000 0.97475  0.07622  0.36047  Biso   1.000  C
  C2285    1.0000 0.94800  0.01320  0.42959  Biso   1.000  C
  H2352    1.0000 0.38781  0.59560  0.25540  Biso   1.000  H
  H2353    1.0000 0.30509  0.52532  0.25319  Biso   1.000  H
  H2354    1.0000 0.31184  0.64157  0.23020  Biso   1.000  H
  H2355    1.0000 0.30515  0.52532  0.25319  Biso   1.000  H
  H2356    1.0000 0.92774  0.76208  0.89041  Biso   1.000  H
  H2357    1.0000 0.84484  0.69831  0.87970  Biso   1.000  H
  H2358    1.0000 0.85060  0.83094  0.87450  Biso   1.000  H
  H2359    1.0000 0.85066  0.83094  0.87450  Biso   1.000  H
  C2286    1.0000 0.61114  0.97359  0.46931  Biso   1.000  C
  C2287    1.0000 0.54150  0.14859  0.45955  Biso   1.000  C
  H2360    1.0000 0.61223  0.40440  0.74461  Biso   1.000  H
  H2361    1.0000 0.69495  0.47468  0.74679  Biso   1.000  H
  H2362    1.0000 0.68820  0.35843  0.76981  Biso   1.000  H
  H2363    1.0000 0.68826  0.35843  0.76981  Biso   1.000  H
  C2288    1.0000 0.02398  0.12978  0.25510  Biso   1.000  C
  C2289    1.0000 0.02404  0.12978  0.25510  Biso   1.000  C
  C2290    1.0000 0.93741  0.23784  0.29714  Biso   1.000  C
  H2364    1.0000 0.92153  0.10680  0.35959  Biso   1.000  H
  C2291    1.0000 0.94883  0.92027  0.45408  Biso   1.000  C
  C2292    1.0000 0.89750  0.10371  0.43838  Biso   1.000  C
  C2293    1.0000 0.59010  0.93975  0.43183  Biso   1.000  C
  H2365    1.0000 0.64312  0.92554  0.48551  Biso   1.000  H
  C2294    1.0000 0.52263  0.11859  0.42151  Biso   1.000  C
  H2366    1.0000 0.52383  0.21879  0.46931  Biso   1.000  H
  C2295    1.0000 0.99820  0.19221  0.22244  Biso   1.000  C
  H2367    1.0000 0.06180  0.07070  0.25169  Biso   1.000  H
  C2296    1.0000 0.90943  0.29818  0.26395  Biso   1.000  C
  H2368    1.0000 0.91702  0.25497  0.32240  Biso   1.000  H
  H2369    1.0000 0.98403  0.85969  0.44850  Biso   1.000  H
  C2297    1.0000 0.89914  0.91417  0.48663  Biso   1.000  C
  C2298    1.0000 0.84749  0.09870  0.47055  Biso   1.000  C
  H2370    1.0000 0.89764  0.16839  0.42221  Biso   1.000  H
  C2299    1.0000 0.84755  0.09870  0.47055  Biso   1.000  C
  C2300    1.0000 0.61209  0.82459  0.41871  Biso   1.000  C
  C2301    1.0000 0.61215  0.82459  0.41871  Biso   1.000  C
  C2302    1.0000 0.54649  0.01387  0.40810  Biso   1.000  C
  C2303    1.0000 0.47692  0.19915  0.39496  Biso   1.000  C
  C2304    1.0000 0.03200  0.16814  0.18187  Biso   1.000  C
  C2305    1.0000 0.94150  0.27403  0.22758  Biso   1.000  C
  C2306    1.0000 0.85000  0.38484  0.26921  Biso   1.000  C
  C2307    1.0000 0.89771  0.81264  0.51244  Biso   1.000  C
  C2308    1.0000 0.84714  0.00401  0.49433  Biso   1.000  C
  C2309    1.0000 0.79540  0.19388  0.47910  Biso   1.000  C
  C2310    1.0000 0.62974  0.79801  0.37979  Biso   1.000  C
  C2311    1.0000 0.61779  0.73934  0.44700  Biso   1.000  C
  C2312    1.0000 0.61785  0.73934  0.44700  Biso   1.000  C
  H2371    1.0000 0.53249  0.99240  0.38199  Biso   1.000  H
  H2372    1.0000 0.53255  0.99240  0.38199  Biso   1.000  H
  H2373    1.0000 0.48410  0.27570  0.40551  Biso   1.000  H
  H2374    1.0000 0.50140  0.19714  0.36859  Biso   1.000  H
  C2313    1.0000 0.38823  0.17600  0.39061  Biso   1.000  C
  C2314    1.0000 0.09211  0.25539  0.16861  Biso   1.000  C
  H2375    1.0000 0.05904  0.09418  0.18231  Biso   1.000  H
  H2376    1.0000 0.98643  0.16438  0.16261  Biso   1.000  H
  H2377    1.0000 0.92339  0.31590  0.20539  Biso   1.000  H
  H2378    1.0000 0.92345  0.31590  0.20539  Biso   1.000  H
  C2315    1.0000 0.80148  0.45847  0.27412  Biso   1.000  C
  C2316    1.0000 0.80154  0.45847  0.27412  Biso   1.000  C
  H2379    1.0000 0.89423  0.83712  0.54019  Biso   1.000  H
  H2380    1.0000 0.94970  0.77202  0.50959  Biso   1.000  H
  C2317    1.0000 0.82933  0.73316  0.50377  Biso   1.000  C
  H2381    1.0000 0.81144  0.00033  0.51591  Biso   1.000  H
  C2318    1.0000 0.75343  0.27378  0.48539  Biso   1.000  C
  C2319    1.0000 0.65072  0.69062  0.36903  Biso   1.000  C
  H2382    1.0000 0.62702  0.85484  0.36030  Biso   1.000  H
  C2320    1.0000 0.63869  0.63112  0.43724  Biso   1.000  C
  C2321    1.0000 0.63875  0.63112  0.43724  Biso   1.000  C
  H2383    1.0000 0.60699  0.75664  0.47369  Biso   1.000  H
  H2384    1.0000 0.60705  0.75664  0.47369  Biso   1.000  H
  H2385    1.0000 0.36463  0.22815  0.37091  Biso   1.000  H
  H2386    1.0000 0.38070  0.09911  0.38041  Biso   1.000  H
  C2322    1.0000 0.34368  0.18753  0.42753  Biso   1.000  C
  C2323    1.0000 0.34374  0.18753  0.42753  Biso   1.000  C
  H2387    1.0000 0.14012  0.25372  0.18651  Biso   1.000  H
  H2388    1.0000 0.06682  0.33010  0.17090  Biso   1.000  H
  C2324    1.0000 0.11958  0.23968  0.12751  Biso   1.000  C
  C2325    1.0000 0.11964  0.23968  0.12751  Biso   1.000  C
  C2326    1.0000 0.74502  0.54789  0.28089  Biso   1.000  C
  H2389    1.0000 0.77731  0.77403  0.50571  Biso   1.000  H
  H2390    1.0000 0.83392  0.70633  0.47640  Biso   1.000  H
  C2327    1.0000 0.82761  0.63112  0.53161  Biso   1.000  C
  C2328    1.0000 0.70272  0.36704  0.49165  Biso   1.000  C
  C2329    1.0000 0.67131  0.66087  0.32757  Biso   1.000  C
  C2330    1.0000 0.65461  0.60697  0.39760  Biso   1.000  C
  C2331    1.0000 0.64502  0.54270  0.46772  Biso   1.000  C
  H2391    1.0000 0.36349  0.13162  0.44650  Biso   1.000  H
  H2392    1.0000 0.28563  0.17600  0.42239  Biso   1.000  H
  H2393    1.0000 0.35251  0.26249  0.43829  Biso   1.000  H
  H2394    1.0000 0.07230  0.23792  0.10960  Biso   1.000  H
  H2395    1.0000 0.15520  0.30169  0.12030  Biso   1.000  H
  H2396    1.0000 0.14938  0.16906  0.12551  Biso   1.000  H
  H2397    1.0000 0.14944  0.16906  0.12551  Biso   1.000  H
  C2332    1.0000 0.70943  0.60714  0.25055  Biso   1.000  C
  C2333    1.0000 0.72482  0.57513  0.31993  Biso   1.000  C
  H2398    1.0000 0.82672  0.65686  0.55889  Biso   1.000  H
  H2399    1.0000 0.77883  0.58650  0.52591  Biso   1.000  H
  H2400    1.0000 0.87604  0.58516  0.52761  Biso   1.000  H
  C2334    1.0000 0.69589  0.45153  0.46252  Biso   1.000  C
  C2335    1.0000 0.69595  0.45153  0.46252  Biso   1.000  C
  C2336    1.0000 0.65934  0.37857  0.52599  Biso   1.000  C
  C2337    1.0000 0.63658  0.71829  0.29609  Biso   1.000  C
  C2338    1.0000 0.63665  0.71829  0.29609  Biso   1.000  C
  H2401    1.0000 0.66800  0.53284  0.39020  Biso   1.000  H
  C2339    1.0000 0.60069  0.54931  0.50268  Biso   1.000  C
  C2340    1.0000 0.60075  0.54931  0.50268  Biso   1.000  C
  C2341    1.0000 0.65442  0.69288  0.25725  Biso   1.000  C
  H2402    1.0000 0.72280  0.58884  0.22429  Biso   1.000  H
  H2403    1.0000 0.74830  0.53393  0.34110  Biso   1.000  H
  H2404    1.0000 0.72662  0.44568  0.43921  Biso   1.000  H
  C2342    1.0000 0.60741  0.46833  0.53217  Biso   1.000  C
  H2405    1.0000 0.66529  0.32350  0.54590  Biso   1.000  H
  H2406    1.0000 0.66535  0.32350  0.54590  Biso   1.000  H
  H2407    1.0000 0.59943  0.77703  0.30120  Biso   1.000  H
  H2408    1.0000 0.56519  0.61081  0.50630  Biso   1.000  H
  H2409    1.0000 0.56525  0.61081  0.50630  Biso   1.000  H
  C2343    1.0000 0.60602  0.74260  0.22359  Biso   1.000  C
  C2344    1.0000 0.62690  0.77603  0.22520  Biso   1.000  C
  C2345    1.0000 0.55871  0.47560  0.56856  Biso   1.000  C
  H2410    1.0000 0.63621  0.72932  0.19921  Biso   1.000  H
  H2411    1.0000 0.60361  0.82450  0.22761  Biso   1.000  H
  C2346    1.0000 0.52370  0.70257  0.21741  Biso   1.000  C
  H2412    1.0000 0.65490  0.75940  0.20039  Biso   1.000  H
  C2347    1.0000 0.53634  0.76500  0.21921  Biso   1.000  C
  H2413    1.0000 0.64079  0.85308  0.23329  Biso   1.000  H
  H2414    1.0000 0.51999  0.53844  0.56560  Biso   1.000  H
  H2415    1.0000 0.52650  0.40623  0.57100  Biso   1.000  H
  C2348    1.0000 0.60744  0.49231  0.60634  Biso   1.000  C
  H2416    1.0000 0.52005  0.53844  0.56560  Biso   1.000  H
  H2417    1.0000 0.49222  0.71528  0.24149  Biso   1.000  H
  H2418    1.0000 0.49748  0.74561  0.19580  Biso   1.000  H
  C2349    1.0000 0.52217  0.57780  0.20709  Biso   1.000  C
  H2419    1.0000 0.49754  0.74561  0.19580  Biso   1.000  H
  C2350    1.0000 0.52223  0.57780  0.20709  Biso   1.000  C
  H2420    1.0000 0.50844  0.79818  0.24190  Biso   1.000  H
  H2421    1.0000 0.51944  0.80704  0.19530  Biso   1.000  H
  C2351    1.0000 0.51104  0.64299  0.21480  Biso   1.000  C
  H2422    1.0000 0.64582  0.42930  0.60981  Biso   1.000  H
  H2423    1.0000 0.63961  0.56184  0.60429  Biso   1.000  H
  C2352    1.0000 0.55393  0.49983  0.64230  Biso   1.000  C
  H2424    1.0000 0.55961  0.53744  0.22470  Biso   1.000  H
  H2425    1.0000 0.46709  0.54864  0.21021  Biso   1.000  H
  H2426    1.0000 0.53891  0.56761  0.17981  Biso   1.000  H
  H2427    1.0000 0.48304  0.63279  0.18951  Biso   1.000  H
  H2428    1.0000 0.55983  0.59577  0.21580  Biso   1.000  H
  H2429    1.0000 0.47521  0.62276  0.23620  Biso   1.000  H
  H2430    1.0000 0.51973  0.43298  0.64371  Biso   1.000  H
  H2431    1.0000 0.58825  0.50476  0.66611  Biso   1.000  H
  H2432    1.0000 0.51943  0.56644  0.64030  Biso   1.000  H
