data_image0
_cell_length_a       23.912
_cell_length_b       17.684
_cell_length_c       16.822
_cell_angle_alpha    90
_cell_angle_beta     99.48
_cell_angle_gamma    90

_symmetry_space_group_name_H-M    "P 1"
_symmetry_int_tables_number       1

loop_
  _symmetry_equiv_pos_as_xyz
  'x, y, z'

loop_
  _atom_site_label
  _atom_site_occupancy
  _atom_site_fract_x
  _atom_site_fract_y
  _atom_site_fract_z
  _atom_site_thermal_displace_type
  _atom_site_B_iso_or_equiv
  _atom_site_type_symbol
  C1       1.0000 0.11181  0.64697  0.45859  Biso   1.000  C
  C2       1.0000 0.07541  0.71850  0.45594  Biso   1.000  C
  H1       1.0000 0.12073  0.63702  0.40531  Biso   1.000  H
  H2       1.0000 0.14675  0.65421  0.49632  Biso   1.000  H
  H3       1.0000 0.09113  0.60439  0.47570  Biso   1.000  H
  C3       1.0000 0.07541  0.71856  0.45594  Biso   1.000  C
  C4       1.0000 0.01463  0.71206  0.39844  Biso   1.000  C
  N1       1.0000 0.06018  0.73728  0.53453  Biso   1.000  N
  N2       1.0000 0.10208  0.78110  0.42050  Biso   1.000  N
  C5       1.0000 0.01468  0.71206  0.39844  Biso   1.000  C
  N3       1.0000 0.01873  0.77313  0.33992  Biso   1.000  N
  C6       1.0000 0.99999  0.63645  0.36011  Biso   1.000  C
  N4       1.0000 0.97633  0.73173  0.45545  Biso   1.000  N
  C7       1.0000 0.09871  0.74435  0.60793  Biso   1.000  C
  C8       1.0000 0.00318  0.74265  0.53206  Biso   1.000  C
  C9       1.0000 0.15940  0.80604  0.44340  Biso   1.000  C
  C10      1.0000 0.06859  0.80983  0.35197  Biso   1.000  C
  C11      1.0000 0.97430  0.79235  0.27410  Biso   1.000  C
  C12      1.0000 0.97430  0.79241  0.27410  Biso   1.000  C
  H4       1.0000 0.02900  0.62181  0.32901  Biso   1.000  H
  H5       1.0000 0.02905  0.62181  0.32901  Biso   1.000  H
  H6       1.0000 0.99781  0.59907  0.40157  Biso   1.000  H
  H7       1.0000 0.96372  0.63967  0.32467  Biso   1.000  H
  H8       1.0000 0.99781  0.59913  0.40157  Biso   1.000  H
  H9       1.0000 0.96372  0.63973  0.32467  Biso   1.000  H
  C13      1.0000 0.91461  0.72325  0.43713  Biso   1.000  C
  H10      1.0000 0.07894  0.73190  0.65277  Biso   1.000  H
  H11      1.0000 0.12943  0.70759  0.60817  Biso   1.000  H
  N5       1.0000 0.12356  0.82086  0.62101  Biso   1.000  N
  O1       1.0000 0.97950  0.75424  0.59040  Biso   1.000  O
  H12      1.0000 0.18322  0.76188  0.46027  Biso   1.000  H
  H13      1.0000 0.17230  0.82770  0.39597  Biso   1.000  H
  N6       1.0000 0.16806  0.86151  0.50771  Biso   1.000  N
  H14      1.0000 0.18322  0.76193  0.46027  Biso   1.000  H
  H15      1.0000 0.17234  0.82770  0.39597  Biso   1.000  H
  N7       1.0000 0.16810  0.86151  0.50771  Biso   1.000  N
  O2       1.0000 0.08212  0.85903  0.30773  Biso   1.000  O
  O3       1.0000 0.08212  0.85908  0.30773  Biso   1.000  O
  H16      1.0000 0.99132  0.81610  0.23119  Biso   1.000  H
  H17      1.0000 0.95550  0.74582  0.25229  Biso   1.000  H
  N8       1.0000 0.93197  0.84325  0.29713  Biso   1.000  N
  N9       1.0000 0.93201  0.84325  0.29713  Biso   1.000  N
  H18      1.0000 0.90523  0.68282  0.39729  Biso   1.000  H
  H19      1.0000 0.90044  0.70821  0.48631  Biso   1.000  H
  N10      1.0000 0.88593  0.79360  0.40549  Biso   1.000  N
  C14      1.0000 0.10875  0.86903  0.67760  Biso   1.000  C
  C15      1.0000 0.17450  0.84330  0.59323  Biso   1.000  C
  C16      1.0000 0.17454  0.84330  0.59323  Biso   1.000  C
  C17      1.0000 0.17584  0.93751  0.49403  Biso   1.000  C
  C18      1.0000 0.88055  0.81509  0.32292  Biso   1.000  C
  C19      1.0000 0.92556  0.91337  0.26711  Biso   1.000  C
  C20      1.0000 0.86036  0.84099  0.45009  Biso   1.000  C
  N11      1.0000 0.14497  0.92909  0.68309  Biso   1.000  N
  O4       1.0000 0.07072  0.86016  0.71503  Biso   1.000  O
  O5       1.0000 0.07072  0.86021  0.71503  Biso   1.000  O
  C21      1.0000 0.18960  0.92061  0.63367  Biso   1.000  C
  H20      1.0000 0.20525  0.80598  0.60890  Biso   1.000  H
  N12      1.0000 0.18763  0.97269  0.56725  Biso   1.000  N
  O6       1.0000 0.17490  0.96681  0.42851  Biso   1.000  O
  N13      1.0000 0.18763  0.97274  0.56725  Biso   1.000  N
  H21      1.0000 0.86332  0.77381  0.28718  Biso   1.000  H
  C22      1.0000 0.84106  0.88577  0.31563  Biso   1.000  C
  C23      1.0000 0.84110  0.88577  0.31563  Biso   1.000  C
  N14      1.0000 0.87335  0.94232  0.28061  Biso   1.000  N
  O7       1.0000 0.95875  0.94894  0.23306  Biso   1.000  O
  O8       1.0000 0.95875  0.94899  0.23306  Biso   1.000  O
  N15      1.0000 0.83586  0.89867  0.40031  Biso   1.000  N
  O9       1.0000 0.85681  0.83516  0.52229  Biso   1.000  O
  N16      1.0000 0.83586  0.89872  0.40031  Biso   1.000  N
  C24      1.0000 0.14767  0.98688  0.74607  Biso   1.000  C
  C25      1.0000 0.14771  0.98688  0.74607  Biso   1.000  C
  H22      1.0000 0.22766  0.91970  0.66730  Biso   1.000  H
  C26      1.0000 0.20587  0.05055  0.57557  Biso   1.000  C
  H23      1.0000 0.80391  0.87582  0.28158  Biso   1.000  H
  C27      1.0000 0.85235  0.01312  0.25391  Biso   1.000  C
  C28      1.0000 0.85240  0.01312  0.25391  Biso   1.000  C
  C29      1.0000 0.79420  0.94945  0.42441  Biso   1.000  C
  H24      1.0000 0.12627  0.96890  0.78729  Biso   1.000  H
  H25      1.0000 0.18737  0.99271  0.77181  Biso   1.000  H
  N17      1.0000 0.12672  0.05768  0.71937  Biso   1.000  N
  N18      1.0000 0.16421  0.10133  0.59968  Biso   1.000  N
  H26      1.0000 0.24053  0.05333  0.61559  Biso   1.000  H
  H27      1.0000 0.21524  0.06791  0.52398  Biso   1.000  H
  N19      1.0000 0.85509  0.07091  0.31689  Biso   1.000  N
  H28      1.0000 0.87380  0.03110  0.21269  Biso   1.000  H
  H29      1.0000 0.81270  0.00729  0.22818  Biso   1.000  H
  H30      1.0000 0.75954  0.94667  0.38440  Biso   1.000  H
  H31      1.0000 0.78483  0.93209  0.47600  Biso   1.000  H
  H32      1.0000 0.75954  0.94673  0.38440  Biso   1.000  H
  N20      1.0000 0.81243  0.02731  0.43273  Biso   1.000  N
  C30      1.0000 0.15896  0.11423  0.68436  Biso   1.000  C
  C31      1.0000 0.07450  0.08663  0.73287  Biso   1.000  C
  C32      1.0000 0.15896  0.11428  0.68436  Biso   1.000  C
  C33      1.0000 0.15900  0.11423  0.68436  Biso   1.000  C
  C34      1.0000 0.15900  0.11428  0.68436  Biso   1.000  C
  C35      1.0000 0.13970  0.15901  0.54989  Biso   1.000  C
  C36      1.0000 0.89132  0.13097  0.32238  Biso   1.000  C
  C37      1.0000 0.81048  0.07939  0.36638  Biso   1.000  C
  C38      1.0000 0.82422  0.06249  0.50596  Biso   1.000  C
  C39      1.0000 0.11952  0.18491  0.67706  Biso   1.000  C
  H33      1.0000 0.19615  0.12418  0.71841  Biso   1.000  H
  N21      1.0000 0.06806  0.15675  0.70286  Biso   1.000  N
  O10      1.0000 0.04131  0.05106  0.76692  Biso   1.000  O
  N22      1.0000 0.11413  0.20640  0.59449  Biso   1.000  N
  O11      1.0000 0.14325  0.16484  0.47769  Biso   1.000  O
  N23      1.0000 0.87651  0.17914  0.37897  Biso   1.000  N
  O12      1.0000 0.92935  0.13984  0.28501  Biso   1.000  O
  H34      1.0000 0.77241  0.08030  0.33269  Biso   1.000  H
  C40      1.0000 0.82553  0.15670  0.40676  Biso   1.000  C
  C41      1.0000 0.82557  0.15670  0.40676  Biso   1.000  C
  N24      1.0000 0.83196  0.13849  0.49228  Biso   1.000  N
  O13      1.0000 0.82516  0.03319  0.57147  Biso   1.000  O
  H35      1.0000 0.13675  0.22619  0.71280  Biso   1.000  H
  C42      1.0000 0.02577  0.20765  0.72588  Biso   1.000  C
  C43      1.0000 0.08546  0.27675  0.56285  Biso   1.000  C
  C44      1.0000 0.90136  0.25565  0.39205  Biso   1.000  C
  H36      1.0000 0.79481  0.19402  0.39109  Biso   1.000  H
  C45      1.0000 0.84067  0.19396  0.55658  Biso   1.000  C
  N25      1.0000 0.98134  0.22687  0.66007  Biso   1.000  N
  H37      1.0000 0.00874  0.18390  0.76879  Biso   1.000  H
  H38      1.0000 0.04456  0.25418  0.74770  Biso   1.000  H
  H39      1.0000 0.09484  0.31718  0.60269  Biso   1.000  H
  H40      1.0000 0.09962  0.29179  0.51367  Biso   1.000  H
  N26      1.0000 0.02375  0.26827  0.54459  Biso   1.000  N
  H41      1.0000 0.92113  0.26810  0.34721  Biso   1.000  H
  H42      1.0000 0.87063  0.29241  0.39181  Biso   1.000  H
  N27      1.0000 0.93989  0.26272  0.46546  Biso   1.000  N
  N28      1.0000 0.93989  0.26278  0.46546  Biso   1.000  N
  H43      1.0000 0.81684  0.23812  0.53971  Biso   1.000  H
  H44      1.0000 0.82772  0.17230  0.60402  Biso   1.000  H
  N29      1.0000 0.89798  0.21890  0.57949  Biso   1.000  N
  C46      1.0000 0.98539  0.28794  0.60155  Biso   1.000  C
  C47      1.0000 0.93147  0.19017  0.64801  Biso   1.000  C
  C48      1.0000 0.99688  0.25735  0.46793  Biso   1.000  C
  C49      1.0000 0.92466  0.28150  0.54405  Biso   1.000  C
  C50      1.0000 0.00008  0.36355  0.63988  Biso   1.000  C
  O14      1.0000 0.91796  0.14097  0.69231  Biso   1.000  O
  O15      1.0000 0.02057  0.24576  0.40959  Biso   1.000  O
  C51      1.0000 0.88826  0.35303  0.54140  Biso   1.000  C
  H45      1.0000 0.97102  0.37819  0.67098  Biso   1.000  H
  H46      1.0000 0.97106  0.37819  0.67098  Biso   1.000  H
  H47      1.0000 0.00226  0.40093  0.59841  Biso   1.000  H
  H48      1.0000 0.03634  0.36033  0.67531  Biso   1.000  H
  H49      1.0000 0.87933  0.36298  0.59467  Biso   1.000  H
  H50      1.0000 0.85332  0.34579  0.50367  Biso   1.000  H
  H51      1.0000 0.90894  0.39561  0.52428  Biso   1.000  H
  C52      1.0000 0.11181  0.64697  0.45859  Biso   1.000  C
  H52      1.0000 0.12073  0.63702  0.40531  Biso   1.000  H
  H53      1.0000 0.14675  0.65421  0.49632  Biso   1.000  H
  H54      1.0000 0.09113  0.60439  0.47570  Biso   1.000  H
  C53      1.0000 0.07541  0.71850  0.45594  Biso   1.000  C
  C54      1.0000 0.07541  0.71856  0.45594  Biso   1.000  C
  C55      1.0000 0.01463  0.71206  0.39844  Biso   1.000  C
  N30      1.0000 0.06018  0.73728  0.53453  Biso   1.000  N
  N31      1.0000 0.10208  0.78110  0.42050  Biso   1.000  N
  C56      1.0000 0.01468  0.71206  0.39844  Biso   1.000  C
  N32      1.0000 0.01873  0.77313  0.33992  Biso   1.000  N
  C57      1.0000 0.99999  0.63645  0.36011  Biso   1.000  C
  N33      1.0000 0.97633  0.73173  0.45545  Biso   1.000  N
  C58      1.0000 0.09871  0.74435  0.60793  Biso   1.000  C
  C59      1.0000 0.00318  0.74265  0.53206  Biso   1.000  C
  C60      1.0000 0.15940  0.80604  0.44340  Biso   1.000  C
  C61      1.0000 0.06859  0.80983  0.35197  Biso   1.000  C
  C62      1.0000 0.97430  0.79235  0.27410  Biso   1.000  C
  C63      1.0000 0.97430  0.79241  0.27410  Biso   1.000  C
  H55      1.0000 0.02900  0.62181  0.32901  Biso   1.000  H
  H56      1.0000 0.02905  0.62181  0.32901  Biso   1.000  H
  H57      1.0000 0.99781  0.59907  0.40157  Biso   1.000  H
  H58      1.0000 0.96372  0.63967  0.32467  Biso   1.000  H
  H59      1.0000 0.99781  0.59913  0.40157  Biso   1.000  H
  H60      1.0000 0.96372  0.63973  0.32467  Biso   1.000  H
  C64      1.0000 0.91461  0.72325  0.43713  Biso   1.000  C
  H61      1.0000 0.07894  0.73190  0.65277  Biso   1.000  H
  H62      1.0000 0.12943  0.70759  0.60817  Biso   1.000  H
  N34      1.0000 0.12356  0.82086  0.62101  Biso   1.000  N
  O16      1.0000 0.97950  0.75424  0.59040  Biso   1.000  O
  H63      1.0000 0.17230  0.82770  0.39597  Biso   1.000  H
  N35      1.0000 0.16806  0.86151  0.50771  Biso   1.000  N
  H64      1.0000 0.18322  0.76188  0.46027  Biso   1.000  H
  H65      1.0000 0.18322  0.76193  0.46027  Biso   1.000  H
  H66      1.0000 0.17234  0.82770  0.39597  Biso   1.000  H
  N36      1.0000 0.16810  0.86151  0.50771  Biso   1.000  N
  O17      1.0000 0.08212  0.85903  0.30773  Biso   1.000  O
  O18      1.0000 0.08212  0.85908  0.30773  Biso   1.000  O
  H67      1.0000 0.99132  0.81610  0.23119  Biso   1.000  H
  H68      1.0000 0.95550  0.74582  0.25229  Biso   1.000  H
  N37      1.0000 0.93197  0.84325  0.29713  Biso   1.000  N
  N38      1.0000 0.93201  0.84325  0.29713  Biso   1.000  N
  H69      1.0000 0.90523  0.68282  0.39729  Biso   1.000  H
  H70      1.0000 0.90044  0.70821  0.48631  Biso   1.000  H
  N39      1.0000 0.88593  0.79360  0.40549  Biso   1.000  N
  C65      1.0000 0.10875  0.86903  0.67760  Biso   1.000  C
  C66      1.0000 0.17450  0.84330  0.59323  Biso   1.000  C
  C67      1.0000 0.17454  0.84330  0.59323  Biso   1.000  C
  C68      1.0000 0.17584  0.93751  0.49403  Biso   1.000  C
  C69      1.0000 0.88055  0.81509  0.32292  Biso   1.000  C
  C70      1.0000 0.92556  0.91337  0.26711  Biso   1.000  C
  C71      1.0000 0.86036  0.84099  0.45009  Biso   1.000  C
  N40      1.0000 0.14497  0.92909  0.68309  Biso   1.000  N
  O19      1.0000 0.07072  0.86016  0.71503  Biso   1.000  O
  O20      1.0000 0.07072  0.86021  0.71503  Biso   1.000  O
  C72      1.0000 0.18960  0.92061  0.63367  Biso   1.000  C
  H71      1.0000 0.20525  0.80598  0.60890  Biso   1.000  H
  O21      1.0000 0.17490  0.96681  0.42851  Biso   1.000  O
  N41      1.0000 0.18763  0.97269  0.56725  Biso   1.000  N
  N42      1.0000 0.18763  0.97274  0.56725  Biso   1.000  N
  H72      1.0000 0.86332  0.77381  0.28718  Biso   1.000  H
  C73      1.0000 0.84106  0.88577  0.31563  Biso   1.000  C
  C74      1.0000 0.84110  0.88577  0.31563  Biso   1.000  C
  N43      1.0000 0.87335  0.94232  0.28061  Biso   1.000  N
  O22      1.0000 0.95875  0.94894  0.23306  Biso   1.000  O
  O23      1.0000 0.95875  0.94899  0.23306  Biso   1.000  O
  N44      1.0000 0.83586  0.89867  0.40031  Biso   1.000  N
  O24      1.0000 0.85681  0.83516  0.52229  Biso   1.000  O
  N45      1.0000 0.83586  0.89872  0.40031  Biso   1.000  N
  C75      1.0000 0.14767  0.98688  0.74607  Biso   1.000  C
  C76      1.0000 0.14771  0.98688  0.74607  Biso   1.000  C
  H73      1.0000 0.22766  0.91970  0.66730  Biso   1.000  H
  C77      1.0000 0.20587  0.05055  0.57557  Biso   1.000  C
  H74      1.0000 0.80391  0.87582  0.28158  Biso   1.000  H
  C78      1.0000 0.85235  0.01312  0.25391  Biso   1.000  C
  C79      1.0000 0.85240  0.01312  0.25391  Biso   1.000  C
  C80      1.0000 0.79420  0.94945  0.42441  Biso   1.000  C
  H75      1.0000 0.12627  0.96890  0.78729  Biso   1.000  H
  H76      1.0000 0.18737  0.99271  0.77181  Biso   1.000  H
  N46      1.0000 0.12672  0.05768  0.71937  Biso   1.000  N
  N47      1.0000 0.16421  0.10133  0.59968  Biso   1.000  N
  H77      1.0000 0.24053  0.05333  0.61559  Biso   1.000  H
  H78      1.0000 0.21524  0.06791  0.52398  Biso   1.000  H
  N48      1.0000 0.85509  0.07091  0.31689  Biso   1.000  N
  H79      1.0000 0.87380  0.03110  0.21269  Biso   1.000  H
  H80      1.0000 0.81270  0.00729  0.22818  Biso   1.000  H
  H81      1.0000 0.75954  0.94667  0.38440  Biso   1.000  H
  H82      1.0000 0.78483  0.93209  0.47600  Biso   1.000  H
  H83      1.0000 0.75954  0.94673  0.38440  Biso   1.000  H
  N49      1.0000 0.81243  0.02731  0.43273  Biso   1.000  N
  C81      1.0000 0.15896  0.11423  0.68436  Biso   1.000  C
  C82      1.0000 0.07450  0.08663  0.73287  Biso   1.000  C
  C83      1.0000 0.15896  0.11428  0.68436  Biso   1.000  C
  C84      1.0000 0.15900  0.11423  0.68436  Biso   1.000  C
  C85      1.0000 0.15900  0.11428  0.68436  Biso   1.000  C
  C86      1.0000 0.13970  0.15901  0.54989  Biso   1.000  C
  C87      1.0000 0.89132  0.13097  0.32238  Biso   1.000  C
  C88      1.0000 0.81048  0.07939  0.36638  Biso   1.000  C
  C89      1.0000 0.82422  0.06249  0.50596  Biso   1.000  C
  C90      1.0000 0.11952  0.18491  0.67706  Biso   1.000  C
  H84      1.0000 0.19615  0.12418  0.71841  Biso   1.000  H
  N50      1.0000 0.06806  0.15675  0.70286  Biso   1.000  N
  O25      1.0000 0.04131  0.05106  0.76692  Biso   1.000  O
  N51      1.0000 0.11413  0.20640  0.59449  Biso   1.000  N
  O26      1.0000 0.14325  0.16484  0.47769  Biso   1.000  O
  N52      1.0000 0.87651  0.17914  0.37897  Biso   1.000  N
  O27      1.0000 0.92935  0.13984  0.28501  Biso   1.000  O
  H85      1.0000 0.77241  0.08030  0.33269  Biso   1.000  H
  C91      1.0000 0.82553  0.15670  0.40676  Biso   1.000  C
  C92      1.0000 0.82557  0.15670  0.40676  Biso   1.000  C
  N53      1.0000 0.83196  0.13849  0.49228  Biso   1.000  N
  O28      1.0000 0.82516  0.03319  0.57147  Biso   1.000  O
  H86      1.0000 0.13675  0.22619  0.71280  Biso   1.000  H
  C93      1.0000 0.02577  0.20765  0.72588  Biso   1.000  C
  C94      1.0000 0.08546  0.27675  0.56285  Biso   1.000  C
  C95      1.0000 0.90136  0.25565  0.39205  Biso   1.000  C
  H87      1.0000 0.79481  0.19402  0.39109  Biso   1.000  H
  C96      1.0000 0.84067  0.19396  0.55658  Biso   1.000  C
  N54      1.0000 0.98134  0.22687  0.66007  Biso   1.000  N
  H88      1.0000 0.00874  0.18390  0.76879  Biso   1.000  H
  H89      1.0000 0.04456  0.25418  0.74770  Biso   1.000  H
  H90      1.0000 0.09484  0.31718  0.60269  Biso   1.000  H
  H91      1.0000 0.09962  0.29179  0.51367  Biso   1.000  H
  N55      1.0000 0.02375  0.26827  0.54459  Biso   1.000  N
  H92      1.0000 0.92113  0.26810  0.34721  Biso   1.000  H
  H93      1.0000 0.87063  0.29241  0.39181  Biso   1.000  H
  N56      1.0000 0.93989  0.26272  0.46546  Biso   1.000  N
  N57      1.0000 0.93989  0.26278  0.46546  Biso   1.000  N
  H94      1.0000 0.81684  0.23812  0.53971  Biso   1.000  H
  H95      1.0000 0.82772  0.17230  0.60402  Biso   1.000  H
  N58      1.0000 0.89798  0.21890  0.57949  Biso   1.000  N
  C97      1.0000 0.98539  0.28794  0.60155  Biso   1.000  C
  C98      1.0000 0.93147  0.19017  0.64801  Biso   1.000  C
  C99      1.0000 0.99688  0.25735  0.46793  Biso   1.000  C
  C100     1.0000 0.92466  0.28150  0.54405  Biso   1.000  C
  C101     1.0000 0.00008  0.36355  0.63988  Biso   1.000  C
  O29      1.0000 0.91796  0.14097  0.69231  Biso   1.000  O
  O30      1.0000 0.02057  0.24576  0.40959  Biso   1.000  O
  C102     1.0000 0.88826  0.35303  0.54140  Biso   1.000  C
  H96      1.0000 0.97102  0.37819  0.67098  Biso   1.000  H
  H97      1.0000 0.97106  0.37819  0.67098  Biso   1.000  H
  H98      1.0000 0.00226  0.40093  0.59841  Biso   1.000  H
  H99      1.0000 0.03634  0.36033  0.67531  Biso   1.000  H
  H100     1.0000 0.87933  0.36298  0.59467  Biso   1.000  H
  H101     1.0000 0.85332  0.34579  0.50367  Biso   1.000  H
  H102     1.0000 0.90894  0.39561  0.52428  Biso   1.000  H
  C103     1.0000 0.11181  0.64697  0.45859  Biso   1.000  C
  H103     1.0000 0.12073  0.63702  0.40531  Biso   1.000  H
  H104     1.0000 0.14675  0.65421  0.49632  Biso   1.000  H
  H105     1.0000 0.09113  0.60439  0.47570  Biso   1.000  H
  C104     1.0000 0.07541  0.71850  0.45594  Biso   1.000  C
  C105     1.0000 0.07541  0.71856  0.45594  Biso   1.000  C
  N59      1.0000 0.06018  0.73728  0.53453  Biso   1.000  N
  N60      1.0000 0.10208  0.78110  0.42050  Biso   1.000  N
  C106     1.0000 0.01463  0.71206  0.39844  Biso   1.000  C
  C107     1.0000 0.01468  0.71206  0.39844  Biso   1.000  C
  C108     1.0000 0.09871  0.74435  0.60793  Biso   1.000  C
  C109     1.0000 0.00318  0.74265  0.53206  Biso   1.000  C
  C110     1.0000 0.15940  0.80604  0.44340  Biso   1.000  C
  C111     1.0000 0.06859  0.80983  0.35197  Biso   1.000  C
  N61      1.0000 0.01873  0.77313  0.33992  Biso   1.000  N
  C112     1.0000 0.99999  0.63645  0.36011  Biso   1.000  C
  N62      1.0000 0.97633  0.73173  0.45545  Biso   1.000  N
  H106     1.0000 0.07894  0.73190  0.65277  Biso   1.000  H
  H107     1.0000 0.12943  0.70759  0.60817  Biso   1.000  H
  N63      1.0000 0.12356  0.82086  0.62101  Biso   1.000  N
  O31      1.0000 0.97950  0.75424  0.59040  Biso   1.000  O
  H108     1.0000 0.18322  0.76188  0.46027  Biso   1.000  H
  H109     1.0000 0.17230  0.82770  0.39597  Biso   1.000  H
  N64      1.0000 0.16806  0.86151  0.50771  Biso   1.000  N
  H110     1.0000 0.18322  0.76193  0.46027  Biso   1.000  H
  H111     1.0000 0.17234  0.82770  0.39597  Biso   1.000  H
  N65      1.0000 0.16810  0.86151  0.50771  Biso   1.000  N
  O32      1.0000 0.08212  0.85903  0.30773  Biso   1.000  O
  O33      1.0000 0.08212  0.85908  0.30773  Biso   1.000  O
  C113     1.0000 0.97430  0.79235  0.27410  Biso   1.000  C
  C114     1.0000 0.97430  0.79241  0.27410  Biso   1.000  C
  H112     1.0000 0.99781  0.59907  0.40157  Biso   1.000  H
  H113     1.0000 0.96372  0.63967  0.32467  Biso   1.000  H
  H114     1.0000 0.99781  0.59913  0.40157  Biso   1.000  H
  H115     1.0000 0.96372  0.63973  0.32467  Biso   1.000  H
  H116     1.0000 0.02900  0.62181  0.32901  Biso   1.000  H
  H117     1.0000 0.02905  0.62181  0.32901  Biso   1.000  H
  C115     1.0000 0.91461  0.72325  0.43713  Biso   1.000  C
  C116     1.0000 0.10875  0.86903  0.67760  Biso   1.000  C
  C117     1.0000 0.17450  0.84330  0.59323  Biso   1.000  C
  C118     1.0000 0.17454  0.84330  0.59323  Biso   1.000  C
  C119     1.0000 0.17584  0.93751  0.49403  Biso   1.000  C
  H118     1.0000 0.99132  0.81610  0.23119  Biso   1.000  H
  H119     1.0000 0.95550  0.74582  0.25229  Biso   1.000  H
  N66      1.0000 0.93197  0.84325  0.29713  Biso   1.000  N
  N67      1.0000 0.93201  0.84325  0.29713  Biso   1.000  N
  H120     1.0000 0.90523  0.68282  0.39729  Biso   1.000  H
  H121     1.0000 0.90044  0.70821  0.48631  Biso   1.000  H
  N68      1.0000 0.88593  0.79360  0.40549  Biso   1.000  N
  N69      1.0000 0.14497  0.92909  0.68309  Biso   1.000  N
  O34      1.0000 0.07072  0.86016  0.71503  Biso   1.000  O
  O35      1.0000 0.07072  0.86021  0.71503  Biso   1.000  O
  C120     1.0000 0.18960  0.92061  0.63367  Biso   1.000  C
  H122     1.0000 0.20525  0.80598  0.60890  Biso   1.000  H
  O36      1.0000 0.17490  0.96681  0.42851  Biso   1.000  O
  N70      1.0000 0.18763  0.97269  0.56725  Biso   1.000  N
  N71      1.0000 0.18763  0.97274  0.56725  Biso   1.000  N
  C121     1.0000 0.88055  0.81509  0.32292  Biso   1.000  C
  C122     1.0000 0.92556  0.91337  0.26711  Biso   1.000  C
  C123     1.0000 0.86036  0.84099  0.45009  Biso   1.000  C
  C124     1.0000 0.14767  0.98688  0.74607  Biso   1.000  C
  C125     1.0000 0.14771  0.98688  0.74607  Biso   1.000  C
  H123     1.0000 0.22766  0.91970  0.66730  Biso   1.000  H
  C126     1.0000 0.20587  0.05055  0.57557  Biso   1.000  C
  H124     1.0000 0.86332  0.77381  0.28718  Biso   1.000  H
  C127     1.0000 0.84106  0.88577  0.31563  Biso   1.000  C
  C128     1.0000 0.84110  0.88577  0.31563  Biso   1.000  C
  N72      1.0000 0.87335  0.94232  0.28061  Biso   1.000  N
  O37      1.0000 0.95875  0.94894  0.23306  Biso   1.000  O
  O38      1.0000 0.95875  0.94899  0.23306  Biso   1.000  O
  N73      1.0000 0.83586  0.89867  0.40031  Biso   1.000  N
  O39      1.0000 0.85681  0.83516  0.52229  Biso   1.000  O
  N74      1.0000 0.83586  0.89872  0.40031  Biso   1.000  N
  H125     1.0000 0.12627  0.96890  0.78729  Biso   1.000  H
  H126     1.0000 0.18737  0.99271  0.77181  Biso   1.000  H
  N75      1.0000 0.12672  0.05768  0.71937  Biso   1.000  N
  N76      1.0000 0.16421  0.10133  0.59968  Biso   1.000  N
  H127     1.0000 0.24053  0.05333  0.61559  Biso   1.000  H
  H128     1.0000 0.21524  0.06791  0.52398  Biso   1.000  H
  H129     1.0000 0.80391  0.87582  0.28158  Biso   1.000  H
  C129     1.0000 0.85235  0.01312  0.25391  Biso   1.000  C
  C130     1.0000 0.85240  0.01312  0.25391  Biso   1.000  C
  C131     1.0000 0.79420  0.94945  0.42441  Biso   1.000  C
  C132     1.0000 0.15896  0.11423  0.68436  Biso   1.000  C
  C133     1.0000 0.07450  0.08663  0.73287  Biso   1.000  C
  C134     1.0000 0.15896  0.11428  0.68436  Biso   1.000  C
  C135     1.0000 0.15900  0.11423  0.68436  Biso   1.000  C
  C136     1.0000 0.15900  0.11428  0.68436  Biso   1.000  C
  C137     1.0000 0.13970  0.15901  0.54989  Biso   1.000  C
  N77      1.0000 0.85509  0.07091  0.31689  Biso   1.000  N
  H130     1.0000 0.87380  0.03110  0.21269  Biso   1.000  H
  H131     1.0000 0.81270  0.00729  0.22818  Biso   1.000  H
  H132     1.0000 0.75954  0.94667  0.38440  Biso   1.000  H
  H133     1.0000 0.78483  0.93209  0.47600  Biso   1.000  H
  H134     1.0000 0.75954  0.94673  0.38440  Biso   1.000  H
  N78      1.0000 0.81243  0.02731  0.43273  Biso   1.000  N
  C138     1.0000 0.11952  0.18491  0.67706  Biso   1.000  C
  H135     1.0000 0.19615  0.12418  0.71841  Biso   1.000  H
  N79      1.0000 0.06806  0.15675  0.70286  Biso   1.000  N
  O40      1.0000 0.04131  0.05106  0.76692  Biso   1.000  O
  N80      1.0000 0.11413  0.20640  0.59449  Biso   1.000  N
  O41      1.0000 0.14325  0.16484  0.47769  Biso   1.000  O
  C139     1.0000 0.89132  0.13097  0.32238  Biso   1.000  C
  C140     1.0000 0.81048  0.07939  0.36638  Biso   1.000  C
  C141     1.0000 0.82422  0.06249  0.50596  Biso   1.000  C
  H136     1.0000 0.13675  0.22619  0.71280  Biso   1.000  H
  C142     1.0000 0.02577  0.20765  0.72588  Biso   1.000  C
  C143     1.0000 0.08546  0.27675  0.56285  Biso   1.000  C
  N81      1.0000 0.87651  0.17914  0.37897  Biso   1.000  N
  O42      1.0000 0.92935  0.13984  0.28501  Biso   1.000  O
  H137     1.0000 0.77241  0.08030  0.33269  Biso   1.000  H
  C144     1.0000 0.82553  0.15670  0.40676  Biso   1.000  C
  C145     1.0000 0.82557  0.15670  0.40676  Biso   1.000  C
  N82      1.0000 0.83196  0.13849  0.49228  Biso   1.000  N
  O43      1.0000 0.82516  0.03319  0.57147  Biso   1.000  O
  N83      1.0000 0.98134  0.22687  0.66007  Biso   1.000  N
  H138     1.0000 0.00874  0.18390  0.76879  Biso   1.000  H
  H139     1.0000 0.04456  0.25418  0.74770  Biso   1.000  H
  H140     1.0000 0.09484  0.31718  0.60269  Biso   1.000  H
  H141     1.0000 0.09962  0.29179  0.51367  Biso   1.000  H
  N84      1.0000 0.02375  0.26827  0.54459  Biso   1.000  N
  C146     1.0000 0.90136  0.25565  0.39205  Biso   1.000  C
  H142     1.0000 0.79481  0.19402  0.39109  Biso   1.000  H
  C147     1.0000 0.84067  0.19396  0.55658  Biso   1.000  C
  C148     1.0000 0.98539  0.28794  0.60155  Biso   1.000  C
  C149     1.0000 0.93147  0.19017  0.64801  Biso   1.000  C
  C150     1.0000 0.99688  0.25735  0.46793  Biso   1.000  C
  H143     1.0000 0.92113  0.26810  0.34721  Biso   1.000  H
  H144     1.0000 0.87063  0.29241  0.39181  Biso   1.000  H
  N85      1.0000 0.93989  0.26272  0.46546  Biso   1.000  N
  N86      1.0000 0.93989  0.26278  0.46546  Biso   1.000  N
  H145     1.0000 0.81684  0.23812  0.53971  Biso   1.000  H
  H146     1.0000 0.82772  0.17230  0.60402  Biso   1.000  H
  N87      1.0000 0.89798  0.21890  0.57949  Biso   1.000  N
  C151     1.0000 0.92466  0.28150  0.54405  Biso   1.000  C
  C152     1.0000 0.00008  0.36355  0.63988  Biso   1.000  C
  O44      1.0000 0.91796  0.14097  0.69231  Biso   1.000  O
  O45      1.0000 0.02057  0.24576  0.40959  Biso   1.000  O
  C153     1.0000 0.88826  0.35303  0.54140  Biso   1.000  C
  H147     1.0000 0.97102  0.37819  0.67098  Biso   1.000  H
  H148     1.0000 0.97106  0.37819  0.67098  Biso   1.000  H
  H149     1.0000 0.00226  0.40093  0.59841  Biso   1.000  H
  H150     1.0000 0.03634  0.36033  0.67531  Biso   1.000  H
  H151     1.0000 0.87933  0.36298  0.59467  Biso   1.000  H
  H152     1.0000 0.85332  0.34579  0.50367  Biso   1.000  H
  H153     1.0000 0.90894  0.39561  0.52428  Biso   1.000  H
  C154     1.0000 0.11181  0.64697  0.45859  Biso   1.000  C
  H154     1.0000 0.12073  0.63702  0.40531  Biso   1.000  H
  H155     1.0000 0.14675  0.65421  0.49632  Biso   1.000  H
  H156     1.0000 0.09113  0.60439  0.47570  Biso   1.000  H
  C155     1.0000 0.07541  0.71850  0.45594  Biso   1.000  C
  C156     1.0000 0.07541  0.71856  0.45594  Biso   1.000  C
  N88      1.0000 0.06018  0.73728  0.53453  Biso   1.000  N
  N89      1.0000 0.10208  0.78110  0.42050  Biso   1.000  N
  C157     1.0000 0.01463  0.71206  0.39844  Biso   1.000  C
  C158     1.0000 0.01468  0.71206  0.39844  Biso   1.000  C
  C159     1.0000 0.09871  0.74435  0.60793  Biso   1.000  C
  C160     1.0000 0.00318  0.74265  0.53206  Biso   1.000  C
  C161     1.0000 0.15940  0.80604  0.44340  Biso   1.000  C
  C162     1.0000 0.06859  0.80983  0.35197  Biso   1.000  C
  N90      1.0000 0.01873  0.77313  0.33992  Biso   1.000  N
  C163     1.0000 0.99999  0.63645  0.36011  Biso   1.000  C
  N91      1.0000 0.97633  0.73173  0.45545  Biso   1.000  N
  H157     1.0000 0.07894  0.73190  0.65277  Biso   1.000  H
  H158     1.0000 0.12943  0.70759  0.60817  Biso   1.000  H
  N92      1.0000 0.12356  0.82086  0.62101  Biso   1.000  N
  O46      1.0000 0.97950  0.75424  0.59040  Biso   1.000  O
  H159     1.0000 0.18322  0.76188  0.46027  Biso   1.000  H
  H160     1.0000 0.17230  0.82770  0.39597  Biso   1.000  H
  N93      1.0000 0.16806  0.86151  0.50771  Biso   1.000  N
  H161     1.0000 0.18322  0.76193  0.46027  Biso   1.000  H
  H162     1.0000 0.17234  0.82770  0.39597  Biso   1.000  H
  N94      1.0000 0.16810  0.86151  0.50771  Biso   1.000  N
  O47      1.0000 0.08212  0.85903  0.30773  Biso   1.000  O
  O48      1.0000 0.08212  0.85908  0.30773  Biso   1.000  O
  C164     1.0000 0.97430  0.79235  0.27410  Biso   1.000  C
  C165     1.0000 0.97430  0.79241  0.27410  Biso   1.000  C
  H163     1.0000 0.99781  0.59907  0.40157  Biso   1.000  H
  H164     1.0000 0.96372  0.63967  0.32467  Biso   1.000  H
  H165     1.0000 0.99781  0.59913  0.40157  Biso   1.000  H
  H166     1.0000 0.96372  0.63973  0.32467  Biso   1.000  H
  H167     1.0000 0.02900  0.62181  0.32901  Biso   1.000  H
  H168     1.0000 0.02905  0.62181  0.32901  Biso   1.000  H
  C166     1.0000 0.91461  0.72325  0.43713  Biso   1.000  C
  C167     1.0000 0.10875  0.86903  0.67760  Biso   1.000  C
  C168     1.0000 0.17450  0.84330  0.59323  Biso   1.000  C
  C169     1.0000 0.17454  0.84330  0.59323  Biso   1.000  C
  C170     1.0000 0.17584  0.93751  0.49403  Biso   1.000  C
  H169     1.0000 0.99132  0.81610  0.23119  Biso   1.000  H
  H170     1.0000 0.95550  0.74582  0.25229  Biso   1.000  H
  N95      1.0000 0.93197  0.84325  0.29713  Biso   1.000  N
  N96      1.0000 0.93201  0.84325  0.29713  Biso   1.000  N
  H171     1.0000 0.90523  0.68282  0.39729  Biso   1.000  H
  H172     1.0000 0.90044  0.70821  0.48631  Biso   1.000  H
  N97      1.0000 0.88593  0.79360  0.40549  Biso   1.000  N
  N98      1.0000 0.14497  0.92909  0.68309  Biso   1.000  N
  O49      1.0000 0.07072  0.86016  0.71503  Biso   1.000  O
  O50      1.0000 0.07072  0.86021  0.71503  Biso   1.000  O
  C171     1.0000 0.18960  0.92061  0.63367  Biso   1.000  C
  H173     1.0000 0.20525  0.80598  0.60890  Biso   1.000  H
  O51      1.0000 0.17490  0.96681  0.42851  Biso   1.000  O
  N99      1.0000 0.18763  0.97269  0.56725  Biso   1.000  N
  N100     1.0000 0.18763  0.97274  0.56725  Biso   1.000  N
  C172     1.0000 0.88055  0.81509  0.32292  Biso   1.000  C
  C173     1.0000 0.92556  0.91337  0.26711  Biso   1.000  C
  C174     1.0000 0.86036  0.84099  0.45009  Biso   1.000  C
  C175     1.0000 0.14767  0.98688  0.74607  Biso   1.000  C
  C176     1.0000 0.14771  0.98688  0.74607  Biso   1.000  C
  H174     1.0000 0.22766  0.91970  0.66730  Biso   1.000  H
  C177     1.0000 0.20587  0.05055  0.57557  Biso   1.000  C
  H175     1.0000 0.86332  0.77381  0.28718  Biso   1.000  H
  C178     1.0000 0.84106  0.88577  0.31563  Biso   1.000  C
  C179     1.0000 0.84110  0.88577  0.31563  Biso   1.000  C
  N101     1.0000 0.87335  0.94232  0.28061  Biso   1.000  N
  O52      1.0000 0.95875  0.94894  0.23306  Biso   1.000  O
  O53      1.0000 0.95875  0.94899  0.23306  Biso   1.000  O
  N102     1.0000 0.83586  0.89867  0.40031  Biso   1.000  N
  O54      1.0000 0.85681  0.83516  0.52229  Biso   1.000  O
  N103     1.0000 0.83586  0.89872  0.40031  Biso   1.000  N
  H176     1.0000 0.12627  0.96890  0.78729  Biso   1.000  H
  H177     1.0000 0.18737  0.99271  0.77181  Biso   1.000  H
  N104     1.0000 0.12672  0.05768  0.71937  Biso   1.000  N
  N105     1.0000 0.16421  0.10133  0.59968  Biso   1.000  N
  H178     1.0000 0.24053  0.05333  0.61559  Biso   1.000  H
  H179     1.0000 0.21524  0.06791  0.52398  Biso   1.000  H
  H180     1.0000 0.80391  0.87582  0.28158  Biso   1.000  H
  C180     1.0000 0.85235  0.01312  0.25391  Biso   1.000  C
  C181     1.0000 0.85240  0.01312  0.25391  Biso   1.000  C
  C182     1.0000 0.79420  0.94945  0.42441  Biso   1.000  C
  C183     1.0000 0.15896  0.11423  0.68436  Biso   1.000  C
  C184     1.0000 0.07450  0.08663  0.73287  Biso   1.000  C
  C185     1.0000 0.15896  0.11428  0.68436  Biso   1.000  C
  C186     1.0000 0.15900  0.11423  0.68436  Biso   1.000  C
  C187     1.0000 0.15900  0.11428  0.68436  Biso   1.000  C
  C188     1.0000 0.13970  0.15901  0.54989  Biso   1.000  C
  N106     1.0000 0.85509  0.07091  0.31689  Biso   1.000  N
  H181     1.0000 0.87380  0.03110  0.21269  Biso   1.000  H
  H182     1.0000 0.81270  0.00729  0.22818  Biso   1.000  H
  H183     1.0000 0.75954  0.94667  0.38440  Biso   1.000  H
  H184     1.0000 0.78483  0.93209  0.47600  Biso   1.000  H
  H185     1.0000 0.75954  0.94673  0.38440  Biso   1.000  H
  N107     1.0000 0.81243  0.02731  0.43273  Biso   1.000  N
  C189     1.0000 0.11952  0.18491  0.67706  Biso   1.000  C
  H186     1.0000 0.19615  0.12418  0.71841  Biso   1.000  H
  N108     1.0000 0.06806  0.15675  0.70286  Biso   1.000  N
  O55      1.0000 0.04131  0.05106  0.76692  Biso   1.000  O
  N109     1.0000 0.11413  0.20640  0.59449  Biso   1.000  N
  O56      1.0000 0.14325  0.16484  0.47769  Biso   1.000  O
  C190     1.0000 0.89132  0.13097  0.32238  Biso   1.000  C
  C191     1.0000 0.81048  0.07939  0.36638  Biso   1.000  C
  C192     1.0000 0.82422  0.06249  0.50596  Biso   1.000  C
  H187     1.0000 0.13675  0.22619  0.71280  Biso   1.000  H
  C193     1.0000 0.02577  0.20765  0.72588  Biso   1.000  C
  C194     1.0000 0.08546  0.27675  0.56285  Biso   1.000  C
  N110     1.0000 0.87651  0.17914  0.37897  Biso   1.000  N
  O57      1.0000 0.92935  0.13984  0.28501  Biso   1.000  O
  H188     1.0000 0.77241  0.08030  0.33269  Biso   1.000  H
  C195     1.0000 0.82553  0.15670  0.40676  Biso   1.000  C
  C196     1.0000 0.82557  0.15670  0.40676  Biso   1.000  C
  N111     1.0000 0.83196  0.13849  0.49228  Biso   1.000  N
  O58      1.0000 0.82516  0.03319  0.57147  Biso   1.000  O
  N112     1.0000 0.98134  0.22687  0.66007  Biso   1.000  N
  H189     1.0000 0.00874  0.18390  0.76879  Biso   1.000  H
  H190     1.0000 0.04456  0.25418  0.74770  Biso   1.000  H
  H191     1.0000 0.09484  0.31718  0.60269  Biso   1.000  H
  H192     1.0000 0.09962  0.29179  0.51367  Biso   1.000  H
  N113     1.0000 0.02375  0.26827  0.54459  Biso   1.000  N
  C197     1.0000 0.90136  0.25565  0.39205  Biso   1.000  C
  H193     1.0000 0.79481  0.19402  0.39109  Biso   1.000  H
  C198     1.0000 0.84067  0.19396  0.55658  Biso   1.000  C
  C199     1.0000 0.98539  0.28794  0.60155  Biso   1.000  C
  C200     1.0000 0.93147  0.19017  0.64801  Biso   1.000  C
  C201     1.0000 0.99688  0.25735  0.46793  Biso   1.000  C
  H194     1.0000 0.92113  0.26810  0.34721  Biso   1.000  H
  H195     1.0000 0.87063  0.29241  0.39181  Biso   1.000  H
  N114     1.0000 0.93989  0.26272  0.46546  Biso   1.000  N
  N115     1.0000 0.93989  0.26278  0.46546  Biso   1.000  N
  H196     1.0000 0.81684  0.23812  0.53971  Biso   1.000  H
  H197     1.0000 0.82772  0.17230  0.60402  Biso   1.000  H
  N116     1.0000 0.89798  0.21890  0.57949  Biso   1.000  N
  C202     1.0000 0.92466  0.28150  0.54405  Biso   1.000  C
  C203     1.0000 0.00008  0.36355  0.63988  Biso   1.000  C
  O59      1.0000 0.91796  0.14097  0.69231  Biso   1.000  O
  O60      1.0000 0.02057  0.24576  0.40959  Biso   1.000  O
  C204     1.0000 0.88826  0.35303  0.54140  Biso   1.000  C
  H198     1.0000 0.97102  0.37819  0.67098  Biso   1.000  H
  H199     1.0000 0.97106  0.37819  0.67098  Biso   1.000  H
  H200     1.0000 0.00226  0.40093  0.59841  Biso   1.000  H
  H201     1.0000 0.03634  0.36033  0.67531  Biso   1.000  H
  H202     1.0000 0.87933  0.36298  0.59467  Biso   1.000  H
  H203     1.0000 0.85332  0.34579  0.50367  Biso   1.000  H
  H204     1.0000 0.90894  0.39561  0.52428  Biso   1.000  H
  C205     1.0000 0.14766  0.51312  0.24608  Biso   1.000  C
  N117     1.0000 0.12667  0.44232  0.21938  Biso   1.000  N
  N118     1.0000 0.14492  0.57091  0.18310  Biso   1.000  N
  H205     1.0000 0.12621  0.53110  0.28730  Biso   1.000  H
  H206     1.0000 0.18732  0.50729  0.27181  Biso   1.000  H
  C206     1.0000 0.15895  0.38577  0.18436  Biso   1.000  C
  C207     1.0000 0.07449  0.41337  0.23288  Biso   1.000  C
  C208     1.0000 0.18959  0.57939  0.13368  Biso   1.000  C
  C209     1.0000 0.10874  0.63097  0.17761  Biso   1.000  C
  C210     1.0000 0.10874  0.63097  0.17767  Biso   1.000  C
  C211     1.0000 0.11950  0.31509  0.17707  Biso   1.000  C
  H207     1.0000 0.19610  0.37582  0.21842  Biso   1.000  H
  N119     1.0000 0.16419  0.39867  0.09969  Biso   1.000  N
  N120     1.0000 0.16415  0.39867  0.09969  Biso   1.000  N
  N121     1.0000 0.06804  0.34325  0.20287  Biso   1.000  N
  O61      1.0000 0.04130  0.44894  0.26693  Biso   1.000  O
  N122     1.0000 0.18762  0.52731  0.06726  Biso   1.000  N
  H208     1.0000 0.22761  0.58030  0.16731  Biso   1.000  H
  C212     1.0000 0.17449  0.65670  0.09324  Biso   1.000  C
  N123     1.0000 0.12351  0.67914  0.12102  Biso   1.000  N
  O62      1.0000 0.07066  0.63984  0.21498  Biso   1.000  O
  O63      1.0000 0.07067  0.63984  0.21504  Biso   1.000  O
  H209     1.0000 0.13674  0.27381  0.21281  Biso   1.000  H
  N124     1.0000 0.11408  0.29360  0.09450  Biso   1.000  N
  H210     1.0000 0.13669  0.27381  0.21281  Biso   1.000  H
  C213     1.0000 0.20585  0.44945  0.07558  Biso   1.000  C
  C214     1.0000 0.13965  0.34099  0.04990  Biso   1.000  C
  C215     1.0000 0.13969  0.34099  0.04990  Biso   1.000  C
  C216     1.0000 0.02571  0.29235  0.22589  Biso   1.000  C
  C217     1.0000 0.17591  0.56249  0.99403  Biso   1.000  C
  C218     1.0000 0.17587  0.56249  0.99403  Biso   1.000  C
  N125     1.0000 0.16805  0.63849  0.00771  Biso   1.000  N
  H211     1.0000 0.20520  0.69402  0.10891  Biso   1.000  H
  C219     1.0000 0.09866  0.75565  0.10794  Biso   1.000  C
  C220     1.0000 0.08545  0.22325  0.06286  Biso   1.000  C
  H212     1.0000 0.24052  0.44667  0.11560  Biso   1.000  H
  H213     1.0000 0.21518  0.43209  0.02399  Biso   1.000  H
  H214     1.0000 0.21522  0.43209  0.02399  Biso   1.000  H
  O64      1.0000 0.14328  0.33516  0.97770  Biso   1.000  O
  H215     1.0000 0.00873  0.31610  0.26880  Biso   1.000  H
  H216     1.0000 0.04451  0.24582  0.24771  Biso   1.000  H
  N126     1.0000 0.98129  0.27313  0.16007  Biso   1.000  N
  O65      1.0000 0.17493  0.53319  0.92852  Biso   1.000  O
  O66      1.0000 0.17497  0.53319  0.92852  Biso   1.000  O
  C221     1.0000 0.15947  0.69396  0.94341  Biso   1.000  C
  C222     1.0000 0.15943  0.69396  0.94341  Biso   1.000  C
  H217     1.0000 0.07893  0.76810  0.15278  Biso   1.000  H
  H218     1.0000 0.12942  0.79241  0.10818  Biso   1.000  H
  N127     1.0000 0.06012  0.76278  0.03453  Biso   1.000  N
  H219     1.0000 0.07889  0.76810  0.15278  Biso   1.000  H
  H220     1.0000 0.12938  0.79241  0.10818  Biso   1.000  H
  N128     1.0000 0.06013  0.76278  0.03459  Biso   1.000  N
  H221     1.0000 0.09479  0.18282  0.10270  Biso   1.000  H
  H222     1.0000 0.09961  0.20821  0.01368  Biso   1.000  H
  N129     1.0000 0.02369  0.23173  0.04460  Biso   1.000  N
  H223     1.0000 0.09483  0.18282  0.10270  Biso   1.000  H
  C223     1.0000 0.98538  0.21206  0.10155  Biso   1.000  C
  C224     1.0000 0.93146  0.30983  0.14802  Biso   1.000  C
  H224     1.0000 0.18330  0.73812  0.96028  Biso   1.000  H
  H225     1.0000 0.17237  0.67230  0.89598  Biso   1.000  H
  N130     1.0000 0.10216  0.71890  0.92051  Biso   1.000  N
  H226     1.0000 0.17238  0.67230  0.89604  Biso   1.000  H
  N131     1.0000 0.10211  0.71890  0.92051  Biso   1.000  N
  C225     1.0000 0.07548  0.78150  0.95594  Biso   1.000  C
  C226     1.0000 0.00313  0.75735  0.03206  Biso   1.000  C
  C227     1.0000 0.99695  0.24265  0.96794  Biso   1.000  C
  C228     1.0000 0.00002  0.13645  0.13988  Biso   1.000  C
  C229     1.0000 0.92460  0.21856  0.04406  Biso   1.000  C
  N132     1.0000 0.89793  0.28110  0.07949  Biso   1.000  N
  O67      1.0000 0.91794  0.35903  0.19226  Biso   1.000  O
  O68      1.0000 0.91794  0.35903  0.19232  Biso   1.000  O
  C230     1.0000 0.06862  0.69017  0.85198  Biso   1.000  C
  C231     1.0000 0.01471  0.78794  0.89845  Biso   1.000  C
  C232     1.0000 0.11188  0.85303  0.95860  Biso   1.000  C
  N133     1.0000 0.97639  0.76827  0.95540  Biso   1.000  N
  N134     1.0000 0.97640  0.76827  0.95546  Biso   1.000  N
  O69      1.0000 0.97949  0.74576  0.09040  Biso   1.000  O
  N135     1.0000 0.93996  0.23728  0.96547  Biso   1.000  N
  O70      1.0000 0.02060  0.25424  0.90960  Biso   1.000  O
  H227     1.0000 0.00220  0.09907  0.09842  Biso   1.000  H
  H228     1.0000 0.03633  0.13967  0.17532  Biso   1.000  H
  H229     1.0000 0.03629  0.13967  0.17532  Biso   1.000  H
  H230     1.0000 0.97101  0.12181  0.17098  Biso   1.000  H
  C233     1.0000 0.88820  0.14697  0.04140  Biso   1.000  C
  C234     1.0000 0.84062  0.30604  0.05659  Biso   1.000  C
  N136     1.0000 0.01880  0.72687  0.83993  Biso   1.000  N
  O71      1.0000 0.08215  0.64097  0.80774  Biso   1.000  O
  C235     1.0000 0.00006  0.86355  0.86012  Biso   1.000  C
  H231     1.0000 0.12076  0.86298  0.90532  Biso   1.000  H
  H232     1.0000 0.14678  0.84579  0.99632  Biso   1.000  H
  H233     1.0000 0.09120  0.89561  0.97571  Biso   1.000  H
  H234     1.0000 0.12080  0.86298  0.90532  Biso   1.000  H
  C236     1.0000 0.91464  0.77675  0.93714  Biso   1.000  C
  C237     1.0000 0.90143  0.24435  0.89206  Biso   1.000  C
  H235     1.0000 0.87932  0.13702  0.09468  Biso   1.000  H
  H236     1.0000 0.85330  0.15421  0.00368  Biso   1.000  H
  H237     1.0000 0.90889  0.10439  0.02429  Biso   1.000  H
  H238     1.0000 0.87928  0.13702  0.09468  Biso   1.000  H
  H239     1.0000 0.85331  0.15421  0.00374  Biso   1.000  H
  N137     1.0000 0.83204  0.36151  0.99229  Biso   1.000  N
  H240     1.0000 0.81679  0.26188  0.03972  Biso   1.000  H
  H241     1.0000 0.82771  0.32770  0.10402  Biso   1.000  H
  C238     1.0000 0.97437  0.70765  0.77411  Biso   1.000  C
  H242     1.0000 0.99788  0.90093  0.90158  Biso   1.000  H
  H243     1.0000 0.96375  0.86033  0.82468  Biso   1.000  H
  H244     1.0000 0.96376  0.86033  0.82474  Biso   1.000  H
  H245     1.0000 0.96379  0.86033  0.82468  Biso   1.000  H
  H246     1.0000 0.02908  0.87819  0.82902  Biso   1.000  H
  H247     1.0000 0.90530  0.81718  0.89730  Biso   1.000  H
  H248     1.0000 0.90047  0.79179  0.98632  Biso   1.000  H
  N138     1.0000 0.88601  0.70640  0.90550  Biso   1.000  N
  H249     1.0000 0.90526  0.81718  0.89730  Biso   1.000  H
  H250     1.0000 0.92116  0.23190  0.84722  Biso   1.000  H
  H251     1.0000 0.87066  0.20759  0.89182  Biso   1.000  H
  N139     1.0000 0.87658  0.32086  0.87898  Biso   1.000  N
  H252     1.0000 0.92120  0.23190  0.84722  Biso   1.000  H
  C239     1.0000 0.82560  0.34330  0.90676  Biso   1.000  C
  C240     1.0000 0.82417  0.43751  0.00597  Biso   1.000  C
  C241     1.0000 0.82421  0.43751  0.00597  Biso   1.000  C
  H253     1.0000 0.99135  0.68390  0.73120  Biso   1.000  H
  H254     1.0000 0.95557  0.75418  0.75229  Biso   1.000  H
  N140     1.0000 0.93204  0.65675  0.79713  Biso   1.000  N
  C242     1.0000 0.88058  0.68491  0.82293  Biso   1.000  C
  C243     1.0000 0.86044  0.65901  0.95010  Biso   1.000  C
  C244     1.0000 0.86039  0.65901  0.95010  Biso   1.000  C
  C245     1.0000 0.89135  0.36903  0.82239  Biso   1.000  C
  C246     1.0000 0.81050  0.42061  0.86632  Biso   1.000  C
  H255     1.0000 0.79488  0.30598  0.89109  Biso   1.000  H
  C247     1.0000 0.81051  0.42061  0.86638  Biso   1.000  C
  N141     1.0000 0.81246  0.47269  0.93274  Biso   1.000  N
  O72      1.0000 0.82515  0.46681  0.07148  Biso   1.000  O
  O73      1.0000 0.82511  0.46681  0.07148  Biso   1.000  O
  C248     1.0000 0.92559  0.58663  0.76712  Biso   1.000  C
  C249     1.0000 0.84113  0.61423  0.81564  Biso   1.000  C
  H256     1.0000 0.86335  0.72619  0.78719  Biso   1.000  H
  H257     1.0000 0.86339  0.72619  0.78719  Biso   1.000  H
  N142     1.0000 0.83589  0.60133  0.90031  Biso   1.000  N
  N143     1.0000 0.83593  0.60133  0.90031  Biso   1.000  N
  O74      1.0000 0.85680  0.66484  0.02230  Biso   1.000  O
  N144     1.0000 0.85516  0.42909  0.81690  Biso   1.000  N
  O75      1.0000 0.92942  0.36016  0.78502  Biso   1.000  O
  H258     1.0000 0.77248  0.41970  0.83269  Biso   1.000  H
  C250     1.0000 0.79423  0.55055  0.92442  Biso   1.000  C
  N145     1.0000 0.87342  0.55768  0.78062  Biso   1.000  N
  O76      1.0000 0.95878  0.55106  0.73307  Biso   1.000  O
  H259     1.0000 0.80398  0.62418  0.78158  Biso   1.000  H
  H260     1.0000 0.80394  0.62418  0.78158  Biso   1.000  H
  C251     1.0000 0.85243  0.48688  0.75392  Biso   1.000  C
  H261     1.0000 0.75957  0.55333  0.88440  Biso   1.000  H
  H262     1.0000 0.78490  0.56791  0.97601  Biso   1.000  H
  H263     1.0000 0.78486  0.56791  0.97601  Biso   1.000  H
  H264     1.0000 0.87387  0.46890  0.71270  Biso   1.000  H
  H265     1.0000 0.81277  0.49271  0.72819  Biso   1.000  H
  C252     1.0000 0.14766  0.51312  0.24608  Biso   1.000  C
  N146     1.0000 0.12667  0.44232  0.21938  Biso   1.000  N
  N147     1.0000 0.14492  0.57091  0.18310  Biso   1.000  N
  H266     1.0000 0.12621  0.53110  0.28730  Biso   1.000  H
  H267     1.0000 0.18732  0.50729  0.27181  Biso   1.000  H
  C253     1.0000 0.15895  0.38577  0.18436  Biso   1.000  C
  C254     1.0000 0.07449  0.41337  0.23288  Biso   1.000  C
  C255     1.0000 0.18959  0.57939  0.13368  Biso   1.000  C
  C256     1.0000 0.10874  0.63097  0.17761  Biso   1.000  C
  C257     1.0000 0.10874  0.63097  0.17767  Biso   1.000  C
  C258     1.0000 0.11950  0.31509  0.17707  Biso   1.000  C
  H268     1.0000 0.19610  0.37582  0.21842  Biso   1.000  H
  N148     1.0000 0.16419  0.39867  0.09969  Biso   1.000  N
  N149     1.0000 0.16415  0.39867  0.09969  Biso   1.000  N
  N150     1.0000 0.06804  0.34325  0.20287  Biso   1.000  N
  O77      1.0000 0.04130  0.44894  0.26693  Biso   1.000  O
  N151     1.0000 0.18762  0.52731  0.06726  Biso   1.000  N
  H269     1.0000 0.22761  0.58030  0.16731  Biso   1.000  H
  C259     1.0000 0.17449  0.65670  0.09324  Biso   1.000  C
  N152     1.0000 0.12351  0.67914  0.12102  Biso   1.000  N
  O78      1.0000 0.07066  0.63984  0.21498  Biso   1.000  O
  O79      1.0000 0.07067  0.63984  0.21504  Biso   1.000  O
  N153     1.0000 0.11408  0.29360  0.09450  Biso   1.000  N
  H270     1.0000 0.13674  0.27381  0.21281  Biso   1.000  H
  H271     1.0000 0.13669  0.27381  0.21281  Biso   1.000  H
  C260     1.0000 0.20585  0.44945  0.07558  Biso   1.000  C
  C261     1.0000 0.13965  0.34099  0.04990  Biso   1.000  C
  C262     1.0000 0.13969  0.34099  0.04990  Biso   1.000  C
  C263     1.0000 0.02571  0.29235  0.22589  Biso   1.000  C
  C264     1.0000 0.17591  0.56249  0.99403  Biso   1.000  C
  C265     1.0000 0.17587  0.56249  0.99403  Biso   1.000  C
  N154     1.0000 0.16805  0.63849  0.00771  Biso   1.000  N
  H272     1.0000 0.20520  0.69402  0.10891  Biso   1.000  H
  C266     1.0000 0.09866  0.75565  0.10794  Biso   1.000  C
  C267     1.0000 0.08545  0.22325  0.06286  Biso   1.000  C
  H273     1.0000 0.24052  0.44667  0.11560  Biso   1.000  H
  H274     1.0000 0.21518  0.43209  0.02399  Biso   1.000  H
  H275     1.0000 0.21522  0.43209  0.02399  Biso   1.000  H
  O80      1.0000 0.14328  0.33516  0.97770  Biso   1.000  O
  H276     1.0000 0.00873  0.31610  0.26880  Biso   1.000  H
  H277     1.0000 0.04451  0.24582  0.24771  Biso   1.000  H
  N155     1.0000 0.98129  0.27313  0.16007  Biso   1.000  N
  O81      1.0000 0.17493  0.53319  0.92852  Biso   1.000  O
  O82      1.0000 0.17497  0.53319  0.92852  Biso   1.000  O
  C268     1.0000 0.15947  0.69396  0.94341  Biso   1.000  C
  C269     1.0000 0.15943  0.69396  0.94341  Biso   1.000  C
  H278     1.0000 0.07893  0.76810  0.15278  Biso   1.000  H
  H279     1.0000 0.12942  0.79241  0.10818  Biso   1.000  H
  N156     1.0000 0.06012  0.76278  0.03453  Biso   1.000  N
  N157     1.0000 0.06013  0.76278  0.03459  Biso   1.000  N
  H280     1.0000 0.07889  0.76810  0.15278  Biso   1.000  H
  H281     1.0000 0.12938  0.79241  0.10818  Biso   1.000  H
  H282     1.0000 0.09479  0.18282  0.10270  Biso   1.000  H
  H283     1.0000 0.09961  0.20821  0.01368  Biso   1.000  H
  N158     1.0000 0.02369  0.23173  0.04460  Biso   1.000  N
  H284     1.0000 0.09483  0.18282  0.10270  Biso   1.000  H
  C270     1.0000 0.98538  0.21206  0.10155  Biso   1.000  C
  C271     1.0000 0.93146  0.30983  0.14802  Biso   1.000  C
  H285     1.0000 0.18330  0.73812  0.96028  Biso   1.000  H
  H286     1.0000 0.17237  0.67230  0.89598  Biso   1.000  H
  N159     1.0000 0.10216  0.71890  0.92051  Biso   1.000  N
  H287     1.0000 0.17238  0.67230  0.89604  Biso   1.000  H
  N160     1.0000 0.10211  0.71890  0.92051  Biso   1.000  N
  C272     1.0000 0.00313  0.75735  0.03206  Biso   1.000  C
  C273     1.0000 0.07548  0.78150  0.95594  Biso   1.000  C
  C274     1.0000 0.99695  0.24265  0.96794  Biso   1.000  C
  C275     1.0000 0.00002  0.13645  0.13988  Biso   1.000  C
  C276     1.0000 0.92460  0.21856  0.04406  Biso   1.000  C
  N161     1.0000 0.89793  0.28110  0.07949  Biso   1.000  N
  O83      1.0000 0.91794  0.35903  0.19226  Biso   1.000  O
  O84      1.0000 0.91794  0.35903  0.19232  Biso   1.000  O
  C277     1.0000 0.06862  0.69017  0.85198  Biso   1.000  C
  N162     1.0000 0.97639  0.76827  0.95540  Biso   1.000  N
  N163     1.0000 0.97640  0.76827  0.95546  Biso   1.000  N
  O85      1.0000 0.97949  0.74576  0.09040  Biso   1.000  O
  C278     1.0000 0.01471  0.78794  0.89845  Biso   1.000  C
  C279     1.0000 0.11188  0.85303  0.95860  Biso   1.000  C
  N164     1.0000 0.93996  0.23728  0.96547  Biso   1.000  N
  O86      1.0000 0.02060  0.25424  0.90960  Biso   1.000  O
  H288     1.0000 0.00220  0.09907  0.09842  Biso   1.000  H
  H289     1.0000 0.03633  0.13967  0.17532  Biso   1.000  H
  H290     1.0000 0.97101  0.12181  0.17098  Biso   1.000  H
  H291     1.0000 0.03629  0.13967  0.17532  Biso   1.000  H
  C280     1.0000 0.88820  0.14697  0.04140  Biso   1.000  C
  C281     1.0000 0.84062  0.30604  0.05659  Biso   1.000  C
  N165     1.0000 0.01880  0.72687  0.83993  Biso   1.000  N
  O87      1.0000 0.08215  0.64097  0.80774  Biso   1.000  O
  C282     1.0000 0.91464  0.77675  0.93714  Biso   1.000  C
  C283     1.0000 0.00006  0.86355  0.86012  Biso   1.000  C
  H292     1.0000 0.12076  0.86298  0.90532  Biso   1.000  H
  H293     1.0000 0.14678  0.84579  0.99632  Biso   1.000  H
  H294     1.0000 0.09120  0.89561  0.97571  Biso   1.000  H
  H295     1.0000 0.12080  0.86298  0.90532  Biso   1.000  H
  C284     1.0000 0.90143  0.24435  0.89206  Biso   1.000  C
  H296     1.0000 0.87932  0.13702  0.09468  Biso   1.000  H
  H297     1.0000 0.85330  0.15421  0.00368  Biso   1.000  H
  H298     1.0000 0.90889  0.10439  0.02429  Biso   1.000  H
  H299     1.0000 0.87928  0.13702  0.09468  Biso   1.000  H
  H300     1.0000 0.85331  0.15421  0.00374  Biso   1.000  H
  N166     1.0000 0.83204  0.36151  0.99229  Biso   1.000  N
  H301     1.0000 0.81679  0.26188  0.03972  Biso   1.000  H
  H302     1.0000 0.82771  0.32770  0.10402  Biso   1.000  H
  C285     1.0000 0.97437  0.70765  0.77411  Biso   1.000  C
  H303     1.0000 0.90530  0.81718  0.89730  Biso   1.000  H
  H304     1.0000 0.90047  0.79179  0.98632  Biso   1.000  H
  N167     1.0000 0.88601  0.70640  0.90550  Biso   1.000  N
  H305     1.0000 0.90526  0.81718  0.89730  Biso   1.000  H
  H306     1.0000 0.99788  0.90093  0.90158  Biso   1.000  H
  H307     1.0000 0.96375  0.86033  0.82468  Biso   1.000  H
  H308     1.0000 0.96376  0.86033  0.82474  Biso   1.000  H
  H309     1.0000 0.96379  0.86033  0.82468  Biso   1.000  H
  H310     1.0000 0.02908  0.87819  0.82902  Biso   1.000  H
  H311     1.0000 0.92116  0.23190  0.84722  Biso   1.000  H
  H312     1.0000 0.87066  0.20759  0.89182  Biso   1.000  H
  N168     1.0000 0.87658  0.32086  0.87898  Biso   1.000  N
  H313     1.0000 0.92120  0.23190  0.84722  Biso   1.000  H
  C286     1.0000 0.82560  0.34330  0.90676  Biso   1.000  C
  C287     1.0000 0.82417  0.43751  0.00597  Biso   1.000  C
  C288     1.0000 0.82421  0.43751  0.00597  Biso   1.000  C
  H314     1.0000 0.99135  0.68390  0.73120  Biso   1.000  H
  H315     1.0000 0.95557  0.75418  0.75229  Biso   1.000  H
  N169     1.0000 0.93204  0.65675  0.79713  Biso   1.000  N
  C289     1.0000 0.86044  0.65901  0.95010  Biso   1.000  C
  C290     1.0000 0.88058  0.68491  0.82293  Biso   1.000  C
  C291     1.0000 0.86039  0.65901  0.95010  Biso   1.000  C
  C292     1.0000 0.89135  0.36903  0.82239  Biso   1.000  C
  C293     1.0000 0.81050  0.42061  0.86632  Biso   1.000  C
  H316     1.0000 0.79488  0.30598  0.89109  Biso   1.000  H
  C294     1.0000 0.81051  0.42061  0.86638  Biso   1.000  C
  N170     1.0000 0.81246  0.47269  0.93274  Biso   1.000  N
  O88      1.0000 0.82515  0.46681  0.07148  Biso   1.000  O
  O89      1.0000 0.82511  0.46681  0.07148  Biso   1.000  O
  C295     1.0000 0.92559  0.58663  0.76712  Biso   1.000  C
  N171     1.0000 0.83589  0.60133  0.90031  Biso   1.000  N
  N172     1.0000 0.83593  0.60133  0.90031  Biso   1.000  N
  O90      1.0000 0.85680  0.66484  0.02230  Biso   1.000  O
  C296     1.0000 0.84113  0.61423  0.81564  Biso   1.000  C
  H317     1.0000 0.86335  0.72619  0.78719  Biso   1.000  H
  H318     1.0000 0.86339  0.72619  0.78719  Biso   1.000  H
  N173     1.0000 0.85516  0.42909  0.81690  Biso   1.000  N
  O91      1.0000 0.92942  0.36016  0.78502  Biso   1.000  O
  H319     1.0000 0.77248  0.41970  0.83269  Biso   1.000  H
  C297     1.0000 0.79423  0.55055  0.92442  Biso   1.000  C
  N174     1.0000 0.87342  0.55768  0.78062  Biso   1.000  N
  O92      1.0000 0.95878  0.55106  0.73307  Biso   1.000  O
  H320     1.0000 0.80398  0.62418  0.78158  Biso   1.000  H
  H321     1.0000 0.80394  0.62418  0.78158  Biso   1.000  H
  C298     1.0000 0.85243  0.48688  0.75392  Biso   1.000  C
  H322     1.0000 0.75957  0.55333  0.88440  Biso   1.000  H
  H323     1.0000 0.78490  0.56791  0.97601  Biso   1.000  H
  H324     1.0000 0.78486  0.56791  0.97601  Biso   1.000  H
  H325     1.0000 0.87387  0.46890  0.71270  Biso   1.000  H
  H326     1.0000 0.81277  0.49271  0.72819  Biso   1.000  H
  C299     1.0000 0.14766  0.51312  0.24608  Biso   1.000  C
  N175     1.0000 0.12667  0.44232  0.21938  Biso   1.000  N
  N176     1.0000 0.14492  0.57091  0.18310  Biso   1.000  N
  H327     1.0000 0.12621  0.53110  0.28730  Biso   1.000  H
  H328     1.0000 0.18732  0.50729  0.27181  Biso   1.000  H
  C300     1.0000 0.15895  0.38577  0.18436  Biso   1.000  C
  C301     1.0000 0.07449  0.41337  0.23288  Biso   1.000  C
  C302     1.0000 0.18959  0.57939  0.13368  Biso   1.000  C
  C303     1.0000 0.10874  0.63097  0.17761  Biso   1.000  C
  C304     1.0000 0.10874  0.63097  0.17767  Biso   1.000  C
  C305     1.0000 0.11950  0.31509  0.17707  Biso   1.000  C
  H329     1.0000 0.19610  0.37582  0.21842  Biso   1.000  H
  N177     1.0000 0.16419  0.39867  0.09969  Biso   1.000  N
  N178     1.0000 0.16415  0.39867  0.09969  Biso   1.000  N
  N179     1.0000 0.06804  0.34325  0.20287  Biso   1.000  N
  O93      1.0000 0.04130  0.44894  0.26693  Biso   1.000  O
  N180     1.0000 0.18762  0.52731  0.06726  Biso   1.000  N
  H330     1.0000 0.22761  0.58030  0.16731  Biso   1.000  H
  C306     1.0000 0.17449  0.65670  0.09324  Biso   1.000  C
  N181     1.0000 0.12351  0.67914  0.12102  Biso   1.000  N
  O94      1.0000 0.07066  0.63984  0.21498  Biso   1.000  O
  O95      1.0000 0.07067  0.63984  0.21504  Biso   1.000  O
  N182     1.0000 0.11408  0.29360  0.09450  Biso   1.000  N
  H331     1.0000 0.13674  0.27381  0.21281  Biso   1.000  H
  H332     1.0000 0.13669  0.27381  0.21281  Biso   1.000  H
  C307     1.0000 0.20585  0.44945  0.07558  Biso   1.000  C
  C308     1.0000 0.13965  0.34099  0.04990  Biso   1.000  C
  C309     1.0000 0.13969  0.34099  0.04990  Biso   1.000  C
  C310     1.0000 0.02571  0.29235  0.22589  Biso   1.000  C
  C311     1.0000 0.17591  0.56249  0.99403  Biso   1.000  C
  C312     1.0000 0.17587  0.56249  0.99403  Biso   1.000  C
  N183     1.0000 0.16805  0.63849  0.00771  Biso   1.000  N
  H333     1.0000 0.20520  0.69402  0.10891  Biso   1.000  H
  C313     1.0000 0.09866  0.75565  0.10794  Biso   1.000  C
  C314     1.0000 0.08545  0.22325  0.06286  Biso   1.000  C
  H334     1.0000 0.24052  0.44667  0.11560  Biso   1.000  H
  H335     1.0000 0.21518  0.43209  0.02399  Biso   1.000  H
  H336     1.0000 0.21522  0.43209  0.02399  Biso   1.000  H
  O96      1.0000 0.14328  0.33516  0.97770  Biso   1.000  O
  H337     1.0000 0.00873  0.31610  0.26880  Biso   1.000  H
  H338     1.0000 0.04451  0.24582  0.24771  Biso   1.000  H
  N184     1.0000 0.98129  0.27313  0.16007  Biso   1.000  N
  O97      1.0000 0.17493  0.53319  0.92852  Biso   1.000  O
  O98      1.0000 0.17497  0.53319  0.92852  Biso   1.000  O
  C315     1.0000 0.15947  0.69396  0.94341  Biso   1.000  C
  C316     1.0000 0.15943  0.69396  0.94341  Biso   1.000  C
  H339     1.0000 0.07893  0.76810  0.15278  Biso   1.000  H
  H340     1.0000 0.12942  0.79241  0.10818  Biso   1.000  H
  N185     1.0000 0.06012  0.76278  0.03453  Biso   1.000  N
  H341     1.0000 0.07889  0.76810  0.15278  Biso   1.000  H
  H342     1.0000 0.12938  0.79241  0.10818  Biso   1.000  H
  N186     1.0000 0.06013  0.76278  0.03459  Biso   1.000  N
  H343     1.0000 0.09961  0.20821  0.01368  Biso   1.000  H
  N187     1.0000 0.02369  0.23173  0.04460  Biso   1.000  N
  H344     1.0000 0.09479  0.18282  0.10270  Biso   1.000  H
  H345     1.0000 0.09483  0.18282  0.10270  Biso   1.000  H
  C317     1.0000 0.98538  0.21206  0.10155  Biso   1.000  C
  C318     1.0000 0.93146  0.30983  0.14802  Biso   1.000  C
  H346     1.0000 0.18330  0.73812  0.96028  Biso   1.000  H
  H347     1.0000 0.17237  0.67230  0.89598  Biso   1.000  H
  N188     1.0000 0.10216  0.71890  0.92051  Biso   1.000  N
  H348     1.0000 0.17238  0.67230  0.89604  Biso   1.000  H
  N189     1.0000 0.10211  0.71890  0.92051  Biso   1.000  N
  C319     1.0000 0.00313  0.75735  0.03206  Biso   1.000  C
  C320     1.0000 0.07548  0.78150  0.95594  Biso   1.000  C
  C321     1.0000 0.99695  0.24265  0.96794  Biso   1.000  C
  C322     1.0000 0.00002  0.13645  0.13988  Biso   1.000  C
  C323     1.0000 0.92460  0.21856  0.04406  Biso   1.000  C
  N190     1.0000 0.89793  0.28110  0.07949  Biso   1.000  N
  O99      1.0000 0.91794  0.35903  0.19226  Biso   1.000  O
  O100     1.0000 0.91794  0.35903  0.19232  Biso   1.000  O
  C324     1.0000 0.06862  0.69017  0.85198  Biso   1.000  C
  N191     1.0000 0.97639  0.76827  0.95540  Biso   1.000  N
  N192     1.0000 0.97640  0.76827  0.95546  Biso   1.000  N
  O101     1.0000 0.97949  0.74576  0.09040  Biso   1.000  O
  C325     1.0000 0.01471  0.78794  0.89845  Biso   1.000  C
  C326     1.0000 0.11188  0.85303  0.95860  Biso   1.000  C
  N193     1.0000 0.93996  0.23728  0.96547  Biso   1.000  N
  O102     1.0000 0.02060  0.25424  0.90960  Biso   1.000  O
  H349     1.0000 0.00220  0.09907  0.09842  Biso   1.000  H
  H350     1.0000 0.03633  0.13967  0.17532  Biso   1.000  H
  H351     1.0000 0.97101  0.12181  0.17098  Biso   1.000  H
  H352     1.0000 0.03629  0.13967  0.17532  Biso   1.000  H
  C327     1.0000 0.88820  0.14697  0.04140  Biso   1.000  C
  C328     1.0000 0.84062  0.30604  0.05659  Biso   1.000  C
  N194     1.0000 0.01880  0.72687  0.83993  Biso   1.000  N
  O103     1.0000 0.08215  0.64097  0.80774  Biso   1.000  O
  C329     1.0000 0.91464  0.77675  0.93714  Biso   1.000  C
  C330     1.0000 0.00006  0.86355  0.86012  Biso   1.000  C
  H353     1.0000 0.12076  0.86298  0.90532  Biso   1.000  H
  H354     1.0000 0.14678  0.84579  0.99632  Biso   1.000  H
  H355     1.0000 0.09120  0.89561  0.97571  Biso   1.000  H
  H356     1.0000 0.12080  0.86298  0.90532  Biso   1.000  H
  C331     1.0000 0.90143  0.24435  0.89206  Biso   1.000  C
  H357     1.0000 0.87932  0.13702  0.09468  Biso   1.000  H
  H358     1.0000 0.85330  0.15421  0.00368  Biso   1.000  H
  H359     1.0000 0.90889  0.10439  0.02429  Biso   1.000  H
  H360     1.0000 0.87928  0.13702  0.09468  Biso   1.000  H
  H361     1.0000 0.85331  0.15421  0.00374  Biso   1.000  H
  N195     1.0000 0.83204  0.36151  0.99229  Biso   1.000  N
  H362     1.0000 0.81679  0.26188  0.03972  Biso   1.000  H
  H363     1.0000 0.82771  0.32770  0.10402  Biso   1.000  H
  C332     1.0000 0.97437  0.70765  0.77411  Biso   1.000  C
  H364     1.0000 0.90530  0.81718  0.89730  Biso   1.000  H
  H365     1.0000 0.90047  0.79179  0.98632  Biso   1.000  H
  N196     1.0000 0.88601  0.70640  0.90550  Biso   1.000  N
  H366     1.0000 0.90526  0.81718  0.89730  Biso   1.000  H
  H367     1.0000 0.99788  0.90093  0.90158  Biso   1.000  H
  H368     1.0000 0.96375  0.86033  0.82468  Biso   1.000  H
  H369     1.0000 0.96376  0.86033  0.82474  Biso   1.000  H
  H370     1.0000 0.96379  0.86033  0.82468  Biso   1.000  H
  H371     1.0000 0.02908  0.87819  0.82902  Biso   1.000  H
  H372     1.0000 0.92116  0.23190  0.84722  Biso   1.000  H
  H373     1.0000 0.87066  0.20759  0.89182  Biso   1.000  H
  N197     1.0000 0.87658  0.32086  0.87898  Biso   1.000  N
  H374     1.0000 0.92120  0.23190  0.84722  Biso   1.000  H
  C333     1.0000 0.82560  0.34330  0.90676  Biso   1.000  C
  C334     1.0000 0.82417  0.43751  0.00597  Biso   1.000  C
  C335     1.0000 0.82421  0.43751  0.00597  Biso   1.000  C
  H375     1.0000 0.99135  0.68390  0.73120  Biso   1.000  H
  H376     1.0000 0.95557  0.75418  0.75229  Biso   1.000  H
  N198     1.0000 0.93204  0.65675  0.79713  Biso   1.000  N
  C336     1.0000 0.86044  0.65901  0.95010  Biso   1.000  C
  C337     1.0000 0.88058  0.68491  0.82293  Biso   1.000  C
  C338     1.0000 0.86039  0.65901  0.95010  Biso   1.000  C
  C339     1.0000 0.89135  0.36903  0.82239  Biso   1.000  C
  C340     1.0000 0.81050  0.42061  0.86632  Biso   1.000  C
  H377     1.0000 0.79488  0.30598  0.89109  Biso   1.000  H
  C341     1.0000 0.81051  0.42061  0.86638  Biso   1.000  C
  N199     1.0000 0.81246  0.47269  0.93274  Biso   1.000  N
  O104     1.0000 0.82515  0.46681  0.07148  Biso   1.000  O
  O105     1.0000 0.82511  0.46681  0.07148  Biso   1.000  O
  C342     1.0000 0.92559  0.58663  0.76712  Biso   1.000  C
  N200     1.0000 0.83589  0.60133  0.90031  Biso   1.000  N
  N201     1.0000 0.83593  0.60133  0.90031  Biso   1.000  N
  O106     1.0000 0.85680  0.66484  0.02230  Biso   1.000  O
  C343     1.0000 0.84113  0.61423  0.81564  Biso   1.000  C
  H378     1.0000 0.86335  0.72619  0.78719  Biso   1.000  H
  H379     1.0000 0.86339  0.72619  0.78719  Biso   1.000  H
  N202     1.0000 0.85516  0.42909  0.81690  Biso   1.000  N
  O107     1.0000 0.92942  0.36016  0.78502  Biso   1.000  O
  H380     1.0000 0.77248  0.41970  0.83269  Biso   1.000  H
  C344     1.0000 0.79423  0.55055  0.92442  Biso   1.000  C
  N203     1.0000 0.87342  0.55768  0.78062  Biso   1.000  N
  O108     1.0000 0.95878  0.55106  0.73307  Biso   1.000  O
  H381     1.0000 0.80398  0.62418  0.78158  Biso   1.000  H
  H382     1.0000 0.80394  0.62418  0.78158  Biso   1.000  H
  C345     1.0000 0.85243  0.48688  0.75392  Biso   1.000  C
  H383     1.0000 0.75957  0.55333  0.88440  Biso   1.000  H
  H384     1.0000 0.78490  0.56791  0.97601  Biso   1.000  H
  H385     1.0000 0.78486  0.56791  0.97601  Biso   1.000  H
  H386     1.0000 0.87387  0.46890  0.71270  Biso   1.000  H
  H387     1.0000 0.81277  0.49271  0.72819  Biso   1.000  H
  C346     1.0000 0.14766  0.51312  0.24608  Biso   1.000  C
  N204     1.0000 0.12667  0.44232  0.21938  Biso   1.000  N
  N205     1.0000 0.14492  0.57091  0.18310  Biso   1.000  N
  H388     1.0000 0.12621  0.53110  0.28730  Biso   1.000  H
  H389     1.0000 0.18732  0.50729  0.27181  Biso   1.000  H
  C347     1.0000 0.15895  0.38577  0.18436  Biso   1.000  C
  C348     1.0000 0.07449  0.41337  0.23288  Biso   1.000  C
  C349     1.0000 0.18959  0.57939  0.13368  Biso   1.000  C
  C350     1.0000 0.10874  0.63097  0.17761  Biso   1.000  C
  C351     1.0000 0.10874  0.63097  0.17767  Biso   1.000  C
  C352     1.0000 0.11950  0.31509  0.17707  Biso   1.000  C
  H390     1.0000 0.19610  0.37582  0.21842  Biso   1.000  H
  N206     1.0000 0.16419  0.39867  0.09969  Biso   1.000  N
  N207     1.0000 0.16415  0.39867  0.09969  Biso   1.000  N
  N208     1.0000 0.06804  0.34325  0.20287  Biso   1.000  N
  O109     1.0000 0.04130  0.44894  0.26693  Biso   1.000  O
  N209     1.0000 0.18762  0.52731  0.06726  Biso   1.000  N
  H391     1.0000 0.22761  0.58030  0.16731  Biso   1.000  H
  C353     1.0000 0.17449  0.65670  0.09324  Biso   1.000  C
  N210     1.0000 0.12351  0.67914  0.12102  Biso   1.000  N
  O110     1.0000 0.07066  0.63984  0.21498  Biso   1.000  O
  O111     1.0000 0.07067  0.63984  0.21504  Biso   1.000  O
  N211     1.0000 0.11408  0.29360  0.09450  Biso   1.000  N
  H392     1.0000 0.13674  0.27381  0.21281  Biso   1.000  H
  H393     1.0000 0.13669  0.27381  0.21281  Biso   1.000  H
  C354     1.0000 0.20585  0.44945  0.07558  Biso   1.000  C
  C355     1.0000 0.13965  0.34099  0.04990  Biso   1.000  C
  C356     1.0000 0.13969  0.34099  0.04990  Biso   1.000  C
  C357     1.0000 0.02571  0.29235  0.22589  Biso   1.000  C
  C358     1.0000 0.17591  0.56249  0.99403  Biso   1.000  C
  C359     1.0000 0.17587  0.56249  0.99403  Biso   1.000  C
  N212     1.0000 0.16805  0.63849  0.00771  Biso   1.000  N
  H394     1.0000 0.20520  0.69402  0.10891  Biso   1.000  H
  C360     1.0000 0.09866  0.75565  0.10794  Biso   1.000  C
  C361     1.0000 0.08545  0.22325  0.06286  Biso   1.000  C
  H395     1.0000 0.24052  0.44667  0.11560  Biso   1.000  H
  H396     1.0000 0.21518  0.43209  0.02399  Biso   1.000  H
  H397     1.0000 0.21522  0.43209  0.02399  Biso   1.000  H
  O112     1.0000 0.14328  0.33516  0.97770  Biso   1.000  O
  H398     1.0000 0.00873  0.31610  0.26880  Biso   1.000  H
  H399     1.0000 0.04451  0.24582  0.24771  Biso   1.000  H
  N213     1.0000 0.98129  0.27313  0.16007  Biso   1.000  N
  O113     1.0000 0.17493  0.53319  0.92852  Biso   1.000  O
  O114     1.0000 0.17497  0.53319  0.92852  Biso   1.000  O
  C362     1.0000 0.15947  0.69396  0.94341  Biso   1.000  C
  C363     1.0000 0.15943  0.69396  0.94341  Biso   1.000  C
  H400     1.0000 0.07893  0.76810  0.15278  Biso   1.000  H
  H401     1.0000 0.12942  0.79241  0.10818  Biso   1.000  H
  N214     1.0000 0.06012  0.76278  0.03453  Biso   1.000  N
  H402     1.0000 0.07889  0.76810  0.15278  Biso   1.000  H
  H403     1.0000 0.12938  0.79241  0.10818  Biso   1.000  H
  N215     1.0000 0.06013  0.76278  0.03459  Biso   1.000  N
  H404     1.0000 0.09961  0.20821  0.01368  Biso   1.000  H
  N216     1.0000 0.02369  0.23173  0.04460  Biso   1.000  N
  H405     1.0000 0.09479  0.18282  0.10270  Biso   1.000  H
  H406     1.0000 0.09483  0.18282  0.10270  Biso   1.000  H
  C364     1.0000 0.98538  0.21206  0.10155  Biso   1.000  C
  C365     1.0000 0.93146  0.30983  0.14802  Biso   1.000  C
  H407     1.0000 0.18330  0.73812  0.96028  Biso   1.000  H
  H408     1.0000 0.17237  0.67230  0.89598  Biso   1.000  H
  N217     1.0000 0.10216  0.71890  0.92051  Biso   1.000  N
  H409     1.0000 0.17238  0.67230  0.89604  Biso   1.000  H
  N218     1.0000 0.10211  0.71890  0.92051  Biso   1.000  N
  C366     1.0000 0.00313  0.75735  0.03206  Biso   1.000  C
  C367     1.0000 0.07548  0.78150  0.95594  Biso   1.000  C
  C368     1.0000 0.99695  0.24265  0.96794  Biso   1.000  C
  C369     1.0000 0.00002  0.13645  0.13988  Biso   1.000  C
  C370     1.0000 0.92460  0.21856  0.04406  Biso   1.000  C
  N219     1.0000 0.89793  0.28110  0.07949  Biso   1.000  N
  O115     1.0000 0.91794  0.35903  0.19226  Biso   1.000  O
  O116     1.0000 0.91794  0.35903  0.19232  Biso   1.000  O
  C371     1.0000 0.06862  0.69017  0.85198  Biso   1.000  C
  N220     1.0000 0.97639  0.76827  0.95540  Biso   1.000  N
  N221     1.0000 0.97640  0.76827  0.95546  Biso   1.000  N
  O117     1.0000 0.97949  0.74576  0.09040  Biso   1.000  O
  C372     1.0000 0.01471  0.78794  0.89845  Biso   1.000  C
  C373     1.0000 0.11188  0.85303  0.95860  Biso   1.000  C
  N222     1.0000 0.93996  0.23728  0.96547  Biso   1.000  N
  O118     1.0000 0.02060  0.25424  0.90960  Biso   1.000  O
  H410     1.0000 0.00220  0.09907  0.09842  Biso   1.000  H
  H411     1.0000 0.97101  0.12181  0.17098  Biso   1.000  H
  H412     1.0000 0.03633  0.13967  0.17532  Biso   1.000  H
  H413     1.0000 0.03629  0.13967  0.17532  Biso   1.000  H
  C374     1.0000 0.88820  0.14697  0.04140  Biso   1.000  C
  C375     1.0000 0.84062  0.30604  0.05659  Biso   1.000  C
  N223     1.0000 0.01880  0.72687  0.83993  Biso   1.000  N
  O119     1.0000 0.08215  0.64097  0.80774  Biso   1.000  O
  C376     1.0000 0.91464  0.77675  0.93714  Biso   1.000  C
  C377     1.0000 0.00006  0.86355  0.86012  Biso   1.000  C
  H414     1.0000 0.12076  0.86298  0.90532  Biso   1.000  H
  H415     1.0000 0.14678  0.84579  0.99632  Biso   1.000  H
  H416     1.0000 0.09120  0.89561  0.97571  Biso   1.000  H
  H417     1.0000 0.12080  0.86298  0.90532  Biso   1.000  H
  C378     1.0000 0.90143  0.24435  0.89206  Biso   1.000  C
  H418     1.0000 0.87932  0.13702  0.09468  Biso   1.000  H
  H419     1.0000 0.85330  0.15421  0.00368  Biso   1.000  H
  H420     1.0000 0.90889  0.10439  0.02429  Biso   1.000  H
  H421     1.0000 0.87928  0.13702  0.09468  Biso   1.000  H
  H422     1.0000 0.85331  0.15421  0.00374  Biso   1.000  H
  N224     1.0000 0.83204  0.36151  0.99229  Biso   1.000  N
  H423     1.0000 0.81679  0.26188  0.03972  Biso   1.000  H
  H424     1.0000 0.82771  0.32770  0.10402  Biso   1.000  H
  C379     1.0000 0.97437  0.70765  0.77411  Biso   1.000  C
  H425     1.0000 0.90530  0.81718  0.89730  Biso   1.000  H
  H426     1.0000 0.90047  0.79179  0.98632  Biso   1.000  H
  N225     1.0000 0.88601  0.70640  0.90550  Biso   1.000  N
  H427     1.0000 0.90526  0.81718  0.89730  Biso   1.000  H
  H428     1.0000 0.99788  0.90093  0.90158  Biso   1.000  H
  H429     1.0000 0.96375  0.86033  0.82468  Biso   1.000  H
  H430     1.0000 0.96376  0.86033  0.82474  Biso   1.000  H
  H431     1.0000 0.96379  0.86033  0.82468  Biso   1.000  H
  H432     1.0000 0.02908  0.87819  0.82902  Biso   1.000  H
  H433     1.0000 0.92116  0.23190  0.84722  Biso   1.000  H
  H434     1.0000 0.87066  0.20759  0.89182  Biso   1.000  H
  N226     1.0000 0.87658  0.32086  0.87898  Biso   1.000  N
  H435     1.0000 0.92120  0.23190  0.84722  Biso   1.000  H
  C380     1.0000 0.82560  0.34330  0.90676  Biso   1.000  C
  C381     1.0000 0.82417  0.43751  0.00597  Biso   1.000  C
  C382     1.0000 0.82421  0.43751  0.00597  Biso   1.000  C
  H436     1.0000 0.99135  0.68390  0.73120  Biso   1.000  H
  H437     1.0000 0.95557  0.75418  0.75229  Biso   1.000  H
  N227     1.0000 0.93204  0.65675  0.79713  Biso   1.000  N
  C383     1.0000 0.86044  0.65901  0.95010  Biso   1.000  C
  C384     1.0000 0.88058  0.68491  0.82293  Biso   1.000  C
  C385     1.0000 0.86039  0.65901  0.95010  Biso   1.000  C
  C386     1.0000 0.89135  0.36903  0.82239  Biso   1.000  C
  C387     1.0000 0.81050  0.42061  0.86632  Biso   1.000  C
  H438     1.0000 0.79488  0.30598  0.89109  Biso   1.000  H
  C388     1.0000 0.81051  0.42061  0.86638  Biso   1.000  C
  N228     1.0000 0.81246  0.47269  0.93274  Biso   1.000  N
  O120     1.0000 0.82515  0.46681  0.07148  Biso   1.000  O
  O121     1.0000 0.82511  0.46681  0.07148  Biso   1.000  O
  C389     1.0000 0.92559  0.58663  0.76712  Biso   1.000  C
  N229     1.0000 0.83589  0.60133  0.90031  Biso   1.000  N
  N230     1.0000 0.83593  0.60133  0.90031  Biso   1.000  N
  O122     1.0000 0.85680  0.66484  0.02230  Biso   1.000  O
  C390     1.0000 0.84113  0.61423  0.81564  Biso   1.000  C
  H439     1.0000 0.86335  0.72619  0.78719  Biso   1.000  H
  H440     1.0000 0.86339  0.72619  0.78719  Biso   1.000  H
  N231     1.0000 0.85516  0.42909  0.81690  Biso   1.000  N
  O123     1.0000 0.92942  0.36016  0.78502  Biso   1.000  O
  H441     1.0000 0.77248  0.41970  0.83269  Biso   1.000  H
  C391     1.0000 0.79423  0.55055  0.92442  Biso   1.000  C
  N232     1.0000 0.87342  0.55768  0.78062  Biso   1.000  N
  O124     1.0000 0.95878  0.55106  0.73307  Biso   1.000  O
  H442     1.0000 0.80398  0.62418  0.78158  Biso   1.000  H
  H443     1.0000 0.80394  0.62418  0.78158  Biso   1.000  H
  C392     1.0000 0.85243  0.48688  0.75392  Biso   1.000  C
  H444     1.0000 0.75957  0.55333  0.88440  Biso   1.000  H
  H445     1.0000 0.78490  0.56791  0.97601  Biso   1.000  H
  H446     1.0000 0.78486  0.56791  0.97601  Biso   1.000  H
  H447     1.0000 0.87387  0.46890  0.71270  Biso   1.000  H
  H448     1.0000 0.81277  0.49271  0.72819  Biso   1.000  H
  C393     1.0000 0.34756  0.47540  0.61926  Biso   1.000  C
  C394     1.0000 0.38795  0.46901  0.70009  Biso   1.000  C
  H449     1.0000 0.32644  0.42858  0.60848  Biso   1.000  H
  H450     1.0000 0.36924  0.48490  0.57647  Biso   1.000  H
  H451     1.0000 0.32127  0.51679  0.62192  Biso   1.000  H
  H452     1.0000 0.32122  0.51679  0.62192  Biso   1.000  H
  C395     1.0000 0.43551  0.40381  0.70232  Biso   1.000  C
  N233     1.0000 0.41963  0.53698  0.71871  Biso   1.000  N
  N234     1.0000 0.35712  0.44447  0.76500  Biso   1.000  N
  N235     1.0000 0.41959  0.53698  0.71871  Biso   1.000  N
  N236     1.0000 0.35708  0.44447  0.76500  Biso   1.000  N
  C396     1.0000 0.43394  0.36247  0.62668  Biso   1.000  C
  N237     1.0000 0.48763  0.44962  0.72371  Biso   1.000  N
  N238     1.0000 0.42489  0.35456  0.76837  Biso   1.000  N
  C397     1.0000 0.47678  0.52562  0.73076  Biso   1.000  C
  C398     1.0000 0.47678  0.52562  0.73082  Biso   1.000  C
  C399     1.0000 0.39615  0.61219  0.72136  Biso   1.000  C
  C400     1.0000 0.39615  0.61219  0.72142  Biso   1.000  C
  C401     1.0000 0.38054  0.38119  0.80363  Biso   1.000  C
  C402     1.0000 0.30899  0.48202  0.78808  Biso   1.000  C
  H453     1.0000 0.39914  0.33330  0.61547  Biso   1.000  H
  H454     1.0000 0.46625  0.32860  0.63126  Biso   1.000  H
  H455     1.0000 0.43534  0.39799  0.58316  Biso   1.000  H
  H456     1.0000 0.46626  0.32860  0.63132  Biso   1.000  H
  H457     1.0000 0.43534  0.39799  0.58322  Biso   1.000  H
  C403     1.0000 0.54520  0.42389  0.72540  Biso   1.000  C
  C404     1.0000 0.45262  0.28710  0.79230  Biso   1.000  C
  O125     1.0000 0.51399  0.57561  0.74511  Biso   1.000  O
  H458     1.0000 0.36184  0.61519  0.68050  Biso   1.000  H
  H459     1.0000 0.42356  0.64833  0.70599  Biso   1.000  H
  N239     1.0000 0.38124  0.63702  0.79881  Biso   1.000  N
  O126     1.0000 0.36278  0.34822  0.85823  Biso   1.000  O
  O127     1.0000 0.36279  0.34822  0.85829  Biso   1.000  O
  H460     1.0000 0.28514  0.50119  0.73926  Biso   1.000  H
  H461     1.0000 0.28667  0.44441  0.81207  Biso   1.000  H
  N240     1.0000 0.32147  0.54354  0.84383  Biso   1.000  N
  H462     1.0000 0.28515  0.50119  0.73932  Biso   1.000  H
  H463     1.0000 0.28663  0.44441  0.81207  Biso   1.000  H
  H464     1.0000 0.56925  0.46681  0.71606  Biso   1.000  H
  H465     1.0000 0.54626  0.38702  0.68219  Biso   1.000  H
  N241     1.0000 0.56721  0.38900  0.80351  Biso   1.000  N
  H466     1.0000 0.56926  0.46681  0.71612  Biso   1.000  H
  N242     1.0000 0.56717  0.38900  0.80351  Biso   1.000  N
  H467     1.0000 0.45974  0.26029  0.74396  Biso   1.000  H
  H468     1.0000 0.42715  0.25549  0.81821  Biso   1.000  H
  N243     1.0000 0.50620  0.29467  0.84720  Biso   1.000  N
  H469     1.0000 0.45974  0.26029  0.74402  Biso   1.000  H
  N244     1.0000 0.50621  0.29467  0.84726  Biso   1.000  N
  C405     1.0000 0.32883  0.62028  0.81930  Biso   1.000  C
  C406     1.0000 0.41127  0.68621  0.85407  Biso   1.000  C
  C407     1.0000 0.31466  0.53823  0.92296  Biso   1.000  C
  C408     1.0000 0.31467  0.53823  0.92302  Biso   1.000  C
  C409     1.0000 0.61261  0.41840  0.85606  Biso   1.000  C
  C410     1.0000 0.55968  0.31045  0.82111  Biso   1.000  C
  C411     1.0000 0.61258  0.41840  0.85612  Biso   1.000  C
  C412     1.0000 0.51327  0.27211  0.92591  Biso   1.000  C
  H470     1.0000 0.29766  0.63611  0.77621  Biso   1.000  H
  C413     1.0000 0.32878  0.66699  0.89680  Biso   1.000  C
  N245     1.0000 0.38414  0.69820  0.91410  Biso   1.000  N
  O128     1.0000 0.45953  0.70759  0.83708  Biso   1.000  O
  O129     1.0000 0.30407  0.48106  0.95930  Biso   1.000  O
  N246     1.0000 0.31744  0.60948  0.95526  Biso   1.000  N
  N247     1.0000 0.63279  0.36666  0.91217  Biso   1.000  N
  O130     1.0000 0.63327  0.48287  0.85281  Biso   1.000  O
  C414     1.0000 0.60480  0.29671  0.89180  Biso   1.000  C
  H471     1.0000 0.56507  0.27799  0.77488  Biso   1.000  H
  N248     1.0000 0.57173  0.26832  0.95147  Biso   1.000  N
  O131     1.0000 0.47457  0.25679  0.96509  Biso   1.000  O
  H472     1.0000 0.29926  0.70680  0.88927  Biso   1.000  H
  C415     1.0000 0.40087  0.75933  0.97039  Biso   1.000  C
  C416     1.0000 0.31317  0.62531  0.03711  Biso   1.000  C
  C417     1.0000 0.68688  0.37469  0.96286  Biso   1.000  C
  C418     1.0000 0.68689  0.37469  0.96292  Biso   1.000  C
  H473     1.0000 0.63186  0.25792  0.87920  Biso   1.000  H
  C419     1.0000 0.59918  0.24073  0.02958  Biso   1.000  C
  H474     1.0000 0.42685  0.79309  0.94809  Biso   1.000  H
  H475     1.0000 0.36716  0.78862  0.97726  Biso   1.000  H
  N249     1.0000 0.42832  0.73168  0.04850  Biso   1.000  N
  H476     1.0000 0.29151  0.67208  0.03928  Biso   1.000  H
  H477     1.0000 0.29218  0.58443  0.05808  Biso   1.000  H
  N250     1.0000 0.36726  0.63334  0.08780  Biso   1.000  N
  H478     1.0000 0.29146  0.67208  0.03928  Biso   1.000  H
  H479     1.0000 0.70859  0.32792  0.96069  Biso   1.000  H
  H480     1.0000 0.70787  0.41563  0.94188  Biso   1.000  H
  H481     1.0000 0.70854  0.32792  0.96069  Biso   1.000  H
  N251     1.0000 0.68261  0.39052  0.04470  Biso   1.000  N
  N252     1.0000 0.68257  0.39052  0.04470  Biso   1.000  N
  H482     1.0000 0.57320  0.20691  0.05188  Biso   1.000  H
  H483     1.0000 0.63289  0.21138  0.02271  Biso   1.000  H
  N253     1.0000 0.61591  0.30180  0.08587  Biso   1.000  N
  C420     1.0000 0.39525  0.70329  0.10817  Biso   1.000  C
  C421     1.0000 0.48678  0.72789  0.07405  Biso   1.000  C
  C422     1.0000 0.48678  0.72789  0.07411  Biso   1.000  C
  C423     1.0000 0.38748  0.58160  0.14391  Biso   1.000  C
  C424     1.0000 0.38744  0.58160  0.14391  Biso   1.000  C
  C425     1.0000 0.67127  0.33301  0.10316  Biso   1.000  C
  C426     1.0000 0.68539  0.46183  0.07701  Biso   1.000  C
  C427     1.0000 0.58878  0.31379  0.14590  Biso   1.000  C
  H484     1.0000 0.36819  0.74208  0.12076  Biso   1.000  H
  C428     1.0000 0.44037  0.68955  0.17886  Biso   1.000  C
  N254     1.0000 0.49385  0.70533  0.15277  Biso   1.000  N
  O132     1.0000 0.52548  0.74321  0.03488  Biso   1.000  O
  N255     1.0000 0.43284  0.61100  0.19646  Biso   1.000  N
  O133     1.0000 0.36678  0.51713  0.14716  Biso   1.000  O
  H485     1.0000 0.70079  0.29320  0.11070  Biso   1.000  H
  C429     1.0000 0.67122  0.37972  0.18067  Biso   1.000  C
  N256     1.0000 0.67858  0.45646  0.15614  Biso   1.000  N
  O134     1.0000 0.69598  0.51900  0.04067  Biso   1.000  O
  O135     1.0000 0.54052  0.29241  0.16289  Biso   1.000  O
  N257     1.0000 0.61881  0.36298  0.20116  Biso   1.000  N
  H486     1.0000 0.43498  0.72201  0.22509  Biso   1.000  H
  C430     1.0000 0.54742  0.71290  0.20767  Biso   1.000  C
  C431     1.0000 0.45485  0.57611  0.27457  Biso   1.000  C
  H487     1.0000 0.70239  0.36389  0.22376  Biso   1.000  H
  C432     1.0000 0.69106  0.51798  0.21189  Biso   1.000  C
  C433     1.0000 0.60390  0.38781  0.27861  Biso   1.000  C
  H488     1.0000 0.54031  0.73971  0.25601  Biso   1.000  H
  H489     1.0000 0.57290  0.74451  0.18176  Biso   1.000  H
  N258     1.0000 0.57516  0.64544  0.23160  Biso   1.000  N
  H490     1.0000 0.57291  0.74451  0.18182  Biso   1.000  H
  H491     1.0000 0.43080  0.53319  0.28391  Biso   1.000  H
  H492     1.0000 0.45379  0.61298  0.31778  Biso   1.000  H
  N259     1.0000 0.51242  0.55044  0.27626  Biso   1.000  N
  H493     1.0000 0.71491  0.49881  0.26071  Biso   1.000  H
  H494     1.0000 0.71342  0.55559  0.18790  Biso   1.000  H
  N260     1.0000 0.64293  0.55553  0.23497  Biso   1.000  N
  H495     1.0000 0.71338  0.55559  0.18790  Biso   1.000  H
  N261     1.0000 0.64293  0.55553  0.23503  Biso   1.000  N
  H496     1.0000 0.63821  0.38481  0.31947  Biso   1.000  H
  H497     1.0000 0.57649  0.35167  0.29398  Biso   1.000  H
  N262     1.0000 0.58046  0.46302  0.28126  Biso   1.000  N
  N263     1.0000 0.58042  0.46302  0.28126  Biso   1.000  N
  C434     1.0000 0.61951  0.61881  0.19634  Biso   1.000  C
  C435     1.0000 0.56454  0.59619  0.29765  Biso   1.000  C
  C436     1.0000 0.52327  0.47438  0.26921  Biso   1.000  C
  C437     1.0000 0.61210  0.53099  0.29988  Biso   1.000  C
  O136     1.0000 0.63727  0.65178  0.14174  Biso   1.000  O
  C438     1.0000 0.56611  0.63753  0.37329  Biso   1.000  C
  O137     1.0000 0.48606  0.42439  0.25486  Biso   1.000  O
  C439     1.0000 0.65249  0.52460  0.38070  Biso   1.000  C
  H498     1.0000 0.60091  0.66670  0.38450  Biso   1.000  H
  H499     1.0000 0.53380  0.67140  0.36871  Biso   1.000  H
  H500     1.0000 0.56471  0.60201  0.41680  Biso   1.000  H
  H501     1.0000 0.67361  0.57142  0.39149  Biso   1.000  H
  H502     1.0000 0.63081  0.51510  0.42349  Biso   1.000  H
  H503     1.0000 0.67883  0.48321  0.37805  Biso   1.000  H
  H504     1.0000 0.67879  0.48321  0.37811  Biso   1.000  H
  C440     1.0000 0.34756  0.47540  0.61926  Biso   1.000  C
  C441     1.0000 0.38795  0.46901  0.70009  Biso   1.000  C
  H505     1.0000 0.32644  0.42858  0.60848  Biso   1.000  H
  H506     1.0000 0.36924  0.48490  0.57647  Biso   1.000  H
  H507     1.0000 0.32127  0.51679  0.62192  Biso   1.000  H
  H508     1.0000 0.32122  0.51679  0.62192  Biso   1.000  H
  C442     1.0000 0.43551  0.40381  0.70232  Biso   1.000  C
  N264     1.0000 0.41963  0.53698  0.71871  Biso   1.000  N
  N265     1.0000 0.35712  0.44447  0.76500  Biso   1.000  N
  N266     1.0000 0.41959  0.53698  0.71871  Biso   1.000  N
  N267     1.0000 0.35708  0.44447  0.76500  Biso   1.000  N
  C443     1.0000 0.43394  0.36247  0.62668  Biso   1.000  C
  N268     1.0000 0.48763  0.44962  0.72371  Biso   1.000  N
  N269     1.0000 0.42489  0.35456  0.76837  Biso   1.000  N
  C444     1.0000 0.47678  0.52562  0.73076  Biso   1.000  C
  C445     1.0000 0.47678  0.52562  0.73082  Biso   1.000  C
  C446     1.0000 0.39615  0.61219  0.72136  Biso   1.000  C
  C447     1.0000 0.39615  0.61219  0.72142  Biso   1.000  C
  C448     1.0000 0.38054  0.38119  0.80363  Biso   1.000  C
  C449     1.0000 0.30899  0.48202  0.78808  Biso   1.000  C
  H509     1.0000 0.39914  0.33330  0.61547  Biso   1.000  H
  H510     1.0000 0.46625  0.32860  0.63126  Biso   1.000  H
  H511     1.0000 0.43534  0.39799  0.58316  Biso   1.000  H
  H512     1.0000 0.46626  0.32860  0.63132  Biso   1.000  H
  H513     1.0000 0.43534  0.39799  0.58322  Biso   1.000  H
  C450     1.0000 0.54520  0.42389  0.72540  Biso   1.000  C
  C451     1.0000 0.45262  0.28710  0.79230  Biso   1.000  C
  O138     1.0000 0.51399  0.57561  0.74511  Biso   1.000  O
  H514     1.0000 0.36184  0.61519  0.68050  Biso   1.000  H
  H515     1.0000 0.42356  0.64833  0.70599  Biso   1.000  H
  N270     1.0000 0.38124  0.63702  0.79881  Biso   1.000  N
  O139     1.0000 0.36278  0.34822  0.85823  Biso   1.000  O
  O140     1.0000 0.36279  0.34822  0.85829  Biso   1.000  O
  N271     1.0000 0.32147  0.54354  0.84383  Biso   1.000  N
  H516     1.0000 0.28514  0.50119  0.73926  Biso   1.000  H
  H517     1.0000 0.28667  0.44441  0.81207  Biso   1.000  H
  H518     1.0000 0.28515  0.50119  0.73932  Biso   1.000  H
  H519     1.0000 0.28663  0.44441  0.81207  Biso   1.000  H
  H520     1.0000 0.54626  0.38702  0.68219  Biso   1.000  H
  H521     1.0000 0.56925  0.46681  0.71606  Biso   1.000  H
  N272     1.0000 0.56721  0.38900  0.80351  Biso   1.000  N
  H522     1.0000 0.56926  0.46681  0.71612  Biso   1.000  H
  N273     1.0000 0.56717  0.38900  0.80351  Biso   1.000  N
  H523     1.0000 0.42715  0.25549  0.81821  Biso   1.000  H
  H524     1.0000 0.45974  0.26029  0.74396  Biso   1.000  H
  N274     1.0000 0.50620  0.29467  0.84720  Biso   1.000  N
  H525     1.0000 0.45974  0.26029  0.74402  Biso   1.000  H
  N275     1.0000 0.50621  0.29467  0.84726  Biso   1.000  N
  C452     1.0000 0.32883  0.62028  0.81930  Biso   1.000  C
  C453     1.0000 0.41127  0.68621  0.85407  Biso   1.000  C
  C454     1.0000 0.31466  0.53823  0.92296  Biso   1.000  C
  C455     1.0000 0.31467  0.53823  0.92302  Biso   1.000  C
  C456     1.0000 0.55968  0.31045  0.82111  Biso   1.000  C
  C457     1.0000 0.61261  0.41840  0.85606  Biso   1.000  C
  C458     1.0000 0.61258  0.41840  0.85612  Biso   1.000  C
  C459     1.0000 0.51327  0.27211  0.92591  Biso   1.000  C
  H526     1.0000 0.29766  0.63611  0.77621  Biso   1.000  H
  C460     1.0000 0.32878  0.66699  0.89680  Biso   1.000  C
  N276     1.0000 0.38414  0.69820  0.91410  Biso   1.000  N
  O141     1.0000 0.45953  0.70759  0.83708  Biso   1.000  O
  O142     1.0000 0.30407  0.48106  0.95930  Biso   1.000  O
  N277     1.0000 0.31744  0.60948  0.95526  Biso   1.000  N
  C461     1.0000 0.60480  0.29671  0.89180  Biso   1.000  C
  H527     1.0000 0.56507  0.27799  0.77488  Biso   1.000  H
  N278     1.0000 0.63279  0.36666  0.91217  Biso   1.000  N
  O143     1.0000 0.63327  0.48287  0.85281  Biso   1.000  O
  N279     1.0000 0.57173  0.26832  0.95147  Biso   1.000  N
  O144     1.0000 0.47457  0.25679  0.96509  Biso   1.000  O
  H528     1.0000 0.29926  0.70680  0.88927  Biso   1.000  H
  C462     1.0000 0.40087  0.75933  0.97039  Biso   1.000  C
  C463     1.0000 0.31317  0.62531  0.03711  Biso   1.000  C
  H529     1.0000 0.63186  0.25792  0.87920  Biso   1.000  H
  C464     1.0000 0.68688  0.37469  0.96286  Biso   1.000  C
  C465     1.0000 0.68689  0.37469  0.96292  Biso   1.000  C
  C466     1.0000 0.59918  0.24073  0.02958  Biso   1.000  C
  H530     1.0000 0.42685  0.79309  0.94809  Biso   1.000  H
  H531     1.0000 0.36716  0.78862  0.97726  Biso   1.000  H
  N280     1.0000 0.42832  0.73168  0.04850  Biso   1.000  N
  H532     1.0000 0.29151  0.67208  0.03928  Biso   1.000  H
  H533     1.0000 0.29218  0.58443  0.05808  Biso   1.000  H
  N281     1.0000 0.36726  0.63334  0.08780  Biso   1.000  N
  H534     1.0000 0.29146  0.67208  0.03928  Biso   1.000  H
  H535     1.0000 0.70787  0.41563  0.94188  Biso   1.000  H
  H536     1.0000 0.70859  0.32792  0.96069  Biso   1.000  H
  H537     1.0000 0.70854  0.32792  0.96069  Biso   1.000  H
  N282     1.0000 0.68261  0.39052  0.04470  Biso   1.000  N
  N283     1.0000 0.68257  0.39052  0.04470  Biso   1.000  N
  H538     1.0000 0.57320  0.20691  0.05188  Biso   1.000  H
  H539     1.0000 0.63289  0.21138  0.02271  Biso   1.000  H
  N284     1.0000 0.61591  0.30180  0.08587  Biso   1.000  N
  C467     1.0000 0.39525  0.70329  0.10817  Biso   1.000  C
  C468     1.0000 0.48678  0.72789  0.07405  Biso   1.000  C
  C469     1.0000 0.48678  0.72789  0.07411  Biso   1.000  C
  C470     1.0000 0.38748  0.58160  0.14391  Biso   1.000  C
  C471     1.0000 0.38744  0.58160  0.14391  Biso   1.000  C
  C472     1.0000 0.67127  0.33301  0.10316  Biso   1.000  C
  C473     1.0000 0.68539  0.46183  0.07701  Biso   1.000  C
  C474     1.0000 0.58878  0.31379  0.14590  Biso   1.000  C
  H540     1.0000 0.36819  0.74208  0.12076  Biso   1.000  H
  C475     1.0000 0.44037  0.68955  0.17886  Biso   1.000  C
  N285     1.0000 0.49385  0.70533  0.15277  Biso   1.000  N
  O145     1.0000 0.52548  0.74321  0.03488  Biso   1.000  O
  N286     1.0000 0.43284  0.61100  0.19646  Biso   1.000  N
  O146     1.0000 0.36678  0.51713  0.14716  Biso   1.000  O
  H541     1.0000 0.70079  0.29320  0.11070  Biso   1.000  H
  C476     1.0000 0.67122  0.37972  0.18067  Biso   1.000  C
  N287     1.0000 0.67858  0.45646  0.15614  Biso   1.000  N
  O147     1.0000 0.69598  0.51900  0.04067  Biso   1.000  O
  O148     1.0000 0.54052  0.29241  0.16289  Biso   1.000  O
  N288     1.0000 0.61881  0.36298  0.20116  Biso   1.000  N
  H542     1.0000 0.43498  0.72201  0.22509  Biso   1.000  H
  C477     1.0000 0.54742  0.71290  0.20767  Biso   1.000  C
  C478     1.0000 0.45485  0.57611  0.27457  Biso   1.000  C
  H543     1.0000 0.70239  0.36389  0.22376  Biso   1.000  H
  C479     1.0000 0.69106  0.51798  0.21189  Biso   1.000  C
  C480     1.0000 0.60390  0.38781  0.27861  Biso   1.000  C
  H544     1.0000 0.54031  0.73971  0.25601  Biso   1.000  H
  H545     1.0000 0.57290  0.74451  0.18176  Biso   1.000  H
  N289     1.0000 0.57516  0.64544  0.23160  Biso   1.000  N
  H546     1.0000 0.57291  0.74451  0.18182  Biso   1.000  H
  H547     1.0000 0.43080  0.53319  0.28391  Biso   1.000  H
  H548     1.0000 0.45379  0.61298  0.31778  Biso   1.000  H
  N290     1.0000 0.51242  0.55044  0.27626  Biso   1.000  N
  H549     1.0000 0.71491  0.49881  0.26071  Biso   1.000  H
  H550     1.0000 0.71342  0.55559  0.18790  Biso   1.000  H
  N291     1.0000 0.64293  0.55553  0.23497  Biso   1.000  N
  H551     1.0000 0.71338  0.55559  0.18790  Biso   1.000  H
  N292     1.0000 0.64293  0.55553  0.23503  Biso   1.000  N
  H552     1.0000 0.63821  0.38481  0.31947  Biso   1.000  H
  H553     1.0000 0.57649  0.35167  0.29398  Biso   1.000  H
  N293     1.0000 0.58046  0.46302  0.28126  Biso   1.000  N
  N294     1.0000 0.58042  0.46302  0.28126  Biso   1.000  N
  C481     1.0000 0.61951  0.61881  0.19634  Biso   1.000  C
  C482     1.0000 0.56454  0.59619  0.29765  Biso   1.000  C
  C483     1.0000 0.52327  0.47438  0.26921  Biso   1.000  C
  C484     1.0000 0.61210  0.53099  0.29988  Biso   1.000  C
  O149     1.0000 0.63727  0.65178  0.14174  Biso   1.000  O
  C485     1.0000 0.56611  0.63753  0.37329  Biso   1.000  C
  O150     1.0000 0.48606  0.42439  0.25486  Biso   1.000  O
  C486     1.0000 0.65249  0.52460  0.38070  Biso   1.000  C
  H554     1.0000 0.60091  0.66670  0.38450  Biso   1.000  H
  H555     1.0000 0.53380  0.67140  0.36871  Biso   1.000  H
  H556     1.0000 0.56471  0.60201  0.41680  Biso   1.000  H
  H557     1.0000 0.67361  0.57142  0.39149  Biso   1.000  H
  H558     1.0000 0.63081  0.51510  0.42349  Biso   1.000  H
  H559     1.0000 0.67883  0.48321  0.37805  Biso   1.000  H
  H560     1.0000 0.67879  0.48321  0.37811  Biso   1.000  H
  O151     1.0000 0.36277  0.15178  0.35824  Biso   1.000  O
  C487     1.0000 0.38049  0.11881  0.30364  Biso   1.000  C
  N295     1.0000 0.42483  0.14544  0.26838  Biso   1.000  N
  N296     1.0000 0.35707  0.05553  0.26500  Biso   1.000  N
  C488     1.0000 0.45261  0.21290  0.29230  Biso   1.000  C
  C489     1.0000 0.43550  0.09619  0.20232  Biso   1.000  C
  C490     1.0000 0.38790  0.03099  0.20009  Biso   1.000  C
  C491     1.0000 0.30893  0.01798  0.28809  Biso   1.000  C
  H561     1.0000 0.45973  0.23971  0.24397  Biso   1.000  H
  H562     1.0000 0.42714  0.24451  0.31822  Biso   1.000  H
  N297     1.0000 0.50615  0.20533  0.34721  Biso   1.000  N
  C492     1.0000 0.43388  0.13753  0.12669  Biso   1.000  C
  N298     1.0000 0.48757  0.05038  0.22372  Biso   1.000  N
  N299     1.0000 0.48757  0.05044  0.22372  Biso   1.000  N
  C493     1.0000 0.34750  0.02460  0.11927  Biso   1.000  C
  N300     1.0000 0.41958  0.96302  0.21872  Biso   1.000  N
  H563     1.0000 0.28662  0.05559  0.31207  Biso   1.000  H
  H564     1.0000 0.28513  0.99881  0.23927  Biso   1.000  H
  N301     1.0000 0.32141  0.95646  0.34383  Biso   1.000  N
  C494     1.0000 0.55966  0.18955  0.32111  Biso   1.000  C
  C495     1.0000 0.51326  0.22789  0.42592  Biso   1.000  C
  H565     1.0000 0.39909  0.16670  0.11548  Biso   1.000  H
  H566     1.0000 0.46620  0.17140  0.13133  Biso   1.000  H
  H567     1.0000 0.43532  0.10201  0.08317  Biso   1.000  H
  C496     1.0000 0.54519  0.07611  0.22541  Biso   1.000  C
  C497     1.0000 0.47672  0.97438  0.23077  Biso   1.000  C
  H568     1.0000 0.32639  0.07142  0.10848  Biso   1.000  H
  H569     1.0000 0.36922  0.01510  0.07648  Biso   1.000  H
  H570     1.0000 0.32121  0.98321  0.12192  Biso   1.000  H
  C498     1.0000 0.39609  0.88781  0.22137  Biso   1.000  C
  C499     1.0000 0.32878  0.87972  0.31931  Biso   1.000  C
  C500     1.0000 0.31461  0.96177  0.42297  Biso   1.000  C
  C501     1.0000 0.31461  0.96183  0.42297  Biso   1.000  C
  C502     1.0000 0.60474  0.20329  0.39181  Biso   1.000  C
  H571     1.0000 0.56501  0.22201  0.27489  Biso   1.000  H
  N302     1.0000 0.56716  0.11100  0.30351  Biso   1.000  N
  N303     1.0000 0.57172  0.23168  0.45148  Biso   1.000  N
  O152     1.0000 0.47452  0.24321  0.46510  Biso   1.000  O
  N304     1.0000 0.57172  0.23173  0.45148  Biso   1.000  N
  H572     1.0000 0.56920  0.03319  0.21612  Biso   1.000  H
  H573     1.0000 0.54620  0.11298  0.18219  Biso   1.000  H
  O153     1.0000 0.51393  0.92439  0.24511  Biso   1.000  O
  H574     1.0000 0.36183  0.88481  0.18051  Biso   1.000  H
  H575     1.0000 0.42350  0.85167  0.20600  Biso   1.000  H
  N305     1.0000 0.38119  0.86298  0.29881  Biso   1.000  N
  H576     1.0000 0.42350  0.85173  0.20600  Biso   1.000  H
  C503     1.0000 0.32872  0.83301  0.39681  Biso   1.000  C
  H577     1.0000 0.29760  0.86389  0.27621  Biso   1.000  H
  O154     1.0000 0.30406  0.01894  0.45931  Biso   1.000  O
  O155     1.0000 0.30406  0.01900  0.45931  Biso   1.000  O
  N306     1.0000 0.31743  0.89052  0.45527  Biso   1.000  N
  H578     1.0000 0.63184  0.24208  0.37921  Biso   1.000  H
  N307     1.0000 0.63274  0.13334  0.41218  Biso   1.000  N
  C504     1.0000 0.61256  0.08160  0.35607  Biso   1.000  C
  C505     1.0000 0.59925  0.25927  0.52958  Biso   1.000  C
  C506     1.0000 0.59925  0.25933  0.52958  Biso   1.000  C
  C507     1.0000 0.41126  0.81379  0.35408  Biso   1.000  C
  H579     1.0000 0.29920  0.79320  0.38928  Biso   1.000  H
  N308     1.0000 0.38413  0.80180  0.41411  Biso   1.000  N
  C508     1.0000 0.31320  0.87469  0.53712  Biso   1.000  C
  C509     1.0000 0.68683  0.12531  0.46287  Biso   1.000  C
  O156     1.0000 0.63322  0.01713  0.35282  Biso   1.000  O
  H580     1.0000 0.57323  0.29309  0.55188  Biso   1.000  H
  H581     1.0000 0.63296  0.28862  0.52271  Biso   1.000  H
  N309     1.0000 0.61594  0.19820  0.58588  Biso   1.000  N
  O157     1.0000 0.45952  0.79241  0.33708  Biso   1.000  O
  C510     1.0000 0.40082  0.74073  0.47040  Biso   1.000  C
  H582     1.0000 0.29153  0.82792  0.53929  Biso   1.000  H
  H583     1.0000 0.29225  0.91557  0.55809  Biso   1.000  H
  N310     1.0000 0.36733  0.86666  0.58780  Biso   1.000  N
  H584     1.0000 0.29225  0.91563  0.55809  Biso   1.000  H
  H585     1.0000 0.70853  0.17208  0.46070  Biso   1.000  H
  H586     1.0000 0.70782  0.08443  0.44189  Biso   1.000  H
  N311     1.0000 0.68264  0.10948  0.54471  Biso   1.000  N
  H587     1.0000 0.70853  0.17213  0.46070  Biso   1.000  H
  C511     1.0000 0.67134  0.16699  0.60317  Biso   1.000  C
  C512     1.0000 0.58881  0.18621  0.64590  Biso   1.000  C
  H588     1.0000 0.42684  0.70691  0.44810  Biso   1.000  H
  H589     1.0000 0.36711  0.71138  0.47727  Biso   1.000  H
  N312     1.0000 0.42835  0.76832  0.54851  Biso   1.000  N
  C513     1.0000 0.38751  0.91840  0.64391  Biso   1.000  C
  C514     1.0000 0.39533  0.79671  0.60817  Biso   1.000  C
  C515     1.0000 0.68546  0.03823  0.57702  Biso   1.000  C
  C516     1.0000 0.67129  0.12028  0.68068  Biso   1.000  C
  H590     1.0000 0.70082  0.20680  0.61071  Biso   1.000  H
  N313     1.0000 0.61888  0.13702  0.70117  Biso   1.000  N
  O158     1.0000 0.54055  0.20759  0.66290  Biso   1.000  O
  C517     1.0000 0.48681  0.77211  0.57412  Biso   1.000  C
  N314     1.0000 0.43291  0.88900  0.69647  Biso   1.000  N
  O159     1.0000 0.36685  0.98287  0.64717  Biso   1.000  O
  O160     1.0000 0.36685  0.98292  0.64717  Biso   1.000  O
  H591     1.0000 0.36822  0.75792  0.62077  Biso   1.000  H
  C518     1.0000 0.44040  0.81045  0.67887  Biso   1.000  C
  N315     1.0000 0.67865  0.04354  0.65615  Biso   1.000  N
  O161     1.0000 0.69601  0.98106  0.54067  Biso   1.000  O
  H592     1.0000 0.70246  0.13611  0.72377  Biso   1.000  H
  C519     1.0000 0.60393  0.11219  0.77862  Biso   1.000  C
  N316     1.0000 0.49392  0.79467  0.65277  Biso   1.000  N
  O162     1.0000 0.52555  0.75679  0.53489  Biso   1.000  O
  C520     1.0000 0.45488  0.92389  0.77458  Biso   1.000  C
  H593     1.0000 0.43505  0.77799  0.72510  Biso   1.000  H
  C521     1.0000 0.69113  0.98202  0.71190  Biso   1.000  C
  H594     1.0000 0.63824  0.11519  0.81948  Biso   1.000  H
  H595     1.0000 0.57657  0.14833  0.79398  Biso   1.000  H
  N317     1.0000 0.58049  0.03698  0.78127  Biso   1.000  N
  C522     1.0000 0.54745  0.78710  0.70768  Biso   1.000  C
  H596     1.0000 0.43087  0.96681  0.78392  Biso   1.000  H
  H597     1.0000 0.45386  0.88702  0.81779  Biso   1.000  H
  N318     1.0000 0.51249  0.94962  0.77627  Biso   1.000  N
  H598     1.0000 0.71494  0.00119  0.76072  Biso   1.000  H
  H599     1.0000 0.71345  0.94441  0.68791  Biso   1.000  H
  N319     1.0000 0.64300  0.94447  0.73504  Biso   1.000  N
  C523     1.0000 0.52334  0.02562  0.76921  Biso   1.000  C
  C524     1.0000 0.61217  0.96901  0.79989  Biso   1.000  C
  H600     1.0000 0.54034  0.76029  0.75601  Biso   1.000  H
  H601     1.0000 0.57294  0.75549  0.68182  Biso   1.000  H
  N320     1.0000 0.57523  0.85456  0.73161  Biso   1.000  N
  C525     1.0000 0.56457  0.90381  0.79766  Biso   1.000  C
  C526     1.0000 0.61958  0.88119  0.69635  Biso   1.000  C
  O163     1.0000 0.48614  0.07561  0.75487  Biso   1.000  O
  C527     1.0000 0.65256  0.97540  0.88071  Biso   1.000  C
  C528     1.0000 0.56618  0.86247  0.87330  Biso   1.000  C
  C529     1.0000 0.56618  0.86253  0.87330  Biso   1.000  C
  O164     1.0000 0.63730  0.84822  0.64174  Biso   1.000  O
  O165     1.0000 0.63730  0.84828  0.64174  Biso   1.000  O
  H602     1.0000 0.67886  0.01679  0.87812  Biso   1.000  H
  H603     1.0000 0.67368  0.92858  0.89150  Biso   1.000  H
  H604     1.0000 0.63084  0.98490  0.92350  Biso   1.000  H
  H605     1.0000 0.60094  0.83330  0.88451  Biso   1.000  H
  H606     1.0000 0.53387  0.82860  0.86872  Biso   1.000  H
  H607     1.0000 0.56474  0.89799  0.91681  Biso   1.000  H
  O166     1.0000 0.36277  0.15178  0.35824  Biso   1.000  O
  C530     1.0000 0.38049  0.11881  0.30364  Biso   1.000  C
  N321     1.0000 0.42483  0.14544  0.26838  Biso   1.000  N
  N322     1.0000 0.35707  0.05553  0.26500  Biso   1.000  N
  C531     1.0000 0.45261  0.21290  0.29230  Biso   1.000  C
  C532     1.0000 0.43550  0.09619  0.20232  Biso   1.000  C
  C533     1.0000 0.38790  0.03099  0.20009  Biso   1.000  C
  C534     1.0000 0.30893  0.01798  0.28809  Biso   1.000  C
  H608     1.0000 0.45973  0.23971  0.24397  Biso   1.000  H
  H609     1.0000 0.42714  0.24451  0.31822  Biso   1.000  H
  N323     1.0000 0.50615  0.20533  0.34721  Biso   1.000  N
  C535     1.0000 0.43388  0.13753  0.12669  Biso   1.000  C
  N324     1.0000 0.48757  0.05038  0.22372  Biso   1.000  N
  N325     1.0000 0.48757  0.05044  0.22372  Biso   1.000  N
  C536     1.0000 0.34750  0.02460  0.11927  Biso   1.000  C
  N326     1.0000 0.41958  0.96302  0.21872  Biso   1.000  N
  H610     1.0000 0.28662  0.05559  0.31207  Biso   1.000  H
  H611     1.0000 0.28513  0.99881  0.23927  Biso   1.000  H
  N327     1.0000 0.32141  0.95646  0.34383  Biso   1.000  N
  C537     1.0000 0.55966  0.18955  0.32111  Biso   1.000  C
  C538     1.0000 0.51326  0.22789  0.42592  Biso   1.000  C
  H612     1.0000 0.39909  0.16670  0.11548  Biso   1.000  H
  H613     1.0000 0.46620  0.17140  0.13133  Biso   1.000  H
  H614     1.0000 0.43532  0.10201  0.08317  Biso   1.000  H
  C539     1.0000 0.54519  0.07611  0.22541  Biso   1.000  C
  C540     1.0000 0.47672  0.97438  0.23077  Biso   1.000  C
  H615     1.0000 0.32639  0.07142  0.10848  Biso   1.000  H
  H616     1.0000 0.36922  0.01510  0.07648  Biso   1.000  H
  H617     1.0000 0.32121  0.98321  0.12192  Biso   1.000  H
  C541     1.0000 0.39609  0.88781  0.22137  Biso   1.000  C
  C542     1.0000 0.32878  0.87972  0.31931  Biso   1.000  C
  C543     1.0000 0.31461  0.96177  0.42297  Biso   1.000  C
  C544     1.0000 0.31461  0.96183  0.42297  Biso   1.000  C
  C545     1.0000 0.60474  0.20329  0.39181  Biso   1.000  C
  H618     1.0000 0.56501  0.22201  0.27489  Biso   1.000  H
  N328     1.0000 0.56716  0.11100  0.30351  Biso   1.000  N
  O167     1.0000 0.47452  0.24321  0.46510  Biso   1.000  O
  N329     1.0000 0.57172  0.23168  0.45148  Biso   1.000  N
  N330     1.0000 0.57172  0.23173  0.45148  Biso   1.000  N
  H619     1.0000 0.56920  0.03319  0.21612  Biso   1.000  H
  H620     1.0000 0.54620  0.11298  0.18219  Biso   1.000  H
  O168     1.0000 0.51393  0.92439  0.24511  Biso   1.000  O
  H621     1.0000 0.36183  0.88481  0.18051  Biso   1.000  H
  H622     1.0000 0.42350  0.85167  0.20600  Biso   1.000  H
  N331     1.0000 0.38119  0.86298  0.29881  Biso   1.000  N
  H623     1.0000 0.42350  0.85173  0.20600  Biso   1.000  H
  C546     1.0000 0.32872  0.83301  0.39681  Biso   1.000  C
  H624     1.0000 0.29760  0.86389  0.27621  Biso   1.000  H
  N332     1.0000 0.31743  0.89052  0.45527  Biso   1.000  N
  O169     1.0000 0.30406  0.01894  0.45931  Biso   1.000  O
  O170     1.0000 0.30406  0.01900  0.45931  Biso   1.000  O
  H625     1.0000 0.63184  0.24208  0.37921  Biso   1.000  H
  N333     1.0000 0.63274  0.13334  0.41218  Biso   1.000  N
  C547     1.0000 0.61256  0.08160  0.35607  Biso   1.000  C
  C548     1.0000 0.59925  0.25927  0.52958  Biso   1.000  C
  C549     1.0000 0.59925  0.25933  0.52958  Biso   1.000  C
  C550     1.0000 0.41126  0.81379  0.35408  Biso   1.000  C
  H626     1.0000 0.29920  0.79320  0.38928  Biso   1.000  H
  N334     1.0000 0.38413  0.80180  0.41411  Biso   1.000  N
  C551     1.0000 0.31320  0.87469  0.53712  Biso   1.000  C
  C552     1.0000 0.68683  0.12531  0.46287  Biso   1.000  C
  O171     1.0000 0.63322  0.01713  0.35282  Biso   1.000  O
  H627     1.0000 0.57323  0.29309  0.55188  Biso   1.000  H
  H628     1.0000 0.63296  0.28862  0.52271  Biso   1.000  H
  N335     1.0000 0.61594  0.19820  0.58588  Biso   1.000  N
  O172     1.0000 0.45952  0.79241  0.33708  Biso   1.000  O
  C553     1.0000 0.40082  0.74073  0.47040  Biso   1.000  C
  H629     1.0000 0.29153  0.82792  0.53929  Biso   1.000  H
  H630     1.0000 0.29225  0.91557  0.55809  Biso   1.000  H
  N336     1.0000 0.36733  0.86666  0.58780  Biso   1.000  N
  H631     1.0000 0.29225  0.91563  0.55809  Biso   1.000  H
  H632     1.0000 0.70782  0.08443  0.44189  Biso   1.000  H
  N337     1.0000 0.68264  0.10948  0.54471  Biso   1.000  N
  H633     1.0000 0.70853  0.17208  0.46070  Biso   1.000  H
  H634     1.0000 0.70853  0.17213  0.46070  Biso   1.000  H
  C554     1.0000 0.67134  0.16699  0.60317  Biso   1.000  C
  C555     1.0000 0.58881  0.18621  0.64590  Biso   1.000  C
  H635     1.0000 0.42684  0.70691  0.44810  Biso   1.000  H
  H636     1.0000 0.36711  0.71138  0.47727  Biso   1.000  H
  N338     1.0000 0.42835  0.76832  0.54851  Biso   1.000  N
  C556     1.0000 0.38751  0.91840  0.64391  Biso   1.000  C
  C557     1.0000 0.39533  0.79671  0.60817  Biso   1.000  C
  C558     1.0000 0.68546  0.03823  0.57702  Biso   1.000  C
  C559     1.0000 0.67129  0.12028  0.68068  Biso   1.000  C
  H637     1.0000 0.70082  0.20680  0.61071  Biso   1.000  H
  N339     1.0000 0.61888  0.13702  0.70117  Biso   1.000  N
  O173     1.0000 0.54055  0.20759  0.66290  Biso   1.000  O
  C560     1.0000 0.48681  0.77211  0.57412  Biso   1.000  C
  N340     1.0000 0.43291  0.88900  0.69647  Biso   1.000  N
  O174     1.0000 0.36685  0.98287  0.64717  Biso   1.000  O
  O175     1.0000 0.36685  0.98292  0.64717  Biso   1.000  O
  H638     1.0000 0.36822  0.75792  0.62077  Biso   1.000  H
  C561     1.0000 0.44040  0.81045  0.67887  Biso   1.000  C
  N341     1.0000 0.67865  0.04354  0.65615  Biso   1.000  N
  O176     1.0000 0.69601  0.98106  0.54067  Biso   1.000  O
  H639     1.0000 0.70246  0.13611  0.72377  Biso   1.000  H
  C562     1.0000 0.60393  0.11219  0.77862  Biso   1.000  C
  N342     1.0000 0.49392  0.79467  0.65277  Biso   1.000  N
  O177     1.0000 0.52555  0.75679  0.53489  Biso   1.000  O
  C563     1.0000 0.45488  0.92389  0.77458  Biso   1.000  C
  H640     1.0000 0.43505  0.77799  0.72510  Biso   1.000  H
  C564     1.0000 0.69113  0.98202  0.71190  Biso   1.000  C
  H641     1.0000 0.63824  0.11519  0.81948  Biso   1.000  H
  H642     1.0000 0.57657  0.14833  0.79398  Biso   1.000  H
  N343     1.0000 0.58049  0.03698  0.78127  Biso   1.000  N
  C565     1.0000 0.54745  0.78710  0.70768  Biso   1.000  C
  H643     1.0000 0.43087  0.96681  0.78392  Biso   1.000  H
  H644     1.0000 0.45386  0.88702  0.81779  Biso   1.000  H
  N344     1.0000 0.51249  0.94962  0.77627  Biso   1.000  N
  H645     1.0000 0.71494  0.00119  0.76072  Biso   1.000  H
  H646     1.0000 0.71345  0.94441  0.68791  Biso   1.000  H
  N345     1.0000 0.64300  0.94447  0.73504  Biso   1.000  N
  C566     1.0000 0.52334  0.02562  0.76921  Biso   1.000  C
  C567     1.0000 0.61217  0.96901  0.79989  Biso   1.000  C
  H647     1.0000 0.54034  0.76029  0.75601  Biso   1.000  H
  H648     1.0000 0.57294  0.75549  0.68182  Biso   1.000  H
  N346     1.0000 0.57523  0.85456  0.73161  Biso   1.000  N
  C568     1.0000 0.56457  0.90381  0.79766  Biso   1.000  C
  C569     1.0000 0.61958  0.88119  0.69635  Biso   1.000  C
  O178     1.0000 0.48614  0.07561  0.75487  Biso   1.000  O
  C570     1.0000 0.65256  0.97540  0.88071  Biso   1.000  C
  C571     1.0000 0.56618  0.86247  0.87330  Biso   1.000  C
  C572     1.0000 0.56618  0.86253  0.87330  Biso   1.000  C
  O179     1.0000 0.63730  0.84822  0.64174  Biso   1.000  O
  O180     1.0000 0.63730  0.84828  0.64174  Biso   1.000  O
  H649     1.0000 0.67886  0.01679  0.87812  Biso   1.000  H
  H650     1.0000 0.67368  0.92858  0.89150  Biso   1.000  H
  H651     1.0000 0.63084  0.98490  0.92350  Biso   1.000  H
  H652     1.0000 0.60094  0.83330  0.88451  Biso   1.000  H
  H653     1.0000 0.53387  0.82860  0.86872  Biso   1.000  H
  H654     1.0000 0.56474  0.89799  0.91681  Biso   1.000  H
