data_image0
_cell_length_a       16.027
_cell_length_b       18.404
_cell_length_c       21.748
_cell_angle_alpha    90.24
_cell_angle_beta     103.59
_cell_angle_gamma    109.59

_symmetry_space_group_name_H-M    "P 1"
_symmetry_int_tables_number       1

loop_
  _symmetry_equiv_pos_as_xyz
  'x, y, z'

loop_
  _atom_site_label
  _atom_site_occupancy
  _atom_site_fract_x
  _atom_site_fract_y
  _atom_site_fract_z
  _atom_site_thermal_displace_type
  _atom_site_B_iso_or_equiv
  _atom_site_type_symbol
  C1       1.0000 0.74078  0.88933  0.05609  Biso   1.000  C
  C2       1.0000 0.77990  0.84165  0.03282  Biso   1.000  C
  C3       1.0000 0.77996  0.84165  0.03282  Biso   1.000  C
  C4       1.0000 0.79390  0.94825  0.10397  Biso   1.000  C
  H1       1.0000 0.66911  0.88105  0.03700  Biso   1.000  H
  C5       1.0000 0.79392  0.94826  0.10402  Biso   1.000  C
  O1       1.0000 0.71949  0.78997  0.98208  Biso   1.000  O
  O2       1.0000 0.71947  0.78991  0.98208  Biso   1.000  O
  C6       1.0000 0.87211  0.85266  0.05728  Biso   1.000  C
  C7       1.0000 0.87209  0.85260  0.05728  Biso   1.000  C
  C8       1.0000 0.74085  0.88933  0.05609  Biso   1.000  C
  C9       1.0000 0.88613  0.95927  0.12848  Biso   1.000  C
  C10      1.0000 0.88607  0.95927  0.12848  Biso   1.000  C
  H2       1.0000 0.76415  0.98508  0.12198  Biso   1.000  H
  H3       1.0000 0.76415  0.98503  0.12202  Biso   1.000  H
  H4       1.0000 0.76409  0.98508  0.12198  Biso   1.000  H
  H5       1.0000 0.76408  0.98503  0.12202  Biso   1.000  H
  C11      1.0000 0.75489  0.72987  0.96688  Biso   1.000  C
  C12      1.0000 0.75487  0.72981  0.96688  Biso   1.000  C
  C13      1.0000 0.92523  0.91147  0.10511  Biso   1.000  C
  H6       1.0000 0.90210  0.81604  0.03899  Biso   1.000  H
  C14      1.0000 0.92521  0.91141  0.10511  Biso   1.000  C
  C15      1.0000 0.94479  0.02123  0.17931  Biso   1.000  C
  C16      1.0000 0.94477  0.02117  0.17931  Biso   1.000  C
  C17      1.0000 0.74053  0.66894  0.01320  Biso   1.000  C
  C18      1.0000 0.74046  0.66894  0.01320  Biso   1.000  C
  H7       1.0000 0.71611  0.70312  0.92000  Biso   1.000  H
  H8       1.0000 0.82609  0.75311  0.96798  Biso   1.000  H
  H9       1.0000 0.71604  0.70312  0.92000  Biso   1.000  H
  H10      1.0000 0.82605  0.75317  0.96798  Biso   1.000  H
  H11      1.0000 0.82603  0.75311  0.96798  Biso   1.000  H
  H12      1.0000 0.99714  0.92007  0.12397  Biso   1.000  H
  H13      1.0000 0.99713  0.92002  0.12402  Biso   1.000  H
  H14      1.0000 0.99707  0.92007  0.12397  Biso   1.000  H
  H15      1.0000 0.99709  0.92007  0.12402  Biso   1.000  H
  C19      1.0000 0.92780  0.01372  0.23921  Biso   1.000  C
  C20      1.0000 0.92774  0.01372  0.23921  Biso   1.000  C
  C21      1.0000 0.01329  0.08642  0.16848  Biso   1.000  C
  C22      1.0000 0.65692  0.62692  0.02541  Biso   1.000  C
  C23      1.0000 0.65686  0.62692  0.02541  Biso   1.000  C
  C24      1.0000 0.81869  0.65276  0.04208  Biso   1.000  C
  C25      1.0000 0.81867  0.65270  0.04208  Biso   1.000  C
  O3       1.0000 0.85904  0.95126  0.25180  Biso   1.000  O
  O4       1.0000 0.85897  0.95126  0.25180  Biso   1.000  O
  C26      1.0000 0.97941  0.07123  0.28837  Biso   1.000  C
  C27      1.0000 0.97942  0.07123  0.28842  Biso   1.000  C
  C28      1.0000 0.97934  0.07123  0.28837  Biso   1.000  C
  C29      1.0000 0.97936  0.07123  0.28842  Biso   1.000  C
  O5       1.0000 0.02497  0.09278  0.10858  Biso   1.000  O
  C30      1.0000 0.06492  0.14393  0.21769  Biso   1.000  C
  C31      1.0000 0.06489  0.14387  0.21769  Biso   1.000  C
  C32      1.0000 0.06485  0.14393  0.21769  Biso   1.000  C
  C33      1.0000 0.56765  0.63323  0.98850  Biso   1.000  C
  C34      1.0000 0.65150  0.56884  0.06659  Biso   1.000  C
  C35      1.0000 0.65143  0.56884  0.06659  Biso   1.000  C
  C36      1.0000 0.81330  0.59456  0.08331  Biso   1.000  C
  H16      1.0000 0.88313  0.68503  0.03301  Biso   1.000  H
  C37      1.0000 0.81328  0.59450  0.08331  Biso   1.000  C
  H17      1.0000 0.88307  0.68503  0.03301  Biso   1.000  H
  C38      1.0000 0.77999  0.95265  0.25759  Biso   1.000  C
  C39      1.0000 0.95801  0.06664  0.34970  Biso   1.000  C
  C40      1.0000 0.95795  0.06664  0.34970  Biso   1.000  C
  C41      1.0000 0.04788  0.13630  0.27759  Biso   1.000  C
  C42      1.0000 0.98386  0.13206  0.06588  Biso   1.000  C
  C43      1.0000 0.98388  0.13207  0.06592  Biso   1.000  C
  C44      1.0000 0.98388  0.13212  0.06588  Biso   1.000  C
  C45      1.0000 0.13301  0.21319  0.19617  Biso   1.000  C
  C46      1.0000 0.13303  0.21319  0.19622  Biso   1.000  C
  C47      1.0000 0.13295  0.21319  0.19617  Biso   1.000  C
  C48      1.0000 0.13297  0.21319  0.19622  Biso   1.000  C
  O6       1.0000 0.54337  0.61001  0.92451  Biso   1.000  O
  O7       1.0000 0.54339  0.61007  0.92451  Biso   1.000  O
  H18      1.0000 0.57808  0.69417  0.99201  Biso   1.000  H
  H19      1.0000 0.57805  0.69411  0.99201  Biso   1.000  H
  H20      1.0000 0.51409  0.60203  0.01101  Biso   1.000  H
  C49      1.0000 0.72968  0.55253  0.09547  Biso   1.000  C
  H21      1.0000 0.58708  0.53602  0.07599  Biso   1.000  H
  C50      1.0000 0.72969  0.55254  0.09552  Biso   1.000  C
  H22      1.0000 0.87411  0.58202  0.10602  Biso   1.000  H
  H23      1.0000 0.87407  0.58207  0.10602  Biso   1.000  H
  H24      1.0000 0.87405  0.58202  0.10602  Biso   1.000  H
  O8       1.0000 0.77660  0.97578  0.31920  Biso   1.000  O
  H25      1.0000 0.75812  0.99104  0.22501  Biso   1.000  H
  H26      1.0000 0.73214  0.89405  0.24401  Biso   1.000  H
  O9       1.0000 0.77666  0.97578  0.31920  Biso   1.000  O
  H27      1.0000 0.75814  0.99110  0.22501  Biso   1.000  H
  H28      1.0000 0.73207  0.89405  0.24401  Biso   1.000  H
  C51      1.0000 0.88785  0.10020  0.35801  Biso   1.000  C
  H29      1.0000 0.93599  0.00404  0.34898  Biso   1.000  H
  C52      1.0000 0.88791  0.10020  0.35801  Biso   1.000  C
  H30      1.0000 0.93597  0.00398  0.34898  Biso   1.000  H
  C53      1.0000 0.88787  0.10026  0.35801  Biso   1.000  C
  H31      1.0000 0.93593  0.00404  0.34898  Biso   1.000  H
  C54      1.0000 0.04075  0.10243  0.41159  Biso   1.000  C
  C55      1.0000 0.04082  0.10243  0.41159  Biso   1.000  C
  H32      1.0000 0.08801  0.18103  0.31597  Biso   1.000  H
  H33      1.0000 0.08803  0.18104  0.31602  Biso   1.000  H
  H34      1.0000 0.08795  0.18103  0.31597  Biso   1.000  H
  H35      1.0000 0.08797  0.18104  0.31602  Biso   1.000  H
  H36      1.0000 0.96496  0.10301  0.01899  Biso   1.000  H
  H37      1.0000 0.92301  0.13299  0.07899  Biso   1.000  H
  H38      1.0000 0.96500  0.10295  0.01899  Biso   1.000  H
  H39      1.0000 0.92295  0.13299  0.07899  Biso   1.000  H
  O10      1.0000 0.04337  0.21240  0.06588  Biso   1.000  O
  O11      1.0000 0.04339  0.21241  0.06592  Biso   1.000  O
  C56      1.0000 0.08338  0.27372  0.17817  Biso   1.000  C
  H40      1.0000 0.15796  0.19599  0.15898  Biso   1.000  H
  C57      1.0000 0.21562  0.25131  0.25208  Biso   1.000  C
  C58      1.0000 0.08339  0.27372  0.17822  Biso   1.000  C
  H41      1.0000 0.15802  0.19599  0.15898  Biso   1.000  H
  C59      1.0000 0.21556  0.25131  0.25208  Biso   1.000  C
  C60      1.0000 0.46698  0.62222  0.89150  Biso   1.000  C
  H42      1.0000 0.72510  0.50803  0.12701  Biso   1.000  H
  H43      1.0000 0.72503  0.50803  0.12701  Biso   1.000  H
  C61      1.0000 0.79725  0.05142  0.33668  Biso   1.000  C
  C62      1.0000 0.90788  0.17793  0.37668  Biso   1.000  C
  C63      1.0000 0.90790  0.17794  0.37672  Biso   1.000  C
  H44      1.0000 0.07498  0.16305  0.40698  Biso   1.000  H
  H45      1.0000 0.01501  0.09702  0.45401  Biso   1.000  H
  C64      1.0000 0.10548  0.05354  0.41591  Biso   1.000  C
  H46      1.0000 0.07496  0.16300  0.40698  Biso   1.000  H
  H47      1.0000 0.01495  0.09702  0.45401  Biso   1.000  H
  C65      1.0000 0.04369  0.26562  0.11319  Biso   1.000  C
  C66      1.0000 0.07837  0.33179  0.21679  Biso   1.000  C
  C67      1.0000 0.07843  0.33179  0.21679  Biso   1.000  C
  H48      1.0000 0.19699  0.27101  0.29198  Biso   1.000  H
  H49      1.0000 0.24601  0.20804  0.26600  Biso   1.000  H
  C68      1.0000 0.29498  0.32052  0.23327  Biso   1.000  C
  H50      1.0000 0.24599  0.20798  0.26600  Biso   1.000  H
  C69      1.0000 0.29500  0.32053  0.23332  Biso   1.000  C
  H51      1.0000 0.24595  0.20804  0.26600  Biso   1.000  H
  C70      1.0000 0.41447  0.66030  0.91098  Biso   1.000  C
  C71      1.0000 0.41449  0.66031  0.91102  Biso   1.000  C
  C72      1.0000 0.41443  0.66036  0.91098  Biso   1.000  C
  C73      1.0000 0.41443  0.66031  0.91102  Biso   1.000  C
  C74      1.0000 0.44200  0.58883  0.82942  Biso   1.000  C
  C75      1.0000 0.44194  0.58883  0.82942  Biso   1.000  C
  C76      1.0000 0.72671  0.08010  0.33421  Biso   1.000  C
  C77      1.0000 0.72667  0.08015  0.33421  Biso   1.000  C
  C78      1.0000 0.72664  0.08010  0.33421  Biso   1.000  C
  C79      1.0000 0.83732  0.20673  0.37421  Biso   1.000  C
  H52      1.0000 0.97798  0.21601  0.39302  Biso   1.000  H
  C80      1.0000 0.83726  0.20673  0.37421  Biso   1.000  C
  H53      1.0000 0.97801  0.21607  0.39302  Biso   1.000  H
  H54      1.0000 0.07113  0.99411  0.42299  Biso   1.000  H
  H55      1.0000 0.12499  0.05601  0.37197  Biso   1.000  H
  C81      1.0000 0.18091  0.08773  0.47011  Biso   1.000  C
  H56      1.0000 0.12501  0.05601  0.37202  Biso   1.000  H
  H57      1.0000 0.12493  0.05601  0.37197  Biso   1.000  H
  C82      1.0000 0.18085  0.08773  0.47011  Biso   1.000  C
  H58      1.0000 0.12495  0.05601  0.37202  Biso   1.000  H
  C83      1.0000 0.99908  0.31550  0.08701  Biso   1.000  C
  C84      1.0000 0.99914  0.31550  0.08701  Biso   1.000  C
  C85      1.0000 0.03384  0.38173  0.19061  Biso   1.000  C
  H59      1.0000 0.10901  0.33803  0.26700  Biso   1.000  H
  C86      1.0000 0.03378  0.38173  0.19061  Biso   1.000  C
  H60      1.0000 0.32100  0.29903  0.19798  Biso   1.000  H
  C87      1.0000 0.38382  0.36923  0.29360  Biso   1.000  C
  H61      1.0000 0.32098  0.29897  0.19798  Biso   1.000  H
  C88      1.0000 0.38376  0.36923  0.29360  Biso   1.000  C
  H62      1.0000 0.26099  0.36004  0.21299  Biso   1.000  H
  C89      1.0000 0.33698  0.66484  0.86851  Biso   1.000  C
  H63      1.0000 0.43405  0.68614  0.95900  Biso   1.000  H
  H64      1.0000 0.43412  0.68614  0.95900  Biso   1.000  H
  C90      1.0000 0.36447  0.59331  0.78690  Biso   1.000  C
  H65      1.0000 0.48303  0.55910  0.81398  Biso   1.000  H
  C91      1.0000 0.74668  0.15783  0.35288  Biso   1.000  C
  C92      1.0000 0.62778  0.02700  0.31250  Biso   1.000  C
  C93      1.0000 0.85652  0.29305  0.39340  Biso   1.000  C
  C94      1.0000 0.85646  0.29305  0.39340  Biso   1.000  C
  C95      1.0000 0.18309  0.10697  0.53258  Biso   1.000  C
  C96      1.0000 0.25828  0.12022  0.44731  Biso   1.000  C
  C97      1.0000 0.18309  0.10692  0.53262  Biso   1.000  C
  C98      1.0000 0.25830  0.12027  0.44731  Biso   1.000  C
  C99      1.0000 0.18311  0.10697  0.53262  Biso   1.000  C
  C100     1.0000 0.26256  0.09647  0.53148  Biso   1.000  C
  C101     1.0000 0.99414  0.37363  0.12559  Biso   1.000  C
  C102     1.0000 0.96214  0.31989  0.01771  Biso   1.000  C
  C103     1.0000 0.99412  0.37357  0.12559  Biso   1.000  C
  C104     1.0000 0.99408  0.37363  0.12559  Biso   1.000  C
  C105     1.0000 0.96208  0.31989  0.01771  Biso   1.000  C
  C106     1.0000 0.02633  0.43809  0.23930  Biso   1.000  C
  C107     1.0000 0.02629  0.43815  0.23930  Biso   1.000  C
  C108     1.0000 0.02627  0.43809  0.23930  Biso   1.000  C
  C109     1.0000 0.45043  0.33475  0.30618  Biso   1.000  C
  C110     1.0000 0.38854  0.42854  0.33559  Biso   1.000  C
  C111     1.0000 0.45041  0.33469  0.30618  Biso   1.000  C
  C112     1.0000 0.45037  0.33475  0.30618  Biso   1.000  C
  C113     1.0000 0.38848  0.42854  0.33559  Biso   1.000  C
  C114     1.0000 0.31200  0.63133  0.80638  Biso   1.000  C
  C115     1.0000 0.31194  0.63133  0.80638  Biso   1.000  C
  H66      1.0000 0.29610  0.69412  0.88400  Biso   1.000  H
  H67      1.0000 0.29603  0.69412  0.88400  Biso   1.000  H
  H68      1.0000 0.34507  0.56708  0.73897  Biso   1.000  H
  H69      1.0000 0.34509  0.56708  0.73902  Biso   1.000  H
  H70      1.0000 0.34503  0.56714  0.73897  Biso   1.000  H
  H71      1.0000 0.34503  0.56708  0.73902  Biso   1.000  H
  O12      1.0000 0.67396  0.18153  0.35179  Biso   1.000  O
  O13      1.0000 0.67403  0.18153  0.35179  Biso   1.000  O
  C116     1.0000 0.59470  0.98135  0.35820  Biso   1.000  C
  C117     1.0000 0.59472  0.98141  0.35820  Biso   1.000  C
  C118     1.0000 0.56898  0.02672  0.25408  Biso   1.000  C
  C119     1.0000 0.56900  0.02672  0.25412  Biso   1.000  C
  C120     1.0000 0.86101  0.33316  0.32989  Biso   1.000  C
  C121     1.0000 0.86099  0.33310  0.32989  Biso   1.000  C
  H72      1.0000 0.80200  0.30105  0.41097  Biso   1.000  H
  C122     1.0000 0.93517  0.32221  0.45847  Biso   1.000  C
  H73      1.0000 0.80201  0.30105  0.41102  Biso   1.000  H
  C123     1.0000 0.93519  0.32222  0.45852  Biso   1.000  C
  C124     1.0000 0.93519  0.32227  0.45847  Biso   1.000  C
  C125     1.0000 0.26270  0.15858  0.57219  Biso   1.000  C
  H74      1.0000 0.12297  0.08208  0.55001  Biso   1.000  H
  C126     1.0000 0.26268  0.15852  0.57219  Biso   1.000  C
  H75      1.0000 0.12301  0.08202  0.55001  Biso   1.000  H
  C127     1.0000 0.33787  0.17182  0.48688  Biso   1.000  C
  H76      1.0000 0.25699  0.10502  0.39900  Biso   1.000  H
  H77      1.0000 0.25693  0.10502  0.39900  Biso   1.000  H
  C128     1.0000 0.34007  0.19107  0.54939  Biso   1.000  C
  C129     1.0000 0.34011  0.19101  0.54939  Biso   1.000  C
  O14      1.0000 0.95344  0.42840  0.10459  Biso   1.000  O
  O15      1.0000 0.95338  0.42840  0.10459  Biso   1.000  O
  C130     1.0000 0.89988  0.25177  0.98318  Biso   1.000  C
  C131     1.0000 0.98673  0.38786  0.98769  Biso   1.000  C
  C132     1.0000 0.89986  0.25172  0.98318  Biso   1.000  C
  C133     1.0000 0.98666  0.38786  0.98769  Biso   1.000  C
  C134     1.0000 0.93758  0.40260  0.25370  Biso   1.000  C
  C135     1.0000 0.93764  0.40260  0.25370  Biso   1.000  C
  H78      1.0000 0.02501  0.49104  0.21997  Biso   1.000  H
  C136     1.0000 0.11644  0.48121  0.29079  Biso   1.000  C
  H79      1.0000 0.02501  0.49099  0.22002  Biso   1.000  H
  C137     1.0000 0.11638  0.48121  0.29079  Biso   1.000  C
  H80      1.0000 0.02503  0.49104  0.22002  Biso   1.000  H
  C138     1.0000 0.52181  0.35953  0.36081  Biso   1.000  C
  H81      1.0000 0.44702  0.28903  0.27398  Biso   1.000  H
  H82      1.0000 0.44696  0.28903  0.27398  Biso   1.000  H
  C139     1.0000 0.45980  0.45332  0.39021  Biso   1.000  C
  H83      1.0000 0.33703  0.45505  0.32599  Biso   1.000  H
  H84      1.0000 0.33701  0.45500  0.32599  Biso   1.000  H
  H85      1.0000 0.33697  0.45505  0.32599  Biso   1.000  H
  C140     1.0000 0.22580  0.63153  0.76377  Biso   1.000  C
  C141     1.0000 0.22582  0.63153  0.76382  Biso   1.000  C
  C142     1.0000 0.22574  0.63153  0.76377  Biso   1.000  C
  C143     1.0000 0.22576  0.63153  0.76382  Biso   1.000  C
  C144     1.0000 0.64823  0.22225  0.29801  Biso   1.000  C
  C145     1.0000 0.64820  0.22219  0.29801  Biso   1.000  C
  C146     1.0000 0.64816  0.22225  0.29801  Biso   1.000  C
  C147     1.0000 0.50273  0.93538  0.34561  Biso   1.000  C
  H86      1.0000 0.64015  0.98209  0.40299  Biso   1.000  H
  H87      1.0000 0.64009  0.98209  0.40299  Biso   1.000  H
  C148     1.0000 0.47714  0.98068  0.24139  Biso   1.000  C
  C149     1.0000 0.47708  0.98068  0.24139  Biso   1.000  C
  H88      1.0000 0.59496  0.06200  0.21897  Biso   1.000  H
  H89      1.0000 0.59498  0.06201  0.21902  Biso   1.000  H
  C150     1.0000 0.77773  0.33361  0.29279  Biso   1.000  C
  C151     1.0000 0.77766  0.33361  0.29279  Biso   1.000  C
  C152     1.0000 0.94088  0.36763  0.31041  Biso   1.000  C
  C153     1.0000 0.94095  0.36763  0.31041  Biso   1.000  C
  H90      1.0000 0.99599  0.31603  0.45102  Biso   1.000  H
  H91      1.0000 0.92003  0.29404  0.49999  Biso   1.000  H
  C154     1.0000 0.95120  0.40113  0.45809  Biso   1.000  C
  H92      1.0000 0.91996  0.29404  0.49999  Biso   1.000  H
  H93      1.0000 0.26400  0.17308  0.62097  Biso   1.000  H
  H94      1.0000 0.26399  0.17303  0.62102  Biso   1.000  H
  H95      1.0000 0.26402  0.17309  0.62102  Biso   1.000  H
  H96      1.0000 0.39798  0.19707  0.46897  Biso   1.000  H
  H97      1.0000 0.39797  0.19701  0.46902  Biso   1.000  H
  H98      1.0000 0.40198  0.23107  0.57998  Biso   1.000  H
  C155     1.0000 0.86555  0.41002  0.11100  Biso   1.000  C
  C156     1.0000 0.86553  0.40996  0.11100  Biso   1.000  C
  C157     1.0000 0.86549  0.41002  0.11100  Biso   1.000  C
  C158     1.0000 0.86226  0.25122  0.91867  Biso   1.000  C
  C159     1.0000 0.86234  0.25123  0.91872  Biso   1.000  C
  C160     1.0000 0.86228  0.25128  0.91867  Biso   1.000  C
  C161     1.0000 0.86227  0.25123  0.91872  Biso   1.000  C
  H99      1.0000 0.88097  0.19898  0.00698  Biso   1.000  H
  H100     1.0000 0.88098  0.19898  0.00702  Biso   1.000  H
  C162     1.0000 0.94911  0.38725  0.92309  Biso   1.000  C
  H101     1.0000 0.03504  0.44101  0.01401  Biso   1.000  H
  H102     1.0000 0.03498  0.44101  0.01401  Biso   1.000  H
  C163     1.0000 0.85419  0.40312  0.21660  Biso   1.000  C
  H103     1.0000 0.17105  0.50401  0.26799  Biso   1.000  H
  H104     1.0000 0.13005  0.43905  0.32101  Biso   1.000  H
  C164     1.0000 0.11181  0.53671  0.32020  Biso   1.000  C
  H105     1.0000 0.17099  0.50401  0.26799  Biso   1.000  H
  H106     1.0000 0.12999  0.43905  0.32101  Biso   1.000  H
  C165     1.0000 0.52653  0.41884  0.40280  Biso   1.000  C
  H107     1.0000 0.57300  0.33302  0.37098  Biso   1.000  H
  H108     1.0000 0.57302  0.33303  0.37102  Biso   1.000  H
  C166     1.0000 0.52647  0.41884  0.40280  Biso   1.000  C
  H109     1.0000 0.57294  0.33302  0.37098  Biso   1.000  H
  H110     1.0000 0.46302  0.49905  0.42299  Biso   1.000  H
  C167     1.0000 0.22236  0.66652  0.70720  Biso   1.000  C
  C168     1.0000 0.14589  0.59701  0.78339  Biso   1.000  C
  C169     1.0000 0.14583  0.59701  0.78339  Biso   1.000  C
  O16      1.0000 0.69485  0.30435  0.31241  Biso   1.000  O
  O17      1.0000 0.69482  0.30429  0.31241  Biso   1.000  O
  O18      1.0000 0.69478  0.30435  0.31241  Biso   1.000  O
  H111     1.0000 0.66398  0.20104  0.25797  Biso   1.000  H
  H112     1.0000 0.57601  0.21104  0.28799  Biso   1.000  H
  H113     1.0000 0.66398  0.20099  0.25802  Biso   1.000  H
  H114     1.0000 0.57599  0.21099  0.28799  Biso   1.000  H
  H115     1.0000 0.57595  0.21104  0.28799  Biso   1.000  H
  H116     1.0000 0.66400  0.20104  0.25802  Biso   1.000  H
  C170     1.0000 0.44392  0.93497  0.28709  Biso   1.000  C
  H117     1.0000 0.47714  0.90007  0.38100  Biso   1.000  H
  H118     1.0000 0.47708  0.90007  0.38100  Biso   1.000  H
  H119     1.0000 0.43209  0.98005  0.19598  Biso   1.000  H
  C171     1.0000 0.77428  0.36860  0.23622  Biso   1.000  C
  C172     1.0000 0.77434  0.36860  0.23622  Biso   1.000  C
  H120     1.0000 0.00499  0.36704  0.33901  Biso   1.000  H
  H121     1.0000 0.96103  0.42601  0.41501  Biso   1.000  H
  H122     1.0000 0.89003  0.40505  0.46698  Biso   1.000  H
  H123     1.0000 0.89005  0.40506  0.46702  Biso   1.000  H
  H124     1.0000 0.96099  0.42607  0.41501  Biso   1.000  H
  H125     1.0000 0.88997  0.40505  0.46698  Biso   1.000  H
  H126     1.0000 0.96096  0.42601  0.41501  Biso   1.000  H
  H127     1.0000 0.88999  0.40506  0.46702  Biso   1.000  H
  C173     1.0000 0.01621  0.43288  0.51110  Biso   1.000  C
  C174     1.0000 0.01619  0.43282  0.51110  Biso   1.000  C
  O19      1.0000 0.85509  0.44101  0.16387  Biso   1.000  O
  O20      1.0000 0.85511  0.44101  0.16392  Biso   1.000  O
  H128     1.0000 0.83100  0.43202  0.07101  Biso   1.000  H
  H129     1.0000 0.83403  0.34798  0.10701  Biso   1.000  H
  H130     1.0000 0.83098  0.43196  0.07101  Biso   1.000  H
  H131     1.0000 0.83396  0.34798  0.10701  Biso   1.000  H
  C175     1.0000 0.88692  0.31896  0.88860  Biso   1.000  C
  H132     1.0000 0.81397  0.19815  0.89198  Biso   1.000  H
  H133     1.0000 0.81399  0.19816  0.89202  Biso   1.000  H
  C176     1.0000 0.88686  0.31896  0.88860  Biso   1.000  C
  H134     1.0000 0.96805  0.44018  0.90000  Biso   1.000  H
  H135     1.0000 0.96803  0.44012  0.90000  Biso   1.000  H
  H136     1.0000 0.96799  0.44018  0.90000  Biso   1.000  H
  H137     1.0000 0.96797  0.44012  0.90000  Biso   1.000  H
  H138     1.0000 0.08902  0.57405  0.28799  Biso   1.000  H
  H139     1.0000 0.06003  0.51003  0.34599  Biso   1.000  H
  C177     1.0000 0.19935  0.59683  0.37620  Biso   1.000  C
  H140     1.0000 0.08900  0.57399  0.28799  Biso   1.000  H
  H141     1.0000 0.05997  0.51003  0.34599  Biso   1.000  H
  C178     1.0000 0.19929  0.59683  0.37620  Biso   1.000  C
  H142     1.0000 0.58200  0.43803  0.44498  Biso   1.000  H
  C179     1.0000 0.13908  0.66697  0.67010  Biso   1.000  C
  C180     1.0000 0.13904  0.66703  0.67010  Biso   1.000  C
  O21      1.0000 0.30524  0.69578  0.68758  Biso   1.000  O
  O22      1.0000 0.30530  0.69578  0.68758  Biso   1.000  O
  O23      1.0000 0.30526  0.69584  0.68758  Biso   1.000  O
  C181     1.0000 0.06251  0.59753  0.74629  Biso   1.000  C
  C182     1.0000 0.06249  0.59747  0.74629  Biso   1.000  C
  C183     1.0000 0.06245  0.59753  0.74629  Biso   1.000  C
  O24      1.0000 0.14499  0.55912  0.83611  Biso   1.000  O
  O25      1.0000 0.14493  0.55912  0.83611  Biso   1.000  O
  O26      1.0000 0.34541  0.89818  0.24800  Biso   1.000  O
  C184     1.0000 0.33244  0.88987  0.29231  Biso   1.000  C
  O27      1.0000 0.34538  0.89813  0.24800  Biso   1.000  O
  C185     1.0000 0.33238  0.88987  0.29231  Biso   1.000  C
  C186     1.0000 0.68808  0.36880  0.19361  Biso   1.000  C
  C187     1.0000 0.68814  0.36880  0.19361  Biso   1.000  C
  C188     1.0000 0.02991  0.41436  0.57371  Biso   1.000  C
  C189     1.0000 0.08735  0.48627  0.49111  Biso   1.000  C
  C190     1.0000 0.08729  0.48627  0.49111  Biso   1.000  C
  C191     1.0000 0.06700  0.41288  0.55561  Biso   1.000  C
  O28      1.0000 0.85594  0.33096  0.82448  Biso   1.000  O
  O29      1.0000 0.85593  0.33091  0.82452  Biso   1.000  O
  O30      1.0000 0.85587  0.33096  0.82448  Biso   1.000  O
  O31      1.0000 0.85587  0.33091  0.82452  Biso   1.000  O
  C192     1.0000 0.22478  0.64918  0.42931  Biso   1.000  C
  C193     1.0000 0.26585  0.57812  0.35511  Biso   1.000  C
  C194     1.0000 0.22475  0.64912  0.42931  Biso   1.000  C
  C195     1.0000 0.22471  0.64918  0.42931  Biso   1.000  C
  C196     1.0000 0.26581  0.57817  0.35511  Biso   1.000  C
  C197     1.0000 0.22469  0.64912  0.42931  Biso   1.000  C
  C198     1.0000 0.26579  0.57812  0.35511  Biso   1.000  C
  C199     1.0000 0.28060  0.58232  0.43601  Biso   1.000  C
  C200     1.0000 0.14356  0.70708  0.60659  Biso   1.000  C
  C201     1.0000 0.05920  0.63250  0.68957  Biso   1.000  C
  C202     1.0000 0.05922  0.63251  0.68962  Biso   1.000  C
  C203     1.0000 0.05914  0.63250  0.68957  Biso   1.000  C
  C204     1.0000 0.05915  0.63251  0.68962  Biso   1.000  C
  C205     1.0000 0.35186  0.77788  0.70197  Biso   1.000  C
  C206     1.0000 0.35188  0.77789  0.70202  Biso   1.000  C
  C207     1.0000 0.35188  0.77794  0.70197  Biso   1.000  C
  C208     1.0000 0.97375  0.56204  0.76068  Biso   1.000  C
  C209     1.0000 0.97373  0.56198  0.76068  Biso   1.000  C
  C210     1.0000 0.13454  0.59011  0.88898  Biso   1.000  C
  H143     1.0000 0.36213  0.94008  0.32599  Biso   1.000  H
  H144     1.0000 0.34308  0.84104  0.31497  Biso   1.000  H
  H145     1.0000 0.34310  0.84105  0.31502  Biso   1.000  H
  H146     1.0000 0.36207  0.94008  0.32599  Biso   1.000  H
  H147     1.0000 0.34310  0.84110  0.31497  Biso   1.000  H
  C211     1.0000 0.66311  0.33529  0.13148  Biso   1.000  C
  C212     1.0000 0.66312  0.33529  0.13152  Biso   1.000  C
  C213     1.0000 0.66304  0.33529  0.13148  Biso   1.000  C
  C214     1.0000 0.66306  0.33529  0.13152  Biso   1.000  C
  C215     1.0000 0.63562  0.40682  0.21308  Biso   1.000  C
  C216     1.0000 0.63556  0.40682  0.21308  Biso   1.000  C
  H148     1.0000 0.97701  0.37007  0.59100  Biso   1.000  H
  C217     1.0000 0.99851  0.34296  0.55751  Biso   1.000  C
  C218     1.0000 0.11460  0.44936  0.61641  Biso   1.000  C
  C219     1.0000 0.12604  0.45439  0.61181  Biso   1.000  C
  C220     1.0000 0.17204  0.52127  0.53381  Biso   1.000  C
  H149     1.0000 0.06805  0.48307  0.43501  Biso   1.000  H
  H150     1.0000 0.06803  0.48301  0.43501  Biso   1.000  H
  H151     1.0000 0.06799  0.48307  0.43501  Biso   1.000  H
  C221     1.0000 0.79679  0.26183  0.78291  Biso   1.000  C
  C222     1.0000 0.31645  0.68287  0.46128  Biso   1.000  C
  C223     1.0000 0.31645  0.68282  0.46132  Biso   1.000  C
  C224     1.0000 0.31639  0.68287  0.46128  Biso   1.000  C
  C225     1.0000 0.31641  0.68288  0.46132  Biso   1.000  C
  H152     1.0000 0.22804  0.63707  0.47002  Biso   1.000  H
  C226     1.0000 0.35772  0.61181  0.38708  Biso   1.000  C
  C227     1.0000 0.35774  0.61187  0.38708  Biso   1.000  C
  C228     1.0000 0.38602  0.60977  0.44427  Biso   1.000  C
  C229     1.0000 0.06491  0.67792  0.54151  Biso   1.000  C
  C230     1.0000 0.06489  0.67786  0.54151  Biso   1.000  C
  C231     1.0000 0.06485  0.67792  0.54151  Biso   1.000  C
  C232     1.0000 0.06483  0.67786  0.54151  Biso   1.000  C
  C233     1.0000 0.16277  0.79340  0.62578  Biso   1.000  C
  H153     1.0000 0.19809  0.69908  0.58901  Biso   1.000  H
  H154     1.0000 0.99509  0.63309  0.66098  Biso   1.000  H
  H155     1.0000 0.99503  0.63309  0.66098  Biso   1.000  H
  O32      1.0000 0.32612  0.81860  0.64820  Biso   1.000  O
  O33      1.0000 0.32606  0.81860  0.64820  Biso   1.000  O
  H156     1.0000 0.33610  0.79909  0.74201  Biso   1.000  H
  H157     1.0000 0.42407  0.78909  0.71199  Biso   1.000  H
  H158     1.0000 0.33606  0.79915  0.74201  Biso   1.000  H
  H159     1.0000 0.42409  0.78914  0.71199  Biso   1.000  H
  H160     1.0000 0.33604  0.79909  0.74201  Biso   1.000  H
  C234     1.0000 0.96624  0.61840  0.80937  Biso   1.000  C
  H161     1.0000 0.97507  0.50909  0.78002  Biso   1.000  H
  C235     1.0000 0.88364  0.51892  0.70919  Biso   1.000  C
  C236     1.0000 0.96626  0.61840  0.80942  Biso   1.000  C
  C237     1.0000 0.88370  0.51892  0.70919  Biso   1.000  C
  H162     1.0000 0.97503  0.50915  0.78002  Biso   1.000  H
  O34      1.0000 0.04664  0.57173  0.89540  Biso   1.000  O
  H163     1.0000 0.16908  0.56811  0.92898  Biso   1.000  H
  H164     1.0000 0.16606  0.65215  0.89297  Biso   1.000  H
  O35      1.0000 0.04670  0.57173  0.89540  Biso   1.000  O
  H165     1.0000 0.16607  0.65215  0.89302  Biso   1.000  H
  H166     1.0000 0.16902  0.56811  0.92898  Biso   1.000  H
  C238     1.0000 0.58561  0.33983  0.08901  Biso   1.000  C
  C239     1.0000 0.58559  0.33977  0.08901  Biso   1.000  C
  H167     1.0000 0.70399  0.30601  0.11599  Biso   1.000  H
  C240     1.0000 0.55808  0.41130  0.17057  Biso   1.000  C
  C241     1.0000 0.55810  0.41130  0.17062  Biso   1.000  C
  H168     1.0000 0.65501  0.43305  0.26101  Biso   1.000  H
  H169     1.0000 0.65499  0.43299  0.26101  Biso   1.000  H
  C242     1.0000 0.98893  0.31454  0.61561  Biso   1.000  C
  C243     1.0000 0.18562  0.50275  0.59642  Biso   1.000  C
  H170     1.0000 0.13400  0.42707  0.65898  Biso   1.000  H
  H171     1.0000 0.13401  0.42707  0.65902  Biso   1.000  H
  C244     1.0000 0.11653  0.42597  0.66990  Biso   1.000  C
  H172     1.0000 0.22504  0.54006  0.50398  Biso   1.000  H
  H173     1.0000 0.22498  0.54006  0.50398  Biso   1.000  H
  C245     1.0000 0.84981  0.20862  0.76847  Biso   1.000  C
  H174     1.0000 0.74902  0.22815  0.80899  Biso   1.000  H
  H175     1.0000 0.75896  0.27710  0.73997  Biso   1.000  H
  C246     1.0000 0.84983  0.20862  0.76852  Biso   1.000  C
  H176     1.0000 0.75898  0.27711  0.74002  Biso   1.000  H
  C247     1.0000 0.84975  0.20862  0.76847  Biso   1.000  C
  H177     1.0000 0.74896  0.22815  0.80899  Biso   1.000  H
  H178     1.0000 0.75899  0.27716  0.73997  Biso   1.000  H
  C248     1.0000 0.84977  0.20862  0.76852  Biso   1.000  C
  C249     1.0000 0.38291  0.66422  0.44019  Biso   1.000  C
  C250     1.0000 0.38293  0.66428  0.44019  Biso   1.000  C
  C251     1.0000 0.43317  0.67566  0.38499  Biso   1.000  C
  C252     1.0000 0.04888  0.59900  0.54189  Biso   1.000  C
  H179     1.0000 0.00410  0.68410  0.54897  Biso   1.000  H
  H180     1.0000 0.08006  0.70609  0.50000  Biso   1.000  H
  H181     1.0000 0.00409  0.68405  0.54902  Biso   1.000  H
  H182     1.0000 0.08012  0.70609  0.50000  Biso   1.000  H
  H183     1.0000 0.00404  0.68410  0.54897  Biso   1.000  H
  H184     1.0000 0.00405  0.68411  0.54902  Biso   1.000  H
  C253     1.0000 0.25341  0.84230  0.64711  Biso   1.000  C
  C254     1.0000 0.09220  0.82220  0.62331  Biso   1.000  C
  C255     1.0000 0.25335  0.84230  0.64711  Biso   1.000  C
  C256     1.0000 0.09214  0.82220  0.62331  Biso   1.000  C
  C257     1.0000 0.00594  0.62650  0.87440  Biso   1.000  C
  C258     1.0000 0.00597  0.62656  0.87440  Biso   1.000  C
  C259     1.0000 0.92172  0.66834  0.78320  Biso   1.000  C
  C260     1.0000 0.92169  0.66828  0.78320  Biso   1.000  C
  C261     1.0000 0.92165  0.66834  0.78320  Biso   1.000  C
  H185     1.0000 0.82904  0.49612  0.73199  Biso   1.000  H
  H186     1.0000 0.87003  0.56108  0.67898  Biso   1.000  H
  C262     1.0000 0.88828  0.46342  0.67979  Biso   1.000  C
  H187     1.0000 0.82910  0.49612  0.73199  Biso   1.000  H
  H188     1.0000 0.87009  0.56108  0.67898  Biso   1.000  H
  C263     1.0000 0.88821  0.46342  0.67979  Biso   1.000  C
  C264     1.0000 0.53311  0.37791  0.10849  Biso   1.000  C
  H189     1.0000 0.56603  0.31399  0.04099  Biso   1.000  H
  H190     1.0000 0.56597  0.31399  0.04099  Biso   1.000  H
  H191     1.0000 0.51705  0.44103  0.18601  Biso   1.000  H
  H192     1.0000 0.51699  0.44103  0.18601  Biso   1.000  H
  C265     1.0000 0.04790  0.35609  0.67171  Biso   1.000  C
  H193     1.0000 0.25802  0.51206  0.61599  Biso   1.000  H
  H194     1.0000 0.25796  0.51206  0.61599  Biso   1.000  H
  C266     1.0000 0.94492  0.23335  0.78249  Biso   1.000  C
  C267     1.0000 0.79779  0.13720  0.73441  Biso   1.000  C
  C268     1.0000 0.94490  0.23329  0.78249  Biso   1.000  C
  C269     1.0000 0.94486  0.23335  0.78249  Biso   1.000  C
  H195     1.0000 0.48901  0.67104  0.43401  Biso   1.000  H
  C270     1.0000 0.98387  0.56725  0.48888  Biso   1.000  C
  C271     1.0000 0.98383  0.56731  0.48888  Biso   1.000  C
  C272     1.0000 0.98381  0.56725  0.48888  Biso   1.000  C
  H196     1.0000 0.03906  0.57412  0.58498  Biso   1.000  H
  H197     1.0000 0.11005  0.59508  0.53301  Biso   1.000  H
  H198     1.0000 0.03905  0.57406  0.58502  Biso   1.000  H
  C273     1.0000 0.27338  0.92003  0.66578  Biso   1.000  C
  C274     1.0000 0.27337  0.91998  0.66582  Biso   1.000  C
  C275     1.0000 0.11223  0.89993  0.64198  Biso   1.000  C
  H199     1.0000 0.02210  0.78412  0.60697  Biso   1.000  H
  C276     1.0000 0.11221  0.89987  0.64198  Biso   1.000  C
  H200     1.0000 0.02210  0.78406  0.60702  Biso   1.000  H
  C277     1.0000 0.11217  0.89993  0.64198  Biso   1.000  C
  H201     1.0000 0.02204  0.78412  0.60697  Biso   1.000  H
  C278     1.0000 0.11215  0.89987  0.64198  Biso   1.000  C
  H202     1.0000 0.02206  0.78412  0.60702  Biso   1.000  H
  C279     1.0000 0.00100  0.68463  0.91297  Biso   1.000  C
  C280     1.0000 0.00102  0.68464  0.91302  Biso   1.000  C
  C281     1.0000 0.00094  0.68463  0.91297  Biso   1.000  C
  C282     1.0000 0.00096  0.68464  0.91302  Biso   1.000  C
  C283     1.0000 0.91671  0.72641  0.82182  Biso   1.000  C
  H203     1.0000 0.89108  0.66210  0.73299  Biso   1.000  H
  C284     1.0000 0.91664  0.72641  0.82182  Biso   1.000  C
  H204     1.0000 0.91106  0.42608  0.71199  Biso   1.000  H
  H205     1.0000 0.94005  0.49010  0.65399  Biso   1.000  H
  C285     1.0000 0.80073  0.40330  0.62378  Biso   1.000  C
  C286     1.0000 0.80079  0.40330  0.62378  Biso   1.000  C
  H206     1.0000 0.91100  0.42608  0.71199  Biso   1.000  H
  O36      1.0000 0.45672  0.39012  0.07547  Biso   1.000  O
  O37      1.0000 0.45671  0.39007  0.07552  Biso   1.000  O
  C287     1.0000 0.98798  0.18673  0.76249  Biso   1.000  C
  H207     1.0000 0.98500  0.28813  0.80899  Biso   1.000  H
  C288     1.0000 0.84089  0.09063  0.71427  Biso   1.000  C
  C289     1.0000 0.84091  0.09063  0.71432  Biso   1.000  C
  C290     1.0000 0.97017  0.58577  0.42627  Biso   1.000  C
  C291     1.0000 0.97019  0.58577  0.42632  Biso   1.000  C
  C292     1.0000 0.93304  0.58725  0.44442  Biso   1.000  C
  C293     1.0000 0.91273  0.51386  0.50888  Biso   1.000  C
  C294     1.0000 0.20283  0.94871  0.66331  Biso   1.000  C
  C295     1.0000 0.37231  0.97313  0.68748  Biso   1.000  C
  C296     1.0000 0.20277  0.94871  0.66331  Biso   1.000  C
  C297     1.0000 0.04207  0.93349  0.65029  Biso   1.000  C
  C298     1.0000 0.03794  0.68024  0.98227  Biso   1.000  C
  C299     1.0000 0.03802  0.68024  0.98232  Biso   1.000  C
  C300     1.0000 0.03796  0.68024  0.98232  Biso   1.000  C
  C301     1.0000 0.95639  0.73451  0.88680  Biso   1.000  C
  C302     1.0000 0.95633  0.73451  0.88680  Biso   1.000  C
  C303     1.0000 0.86707  0.78694  0.80381  Biso   1.000  C
  C304     1.0000 0.86711  0.78689  0.80381  Biso   1.000  C
  C305     1.0000 0.77531  0.35095  0.57068  Biso   1.000  C
  C306     1.0000 0.73423  0.42201  0.64487  Biso   1.000  C
  C307     1.0000 0.73429  0.42196  0.64492  Biso   1.000  C
  C308     1.0000 0.77533  0.35101  0.57068  Biso   1.000  C
  C309     1.0000 0.73425  0.42202  0.64492  Biso   1.000  C
  C310     1.0000 0.71942  0.41781  0.56398  Biso   1.000  C
  C311     1.0000 0.43243  0.36690  0.01149  Biso   1.000  C
  C312     1.0000 0.43237  0.36690  0.01149  Biso   1.000  C
  C313     1.0000 0.93601  0.11542  0.72829  Biso   1.000  C
  C314     1.0000 0.93595  0.11542  0.72829  Biso   1.000  C
  H208     1.0000 0.06200  0.20612  0.77299  Biso   1.000  H
  H209     1.0000 0.80097  0.03513  0.68801  Biso   1.000  H
  H210     1.0000 0.02307  0.63006  0.40898  Biso   1.000  H
  H211     1.0000 0.02301  0.63006  0.40898  Biso   1.000  H
  C315     1.0000 0.00159  0.65718  0.44252  Biso   1.000  C
  C316     1.0000 0.88549  0.55077  0.38357  Biso   1.000  C
  C317     1.0000 0.88551  0.55078  0.38362  Biso   1.000  C
  C318     1.0000 0.88543  0.55077  0.38357  Biso   1.000  C
  C319     1.0000 0.88544  0.55078  0.38362  Biso   1.000  C
  C320     1.0000 0.87404  0.54574  0.38818  Biso   1.000  C
  C321     1.0000 0.82805  0.47886  0.46618  Biso   1.000  C
  H212     1.0000 0.93203  0.51706  0.56498  Biso   1.000  H
  C322     1.0000 0.82807  0.47887  0.46622  Biso   1.000  C
  H213     1.0000 0.93206  0.51712  0.56498  Biso   1.000  H
  O38      1.0000 0.22351  0.02441  0.68079  Biso   1.000  O
  O39      1.0000 0.22345  0.02441  0.68079  Biso   1.000  O
  C323     1.0000 0.43110  0.97341  0.74591  Biso   1.000  C
  C324     1.0000 0.40541  0.01883  0.64179  Biso   1.000  C
  C325     1.0000 0.40539  0.01878  0.64179  Biso   1.000  C
  C326     1.0000 0.40535  0.01883  0.64179  Biso   1.000  C
  C327     1.0000 0.40532  0.01878  0.64179  Biso   1.000  C
  C328     1.0000 0.02068  0.92890  0.71161  Biso   1.000  C
  H214     1.0000 0.06409  0.99609  0.65100  Biso   1.000  H
  C329     1.0000 0.95933  0.89770  0.58840  Biso   1.000  C
  C330     1.0000 0.95927  0.89770  0.58840  Biso   1.000  C
  C331     1.0000 0.10022  0.74841  0.01681  Biso   1.000  C
  C332     1.0000 0.01338  0.61232  0.01230  Biso   1.000  C
  C333     1.0000 0.10016  0.74841  0.01681  Biso   1.000  C
  O40      1.0000 0.95671  0.78773  0.93411  Biso   1.000  O
  O41      1.0000 0.95665  0.78773  0.93411  Biso   1.000  O
  C334     1.0000 0.93517  0.85620  0.78230  Biso   1.000  C
  C335     1.0000 0.93519  0.85626  0.78230  Biso   1.000  C
  H215     1.0000 0.84213  0.80414  0.84101  Biso   1.000  H
  C336     1.0000 0.78446  0.74882  0.74790  Biso   1.000  C
  H216     1.0000 0.84206  0.80414  0.84101  Biso   1.000  H
  C337     1.0000 0.68363  0.31726  0.53871  Biso   1.000  C
  C338     1.0000 0.68365  0.31731  0.53871  Biso   1.000  C
  H217     1.0000 0.77206  0.36307  0.53002  Biso   1.000  H
  C339     1.0000 0.64237  0.38832  0.61291  Biso   1.000  C
  C340     1.0000 0.64235  0.38826  0.61291  Biso   1.000  C
  C341     1.0000 0.61406  0.39036  0.55572  Biso   1.000  C
  C342     1.0000 0.34318  0.37327  0.97458  Biso   1.000  C
  C343     1.0000 0.34325  0.37327  0.97458  Biso   1.000  C
  H218     1.0000 0.48601  0.39816  0.98897  Biso   1.000  H
  H219     1.0000 0.48603  0.39816  0.98902  Biso   1.000  H
  H220     1.0000 0.42201  0.30596  0.00797  Biso   1.000  H
  H221     1.0000 0.42202  0.30596  0.00802  Biso   1.000  H
  H222     1.0000 0.42197  0.30602  0.00797  Biso   1.000  H
  H223     1.0000 0.42196  0.30596  0.00802  Biso   1.000  H
  H224     1.0000 0.96901  0.07912  0.71299  Biso   1.000  H
  H225     1.0000 0.96895  0.07912  0.71299  Biso   1.000  H
  C344     1.0000 0.01115  0.68559  0.38438  Biso   1.000  C
  C345     1.0000 0.88355  0.57416  0.33009  Biso   1.000  C
  C346     1.0000 0.81447  0.49738  0.40357  Biso   1.000  C
  H226     1.0000 0.86609  0.57306  0.34101  Biso   1.000  H
  C347     1.0000 0.81446  0.49733  0.40362  Biso   1.000  C
  C348     1.0000 0.81441  0.49738  0.40357  Biso   1.000  C
  H227     1.0000 0.86602  0.57306  0.34101  Biso   1.000  H
  C349     1.0000 0.81448  0.49739  0.40362  Biso   1.000  C
  H228     1.0000 0.77504  0.46007  0.49601  Biso   1.000  H
  C350     1.0000 0.22011  0.04754  0.74239  Biso   1.000  C
  C351     1.0000 0.22005  0.04754  0.74239  Biso   1.000  C
  H229     1.0000 0.40513  0.93813  0.78101  Biso   1.000  H
  H230     1.0000 0.40506  0.93813  0.78101  Biso   1.000  H
  C352     1.0000 0.52296  0.01951  0.75859  Biso   1.000  C
  C353     1.0000 0.49738  0.06481  0.65437  Biso   1.000  C
  H231     1.0000 0.35996  0.01810  0.59699  Biso   1.000  H
  C354     1.0000 0.49740  0.06481  0.65442  Biso   1.000  C
  C355     1.0000 0.07228  0.98641  0.76078  Biso   1.000  C
  C356     1.0000 0.95220  0.86383  0.72240  Biso   1.000  C
  H232     1.0000 0.92510  0.83708  0.59300  Biso   1.000  H
  H233     1.0000 0.98507  0.90311  0.54598  Biso   1.000  H
  C357     1.0000 0.89460  0.94659  0.58407  Biso   1.000  C
  C358     1.0000 0.89462  0.94660  0.58412  Biso   1.000  C
  H234     1.0000 0.92506  0.83713  0.59300  Biso   1.000  H
  C359     1.0000 0.89454  0.94659  0.58407  Biso   1.000  C
  H235     1.0000 0.92504  0.83708  0.59300  Biso   1.000  H
  H236     1.0000 0.11912  0.80115  0.99301  Biso   1.000  H
  H237     1.0000 0.11905  0.80115  0.99301  Biso   1.000  H
  C360     1.0000 0.13785  0.74897  0.08131  Biso   1.000  C
  C361     1.0000 0.13783  0.74891  0.08131  Biso   1.000  C
  C362     1.0000 0.13779  0.74897  0.08131  Biso   1.000  C
  H238     1.0000 0.96504  0.55912  0.98598  Biso   1.000  H
  C363     1.0000 0.05100  0.61294  0.07690  Biso   1.000  C
  C364     1.0000 0.01622  0.86807  0.93411  Biso   1.000  C
  C365     1.0000 0.01620  0.86801  0.93411  Biso   1.000  C
  C366     1.0000 0.01616  0.86807  0.93411  Biso   1.000  C
  C367     1.0000 0.98679  0.91371  0.83151  Biso   1.000  C
  H239     1.0000 0.80309  0.72912  0.70800  Biso   1.000  H
  H240     1.0000 0.75407  0.79209  0.73399  Biso   1.000  H
  C368     1.0000 0.70510  0.67961  0.76672  Biso   1.000  C
  H241     1.0000 0.75409  0.79215  0.73399  Biso   1.000  H
  C369     1.0000 0.70504  0.67961  0.76672  Biso   1.000  C
  C370     1.0000 0.61717  0.33591  0.55980  Biso   1.000  C
  C371     1.0000 0.61715  0.33585  0.55980  Biso   1.000  C
  C372     1.0000 0.61711  0.33591  0.55980  Biso   1.000  C
  C373     1.0000 0.61709  0.33585  0.55980  Biso   1.000  C
  C374     1.0000 0.56691  0.32447  0.61500  Biso   1.000  C
  C375     1.0000 0.25958  0.33124  0.98679  Biso   1.000  C
  C376     1.0000 0.34861  0.43135  0.93340  Biso   1.000  C
  C377     1.0000 0.95212  0.64404  0.32828  Biso   1.000  C
  H242     1.0000 0.74206  0.48807  0.38400  Biso   1.000  H
  O42      1.0000 0.14107  0.04893  0.74819  Biso   1.000  O
  H243     1.0000 0.24199  0.00915  0.77498  Biso   1.000  H
  H244     1.0000 0.26797  0.10614  0.75598  Biso   1.000  H
  H245     1.0000 0.24197  0.00909  0.77498  Biso   1.000  H
  C378     1.0000 0.55619  0.06521  0.71290  Biso   1.000  C
  H246     1.0000 0.56801  0.02014  0.80400  Biso   1.000  H
  H247     1.0000 0.56795  0.02014  0.80400  Biso   1.000  H
  H248     1.0000 0.52296  0.10012  0.61899  Biso   1.000  H
  H249     1.0000 0.52303  0.10012  0.61899  Biso   1.000  H
  C379     1.0000 0.05530  0.97890  0.82068  Biso   1.000  C
  C380     1.0000 0.05531  0.97891  0.82072  Biso   1.000  C
  C381     1.0000 0.05526  0.97896  0.82068  Biso   1.000  C
  H250     1.0000 0.91207  0.81910  0.68402  Biso   1.000  H
  H251     1.0000 0.87509  0.94412  0.62801  Biso   1.000  H
  C382     1.0000 0.81917  0.91240  0.52987  Biso   1.000  C
  C383     1.0000 0.81919  0.91241  0.52992  Biso   1.000  C
  H252     1.0000 0.92898  0.00608  0.57700  Biso   1.000  H
  C384     1.0000 0.11318  0.68123  0.11138  Biso   1.000  C
  H253     1.0000 0.18613  0.80203  0.10801  Biso   1.000  H
  H254     1.0000 0.18607  0.80203  0.10801  Biso   1.000  H
  H255     1.0000 0.03205  0.56001  0.09998  Biso   1.000  H
  H256     1.0000 0.03208  0.56007  0.09998  Biso   1.000  H
  O43      1.0000 0.97512  0.90735  0.89141  Biso   1.000  O
  O44      1.0000 0.97505  0.90735  0.89141  Biso   1.000  O
  H257     1.0000 0.03512  0.89712  0.98099  Biso   1.000  H
  H258     1.0000 0.07707  0.86714  0.92100  Biso   1.000  H
  H259     1.0000 0.03508  0.89718  0.98099  Biso   1.000  H
  H260     1.0000 0.03506  0.89712  0.98099  Biso   1.000  H
  H261     1.0000 0.67908  0.70110  0.80201  Biso   1.000  H
  C385     1.0000 0.61626  0.63090  0.70639  Biso   1.000  C
  H262     1.0000 0.67910  0.70116  0.80201  Biso   1.000  H
  H263     1.0000 0.73903  0.64009  0.78700  Biso   1.000  H
  H264     1.0000 0.51103  0.32910  0.56602  Biso   1.000  H
  C386     1.0000 0.24519  0.27026  0.03310  Biso   1.000  C
  C387     1.0000 0.24521  0.27032  0.03310  Biso   1.000  C
  C388     1.0000 0.18142  0.34743  0.95791  Biso   1.000  C
  C389     1.0000 0.18138  0.34749  0.95791  Biso   1.000  C
  C390     1.0000 0.18135  0.34743  0.95791  Biso   1.000  C
  C391     1.0000 0.27043  0.44765  0.90452  Biso   1.000  C
  H265     1.0000 0.41303  0.46417  0.92399  Biso   1.000  H
  O45      1.0000 0.65470  0.10200  0.75199  Biso   1.000  O
  C392     1.0000 0.66767  0.11032  0.70767  Biso   1.000  C
  C393     1.0000 0.66768  0.11032  0.70772  Biso   1.000  C
  O46      1.0000 0.65464  0.10200  0.75199  Biso   1.000  O
  C394     1.0000 0.11397  0.04092  0.87150  Biso   1.000  C
  C395     1.0000 0.81699  0.89316  0.46741  Biso   1.000  C
  C396     1.0000 0.74180  0.87991  0.55268  Biso   1.000  C
  C397     1.0000 0.74180  0.87986  0.55272  Biso   1.000  C
  C398     1.0000 0.81701  0.89322  0.46741  Biso   1.000  C
  C399     1.0000 0.74174  0.87991  0.55268  Biso   1.000  C
  C400     1.0000 0.74182  0.87992  0.55272  Biso   1.000  C
  C401     1.0000 0.73746  0.90366  0.46850  Biso   1.000  C
  O47      1.0000 0.14417  0.66923  0.17551  Biso   1.000  O
  O48      1.0000 0.14419  0.66928  0.17551  Biso   1.000  O
  C402     1.0000 0.54965  0.66538  0.69380  Biso   1.000  C
  C403     1.0000 0.61155  0.57159  0.66440  Biso   1.000  C
  C404     1.0000 0.54967  0.66544  0.69380  Biso   1.000  C
  O49      1.0000 0.28060  0.21016  0.01790  Biso   1.000  O
  O50      1.0000 0.28056  0.21022  0.01790  Biso   1.000  O
  H266     1.0000 0.28398  0.29701  0.07998  Biso   1.000  H
  H267     1.0000 0.17400  0.24702  0.03201  Biso   1.000  H
  H268     1.0000 0.28402  0.29696  0.07998  Biso   1.000  H
  H269     1.0000 0.17397  0.24696  0.03201  Biso   1.000  H
  C405     1.0000 0.18681  0.40563  0.91668  Biso   1.000  C
  H270     1.0000 0.11698  0.31516  0.96698  Biso   1.000  H
  C406     1.0000 0.18683  0.40563  0.91672  Biso   1.000  C
  H271     1.0000 0.11704  0.31516  0.96698  Biso   1.000  H
  C407     1.0000 0.18677  0.40568  0.91668  Biso   1.000  C
  H272     1.0000 0.27501  0.49216  0.87297  Biso   1.000  H
  H273     1.0000 0.27503  0.49216  0.87302  Biso   1.000  H
  H274     1.0000 0.63797  0.06011  0.67399  Biso   1.000  H
  H275     1.0000 0.65703  0.15914  0.68501  Biso   1.000  H
  H276     1.0000 0.65701  0.15909  0.68501  Biso   1.000  H
  H277     1.0000 0.65696  0.15914  0.68501  Biso   1.000  H
  C408     1.0000 0.07488  0.08872  0.89487  Biso   1.000  C
  C409     1.0000 0.20621  0.05193  0.89601  Biso   1.000  C
  C410     1.0000 0.07489  0.08873  0.89492  Biso   1.000  C
  C411     1.0000 0.20614  0.05193  0.89601  Biso   1.000  C
  C412     1.0000 0.73738  0.84155  0.42779  Biso   1.000  C
  H278     1.0000 0.87711  0.91805  0.44998  Biso   1.000  H
  C413     1.0000 0.73740  0.84161  0.42779  Biso   1.000  C
  H279     1.0000 0.87707  0.91811  0.44998  Biso   1.000  H
  H280     1.0000 0.87705  0.91805  0.44998  Biso   1.000  H
  C414     1.0000 0.66221  0.82831  0.51311  Biso   1.000  C
  H281     1.0000 0.74309  0.89511  0.60098  Biso   1.000  H
  C415     1.0000 0.66219  0.82825  0.51311  Biso   1.000  C
  C416     1.0000 0.66215  0.82831  0.51311  Biso   1.000  C
  C417     1.0000 0.66001  0.80906  0.45060  Biso   1.000  C
  C418     1.0000 0.65995  0.80906  0.45060  Biso   1.000  C
  C419     1.0000 0.20332  0.73835  0.21707  Biso   1.000  C
  C420     1.0000 0.20333  0.73836  0.21712  Biso   1.000  C
  C421     1.0000 0.20326  0.73835  0.21707  Biso   1.000  C
  C422     1.0000 0.20327  0.73836  0.21712  Biso   1.000  C
  C423     1.0000 0.47827  0.64060  0.63917  Biso   1.000  C
  H282     1.0000 0.55306  0.71110  0.72601  Biso   1.000  H
  C424     1.0000 0.47829  0.64061  0.63922  Biso   1.000  C
  C425     1.0000 0.54029  0.54681  0.60977  Biso   1.000  C
  H283     1.0000 0.66305  0.54508  0.67399  Biso   1.000  H
  C426     1.0000 0.54030  0.54681  0.60982  Biso   1.000  C
  C427     1.0000 0.54022  0.54681  0.60977  Biso   1.000  C
  H284     1.0000 0.66307  0.54513  0.67399  Biso   1.000  H
  C428     1.0000 0.54024  0.54681  0.60982  Biso   1.000  C
  C429     1.0000 0.22021  0.15853  0.96717  Biso   1.000  C
  C430     1.0000 0.22023  0.15854  0.96722  Biso   1.000  C
  C431     1.0000 0.22015  0.15853  0.96717  Biso   1.000  C
  C432     1.0000 0.22016  0.15854  0.96722  Biso   1.000  C
  H285     1.0000 0.12600  0.41817  0.89397  Biso   1.000  H
  H286     1.0000 0.12599  0.41812  0.89402  Biso   1.000  H
  H287     1.0000 0.12601  0.41818  0.89402  Biso   1.000  H
  C433     1.0000 0.12799  0.14753  0.94271  Biso   1.000  C
  H288     1.0000 0.00297  0.08012  0.87602  Biso   1.000  H
  C434     1.0000 0.12802  0.14758  0.94271  Biso   1.000  C
  C435     1.0000 0.25932  0.11086  0.94389  Biso   1.000  C
  H289     1.0000 0.23596  0.01511  0.87801  Biso   1.000  H
  C436     1.0000 0.25926  0.11086  0.94389  Biso   1.000  C
  H290     1.0000 0.23598  0.01517  0.87801  Biso   1.000  H
  H291     1.0000 0.73608  0.82705  0.37901  Biso   1.000  H
  H292     1.0000 0.73611  0.82711  0.37901  Biso   1.000  H
  H293     1.0000 0.60211  0.80306  0.53101  Biso   1.000  H
  H294     1.0000 0.60207  0.80312  0.53101  Biso   1.000  H
  H295     1.0000 0.60205  0.80306  0.53101  Biso   1.000  H
  H296     1.0000 0.59811  0.76906  0.42000  Biso   1.000  H
  H297     1.0000 0.59804  0.76906  0.42000  Biso   1.000  H
  C437     1.0000 0.15029  0.79157  0.23151  Biso   1.000  C
  H298     1.0000 0.25109  0.77204  0.19099  Biso   1.000  H
  H299     1.0000 0.24114  0.72309  0.26001  Biso   1.000  H
  H300     1.0000 0.24112  0.72303  0.26001  Biso   1.000  H
  H301     1.0000 0.24108  0.72309  0.26001  Biso   1.000  H
  C438     1.0000 0.47355  0.58129  0.59718  Biso   1.000  C
  H302     1.0000 0.42708  0.66711  0.62901  Biso   1.000  H
  H303     1.0000 0.53707  0.50108  0.57700  Biso   1.000  H
  H304     1.0000 0.09801  0.18415  0.96099  Biso   1.000  H
  H305     1.0000 0.09795  0.18415  0.96099  Biso   1.000  H
  H306     1.0000 0.33099  0.11914  0.96299  Biso   1.000  H
  H307     1.0000 0.33093  0.11914  0.96299  Biso   1.000  H
  C439     1.0000 0.05519  0.76684  0.21750  Biso   1.000  C
  C440     1.0000 0.20231  0.86298  0.26557  Biso   1.000  C
  C441     1.0000 0.20231  0.86293  0.26562  Biso   1.000  C
  C442     1.0000 0.05521  0.76689  0.21750  Biso   1.000  C
  C443     1.0000 0.20233  0.86299  0.26562  Biso   1.000  C
  H308     1.0000 0.41809  0.56210  0.55500  Biso   1.000  H
  H309     1.0000 0.41802  0.56210  0.55500  Biso   1.000  H
  C444     1.0000 0.01213  0.81345  0.23750  Biso   1.000  C
  H310     1.0000 0.01510  0.71206  0.19099  Biso   1.000  H
  C445     1.0000 0.01206  0.81345  0.23750  Biso   1.000  C
  C446     1.0000 0.15922  0.90956  0.28571  Biso   1.000  C
  H311     1.0000 0.93811  0.79407  0.22700  Biso   1.000  H
  C447     1.0000 0.06409  0.88477  0.27170  Biso   1.000  C
  C448     1.0000 0.06415  0.88477  0.27170  Biso   1.000  C
  H312     1.0000 0.19913  0.96506  0.31198  Biso   1.000  H
  H313     1.0000 0.19907  0.96506  0.31198  Biso   1.000  H
  H314     1.0000 0.03109  0.92106  0.28699  Biso   1.000  H
  C449     1.0000 0.74078  0.88933  0.05609  Biso   1.000  C
  C450     1.0000 0.77990  0.84165  0.03282  Biso   1.000  C
  C451     1.0000 0.77996  0.84165  0.03282  Biso   1.000  C
  C452     1.0000 0.79390  0.94825  0.10397  Biso   1.000  C
  H315     1.0000 0.66911  0.88105  0.03700  Biso   1.000  H
  C453     1.0000 0.79392  0.94826  0.10402  Biso   1.000  C
  O51      1.0000 0.71949  0.78997  0.98208  Biso   1.000  O
  O52      1.0000 0.71947  0.78991  0.98208  Biso   1.000  O
  C454     1.0000 0.87211  0.85266  0.05728  Biso   1.000  C
  C455     1.0000 0.87209  0.85260  0.05728  Biso   1.000  C
  C456     1.0000 0.74085  0.88933  0.05609  Biso   1.000  C
  C457     1.0000 0.88613  0.95927  0.12848  Biso   1.000  C
  C458     1.0000 0.88607  0.95927  0.12848  Biso   1.000  C
  H316     1.0000 0.76415  0.98508  0.12198  Biso   1.000  H
  H317     1.0000 0.76415  0.98503  0.12202  Biso   1.000  H
  H318     1.0000 0.76409  0.98508  0.12198  Biso   1.000  H
  H319     1.0000 0.76408  0.98503  0.12202  Biso   1.000  H
  C459     1.0000 0.75489  0.72987  0.96688  Biso   1.000  C
  C460     1.0000 0.75487  0.72981  0.96688  Biso   1.000  C
  C461     1.0000 0.92523  0.91147  0.10511  Biso   1.000  C
  H320     1.0000 0.90210  0.81604  0.03899  Biso   1.000  H
  C462     1.0000 0.92521  0.91141  0.10511  Biso   1.000  C
  C463     1.0000 0.94479  0.02123  0.17931  Biso   1.000  C
  C464     1.0000 0.94477  0.02117  0.17931  Biso   1.000  C
  C465     1.0000 0.74053  0.66894  0.01320  Biso   1.000  C
  C466     1.0000 0.74046  0.66894  0.01320  Biso   1.000  C
  H321     1.0000 0.71611  0.70312  0.92000  Biso   1.000  H
  H322     1.0000 0.82609  0.75311  0.96798  Biso   1.000  H
  H323     1.0000 0.71604  0.70312  0.92000  Biso   1.000  H
  H324     1.0000 0.82605  0.75317  0.96798  Biso   1.000  H
  H325     1.0000 0.82603  0.75311  0.96798  Biso   1.000  H
  H326     1.0000 0.99714  0.92007  0.12397  Biso   1.000  H
  H327     1.0000 0.99713  0.92002  0.12402  Biso   1.000  H
  H328     1.0000 0.99707  0.92007  0.12397  Biso   1.000  H
  H329     1.0000 0.99709  0.92007  0.12402  Biso   1.000  H
  C467     1.0000 0.92780  0.01372  0.23921  Biso   1.000  C
  C468     1.0000 0.92774  0.01372  0.23921  Biso   1.000  C
  C469     1.0000 0.01329  0.08642  0.16848  Biso   1.000  C
  C470     1.0000 0.65692  0.62692  0.02541  Biso   1.000  C
  C471     1.0000 0.65686  0.62692  0.02541  Biso   1.000  C
  C472     1.0000 0.81869  0.65276  0.04208  Biso   1.000  C
  C473     1.0000 0.81867  0.65270  0.04208  Biso   1.000  C
  O53      1.0000 0.85904  0.95126  0.25180  Biso   1.000  O
  O54      1.0000 0.85897  0.95126  0.25180  Biso   1.000  O
  C474     1.0000 0.97941  0.07123  0.28837  Biso   1.000  C
  C475     1.0000 0.97942  0.07123  0.28842  Biso   1.000  C
  C476     1.0000 0.97934  0.07123  0.28837  Biso   1.000  C
  C477     1.0000 0.97936  0.07123  0.28842  Biso   1.000  C
  O55      1.0000 0.02497  0.09278  0.10858  Biso   1.000  O
  C478     1.0000 0.06492  0.14393  0.21769  Biso   1.000  C
  C479     1.0000 0.06489  0.14387  0.21769  Biso   1.000  C
  C480     1.0000 0.06485  0.14393  0.21769  Biso   1.000  C
  C481     1.0000 0.56765  0.63323  0.98850  Biso   1.000  C
  C482     1.0000 0.65150  0.56884  0.06659  Biso   1.000  C
  C483     1.0000 0.65143  0.56884  0.06659  Biso   1.000  C
  C484     1.0000 0.81330  0.59456  0.08331  Biso   1.000  C
  H330     1.0000 0.88313  0.68503  0.03301  Biso   1.000  H
  C485     1.0000 0.81328  0.59450  0.08331  Biso   1.000  C
  H331     1.0000 0.88307  0.68503  0.03301  Biso   1.000  H
  C486     1.0000 0.77999  0.95265  0.25759  Biso   1.000  C
  C487     1.0000 0.95801  0.06664  0.34970  Biso   1.000  C
  C488     1.0000 0.95795  0.06664  0.34970  Biso   1.000  C
  C489     1.0000 0.04788  0.13630  0.27759  Biso   1.000  C
  C490     1.0000 0.98386  0.13206  0.06588  Biso   1.000  C
  C491     1.0000 0.98388  0.13207  0.06592  Biso   1.000  C
  C492     1.0000 0.98388  0.13212  0.06588  Biso   1.000  C
  C493     1.0000 0.13301  0.21319  0.19617  Biso   1.000  C
  C494     1.0000 0.13303  0.21319  0.19622  Biso   1.000  C
  C495     1.0000 0.13295  0.21319  0.19617  Biso   1.000  C
  C496     1.0000 0.13297  0.21319  0.19622  Biso   1.000  C
  O56      1.0000 0.54337  0.61001  0.92451  Biso   1.000  O
  O57      1.0000 0.54339  0.61007  0.92451  Biso   1.000  O
  H332     1.0000 0.57808  0.69417  0.99201  Biso   1.000  H
  H333     1.0000 0.57805  0.69411  0.99201  Biso   1.000  H
  H334     1.0000 0.51409  0.60203  0.01101  Biso   1.000  H
  C497     1.0000 0.72968  0.55253  0.09547  Biso   1.000  C
  H335     1.0000 0.58708  0.53602  0.07599  Biso   1.000  H
  C498     1.0000 0.72969  0.55254  0.09552  Biso   1.000  C
  H336     1.0000 0.87411  0.58202  0.10602  Biso   1.000  H
  H337     1.0000 0.87407  0.58207  0.10602  Biso   1.000  H
  H338     1.0000 0.87405  0.58202  0.10602  Biso   1.000  H
  O58      1.0000 0.77660  0.97578  0.31920  Biso   1.000  O
  H339     1.0000 0.75812  0.99104  0.22501  Biso   1.000  H
  H340     1.0000 0.73214  0.89405  0.24401  Biso   1.000  H
  O59      1.0000 0.77666  0.97578  0.31920  Biso   1.000  O
  H341     1.0000 0.75814  0.99110  0.22501  Biso   1.000  H
  H342     1.0000 0.73207  0.89405  0.24401  Biso   1.000  H
  C499     1.0000 0.88785  0.10020  0.35801  Biso   1.000  C
  H343     1.0000 0.93599  0.00404  0.34898  Biso   1.000  H
  C500     1.0000 0.88791  0.10020  0.35801  Biso   1.000  C
  H344     1.0000 0.93597  0.00398  0.34898  Biso   1.000  H
  C501     1.0000 0.88787  0.10026  0.35801  Biso   1.000  C
  H345     1.0000 0.93593  0.00404  0.34898  Biso   1.000  H
  C502     1.0000 0.04075  0.10243  0.41159  Biso   1.000  C
  C503     1.0000 0.04082  0.10243  0.41159  Biso   1.000  C
  H346     1.0000 0.08801  0.18103  0.31597  Biso   1.000  H
  H347     1.0000 0.08803  0.18104  0.31602  Biso   1.000  H
  H348     1.0000 0.08795  0.18103  0.31597  Biso   1.000  H
  H349     1.0000 0.08797  0.18104  0.31602  Biso   1.000  H
  H350     1.0000 0.96496  0.10301  0.01899  Biso   1.000  H
  H351     1.0000 0.92301  0.13299  0.07899  Biso   1.000  H
  H352     1.0000 0.96500  0.10295  0.01899  Biso   1.000  H
  H353     1.0000 0.92295  0.13299  0.07899  Biso   1.000  H
  O60      1.0000 0.04337  0.21240  0.06588  Biso   1.000  O
  O61      1.0000 0.04339  0.21241  0.06592  Biso   1.000  O
  C504     1.0000 0.08338  0.27372  0.17817  Biso   1.000  C
  H354     1.0000 0.15796  0.19599  0.15898  Biso   1.000  H
  C505     1.0000 0.21562  0.25131  0.25208  Biso   1.000  C
  C506     1.0000 0.08339  0.27372  0.17822  Biso   1.000  C
  H355     1.0000 0.15802  0.19599  0.15898  Biso   1.000  H
  C507     1.0000 0.21556  0.25131  0.25208  Biso   1.000  C
  C508     1.0000 0.46698  0.62222  0.89150  Biso   1.000  C
  H356     1.0000 0.72510  0.50803  0.12701  Biso   1.000  H
  H357     1.0000 0.72503  0.50803  0.12701  Biso   1.000  H
  C509     1.0000 0.79725  0.05142  0.33668  Biso   1.000  C
  C510     1.0000 0.90788  0.17793  0.37668  Biso   1.000  C
  C511     1.0000 0.90790  0.17794  0.37672  Biso   1.000  C
  H358     1.0000 0.07498  0.16305  0.40698  Biso   1.000  H
  H359     1.0000 0.01501  0.09702  0.45401  Biso   1.000  H
  C512     1.0000 0.10548  0.05354  0.41591  Biso   1.000  C
  H360     1.0000 0.07496  0.16300  0.40698  Biso   1.000  H
  H361     1.0000 0.01495  0.09702  0.45401  Biso   1.000  H
  C513     1.0000 0.04369  0.26562  0.11319  Biso   1.000  C
  C514     1.0000 0.07837  0.33179  0.21679  Biso   1.000  C
  C515     1.0000 0.07843  0.33179  0.21679  Biso   1.000  C
  H362     1.0000 0.19699  0.27101  0.29198  Biso   1.000  H
  H363     1.0000 0.24601  0.20804  0.26600  Biso   1.000  H
  C516     1.0000 0.29498  0.32052  0.23327  Biso   1.000  C
  H364     1.0000 0.24599  0.20798  0.26600  Biso   1.000  H
  C517     1.0000 0.29500  0.32053  0.23332  Biso   1.000  C
  H365     1.0000 0.24595  0.20804  0.26600  Biso   1.000  H
  C518     1.0000 0.41447  0.66030  0.91098  Biso   1.000  C
  C519     1.0000 0.41449  0.66031  0.91102  Biso   1.000  C
  C520     1.0000 0.41443  0.66036  0.91098  Biso   1.000  C
  C521     1.0000 0.41443  0.66031  0.91102  Biso   1.000  C
  C522     1.0000 0.44200  0.58883  0.82942  Biso   1.000  C
  C523     1.0000 0.44194  0.58883  0.82942  Biso   1.000  C
  C524     1.0000 0.72671  0.08010  0.33421  Biso   1.000  C
  C525     1.0000 0.72667  0.08015  0.33421  Biso   1.000  C
  C526     1.0000 0.72664  0.08010  0.33421  Biso   1.000  C
  C527     1.0000 0.83732  0.20673  0.37421  Biso   1.000  C
  H366     1.0000 0.97798  0.21601  0.39302  Biso   1.000  H
  C528     1.0000 0.83726  0.20673  0.37421  Biso   1.000  C
  H367     1.0000 0.97801  0.21607  0.39302  Biso   1.000  H
  H368     1.0000 0.07113  0.99411  0.42299  Biso   1.000  H
  H369     1.0000 0.12499  0.05601  0.37197  Biso   1.000  H
  C529     1.0000 0.18091  0.08773  0.47011  Biso   1.000  C
  H370     1.0000 0.12501  0.05601  0.37202  Biso   1.000  H
  H371     1.0000 0.12493  0.05601  0.37197  Biso   1.000  H
  C530     1.0000 0.18085  0.08773  0.47011  Biso   1.000  C
  H372     1.0000 0.12495  0.05601  0.37202  Biso   1.000  H
  C531     1.0000 0.99908  0.31550  0.08701  Biso   1.000  C
  C532     1.0000 0.99914  0.31550  0.08701  Biso   1.000  C
  C533     1.0000 0.03384  0.38173  0.19061  Biso   1.000  C
  H373     1.0000 0.10901  0.33803  0.26700  Biso   1.000  H
  C534     1.0000 0.03378  0.38173  0.19061  Biso   1.000  C
  H374     1.0000 0.32100  0.29903  0.19798  Biso   1.000  H
  C535     1.0000 0.38382  0.36923  0.29360  Biso   1.000  C
  H375     1.0000 0.32098  0.29897  0.19798  Biso   1.000  H
  C536     1.0000 0.38376  0.36923  0.29360  Biso   1.000  C
  H376     1.0000 0.26099  0.36004  0.21299  Biso   1.000  H
  C537     1.0000 0.33698  0.66484  0.86851  Biso   1.000  C
  H377     1.0000 0.43405  0.68614  0.95900  Biso   1.000  H
  H378     1.0000 0.43412  0.68614  0.95900  Biso   1.000  H
  C538     1.0000 0.36447  0.59331  0.78690  Biso   1.000  C
  H379     1.0000 0.48303  0.55910  0.81398  Biso   1.000  H
  C539     1.0000 0.74668  0.15783  0.35288  Biso   1.000  C
  C540     1.0000 0.62778  0.02700  0.31250  Biso   1.000  C
  C541     1.0000 0.85652  0.29305  0.39340  Biso   1.000  C
  C542     1.0000 0.85646  0.29305  0.39340  Biso   1.000  C
  C543     1.0000 0.18309  0.10697  0.53258  Biso   1.000  C
  C544     1.0000 0.25828  0.12022  0.44731  Biso   1.000  C
  C545     1.0000 0.18309  0.10692  0.53262  Biso   1.000  C
  C546     1.0000 0.25830  0.12027  0.44731  Biso   1.000  C
  C547     1.0000 0.18311  0.10697  0.53262  Biso   1.000  C
  C548     1.0000 0.26256  0.09647  0.53148  Biso   1.000  C
  C549     1.0000 0.99414  0.37363  0.12559  Biso   1.000  C
  C550     1.0000 0.96214  0.31989  0.01771  Biso   1.000  C
  C551     1.0000 0.99412  0.37357  0.12559  Biso   1.000  C
  C552     1.0000 0.99408  0.37363  0.12559  Biso   1.000  C
  C553     1.0000 0.96208  0.31989  0.01771  Biso   1.000  C
  C554     1.0000 0.02633  0.43809  0.23930  Biso   1.000  C
  C555     1.0000 0.02629  0.43815  0.23930  Biso   1.000  C
  C556     1.0000 0.02627  0.43809  0.23930  Biso   1.000  C
  C557     1.0000 0.45043  0.33475  0.30618  Biso   1.000  C
  C558     1.0000 0.38854  0.42854  0.33559  Biso   1.000  C
  C559     1.0000 0.45041  0.33469  0.30618  Biso   1.000  C
  C560     1.0000 0.45037  0.33475  0.30618  Biso   1.000  C
  C561     1.0000 0.38848  0.42854  0.33559  Biso   1.000  C
  C562     1.0000 0.31200  0.63133  0.80638  Biso   1.000  C
  C563     1.0000 0.31194  0.63133  0.80638  Biso   1.000  C
  H380     1.0000 0.29610  0.69412  0.88400  Biso   1.000  H
  H381     1.0000 0.29603  0.69412  0.88400  Biso   1.000  H
  H382     1.0000 0.34507  0.56708  0.73897  Biso   1.000  H
  H383     1.0000 0.34509  0.56708  0.73902  Biso   1.000  H
  H384     1.0000 0.34503  0.56714  0.73897  Biso   1.000  H
  H385     1.0000 0.34503  0.56708  0.73902  Biso   1.000  H
  O62      1.0000 0.67396  0.18153  0.35179  Biso   1.000  O
  O63      1.0000 0.67403  0.18153  0.35179  Biso   1.000  O
  C564     1.0000 0.59470  0.98135  0.35820  Biso   1.000  C
  C565     1.0000 0.59472  0.98141  0.35820  Biso   1.000  C
  C566     1.0000 0.56898  0.02672  0.25408  Biso   1.000  C
  C567     1.0000 0.56900  0.02672  0.25412  Biso   1.000  C
  C568     1.0000 0.86101  0.33316  0.32989  Biso   1.000  C
  C569     1.0000 0.86099  0.33310  0.32989  Biso   1.000  C
  H386     1.0000 0.80200  0.30105  0.41097  Biso   1.000  H
  C570     1.0000 0.93517  0.32221  0.45847  Biso   1.000  C
  H387     1.0000 0.80201  0.30105  0.41102  Biso   1.000  H
  C571     1.0000 0.93519  0.32222  0.45852  Biso   1.000  C
  C572     1.0000 0.93519  0.32227  0.45847  Biso   1.000  C
  C573     1.0000 0.26270  0.15858  0.57219  Biso   1.000  C
  H388     1.0000 0.12297  0.08208  0.55001  Biso   1.000  H
  C574     1.0000 0.26268  0.15852  0.57219  Biso   1.000  C
  H389     1.0000 0.12301  0.08202  0.55001  Biso   1.000  H
  C575     1.0000 0.33787  0.17182  0.48688  Biso   1.000  C
  H390     1.0000 0.25699  0.10502  0.39900  Biso   1.000  H
  H391     1.0000 0.25693  0.10502  0.39900  Biso   1.000  H
  C576     1.0000 0.34007  0.19107  0.54939  Biso   1.000  C
  C577     1.0000 0.34011  0.19101  0.54939  Biso   1.000  C
  O64      1.0000 0.95344  0.42840  0.10459  Biso   1.000  O
  O65      1.0000 0.95338  0.42840  0.10459  Biso   1.000  O
  C578     1.0000 0.89988  0.25177  0.98318  Biso   1.000  C
  C579     1.0000 0.98673  0.38786  0.98769  Biso   1.000  C
  C580     1.0000 0.89986  0.25172  0.98318  Biso   1.000  C
  C581     1.0000 0.98666  0.38786  0.98769  Biso   1.000  C
  C582     1.0000 0.93758  0.40260  0.25370  Biso   1.000  C
  C583     1.0000 0.93764  0.40260  0.25370  Biso   1.000  C
  H392     1.0000 0.02501  0.49104  0.21997  Biso   1.000  H
  C584     1.0000 0.11644  0.48121  0.29079  Biso   1.000  C
  H393     1.0000 0.02501  0.49099  0.22002  Biso   1.000  H
  C585     1.0000 0.11638  0.48121  0.29079  Biso   1.000  C
  H394     1.0000 0.02503  0.49104  0.22002  Biso   1.000  H
  C586     1.0000 0.52181  0.35953  0.36081  Biso   1.000  C
  H395     1.0000 0.44702  0.28903  0.27398  Biso   1.000  H
  H396     1.0000 0.44696  0.28903  0.27398  Biso   1.000  H
  C587     1.0000 0.45980  0.45332  0.39021  Biso   1.000  C
  H397     1.0000 0.33703  0.45505  0.32599  Biso   1.000  H
  H398     1.0000 0.33701  0.45500  0.32599  Biso   1.000  H
  H399     1.0000 0.33697  0.45505  0.32599  Biso   1.000  H
  C588     1.0000 0.22580  0.63153  0.76377  Biso   1.000  C
  C589     1.0000 0.22582  0.63153  0.76382  Biso   1.000  C
  C590     1.0000 0.22574  0.63153  0.76377  Biso   1.000  C
  C591     1.0000 0.22576  0.63153  0.76382  Biso   1.000  C
  C592     1.0000 0.64823  0.22225  0.29801  Biso   1.000  C
  C593     1.0000 0.64820  0.22219  0.29801  Biso   1.000  C
  C594     1.0000 0.64816  0.22225  0.29801  Biso   1.000  C
  C595     1.0000 0.50273  0.93538  0.34561  Biso   1.000  C
  H400     1.0000 0.64015  0.98209  0.40299  Biso   1.000  H
  H401     1.0000 0.64009  0.98209  0.40299  Biso   1.000  H
  C596     1.0000 0.47714  0.98068  0.24139  Biso   1.000  C
  C597     1.0000 0.47708  0.98068  0.24139  Biso   1.000  C
  H402     1.0000 0.59496  0.06200  0.21897  Biso   1.000  H
  H403     1.0000 0.59498  0.06201  0.21902  Biso   1.000  H
  C598     1.0000 0.77773  0.33361  0.29279  Biso   1.000  C
  C599     1.0000 0.77766  0.33361  0.29279  Biso   1.000  C
  C600     1.0000 0.94088  0.36763  0.31041  Biso   1.000  C
  C601     1.0000 0.94095  0.36763  0.31041  Biso   1.000  C
  H404     1.0000 0.99599  0.31603  0.45102  Biso   1.000  H
  H405     1.0000 0.92003  0.29404  0.49999  Biso   1.000  H
  C602     1.0000 0.95120  0.40113  0.45809  Biso   1.000  C
  H406     1.0000 0.91996  0.29404  0.49999  Biso   1.000  H
  H407     1.0000 0.26400  0.17308  0.62097  Biso   1.000  H
  H408     1.0000 0.26399  0.17303  0.62102  Biso   1.000  H
  H409     1.0000 0.26402  0.17309  0.62102  Biso   1.000  H
  H410     1.0000 0.39798  0.19707  0.46897  Biso   1.000  H
  H411     1.0000 0.39797  0.19701  0.46902  Biso   1.000  H
  H412     1.0000 0.40198  0.23107  0.57998  Biso   1.000  H
  C603     1.0000 0.86555  0.41002  0.11100  Biso   1.000  C
  C604     1.0000 0.86553  0.40996  0.11100  Biso   1.000  C
  C605     1.0000 0.86549  0.41002  0.11100  Biso   1.000  C
  C606     1.0000 0.86226  0.25122  0.91867  Biso   1.000  C
  C607     1.0000 0.86234  0.25123  0.91872  Biso   1.000  C
  C608     1.0000 0.86228  0.25128  0.91867  Biso   1.000  C
  C609     1.0000 0.86227  0.25123  0.91872  Biso   1.000  C
  H413     1.0000 0.88097  0.19898  0.00698  Biso   1.000  H
  H414     1.0000 0.88098  0.19898  0.00702  Biso   1.000  H
  C610     1.0000 0.94911  0.38725  0.92309  Biso   1.000  C
  H415     1.0000 0.03504  0.44101  0.01401  Biso   1.000  H
  H416     1.0000 0.03498  0.44101  0.01401  Biso   1.000  H
  C611     1.0000 0.85419  0.40312  0.21660  Biso   1.000  C
  H417     1.0000 0.17105  0.50401  0.26799  Biso   1.000  H
  H418     1.0000 0.13005  0.43905  0.32101  Biso   1.000  H
  C612     1.0000 0.11181  0.53671  0.32020  Biso   1.000  C
  H419     1.0000 0.17099  0.50401  0.26799  Biso   1.000  H
  H420     1.0000 0.12999  0.43905  0.32101  Biso   1.000  H
  C613     1.0000 0.52653  0.41884  0.40280  Biso   1.000  C
  H421     1.0000 0.57300  0.33302  0.37098  Biso   1.000  H
  H422     1.0000 0.57302  0.33303  0.37102  Biso   1.000  H
  C614     1.0000 0.52647  0.41884  0.40280  Biso   1.000  C
  H423     1.0000 0.57294  0.33302  0.37098  Biso   1.000  H
  H424     1.0000 0.46302  0.49905  0.42299  Biso   1.000  H
  C615     1.0000 0.22236  0.66652  0.70720  Biso   1.000  C
  C616     1.0000 0.14589  0.59701  0.78339  Biso   1.000  C
  C617     1.0000 0.14583  0.59701  0.78339  Biso   1.000  C
  O66      1.0000 0.69485  0.30435  0.31241  Biso   1.000  O
  O67      1.0000 0.69482  0.30429  0.31241  Biso   1.000  O
  O68      1.0000 0.69478  0.30435  0.31241  Biso   1.000  O
  H425     1.0000 0.66398  0.20104  0.25797  Biso   1.000  H
  H426     1.0000 0.57601  0.21104  0.28799  Biso   1.000  H
  H427     1.0000 0.66398  0.20099  0.25802  Biso   1.000  H
  H428     1.0000 0.57599  0.21099  0.28799  Biso   1.000  H
  H429     1.0000 0.57595  0.21104  0.28799  Biso   1.000  H
  H430     1.0000 0.66400  0.20104  0.25802  Biso   1.000  H
  C618     1.0000 0.44392  0.93497  0.28709  Biso   1.000  C
  H431     1.0000 0.47714  0.90007  0.38100  Biso   1.000  H
  H432     1.0000 0.47708  0.90007  0.38100  Biso   1.000  H
  H433     1.0000 0.43209  0.98005  0.19598  Biso   1.000  H
  C619     1.0000 0.77428  0.36860  0.23622  Biso   1.000  C
  C620     1.0000 0.77434  0.36860  0.23622  Biso   1.000  C
  H434     1.0000 0.00499  0.36704  0.33901  Biso   1.000  H
  H435     1.0000 0.96103  0.42601  0.41501  Biso   1.000  H
  H436     1.0000 0.89003  0.40505  0.46698  Biso   1.000  H
  H437     1.0000 0.89005  0.40506  0.46702  Biso   1.000  H
  H438     1.0000 0.96099  0.42607  0.41501  Biso   1.000  H
  H439     1.0000 0.88997  0.40505  0.46698  Biso   1.000  H
  H440     1.0000 0.96096  0.42601  0.41501  Biso   1.000  H
  H441     1.0000 0.88999  0.40506  0.46702  Biso   1.000  H
  C621     1.0000 0.01621  0.43288  0.51110  Biso   1.000  C
  C622     1.0000 0.01619  0.43282  0.51110  Biso   1.000  C
  O69      1.0000 0.85509  0.44101  0.16387  Biso   1.000  O
  O70      1.0000 0.85511  0.44101  0.16392  Biso   1.000  O
  H442     1.0000 0.83100  0.43202  0.07101  Biso   1.000  H
  H443     1.0000 0.83403  0.34798  0.10701  Biso   1.000  H
  H444     1.0000 0.83098  0.43196  0.07101  Biso   1.000  H
  H445     1.0000 0.83396  0.34798  0.10701  Biso   1.000  H
  C623     1.0000 0.88692  0.31896  0.88860  Biso   1.000  C
  H446     1.0000 0.81397  0.19815  0.89198  Biso   1.000  H
  H447     1.0000 0.81399  0.19816  0.89202  Biso   1.000  H
  C624     1.0000 0.88686  0.31896  0.88860  Biso   1.000  C
  H448     1.0000 0.96805  0.44018  0.90000  Biso   1.000  H
  H449     1.0000 0.96803  0.44012  0.90000  Biso   1.000  H
  H450     1.0000 0.96799  0.44018  0.90000  Biso   1.000  H
  H451     1.0000 0.96797  0.44012  0.90000  Biso   1.000  H
  H452     1.0000 0.08902  0.57405  0.28799  Biso   1.000  H
  H453     1.0000 0.06003  0.51003  0.34599  Biso   1.000  H
  C625     1.0000 0.19935  0.59683  0.37620  Biso   1.000  C
  H454     1.0000 0.08900  0.57399  0.28799  Biso   1.000  H
  H455     1.0000 0.05997  0.51003  0.34599  Biso   1.000  H
  C626     1.0000 0.19929  0.59683  0.37620  Biso   1.000  C
  H456     1.0000 0.58200  0.43803  0.44498  Biso   1.000  H
  C627     1.0000 0.13908  0.66697  0.67010  Biso   1.000  C
  C628     1.0000 0.13904  0.66703  0.67010  Biso   1.000  C
  O71      1.0000 0.30524  0.69578  0.68758  Biso   1.000  O
  O72      1.0000 0.30530  0.69578  0.68758  Biso   1.000  O
  O73      1.0000 0.30526  0.69584  0.68758  Biso   1.000  O
  C629     1.0000 0.06245  0.59753  0.74629  Biso   1.000  C
  C630     1.0000 0.06251  0.59753  0.74629  Biso   1.000  C
  C631     1.0000 0.06249  0.59747  0.74629  Biso   1.000  C
  O74      1.0000 0.14499  0.55912  0.83611  Biso   1.000  O
  O75      1.0000 0.14493  0.55912  0.83611  Biso   1.000  O
  O76      1.0000 0.34541  0.89818  0.24800  Biso   1.000  O
  C632     1.0000 0.33244  0.88987  0.29231  Biso   1.000  C
  O77      1.0000 0.34538  0.89813  0.24800  Biso   1.000  O
  C633     1.0000 0.33238  0.88987  0.29231  Biso   1.000  C
  C634     1.0000 0.68808  0.36880  0.19361  Biso   1.000  C
  C635     1.0000 0.68814  0.36880  0.19361  Biso   1.000  C
  C636     1.0000 0.02991  0.41436  0.57371  Biso   1.000  C
  C637     1.0000 0.08735  0.48627  0.49111  Biso   1.000  C
  C638     1.0000 0.08729  0.48627  0.49111  Biso   1.000  C
  C639     1.0000 0.06700  0.41288  0.55561  Biso   1.000  C
  O78      1.0000 0.85594  0.33096  0.82448  Biso   1.000  O
  O79      1.0000 0.85593  0.33091  0.82452  Biso   1.000  O
  O80      1.0000 0.85587  0.33096  0.82448  Biso   1.000  O
  O81      1.0000 0.85587  0.33091  0.82452  Biso   1.000  O
  C640     1.0000 0.22478  0.64918  0.42931  Biso   1.000  C
  C641     1.0000 0.26585  0.57812  0.35511  Biso   1.000  C
  C642     1.0000 0.22475  0.64912  0.42931  Biso   1.000  C
  C643     1.0000 0.22471  0.64918  0.42931  Biso   1.000  C
  C644     1.0000 0.26581  0.57817  0.35511  Biso   1.000  C
  C645     1.0000 0.22469  0.64912  0.42931  Biso   1.000  C
  C646     1.0000 0.26579  0.57812  0.35511  Biso   1.000  C
  C647     1.0000 0.28060  0.58232  0.43601  Biso   1.000  C
  C648     1.0000 0.14356  0.70708  0.60659  Biso   1.000  C
  C649     1.0000 0.05920  0.63250  0.68957  Biso   1.000  C
  C650     1.0000 0.05922  0.63251  0.68962  Biso   1.000  C
  C651     1.0000 0.05914  0.63250  0.68957  Biso   1.000  C
  C652     1.0000 0.05915  0.63251  0.68962  Biso   1.000  C
  C653     1.0000 0.35188  0.77789  0.70202  Biso   1.000  C
  C654     1.0000 0.35186  0.77788  0.70197  Biso   1.000  C
  C655     1.0000 0.35188  0.77794  0.70197  Biso   1.000  C
  C656     1.0000 0.97375  0.56204  0.76068  Biso   1.000  C
  C657     1.0000 0.97373  0.56198  0.76068  Biso   1.000  C
  C658     1.0000 0.13454  0.59011  0.88898  Biso   1.000  C
  H457     1.0000 0.36213  0.94008  0.32599  Biso   1.000  H
  H458     1.0000 0.34308  0.84104  0.31497  Biso   1.000  H
  H459     1.0000 0.34310  0.84105  0.31502  Biso   1.000  H
  H460     1.0000 0.36207  0.94008  0.32599  Biso   1.000  H
  H461     1.0000 0.34310  0.84110  0.31497  Biso   1.000  H
  C659     1.0000 0.66311  0.33529  0.13148  Biso   1.000  C
  C660     1.0000 0.66312  0.33529  0.13152  Biso   1.000  C
  C661     1.0000 0.66304  0.33529  0.13148  Biso   1.000  C
  C662     1.0000 0.66306  0.33529  0.13152  Biso   1.000  C
  C663     1.0000 0.63562  0.40682  0.21308  Biso   1.000  C
  C664     1.0000 0.63556  0.40682  0.21308  Biso   1.000  C
  H462     1.0000 0.97701  0.37007  0.59100  Biso   1.000  H
  C665     1.0000 0.99851  0.34296  0.55751  Biso   1.000  C
  C666     1.0000 0.11460  0.44936  0.61641  Biso   1.000  C
  C667     1.0000 0.12604  0.45439  0.61181  Biso   1.000  C
  C668     1.0000 0.17204  0.52127  0.53381  Biso   1.000  C
  H463     1.0000 0.06805  0.48307  0.43501  Biso   1.000  H
  H464     1.0000 0.06803  0.48301  0.43501  Biso   1.000  H
  H465     1.0000 0.06799  0.48307  0.43501  Biso   1.000  H
  C669     1.0000 0.79679  0.26183  0.78291  Biso   1.000  C
  C670     1.0000 0.31645  0.68287  0.46128  Biso   1.000  C
  C671     1.0000 0.31645  0.68282  0.46132  Biso   1.000  C
  C672     1.0000 0.31639  0.68287  0.46128  Biso   1.000  C
  C673     1.0000 0.31641  0.68288  0.46132  Biso   1.000  C
  H466     1.0000 0.22804  0.63707  0.47002  Biso   1.000  H
  C674     1.0000 0.35772  0.61181  0.38708  Biso   1.000  C
  C675     1.0000 0.35774  0.61187  0.38708  Biso   1.000  C
  C676     1.0000 0.38602  0.60977  0.44427  Biso   1.000  C
  C677     1.0000 0.06491  0.67792  0.54151  Biso   1.000  C
  C678     1.0000 0.06489  0.67786  0.54151  Biso   1.000  C
  C679     1.0000 0.06485  0.67792  0.54151  Biso   1.000  C
  C680     1.0000 0.06483  0.67786  0.54151  Biso   1.000  C
  C681     1.0000 0.16277  0.79340  0.62578  Biso   1.000  C
  H467     1.0000 0.19809  0.69908  0.58901  Biso   1.000  H
  H468     1.0000 0.99509  0.63309  0.66098  Biso   1.000  H
  H469     1.0000 0.99503  0.63309  0.66098  Biso   1.000  H
  O82      1.0000 0.32612  0.81860  0.64820  Biso   1.000  O
  O83      1.0000 0.32606  0.81860  0.64820  Biso   1.000  O
  H470     1.0000 0.33610  0.79909  0.74201  Biso   1.000  H
  H471     1.0000 0.42407  0.78909  0.71199  Biso   1.000  H
  H472     1.0000 0.33606  0.79915  0.74201  Biso   1.000  H
  H473     1.0000 0.42409  0.78914  0.71199  Biso   1.000  H
  H474     1.0000 0.33604  0.79909  0.74201  Biso   1.000  H
  C682     1.0000 0.96624  0.61840  0.80937  Biso   1.000  C
  H475     1.0000 0.97507  0.50909  0.78002  Biso   1.000  H
  C683     1.0000 0.88364  0.51892  0.70919  Biso   1.000  C
  C684     1.0000 0.96626  0.61840  0.80942  Biso   1.000  C
  C685     1.0000 0.88370  0.51892  0.70919  Biso   1.000  C
  H476     1.0000 0.97503  0.50915  0.78002  Biso   1.000  H
  H477     1.0000 0.16908  0.56811  0.92898  Biso   1.000  H
  O84      1.0000 0.04664  0.57173  0.89540  Biso   1.000  O
  H478     1.0000 0.16606  0.65215  0.89297  Biso   1.000  H
  H479     1.0000 0.16902  0.56811  0.92898  Biso   1.000  H
  H480     1.0000 0.16607  0.65215  0.89302  Biso   1.000  H
  O85      1.0000 0.04670  0.57173  0.89540  Biso   1.000  O
  C686     1.0000 0.58561  0.33983  0.08901  Biso   1.000  C
  C687     1.0000 0.58559  0.33977  0.08901  Biso   1.000  C
  H481     1.0000 0.70399  0.30601  0.11599  Biso   1.000  H
  C688     1.0000 0.55808  0.41130  0.17057  Biso   1.000  C
  C689     1.0000 0.55810  0.41130  0.17062  Biso   1.000  C
  H482     1.0000 0.65501  0.43305  0.26101  Biso   1.000  H
  H483     1.0000 0.65499  0.43299  0.26101  Biso   1.000  H
  C690     1.0000 0.98893  0.31454  0.61561  Biso   1.000  C
  C691     1.0000 0.18562  0.50275  0.59642  Biso   1.000  C
  H484     1.0000 0.13400  0.42707  0.65898  Biso   1.000  H
  H485     1.0000 0.13401  0.42707  0.65902  Biso   1.000  H
  C692     1.0000 0.11653  0.42597  0.66990  Biso   1.000  C
  H486     1.0000 0.22504  0.54006  0.50398  Biso   1.000  H
  H487     1.0000 0.22498  0.54006  0.50398  Biso   1.000  H
  C693     1.0000 0.84981  0.20862  0.76847  Biso   1.000  C
  H488     1.0000 0.74902  0.22815  0.80899  Biso   1.000  H
  H489     1.0000 0.75896  0.27710  0.73997  Biso   1.000  H
  C694     1.0000 0.84983  0.20862  0.76852  Biso   1.000  C
  H490     1.0000 0.75898  0.27711  0.74002  Biso   1.000  H
  C695     1.0000 0.84975  0.20862  0.76847  Biso   1.000  C
  H491     1.0000 0.74896  0.22815  0.80899  Biso   1.000  H
  H492     1.0000 0.75899  0.27716  0.73997  Biso   1.000  H
  C696     1.0000 0.84977  0.20862  0.76852  Biso   1.000  C
  C697     1.0000 0.38291  0.66422  0.44019  Biso   1.000  C
  C698     1.0000 0.38293  0.66428  0.44019  Biso   1.000  C
  C699     1.0000 0.43317  0.67566  0.38499  Biso   1.000  C
  C700     1.0000 0.04888  0.59900  0.54189  Biso   1.000  C
  H493     1.0000 0.08006  0.70609  0.50000  Biso   1.000  H
  H494     1.0000 0.00410  0.68410  0.54897  Biso   1.000  H
  H495     1.0000 0.00409  0.68405  0.54902  Biso   1.000  H
  H496     1.0000 0.08012  0.70609  0.50000  Biso   1.000  H
  H497     1.0000 0.00404  0.68410  0.54897  Biso   1.000  H
  H498     1.0000 0.00405  0.68411  0.54902  Biso   1.000  H
  C701     1.0000 0.25341  0.84230  0.64711  Biso   1.000  C
  C702     1.0000 0.09220  0.82220  0.62331  Biso   1.000  C
  C703     1.0000 0.25335  0.84230  0.64711  Biso   1.000  C
  C704     1.0000 0.09214  0.82220  0.62331  Biso   1.000  C
  C705     1.0000 0.00594  0.62650  0.87440  Biso   1.000  C
  C706     1.0000 0.92172  0.66834  0.78320  Biso   1.000  C
  C707     1.0000 0.92169  0.66828  0.78320  Biso   1.000  C
  C708     1.0000 0.92165  0.66834  0.78320  Biso   1.000  C
  C709     1.0000 0.00597  0.62656  0.87440  Biso   1.000  C
  H499     1.0000 0.82904  0.49612  0.73199  Biso   1.000  H
  H500     1.0000 0.87003  0.56108  0.67898  Biso   1.000  H
  C710     1.0000 0.88828  0.46342  0.67979  Biso   1.000  C
  H501     1.0000 0.82910  0.49612  0.73199  Biso   1.000  H
  H502     1.0000 0.87009  0.56108  0.67898  Biso   1.000  H
  C711     1.0000 0.88821  0.46342  0.67979  Biso   1.000  C
  C712     1.0000 0.53311  0.37791  0.10849  Biso   1.000  C
  H503     1.0000 0.56603  0.31399  0.04099  Biso   1.000  H
  H504     1.0000 0.56597  0.31399  0.04099  Biso   1.000  H
  H505     1.0000 0.51705  0.44103  0.18601  Biso   1.000  H
  H506     1.0000 0.51699  0.44103  0.18601  Biso   1.000  H
  C713     1.0000 0.04790  0.35609  0.67171  Biso   1.000  C
  H507     1.0000 0.25802  0.51206  0.61599  Biso   1.000  H
  H508     1.0000 0.25796  0.51206  0.61599  Biso   1.000  H
  C714     1.0000 0.94492  0.23335  0.78249  Biso   1.000  C
  C715     1.0000 0.79779  0.13720  0.73441  Biso   1.000  C
  C716     1.0000 0.94490  0.23329  0.78249  Biso   1.000  C
  C717     1.0000 0.94486  0.23335  0.78249  Biso   1.000  C
  H509     1.0000 0.48901  0.67104  0.43401  Biso   1.000  H
  H510     1.0000 0.11005  0.59508  0.53301  Biso   1.000  H
  H511     1.0000 0.03906  0.57412  0.58498  Biso   1.000  H
  H512     1.0000 0.03905  0.57406  0.58502  Biso   1.000  H
  C718     1.0000 0.98387  0.56725  0.48888  Biso   1.000  C
  C719     1.0000 0.98383  0.56731  0.48888  Biso   1.000  C
  C720     1.0000 0.98381  0.56725  0.48888  Biso   1.000  C
  C721     1.0000 0.27338  0.92003  0.66578  Biso   1.000  C
  C722     1.0000 0.27337  0.91998  0.66582  Biso   1.000  C
  C723     1.0000 0.11223  0.89993  0.64198  Biso   1.000  C
  H513     1.0000 0.02210  0.78412  0.60697  Biso   1.000  H
  C724     1.0000 0.11221  0.89987  0.64198  Biso   1.000  C
  H514     1.0000 0.02210  0.78406  0.60702  Biso   1.000  H
  C725     1.0000 0.11217  0.89993  0.64198  Biso   1.000  C
  H515     1.0000 0.02204  0.78412  0.60697  Biso   1.000  H
  C726     1.0000 0.11215  0.89987  0.64198  Biso   1.000  C
  H516     1.0000 0.02206  0.78412  0.60702  Biso   1.000  H
  C727     1.0000 0.00100  0.68463  0.91297  Biso   1.000  C
  C728     1.0000 0.00102  0.68464  0.91302  Biso   1.000  C
  C729     1.0000 0.00094  0.68463  0.91297  Biso   1.000  C
  C730     1.0000 0.00096  0.68464  0.91302  Biso   1.000  C
  C731     1.0000 0.91671  0.72641  0.82182  Biso   1.000  C
  H517     1.0000 0.89108  0.66210  0.73299  Biso   1.000  H
  C732     1.0000 0.91664  0.72641  0.82182  Biso   1.000  C
  H518     1.0000 0.91106  0.42608  0.71199  Biso   1.000  H
  H519     1.0000 0.94005  0.49010  0.65399  Biso   1.000  H
  C733     1.0000 0.80073  0.40330  0.62378  Biso   1.000  C
  C734     1.0000 0.80079  0.40330  0.62378  Biso   1.000  C
  H520     1.0000 0.91100  0.42608  0.71199  Biso   1.000  H
  O86      1.0000 0.45672  0.39012  0.07547  Biso   1.000  O
  O87      1.0000 0.45671  0.39007  0.07552  Biso   1.000  O
  C735     1.0000 0.98798  0.18673  0.76249  Biso   1.000  C
  H521     1.0000 0.98500  0.28813  0.80899  Biso   1.000  H
  C736     1.0000 0.84089  0.09063  0.71427  Biso   1.000  C
  C737     1.0000 0.84091  0.09063  0.71432  Biso   1.000  C
  C738     1.0000 0.97017  0.58577  0.42627  Biso   1.000  C
  C739     1.0000 0.91273  0.51386  0.50888  Biso   1.000  C
  C740     1.0000 0.97019  0.58577  0.42632  Biso   1.000  C
  C741     1.0000 0.93304  0.58725  0.44442  Biso   1.000  C
  C742     1.0000 0.20283  0.94871  0.66331  Biso   1.000  C
  C743     1.0000 0.37231  0.97313  0.68748  Biso   1.000  C
  C744     1.0000 0.20277  0.94871  0.66331  Biso   1.000  C
  C745     1.0000 0.04207  0.93349  0.65029  Biso   1.000  C
  C746     1.0000 0.03794  0.68024  0.98227  Biso   1.000  C
  C747     1.0000 0.95639  0.73451  0.88680  Biso   1.000  C
  C748     1.0000 0.95633  0.73451  0.88680  Biso   1.000  C
  C749     1.0000 0.03802  0.68024  0.98232  Biso   1.000  C
  C750     1.0000 0.03796  0.68024  0.98232  Biso   1.000  C
  C751     1.0000 0.86707  0.78694  0.80381  Biso   1.000  C
  C752     1.0000 0.86711  0.78689  0.80381  Biso   1.000  C
  C753     1.0000 0.77531  0.35095  0.57068  Biso   1.000  C
  C754     1.0000 0.73423  0.42201  0.64487  Biso   1.000  C
  C755     1.0000 0.73429  0.42196  0.64492  Biso   1.000  C
  C756     1.0000 0.77533  0.35101  0.57068  Biso   1.000  C
  C757     1.0000 0.73425  0.42202  0.64492  Biso   1.000  C
  C758     1.0000 0.71942  0.41781  0.56398  Biso   1.000  C
  C759     1.0000 0.43243  0.36690  0.01149  Biso   1.000  C
  C760     1.0000 0.43237  0.36690  0.01149  Biso   1.000  C
  C761     1.0000 0.93601  0.11542  0.72829  Biso   1.000  C
  C762     1.0000 0.93595  0.11542  0.72829  Biso   1.000  C
  H522     1.0000 0.06200  0.20612  0.77299  Biso   1.000  H
  H523     1.0000 0.80097  0.03513  0.68801  Biso   1.000  H
  H524     1.0000 0.02307  0.63006  0.40898  Biso   1.000  H
  C763     1.0000 0.88549  0.55077  0.38357  Biso   1.000  C
  C764     1.0000 0.88551  0.55078  0.38362  Biso   1.000  C
  C765     1.0000 0.88543  0.55077  0.38357  Biso   1.000  C
  C766     1.0000 0.88544  0.55078  0.38362  Biso   1.000  C
  C767     1.0000 0.87404  0.54574  0.38818  Biso   1.000  C
  H525     1.0000 0.02301  0.63006  0.40898  Biso   1.000  H
  C768     1.0000 0.00159  0.65718  0.44252  Biso   1.000  C
  C769     1.0000 0.82805  0.47886  0.46618  Biso   1.000  C
  H526     1.0000 0.93203  0.51706  0.56498  Biso   1.000  H
  C770     1.0000 0.82807  0.47887  0.46622  Biso   1.000  C
  H527     1.0000 0.93206  0.51712  0.56498  Biso   1.000  H
  O88      1.0000 0.22351  0.02441  0.68079  Biso   1.000  O
  O89      1.0000 0.22345  0.02441  0.68079  Biso   1.000  O
  C771     1.0000 0.43110  0.97341  0.74591  Biso   1.000  C
  C772     1.0000 0.40541  0.01883  0.64179  Biso   1.000  C
  C773     1.0000 0.40539  0.01878  0.64179  Biso   1.000  C
  C774     1.0000 0.40535  0.01883  0.64179  Biso   1.000  C
  C775     1.0000 0.40532  0.01878  0.64179  Biso   1.000  C
  C776     1.0000 0.02068  0.92890  0.71161  Biso   1.000  C
  H528     1.0000 0.06409  0.99609  0.65100  Biso   1.000  H
  C777     1.0000 0.95933  0.89770  0.58840  Biso   1.000  C
  C778     1.0000 0.95927  0.89770  0.58840  Biso   1.000  C
  C779     1.0000 0.10022  0.74841  0.01681  Biso   1.000  C
  C780     1.0000 0.01338  0.61232  0.01230  Biso   1.000  C
  C781     1.0000 0.10016  0.74841  0.01681  Biso   1.000  C
  O90      1.0000 0.95671  0.78773  0.93411  Biso   1.000  O
  O91      1.0000 0.95665  0.78773  0.93411  Biso   1.000  O
  C782     1.0000 0.93517  0.85620  0.78230  Biso   1.000  C
  C783     1.0000 0.93519  0.85626  0.78230  Biso   1.000  C
  H529     1.0000 0.84213  0.80414  0.84101  Biso   1.000  H
  C784     1.0000 0.78446  0.74882  0.74790  Biso   1.000  C
  H530     1.0000 0.84206  0.80414  0.84101  Biso   1.000  H
  C785     1.0000 0.68363  0.31726  0.53871  Biso   1.000  C
  C786     1.0000 0.68365  0.31731  0.53871  Biso   1.000  C
  H531     1.0000 0.77206  0.36307  0.53002  Biso   1.000  H
  C787     1.0000 0.64237  0.38832  0.61291  Biso   1.000  C
  C788     1.0000 0.64235  0.38826  0.61291  Biso   1.000  C
  C789     1.0000 0.61406  0.39036  0.55572  Biso   1.000  C
  C790     1.0000 0.34318  0.37327  0.97458  Biso   1.000  C
  C791     1.0000 0.34325  0.37327  0.97458  Biso   1.000  C
  H532     1.0000 0.48601  0.39816  0.98897  Biso   1.000  H
  H533     1.0000 0.48603  0.39816  0.98902  Biso   1.000  H
  H534     1.0000 0.42201  0.30596  0.00797  Biso   1.000  H
  H535     1.0000 0.42202  0.30596  0.00802  Biso   1.000  H
  H536     1.0000 0.42197  0.30602  0.00797  Biso   1.000  H
  H537     1.0000 0.42196  0.30596  0.00802  Biso   1.000  H
  H538     1.0000 0.96901  0.07912  0.71299  Biso   1.000  H
  H539     1.0000 0.96895  0.07912  0.71299  Biso   1.000  H
  C792     1.0000 0.81447  0.49738  0.40357  Biso   1.000  C
  H540     1.0000 0.86609  0.57306  0.34101  Biso   1.000  H
  C793     1.0000 0.81446  0.49733  0.40362  Biso   1.000  C
  C794     1.0000 0.81441  0.49738  0.40357  Biso   1.000  C
  H541     1.0000 0.86602  0.57306  0.34101  Biso   1.000  H
  C795     1.0000 0.81448  0.49739  0.40362  Biso   1.000  C
  C796     1.0000 0.88355  0.57416  0.33009  Biso   1.000  C
  C797     1.0000 0.01115  0.68559  0.38438  Biso   1.000  C
  H542     1.0000 0.77504  0.46007  0.49601  Biso   1.000  H
  C798     1.0000 0.22011  0.04754  0.74239  Biso   1.000  C
  C799     1.0000 0.22005  0.04754  0.74239  Biso   1.000  C
  H543     1.0000 0.40513  0.93813  0.78101  Biso   1.000  H
  H544     1.0000 0.40506  0.93813  0.78101  Biso   1.000  H
  C800     1.0000 0.52296  0.01951  0.75859  Biso   1.000  C
  C801     1.0000 0.49738  0.06481  0.65437  Biso   1.000  C
  H545     1.0000 0.35996  0.01810  0.59699  Biso   1.000  H
  C802     1.0000 0.49740  0.06481  0.65442  Biso   1.000  C
  C803     1.0000 0.07228  0.98641  0.76078  Biso   1.000  C
  C804     1.0000 0.95220  0.86383  0.72240  Biso   1.000  C
  H546     1.0000 0.92510  0.83708  0.59300  Biso   1.000  H
  H547     1.0000 0.98507  0.90311  0.54598  Biso   1.000  H
  C805     1.0000 0.89460  0.94659  0.58407  Biso   1.000  C
  C806     1.0000 0.89462  0.94660  0.58412  Biso   1.000  C
  H548     1.0000 0.92506  0.83713  0.59300  Biso   1.000  H
  C807     1.0000 0.89454  0.94659  0.58407  Biso   1.000  C
  H549     1.0000 0.92504  0.83708  0.59300  Biso   1.000  H
  H550     1.0000 0.11912  0.80115  0.99301  Biso   1.000  H
  H551     1.0000 0.11905  0.80115  0.99301  Biso   1.000  H
  C808     1.0000 0.13785  0.74897  0.08131  Biso   1.000  C
  C809     1.0000 0.13783  0.74891  0.08131  Biso   1.000  C
  C810     1.0000 0.13779  0.74897  0.08131  Biso   1.000  C
  H552     1.0000 0.96504  0.55912  0.98598  Biso   1.000  H
  C811     1.0000 0.05100  0.61294  0.07690  Biso   1.000  C
  C812     1.0000 0.01616  0.86807  0.93411  Biso   1.000  C
  C813     1.0000 0.01622  0.86807  0.93411  Biso   1.000  C
  C814     1.0000 0.01620  0.86801  0.93411  Biso   1.000  C
  C815     1.0000 0.98679  0.91371  0.83151  Biso   1.000  C
  H553     1.0000 0.80309  0.72912  0.70800  Biso   1.000  H
  H554     1.0000 0.75407  0.79209  0.73399  Biso   1.000  H
  C816     1.0000 0.70510  0.67961  0.76672  Biso   1.000  C
  H555     1.0000 0.75409  0.79215  0.73399  Biso   1.000  H
  C817     1.0000 0.70504  0.67961  0.76672  Biso   1.000  C
  C818     1.0000 0.61717  0.33591  0.55980  Biso   1.000  C
  C819     1.0000 0.61715  0.33585  0.55980  Biso   1.000  C
  C820     1.0000 0.61711  0.33591  0.55980  Biso   1.000  C
  C821     1.0000 0.61709  0.33585  0.55980  Biso   1.000  C
  C822     1.0000 0.56691  0.32447  0.61500  Biso   1.000  C
  C823     1.0000 0.25958  0.33124  0.98679  Biso   1.000  C
  C824     1.0000 0.34861  0.43135  0.93340  Biso   1.000  C
  H556     1.0000 0.74206  0.48807  0.38400  Biso   1.000  H
  C825     1.0000 0.95212  0.64404  0.32828  Biso   1.000  C
  O92      1.0000 0.14107  0.04893  0.74819  Biso   1.000  O
  H557     1.0000 0.24199  0.00915  0.77498  Biso   1.000  H
  H558     1.0000 0.26797  0.10614  0.75598  Biso   1.000  H
  H559     1.0000 0.24197  0.00909  0.77498  Biso   1.000  H
  C826     1.0000 0.55619  0.06521  0.71290  Biso   1.000  C
  H560     1.0000 0.56801  0.02014  0.80400  Biso   1.000  H
  H561     1.0000 0.56795  0.02014  0.80400  Biso   1.000  H
  H562     1.0000 0.52296  0.10012  0.61899  Biso   1.000  H
  H563     1.0000 0.52303  0.10012  0.61899  Biso   1.000  H
  C827     1.0000 0.05531  0.97891  0.82072  Biso   1.000  C
  C828     1.0000 0.05530  0.97890  0.82068  Biso   1.000  C
  C829     1.0000 0.05526  0.97896  0.82068  Biso   1.000  C
  H564     1.0000 0.91207  0.81910  0.68402  Biso   1.000  H
  H565     1.0000 0.87509  0.94412  0.62801  Biso   1.000  H
  C830     1.0000 0.81917  0.91240  0.52987  Biso   1.000  C
  C831     1.0000 0.81919  0.91241  0.52992  Biso   1.000  C
  H566     1.0000 0.92898  0.00608  0.57700  Biso   1.000  H
  C832     1.0000 0.11318  0.68123  0.11138  Biso   1.000  C
  H567     1.0000 0.18613  0.80203  0.10801  Biso   1.000  H
  H568     1.0000 0.18607  0.80203  0.10801  Biso   1.000  H
  H569     1.0000 0.03205  0.56001  0.09998  Biso   1.000  H
  H570     1.0000 0.03208  0.56007  0.09998  Biso   1.000  H
  O93      1.0000 0.97512  0.90735  0.89141  Biso   1.000  O
  O94      1.0000 0.97505  0.90735  0.89141  Biso   1.000  O
  H571     1.0000 0.03512  0.89712  0.98099  Biso   1.000  H
  H572     1.0000 0.07707  0.86714  0.92100  Biso   1.000  H
  H573     1.0000 0.03508  0.89718  0.98099  Biso   1.000  H
  H574     1.0000 0.03506  0.89712  0.98099  Biso   1.000  H
  H575     1.0000 0.67908  0.70110  0.80201  Biso   1.000  H
  C833     1.0000 0.61626  0.63090  0.70639  Biso   1.000  C
  H576     1.0000 0.67910  0.70116  0.80201  Biso   1.000  H
  H577     1.0000 0.73903  0.64009  0.78700  Biso   1.000  H
  H578     1.0000 0.51103  0.32910  0.56602  Biso   1.000  H
  C834     1.0000 0.24519  0.27026  0.03310  Biso   1.000  C
  C835     1.0000 0.24521  0.27032  0.03310  Biso   1.000  C
  C836     1.0000 0.18142  0.34743  0.95791  Biso   1.000  C
  C837     1.0000 0.18138  0.34749  0.95791  Biso   1.000  C
  C838     1.0000 0.18135  0.34743  0.95791  Biso   1.000  C
  C839     1.0000 0.27043  0.44765  0.90452  Biso   1.000  C
  H579     1.0000 0.41303  0.46417  0.92399  Biso   1.000  H
  O95      1.0000 0.65470  0.10200  0.75199  Biso   1.000  O
  C840     1.0000 0.66767  0.11032  0.70767  Biso   1.000  C
  C841     1.0000 0.66768  0.11032  0.70772  Biso   1.000  C
  O96      1.0000 0.65464  0.10200  0.75199  Biso   1.000  O
  C842     1.0000 0.11397  0.04092  0.87150  Biso   1.000  C
  C843     1.0000 0.81699  0.89316  0.46741  Biso   1.000  C
  C844     1.0000 0.74180  0.87991  0.55268  Biso   1.000  C
  C845     1.0000 0.74180  0.87986  0.55272  Biso   1.000  C
  C846     1.0000 0.81701  0.89322  0.46741  Biso   1.000  C
  C847     1.0000 0.74174  0.87991  0.55268  Biso   1.000  C
  C848     1.0000 0.74182  0.87992  0.55272  Biso   1.000  C
  C849     1.0000 0.73746  0.90366  0.46850  Biso   1.000  C
  O97      1.0000 0.14417  0.66923  0.17551  Biso   1.000  O
  O98      1.0000 0.14419  0.66928  0.17551  Biso   1.000  O
  C850     1.0000 0.54965  0.66538  0.69380  Biso   1.000  C
  C851     1.0000 0.61155  0.57159  0.66440  Biso   1.000  C
  C852     1.0000 0.54967  0.66544  0.69380  Biso   1.000  C
  O99      1.0000 0.28060  0.21016  0.01790  Biso   1.000  O
  O100     1.0000 0.28056  0.21022  0.01790  Biso   1.000  O
  H580     1.0000 0.28398  0.29701  0.07998  Biso   1.000  H
  H581     1.0000 0.17400  0.24702  0.03201  Biso   1.000  H
  H582     1.0000 0.28402  0.29696  0.07998  Biso   1.000  H
  H583     1.0000 0.17397  0.24696  0.03201  Biso   1.000  H
  C853     1.0000 0.18681  0.40563  0.91668  Biso   1.000  C
  H584     1.0000 0.11698  0.31516  0.96698  Biso   1.000  H
  C854     1.0000 0.18683  0.40563  0.91672  Biso   1.000  C
  H585     1.0000 0.11704  0.31516  0.96698  Biso   1.000  H
  C855     1.0000 0.18677  0.40568  0.91668  Biso   1.000  C
  H586     1.0000 0.27501  0.49216  0.87297  Biso   1.000  H
  H587     1.0000 0.27503  0.49216  0.87302  Biso   1.000  H
  H588     1.0000 0.63797  0.06011  0.67399  Biso   1.000  H
  H589     1.0000 0.65703  0.15914  0.68501  Biso   1.000  H
  H590     1.0000 0.65701  0.15909  0.68501  Biso   1.000  H
  H591     1.0000 0.65696  0.15914  0.68501  Biso   1.000  H
  C856     1.0000 0.07488  0.08872  0.89487  Biso   1.000  C
  C857     1.0000 0.20621  0.05193  0.89601  Biso   1.000  C
  C858     1.0000 0.07489  0.08873  0.89492  Biso   1.000  C
  C859     1.0000 0.20614  0.05193  0.89601  Biso   1.000  C
  C860     1.0000 0.73738  0.84155  0.42779  Biso   1.000  C
  H592     1.0000 0.87711  0.91805  0.44998  Biso   1.000  H
  C861     1.0000 0.73740  0.84161  0.42779  Biso   1.000  C
  H593     1.0000 0.87707  0.91811  0.44998  Biso   1.000  H
  H594     1.0000 0.87705  0.91805  0.44998  Biso   1.000  H
  C862     1.0000 0.66221  0.82831  0.51311  Biso   1.000  C
  H595     1.0000 0.74309  0.89511  0.60098  Biso   1.000  H
  C863     1.0000 0.66219  0.82825  0.51311  Biso   1.000  C
  C864     1.0000 0.66215  0.82831  0.51311  Biso   1.000  C
  C865     1.0000 0.66001  0.80906  0.45060  Biso   1.000  C
  C866     1.0000 0.65995  0.80906  0.45060  Biso   1.000  C
  C867     1.0000 0.20332  0.73835  0.21707  Biso   1.000  C
  C868     1.0000 0.20333  0.73836  0.21712  Biso   1.000  C
  C869     1.0000 0.20326  0.73835  0.21707  Biso   1.000  C
  C870     1.0000 0.20327  0.73836  0.21712  Biso   1.000  C
  C871     1.0000 0.47827  0.64060  0.63917  Biso   1.000  C
  H596     1.0000 0.55306  0.71110  0.72601  Biso   1.000  H
  C872     1.0000 0.47829  0.64061  0.63922  Biso   1.000  C
  C873     1.0000 0.54029  0.54681  0.60977  Biso   1.000  C
  H597     1.0000 0.66305  0.54508  0.67399  Biso   1.000  H
  C874     1.0000 0.54030  0.54681  0.60982  Biso   1.000  C
  C875     1.0000 0.54022  0.54681  0.60977  Biso   1.000  C
  H598     1.0000 0.66307  0.54513  0.67399  Biso   1.000  H
  C876     1.0000 0.54024  0.54681  0.60982  Biso   1.000  C
  C877     1.0000 0.22021  0.15853  0.96717  Biso   1.000  C
  C878     1.0000 0.22023  0.15854  0.96722  Biso   1.000  C
  C879     1.0000 0.22015  0.15853  0.96717  Biso   1.000  C
  C880     1.0000 0.22016  0.15854  0.96722  Biso   1.000  C
  H599     1.0000 0.12600  0.41817  0.89397  Biso   1.000  H
  H600     1.0000 0.12599  0.41812  0.89402  Biso   1.000  H
  H601     1.0000 0.12601  0.41818  0.89402  Biso   1.000  H
  C881     1.0000 0.12799  0.14753  0.94271  Biso   1.000  C
  H602     1.0000 0.00297  0.08012  0.87602  Biso   1.000  H
  C882     1.0000 0.12802  0.14758  0.94271  Biso   1.000  C
  C883     1.0000 0.25932  0.11086  0.94389  Biso   1.000  C
  H603     1.0000 0.23596  0.01511  0.87801  Biso   1.000  H
  C884     1.0000 0.25926  0.11086  0.94389  Biso   1.000  C
  H604     1.0000 0.23598  0.01517  0.87801  Biso   1.000  H
  H605     1.0000 0.73608  0.82705  0.37901  Biso   1.000  H
  H606     1.0000 0.73611  0.82711  0.37901  Biso   1.000  H
  H607     1.0000 0.60211  0.80306  0.53101  Biso   1.000  H
  H608     1.0000 0.60207  0.80312  0.53101  Biso   1.000  H
  H609     1.0000 0.60205  0.80306  0.53101  Biso   1.000  H
  H610     1.0000 0.59811  0.76906  0.42000  Biso   1.000  H
  H611     1.0000 0.59804  0.76906  0.42000  Biso   1.000  H
  C885     1.0000 0.15029  0.79157  0.23151  Biso   1.000  C
  H612     1.0000 0.25109  0.77204  0.19099  Biso   1.000  H
  H613     1.0000 0.24114  0.72309  0.26001  Biso   1.000  H
  H614     1.0000 0.24112  0.72303  0.26001  Biso   1.000  H
  H615     1.0000 0.24108  0.72309  0.26001  Biso   1.000  H
  C886     1.0000 0.47355  0.58129  0.59718  Biso   1.000  C
  H616     1.0000 0.42708  0.66711  0.62901  Biso   1.000  H
  H617     1.0000 0.53707  0.50108  0.57700  Biso   1.000  H
  H618     1.0000 0.09801  0.18415  0.96099  Biso   1.000  H
  H619     1.0000 0.09795  0.18415  0.96099  Biso   1.000  H
  H620     1.0000 0.33099  0.11914  0.96299  Biso   1.000  H
  H621     1.0000 0.33093  0.11914  0.96299  Biso   1.000  H
  C887     1.0000 0.05519  0.76684  0.21750  Biso   1.000  C
  C888     1.0000 0.20231  0.86298  0.26557  Biso   1.000  C
  C889     1.0000 0.20231  0.86293  0.26562  Biso   1.000  C
  C890     1.0000 0.05521  0.76689  0.21750  Biso   1.000  C
  C891     1.0000 0.20233  0.86299  0.26562  Biso   1.000  C
  H622     1.0000 0.41809  0.56210  0.55500  Biso   1.000  H
  H623     1.0000 0.41802  0.56210  0.55500  Biso   1.000  H
  C892     1.0000 0.01213  0.81345  0.23750  Biso   1.000  C
  H624     1.0000 0.01510  0.71206  0.19099  Biso   1.000  H
  C893     1.0000 0.01206  0.81345  0.23750  Biso   1.000  C
  C894     1.0000 0.15922  0.90956  0.28571  Biso   1.000  C
  H625     1.0000 0.93811  0.79407  0.22700  Biso   1.000  H
  C895     1.0000 0.06409  0.88477  0.27170  Biso   1.000  C
  C896     1.0000 0.06415  0.88477  0.27170  Biso   1.000  C
  H626     1.0000 0.19913  0.96506  0.31198  Biso   1.000  H
  H627     1.0000 0.19907  0.96506  0.31198  Biso   1.000  H
  H628     1.0000 0.03109  0.92106  0.28699  Biso   1.000  H
  C897     1.0000 0.74078  0.88933  0.05609  Biso   1.000  C
  C898     1.0000 0.77990  0.84165  0.03282  Biso   1.000  C
  C899     1.0000 0.77996  0.84165  0.03282  Biso   1.000  C
  C900     1.0000 0.79390  0.94825  0.10397  Biso   1.000  C
  H629     1.0000 0.66911  0.88105  0.03700  Biso   1.000  H
  C901     1.0000 0.79392  0.94826  0.10402  Biso   1.000  C
  O101     1.0000 0.71949  0.78997  0.98208  Biso   1.000  O
  O102     1.0000 0.71947  0.78991  0.98208  Biso   1.000  O
  C902     1.0000 0.87211  0.85266  0.05728  Biso   1.000  C
  C903     1.0000 0.87209  0.85260  0.05728  Biso   1.000  C
  C904     1.0000 0.74085  0.88933  0.05609  Biso   1.000  C
  C905     1.0000 0.88613  0.95927  0.12848  Biso   1.000  C
  C906     1.0000 0.88607  0.95927  0.12848  Biso   1.000  C
  H630     1.0000 0.76415  0.98508  0.12198  Biso   1.000  H
  H631     1.0000 0.76415  0.98503  0.12202  Biso   1.000  H
  H632     1.0000 0.76409  0.98508  0.12198  Biso   1.000  H
  H633     1.0000 0.76408  0.98503  0.12202  Biso   1.000  H
  C907     1.0000 0.75489  0.72987  0.96688  Biso   1.000  C
  C908     1.0000 0.75487  0.72981  0.96688  Biso   1.000  C
  C909     1.0000 0.92523  0.91147  0.10511  Biso   1.000  C
  H634     1.0000 0.90210  0.81604  0.03899  Biso   1.000  H
  C910     1.0000 0.92521  0.91141  0.10511  Biso   1.000  C
  C911     1.0000 0.94479  0.02123  0.17931  Biso   1.000  C
  C912     1.0000 0.94477  0.02117  0.17931  Biso   1.000  C
  C913     1.0000 0.74053  0.66894  0.01320  Biso   1.000  C
  C914     1.0000 0.74046  0.66894  0.01320  Biso   1.000  C
  H635     1.0000 0.71611  0.70312  0.92000  Biso   1.000  H
  H636     1.0000 0.82609  0.75311  0.96798  Biso   1.000  H
  H637     1.0000 0.71604  0.70312  0.92000  Biso   1.000  H
  H638     1.0000 0.82605  0.75317  0.96798  Biso   1.000  H
  H639     1.0000 0.82603  0.75311  0.96798  Biso   1.000  H
  H640     1.0000 0.99714  0.92007  0.12397  Biso   1.000  H
  H641     1.0000 0.99713  0.92002  0.12402  Biso   1.000  H
  H642     1.0000 0.99707  0.92007  0.12397  Biso   1.000  H
  H643     1.0000 0.99709  0.92007  0.12402  Biso   1.000  H
  C915     1.0000 0.92780  0.01372  0.23921  Biso   1.000  C
  C916     1.0000 0.92774  0.01372  0.23921  Biso   1.000  C
  C917     1.0000 0.01329  0.08642  0.16848  Biso   1.000  C
  C918     1.0000 0.65692  0.62692  0.02541  Biso   1.000  C
  C919     1.0000 0.65686  0.62692  0.02541  Biso   1.000  C
  C920     1.0000 0.81869  0.65276  0.04208  Biso   1.000  C
  C921     1.0000 0.81867  0.65270  0.04208  Biso   1.000  C
  O103     1.0000 0.85904  0.95126  0.25180  Biso   1.000  O
  O104     1.0000 0.85897  0.95126  0.25180  Biso   1.000  O
  C922     1.0000 0.97941  0.07123  0.28837  Biso   1.000  C
  C923     1.0000 0.97942  0.07123  0.28842  Biso   1.000  C
  C924     1.0000 0.97934  0.07123  0.28837  Biso   1.000  C
  C925     1.0000 0.97936  0.07123  0.28842  Biso   1.000  C
  O105     1.0000 0.02497  0.09278  0.10858  Biso   1.000  O
  C926     1.0000 0.06492  0.14393  0.21769  Biso   1.000  C
  C927     1.0000 0.06489  0.14387  0.21769  Biso   1.000  C
  C928     1.0000 0.06485  0.14393  0.21769  Biso   1.000  C
  C929     1.0000 0.56765  0.63323  0.98850  Biso   1.000  C
  C930     1.0000 0.65150  0.56884  0.06659  Biso   1.000  C
  C931     1.0000 0.65143  0.56884  0.06659  Biso   1.000  C
  C932     1.0000 0.81330  0.59456  0.08331  Biso   1.000  C
  H644     1.0000 0.88313  0.68503  0.03301  Biso   1.000  H
  C933     1.0000 0.81328  0.59450  0.08331  Biso   1.000  C
  H645     1.0000 0.88307  0.68503  0.03301  Biso   1.000  H
  C934     1.0000 0.77999  0.95265  0.25759  Biso   1.000  C
  C935     1.0000 0.95801  0.06664  0.34970  Biso   1.000  C
  C936     1.0000 0.95795  0.06664  0.34970  Biso   1.000  C
  C937     1.0000 0.04788  0.13630  0.27759  Biso   1.000  C
  C938     1.0000 0.98386  0.13206  0.06588  Biso   1.000  C
  C939     1.0000 0.98388  0.13207  0.06592  Biso   1.000  C
  C940     1.0000 0.98388  0.13212  0.06588  Biso   1.000  C
  C941     1.0000 0.13301  0.21319  0.19617  Biso   1.000  C
  C942     1.0000 0.13303  0.21319  0.19622  Biso   1.000  C
  C943     1.0000 0.13295  0.21319  0.19617  Biso   1.000  C
  C944     1.0000 0.13297  0.21319  0.19622  Biso   1.000  C
  O106     1.0000 0.54337  0.61001  0.92451  Biso   1.000  O
  O107     1.0000 0.54339  0.61007  0.92451  Biso   1.000  O
  H646     1.0000 0.57808  0.69417  0.99201  Biso   1.000  H
  H647     1.0000 0.57805  0.69411  0.99201  Biso   1.000  H
  H648     1.0000 0.51409  0.60203  0.01101  Biso   1.000  H
  C945     1.0000 0.72968  0.55253  0.09547  Biso   1.000  C
  H649     1.0000 0.58708  0.53602  0.07599  Biso   1.000  H
  C946     1.0000 0.72969  0.55254  0.09552  Biso   1.000  C
  H650     1.0000 0.87411  0.58202  0.10602  Biso   1.000  H
  H651     1.0000 0.87407  0.58207  0.10602  Biso   1.000  H
  H652     1.0000 0.87405  0.58202  0.10602  Biso   1.000  H
  O108     1.0000 0.77660  0.97578  0.31920  Biso   1.000  O
  H653     1.0000 0.75812  0.99104  0.22501  Biso   1.000  H
  H654     1.0000 0.73214  0.89405  0.24401  Biso   1.000  H
  O109     1.0000 0.77666  0.97578  0.31920  Biso   1.000  O
  H655     1.0000 0.75814  0.99110  0.22501  Biso   1.000  H
  H656     1.0000 0.73207  0.89405  0.24401  Biso   1.000  H
  C947     1.0000 0.88785  0.10020  0.35801  Biso   1.000  C
  H657     1.0000 0.93599  0.00404  0.34898  Biso   1.000  H
  C948     1.0000 0.88791  0.10020  0.35801  Biso   1.000  C
  H658     1.0000 0.93597  0.00398  0.34898  Biso   1.000  H
  C949     1.0000 0.88787  0.10026  0.35801  Biso   1.000  C
  H659     1.0000 0.93593  0.00404  0.34898  Biso   1.000  H
  C950     1.0000 0.04075  0.10243  0.41159  Biso   1.000  C
  C951     1.0000 0.04082  0.10243  0.41159  Biso   1.000  C
  H660     1.0000 0.08801  0.18103  0.31597  Biso   1.000  H
  H661     1.0000 0.08803  0.18104  0.31602  Biso   1.000  H
  H662     1.0000 0.08795  0.18103  0.31597  Biso   1.000  H
  H663     1.0000 0.08797  0.18104  0.31602  Biso   1.000  H
  H664     1.0000 0.96496  0.10301  0.01899  Biso   1.000  H
  H665     1.0000 0.92301  0.13299  0.07899  Biso   1.000  H
  H666     1.0000 0.96500  0.10295  0.01899  Biso   1.000  H
  H667     1.0000 0.92295  0.13299  0.07899  Biso   1.000  H
  O110     1.0000 0.04337  0.21240  0.06588  Biso   1.000  O
  O111     1.0000 0.04339  0.21241  0.06592  Biso   1.000  O
  C952     1.0000 0.08338  0.27372  0.17817  Biso   1.000  C
  H668     1.0000 0.15796  0.19599  0.15898  Biso   1.000  H
  C953     1.0000 0.21562  0.25131  0.25208  Biso   1.000  C
  C954     1.0000 0.08339  0.27372  0.17822  Biso   1.000  C
  H669     1.0000 0.15802  0.19599  0.15898  Biso   1.000  H
  C955     1.0000 0.21556  0.25131  0.25208  Biso   1.000  C
  C956     1.0000 0.46698  0.62222  0.89150  Biso   1.000  C
  H670     1.0000 0.72510  0.50803  0.12701  Biso   1.000  H
  H671     1.0000 0.72503  0.50803  0.12701  Biso   1.000  H
  C957     1.0000 0.79725  0.05142  0.33668  Biso   1.000  C
  C958     1.0000 0.90788  0.17793  0.37668  Biso   1.000  C
  C959     1.0000 0.90790  0.17794  0.37672  Biso   1.000  C
  H672     1.0000 0.07498  0.16305  0.40698  Biso   1.000  H
  H673     1.0000 0.01501  0.09702  0.45401  Biso   1.000  H
  C960     1.0000 0.10548  0.05354  0.41591  Biso   1.000  C
  H674     1.0000 0.07496  0.16300  0.40698  Biso   1.000  H
  H675     1.0000 0.01495  0.09702  0.45401  Biso   1.000  H
  C961     1.0000 0.04369  0.26562  0.11319  Biso   1.000  C
  C962     1.0000 0.07837  0.33179  0.21679  Biso   1.000  C
  C963     1.0000 0.07843  0.33179  0.21679  Biso   1.000  C
  H676     1.0000 0.19699  0.27101  0.29198  Biso   1.000  H
  H677     1.0000 0.24601  0.20804  0.26600  Biso   1.000  H
  C964     1.0000 0.29498  0.32052  0.23327  Biso   1.000  C
  H678     1.0000 0.24599  0.20798  0.26600  Biso   1.000  H
  C965     1.0000 0.29500  0.32053  0.23332  Biso   1.000  C
  H679     1.0000 0.24595  0.20804  0.26600  Biso   1.000  H
  C966     1.0000 0.41447  0.66030  0.91098  Biso   1.000  C
  C967     1.0000 0.41449  0.66031  0.91102  Biso   1.000  C
  C968     1.0000 0.41443  0.66036  0.91098  Biso   1.000  C
  C969     1.0000 0.41443  0.66031  0.91102  Biso   1.000  C
  C970     1.0000 0.44200  0.58883  0.82942  Biso   1.000  C
  C971     1.0000 0.44194  0.58883  0.82942  Biso   1.000  C
  C972     1.0000 0.72671  0.08010  0.33421  Biso   1.000  C
  C973     1.0000 0.72667  0.08015  0.33421  Biso   1.000  C
  C974     1.0000 0.72664  0.08010  0.33421  Biso   1.000  C
  C975     1.0000 0.83732  0.20673  0.37421  Biso   1.000  C
  H680     1.0000 0.97798  0.21601  0.39302  Biso   1.000  H
  C976     1.0000 0.83726  0.20673  0.37421  Biso   1.000  C
  H681     1.0000 0.97801  0.21607  0.39302  Biso   1.000  H
  H682     1.0000 0.07113  0.99411  0.42299  Biso   1.000  H
  H683     1.0000 0.12499  0.05601  0.37197  Biso   1.000  H
  C977     1.0000 0.18091  0.08773  0.47011  Biso   1.000  C
  H684     1.0000 0.12501  0.05601  0.37202  Biso   1.000  H
  H685     1.0000 0.12493  0.05601  0.37197  Biso   1.000  H
  C978     1.0000 0.18085  0.08773  0.47011  Biso   1.000  C
  H686     1.0000 0.12495  0.05601  0.37202  Biso   1.000  H
  C979     1.0000 0.99908  0.31550  0.08701  Biso   1.000  C
  C980     1.0000 0.99914  0.31550  0.08701  Biso   1.000  C
  C981     1.0000 0.03384  0.38173  0.19061  Biso   1.000  C
  H687     1.0000 0.10901  0.33803  0.26700  Biso   1.000  H
  C982     1.0000 0.03378  0.38173  0.19061  Biso   1.000  C
  H688     1.0000 0.32100  0.29903  0.19798  Biso   1.000  H
  C983     1.0000 0.38382  0.36923  0.29360  Biso   1.000  C
  H689     1.0000 0.32098  0.29897  0.19798  Biso   1.000  H
  C984     1.0000 0.38376  0.36923  0.29360  Biso   1.000  C
  H690     1.0000 0.26099  0.36004  0.21299  Biso   1.000  H
  C985     1.0000 0.33698  0.66484  0.86851  Biso   1.000  C
  H691     1.0000 0.43405  0.68614  0.95900  Biso   1.000  H
  H692     1.0000 0.43412  0.68614  0.95900  Biso   1.000  H
  C986     1.0000 0.36447  0.59331  0.78690  Biso   1.000  C
  H693     1.0000 0.48303  0.55910  0.81398  Biso   1.000  H
  C987     1.0000 0.74668  0.15783  0.35288  Biso   1.000  C
  C988     1.0000 0.62778  0.02700  0.31250  Biso   1.000  C
  C989     1.0000 0.85652  0.29305  0.39340  Biso   1.000  C
  C990     1.0000 0.85646  0.29305  0.39340  Biso   1.000  C
  C991     1.0000 0.18309  0.10697  0.53258  Biso   1.000  C
  C992     1.0000 0.25828  0.12022  0.44731  Biso   1.000  C
  C993     1.0000 0.18309  0.10692  0.53262  Biso   1.000  C
  C994     1.0000 0.25830  0.12027  0.44731  Biso   1.000  C
  C995     1.0000 0.18311  0.10697  0.53262  Biso   1.000  C
  C996     1.0000 0.26256  0.09647  0.53148  Biso   1.000  C
  C997     1.0000 0.99414  0.37363  0.12559  Biso   1.000  C
  C998     1.0000 0.96214  0.31989  0.01771  Biso   1.000  C
  C999     1.0000 0.99412  0.37357  0.12559  Biso   1.000  C
  C1000    1.0000 0.99408  0.37363  0.12559  Biso   1.000  C
  C1001    1.0000 0.96208  0.31989  0.01771  Biso   1.000  C
  C1002    1.0000 0.02633  0.43809  0.23930  Biso   1.000  C
  C1003    1.0000 0.02629  0.43815  0.23930  Biso   1.000  C
  C1004    1.0000 0.02627  0.43809  0.23930  Biso   1.000  C
  C1005    1.0000 0.45043  0.33475  0.30618  Biso   1.000  C
  C1006    1.0000 0.38854  0.42854  0.33559  Biso   1.000  C
  C1007    1.0000 0.45041  0.33469  0.30618  Biso   1.000  C
  C1008    1.0000 0.45037  0.33475  0.30618  Biso   1.000  C
  C1009    1.0000 0.38848  0.42854  0.33559  Biso   1.000  C
  C1010    1.0000 0.31200  0.63133  0.80638  Biso   1.000  C
  C1011    1.0000 0.31194  0.63133  0.80638  Biso   1.000  C
  H694     1.0000 0.29610  0.69412  0.88400  Biso   1.000  H
  H695     1.0000 0.29603  0.69412  0.88400  Biso   1.000  H
  H696     1.0000 0.34507  0.56708  0.73897  Biso   1.000  H
  H697     1.0000 0.34509  0.56708  0.73902  Biso   1.000  H
  H698     1.0000 0.34503  0.56714  0.73897  Biso   1.000  H
  H699     1.0000 0.34503  0.56708  0.73902  Biso   1.000  H
  O112     1.0000 0.67396  0.18153  0.35179  Biso   1.000  O
  O113     1.0000 0.67403  0.18153  0.35179  Biso   1.000  O
  C1012    1.0000 0.59470  0.98135  0.35820  Biso   1.000  C
  C1013    1.0000 0.59472  0.98141  0.35820  Biso   1.000  C
  C1014    1.0000 0.56898  0.02672  0.25408  Biso   1.000  C
  C1015    1.0000 0.56900  0.02672  0.25412  Biso   1.000  C
  C1016    1.0000 0.86101  0.33316  0.32989  Biso   1.000  C
  C1017    1.0000 0.86099  0.33310  0.32989  Biso   1.000  C
  H700     1.0000 0.80200  0.30105  0.41097  Biso   1.000  H
  C1018    1.0000 0.93517  0.32221  0.45847  Biso   1.000  C
  H701     1.0000 0.80201  0.30105  0.41102  Biso   1.000  H
  C1019    1.0000 0.93519  0.32222  0.45852  Biso   1.000  C
  C1020    1.0000 0.93519  0.32227  0.45847  Biso   1.000  C
  C1021    1.0000 0.26270  0.15858  0.57219  Biso   1.000  C
  H702     1.0000 0.12297  0.08208  0.55001  Biso   1.000  H
  C1022    1.0000 0.26268  0.15852  0.57219  Biso   1.000  C
  H703     1.0000 0.12301  0.08202  0.55001  Biso   1.000  H
  C1023    1.0000 0.33787  0.17182  0.48688  Biso   1.000  C
  H704     1.0000 0.25699  0.10502  0.39900  Biso   1.000  H
  H705     1.0000 0.25693  0.10502  0.39900  Biso   1.000  H
  C1024    1.0000 0.34007  0.19107  0.54939  Biso   1.000  C
  C1025    1.0000 0.34011  0.19101  0.54939  Biso   1.000  C
  O114     1.0000 0.95344  0.42840  0.10459  Biso   1.000  O
  O115     1.0000 0.95338  0.42840  0.10459  Biso   1.000  O
  C1026    1.0000 0.89988  0.25177  0.98318  Biso   1.000  C
  C1027    1.0000 0.98673  0.38786  0.98769  Biso   1.000  C
  C1028    1.0000 0.89986  0.25172  0.98318  Biso   1.000  C
  C1029    1.0000 0.98666  0.38786  0.98769  Biso   1.000  C
  C1030    1.0000 0.93758  0.40260  0.25370  Biso   1.000  C
  C1031    1.0000 0.93764  0.40260  0.25370  Biso   1.000  C
  H706     1.0000 0.02501  0.49104  0.21997  Biso   1.000  H
  C1032    1.0000 0.11644  0.48121  0.29079  Biso   1.000  C
  H707     1.0000 0.02501  0.49099  0.22002  Biso   1.000  H
  C1033    1.0000 0.11638  0.48121  0.29079  Biso   1.000  C
  H708     1.0000 0.02503  0.49104  0.22002  Biso   1.000  H
  C1034    1.0000 0.52181  0.35953  0.36081  Biso   1.000  C
  H709     1.0000 0.44702  0.28903  0.27398  Biso   1.000  H
  H710     1.0000 0.44696  0.28903  0.27398  Biso   1.000  H
  C1035    1.0000 0.45980  0.45332  0.39021  Biso   1.000  C
  H711     1.0000 0.33703  0.45505  0.32599  Biso   1.000  H
  H712     1.0000 0.33701  0.45500  0.32599  Biso   1.000  H
  H713     1.0000 0.33697  0.45505  0.32599  Biso   1.000  H
  C1036    1.0000 0.22580  0.63153  0.76377  Biso   1.000  C
  C1037    1.0000 0.22582  0.63153  0.76382  Biso   1.000  C
  C1038    1.0000 0.22574  0.63153  0.76377  Biso   1.000  C
  C1039    1.0000 0.22576  0.63153  0.76382  Biso   1.000  C
  C1040    1.0000 0.64823  0.22225  0.29801  Biso   1.000  C
  C1041    1.0000 0.64820  0.22219  0.29801  Biso   1.000  C
  C1042    1.0000 0.64816  0.22225  0.29801  Biso   1.000  C
  C1043    1.0000 0.50273  0.93538  0.34561  Biso   1.000  C
  H714     1.0000 0.64015  0.98209  0.40299  Biso   1.000  H
  H715     1.0000 0.64009  0.98209  0.40299  Biso   1.000  H
  C1044    1.0000 0.47714  0.98068  0.24139  Biso   1.000  C
  C1045    1.0000 0.47708  0.98068  0.24139  Biso   1.000  C
  H716     1.0000 0.59496  0.06200  0.21897  Biso   1.000  H
  H717     1.0000 0.59498  0.06201  0.21902  Biso   1.000  H
  C1046    1.0000 0.77773  0.33361  0.29279  Biso   1.000  C
  C1047    1.0000 0.77766  0.33361  0.29279  Biso   1.000  C
  C1048    1.0000 0.94088  0.36763  0.31041  Biso   1.000  C
  C1049    1.0000 0.94095  0.36763  0.31041  Biso   1.000  C
  H718     1.0000 0.99599  0.31603  0.45102  Biso   1.000  H
  H719     1.0000 0.92003  0.29404  0.49999  Biso   1.000  H
  C1050    1.0000 0.95120  0.40113  0.45809  Biso   1.000  C
  H720     1.0000 0.91996  0.29404  0.49999  Biso   1.000  H
  H721     1.0000 0.26400  0.17308  0.62097  Biso   1.000  H
  H722     1.0000 0.26399  0.17303  0.62102  Biso   1.000  H
  H723     1.0000 0.26402  0.17309  0.62102  Biso   1.000  H
  H724     1.0000 0.39798  0.19707  0.46897  Biso   1.000  H
  H725     1.0000 0.39797  0.19701  0.46902  Biso   1.000  H
  H726     1.0000 0.40198  0.23107  0.57998  Biso   1.000  H
  C1051    1.0000 0.86555  0.41002  0.11100  Biso   1.000  C
  C1052    1.0000 0.86553  0.40996  0.11100  Biso   1.000  C
  C1053    1.0000 0.86549  0.41002  0.11100  Biso   1.000  C
  C1054    1.0000 0.86226  0.25122  0.91867  Biso   1.000  C
  C1055    1.0000 0.86234  0.25123  0.91872  Biso   1.000  C
  C1056    1.0000 0.86228  0.25128  0.91867  Biso   1.000  C
  C1057    1.0000 0.86227  0.25123  0.91872  Biso   1.000  C
  H727     1.0000 0.88097  0.19898  0.00698  Biso   1.000  H
  H728     1.0000 0.88098  0.19898  0.00702  Biso   1.000  H
  C1058    1.0000 0.94911  0.38725  0.92309  Biso   1.000  C
  H729     1.0000 0.03504  0.44101  0.01401  Biso   1.000  H
  H730     1.0000 0.03498  0.44101  0.01401  Biso   1.000  H
  C1059    1.0000 0.85419  0.40312  0.21660  Biso   1.000  C
  H731     1.0000 0.17105  0.50401  0.26799  Biso   1.000  H
  H732     1.0000 0.13005  0.43905  0.32101  Biso   1.000  H
  C1060    1.0000 0.11181  0.53671  0.32020  Biso   1.000  C
  H733     1.0000 0.17099  0.50401  0.26799  Biso   1.000  H
  H734     1.0000 0.12999  0.43905  0.32101  Biso   1.000  H
  C1061    1.0000 0.52653  0.41884  0.40280  Biso   1.000  C
  H735     1.0000 0.57300  0.33302  0.37098  Biso   1.000  H
  H736     1.0000 0.57302  0.33303  0.37102  Biso   1.000  H
  C1062    1.0000 0.52647  0.41884  0.40280  Biso   1.000  C
  H737     1.0000 0.57294  0.33302  0.37098  Biso   1.000  H
  H738     1.0000 0.46302  0.49905  0.42299  Biso   1.000  H
  C1063    1.0000 0.22236  0.66652  0.70720  Biso   1.000  C
  C1064    1.0000 0.14589  0.59701  0.78339  Biso   1.000  C
  C1065    1.0000 0.14583  0.59701  0.78339  Biso   1.000  C
  O116     1.0000 0.69485  0.30435  0.31241  Biso   1.000  O
  O117     1.0000 0.69482  0.30429  0.31241  Biso   1.000  O
  O118     1.0000 0.69478  0.30435  0.31241  Biso   1.000  O
  H739     1.0000 0.66398  0.20104  0.25797  Biso   1.000  H
  H740     1.0000 0.57601  0.21104  0.28799  Biso   1.000  H
  H741     1.0000 0.66398  0.20099  0.25802  Biso   1.000  H
  H742     1.0000 0.57599  0.21099  0.28799  Biso   1.000  H
  H743     1.0000 0.57595  0.21104  0.28799  Biso   1.000  H
  H744     1.0000 0.66400  0.20104  0.25802  Biso   1.000  H
  C1066    1.0000 0.44392  0.93497  0.28709  Biso   1.000  C
  H745     1.0000 0.47714  0.90007  0.38100  Biso   1.000  H
  H746     1.0000 0.47708  0.90007  0.38100  Biso   1.000  H
  H747     1.0000 0.43209  0.98005  0.19598  Biso   1.000  H
  C1067    1.0000 0.77428  0.36860  0.23622  Biso   1.000  C
  C1068    1.0000 0.77434  0.36860  0.23622  Biso   1.000  C
  H748     1.0000 0.00499  0.36704  0.33901  Biso   1.000  H
  H749     1.0000 0.96103  0.42601  0.41501  Biso   1.000  H
  H750     1.0000 0.89003  0.40505  0.46698  Biso   1.000  H
  H751     1.0000 0.89005  0.40506  0.46702  Biso   1.000  H
  H752     1.0000 0.96099  0.42607  0.41501  Biso   1.000  H
  H753     1.0000 0.88997  0.40505  0.46698  Biso   1.000  H
  H754     1.0000 0.96096  0.42601  0.41501  Biso   1.000  H
  H755     1.0000 0.88999  0.40506  0.46702  Biso   1.000  H
  C1069    1.0000 0.01621  0.43288  0.51110  Biso   1.000  C
  C1070    1.0000 0.01619  0.43282  0.51110  Biso   1.000  C
  O119     1.0000 0.85509  0.44101  0.16387  Biso   1.000  O
  O120     1.0000 0.85511  0.44101  0.16392  Biso   1.000  O
  H756     1.0000 0.83100  0.43202  0.07101  Biso   1.000  H
  H757     1.0000 0.83403  0.34798  0.10701  Biso   1.000  H
  H758     1.0000 0.83098  0.43196  0.07101  Biso   1.000  H
  H759     1.0000 0.83396  0.34798  0.10701  Biso   1.000  H
  C1071    1.0000 0.88692  0.31896  0.88860  Biso   1.000  C
  H760     1.0000 0.81397  0.19815  0.89198  Biso   1.000  H
  H761     1.0000 0.81399  0.19816  0.89202  Biso   1.000  H
  C1072    1.0000 0.88686  0.31896  0.88860  Biso   1.000  C
  H762     1.0000 0.96805  0.44018  0.90000  Biso   1.000  H
  H763     1.0000 0.96803  0.44012  0.90000  Biso   1.000  H
  H764     1.0000 0.96799  0.44018  0.90000  Biso   1.000  H
  H765     1.0000 0.96797  0.44012  0.90000  Biso   1.000  H
  H766     1.0000 0.08902  0.57405  0.28799  Biso   1.000  H
  H767     1.0000 0.06003  0.51003  0.34599  Biso   1.000  H
  C1073    1.0000 0.19935  0.59683  0.37620  Biso   1.000  C
  H768     1.0000 0.08900  0.57399  0.28799  Biso   1.000  H
  H769     1.0000 0.05997  0.51003  0.34599  Biso   1.000  H
  C1074    1.0000 0.19929  0.59683  0.37620  Biso   1.000  C
  H770     1.0000 0.58200  0.43803  0.44498  Biso   1.000  H
  C1075    1.0000 0.13908  0.66697  0.67010  Biso   1.000  C
  C1076    1.0000 0.13904  0.66703  0.67010  Biso   1.000  C
  O121     1.0000 0.30524  0.69578  0.68758  Biso   1.000  O
  O122     1.0000 0.30530  0.69578  0.68758  Biso   1.000  O
  O123     1.0000 0.30526  0.69584  0.68758  Biso   1.000  O
  C1077    1.0000 0.06251  0.59753  0.74629  Biso   1.000  C
  C1078    1.0000 0.06249  0.59747  0.74629  Biso   1.000  C
  C1079    1.0000 0.06245  0.59753  0.74629  Biso   1.000  C
  O124     1.0000 0.14499  0.55912  0.83611  Biso   1.000  O
  O125     1.0000 0.14493  0.55912  0.83611  Biso   1.000  O
  O126     1.0000 0.34541  0.89818  0.24800  Biso   1.000  O
  C1080    1.0000 0.33244  0.88987  0.29231  Biso   1.000  C
  O127     1.0000 0.34538  0.89813  0.24800  Biso   1.000  O
  C1081    1.0000 0.33238  0.88987  0.29231  Biso   1.000  C
  C1082    1.0000 0.68808  0.36880  0.19361  Biso   1.000  C
  C1083    1.0000 0.68814  0.36880  0.19361  Biso   1.000  C
  C1084    1.0000 0.02991  0.41436  0.57371  Biso   1.000  C
  C1085    1.0000 0.08735  0.48627  0.49111  Biso   1.000  C
  C1086    1.0000 0.08729  0.48627  0.49111  Biso   1.000  C
  C1087    1.0000 0.06700  0.41288  0.55561  Biso   1.000  C
  O128     1.0000 0.85594  0.33096  0.82448  Biso   1.000  O
  O129     1.0000 0.85593  0.33091  0.82452  Biso   1.000  O
  O130     1.0000 0.85587  0.33096  0.82448  Biso   1.000  O
  O131     1.0000 0.85587  0.33091  0.82452  Biso   1.000  O
  C1088    1.0000 0.22478  0.64918  0.42931  Biso   1.000  C
  C1089    1.0000 0.26585  0.57812  0.35511  Biso   1.000  C
  C1090    1.0000 0.22475  0.64912  0.42931  Biso   1.000  C
  C1091    1.0000 0.22471  0.64918  0.42931  Biso   1.000  C
  C1092    1.0000 0.26581  0.57817  0.35511  Biso   1.000  C
  C1093    1.0000 0.22469  0.64912  0.42931  Biso   1.000  C
  C1094    1.0000 0.26579  0.57812  0.35511  Biso   1.000  C
  C1095    1.0000 0.28060  0.58232  0.43601  Biso   1.000  C
  C1096    1.0000 0.14356  0.70708  0.60659  Biso   1.000  C
  C1097    1.0000 0.05920  0.63250  0.68957  Biso   1.000  C
  C1098    1.0000 0.05922  0.63251  0.68962  Biso   1.000  C
  C1099    1.0000 0.05914  0.63250  0.68957  Biso   1.000  C
  C1100    1.0000 0.05915  0.63251  0.68962  Biso   1.000  C
  C1101    1.0000 0.35186  0.77788  0.70197  Biso   1.000  C
  C1102    1.0000 0.35188  0.77789  0.70202  Biso   1.000  C
  C1103    1.0000 0.35188  0.77794  0.70197  Biso   1.000  C
  C1104    1.0000 0.97375  0.56204  0.76068  Biso   1.000  C
  C1105    1.0000 0.97373  0.56198  0.76068  Biso   1.000  C
  C1106    1.0000 0.13454  0.59011  0.88898  Biso   1.000  C
  H771     1.0000 0.36213  0.94008  0.32599  Biso   1.000  H
  H772     1.0000 0.34308  0.84104  0.31497  Biso   1.000  H
  H773     1.0000 0.34310  0.84105  0.31502  Biso   1.000  H
  H774     1.0000 0.36207  0.94008  0.32599  Biso   1.000  H
  H775     1.0000 0.34310  0.84110  0.31497  Biso   1.000  H
  C1107    1.0000 0.66311  0.33529  0.13148  Biso   1.000  C
  C1108    1.0000 0.66312  0.33529  0.13152  Biso   1.000  C
  C1109    1.0000 0.66304  0.33529  0.13148  Biso   1.000  C
  C1110    1.0000 0.66306  0.33529  0.13152  Biso   1.000  C
  C1111    1.0000 0.63562  0.40682  0.21308  Biso   1.000  C
  C1112    1.0000 0.63556  0.40682  0.21308  Biso   1.000  C
  H776     1.0000 0.97701  0.37007  0.59100  Biso   1.000  H
  C1113    1.0000 0.99851  0.34296  0.55751  Biso   1.000  C
  C1114    1.0000 0.11460  0.44936  0.61641  Biso   1.000  C
  C1115    1.0000 0.12604  0.45439  0.61181  Biso   1.000  C
  C1116    1.0000 0.17204  0.52127  0.53381  Biso   1.000  C
  H777     1.0000 0.06805  0.48307  0.43501  Biso   1.000  H
  H778     1.0000 0.06803  0.48301  0.43501  Biso   1.000  H
  H779     1.0000 0.06799  0.48307  0.43501  Biso   1.000  H
  C1117    1.0000 0.79679  0.26183  0.78291  Biso   1.000  C
  C1118    1.0000 0.31645  0.68287  0.46128  Biso   1.000  C
  C1119    1.0000 0.31645  0.68282  0.46132  Biso   1.000  C
  C1120    1.0000 0.31639  0.68287  0.46128  Biso   1.000  C
  C1121    1.0000 0.31641  0.68288  0.46132  Biso   1.000  C
  H780     1.0000 0.22804  0.63707  0.47002  Biso   1.000  H
  C1122    1.0000 0.35772  0.61181  0.38708  Biso   1.000  C
  C1123    1.0000 0.35774  0.61187  0.38708  Biso   1.000  C
  C1124    1.0000 0.38602  0.60977  0.44427  Biso   1.000  C
  C1125    1.0000 0.06491  0.67792  0.54151  Biso   1.000  C
  C1126    1.0000 0.06489  0.67786  0.54151  Biso   1.000  C
  C1127    1.0000 0.06485  0.67792  0.54151  Biso   1.000  C
  C1128    1.0000 0.06483  0.67786  0.54151  Biso   1.000  C
  C1129    1.0000 0.16277  0.79340  0.62578  Biso   1.000  C
  H781     1.0000 0.19809  0.69908  0.58901  Biso   1.000  H
  H782     1.0000 0.99509  0.63309  0.66098  Biso   1.000  H
  H783     1.0000 0.99503  0.63309  0.66098  Biso   1.000  H
  O132     1.0000 0.32612  0.81860  0.64820  Biso   1.000  O
  O133     1.0000 0.32606  0.81860  0.64820  Biso   1.000  O
  H784     1.0000 0.42407  0.78909  0.71199  Biso   1.000  H
  H785     1.0000 0.33610  0.79909  0.74201  Biso   1.000  H
  H786     1.0000 0.33606  0.79915  0.74201  Biso   1.000  H
  H787     1.0000 0.42409  0.78914  0.71199  Biso   1.000  H
  H788     1.0000 0.33604  0.79909  0.74201  Biso   1.000  H
  C1130    1.0000 0.96624  0.61840  0.80937  Biso   1.000  C
  H789     1.0000 0.97507  0.50909  0.78002  Biso   1.000  H
  C1131    1.0000 0.88364  0.51892  0.70919  Biso   1.000  C
  C1132    1.0000 0.96626  0.61840  0.80942  Biso   1.000  C
  C1133    1.0000 0.88370  0.51892  0.70919  Biso   1.000  C
  H790     1.0000 0.97503  0.50915  0.78002  Biso   1.000  H
  O134     1.0000 0.04664  0.57173  0.89540  Biso   1.000  O
  H791     1.0000 0.16908  0.56811  0.92898  Biso   1.000  H
  H792     1.0000 0.16606  0.65215  0.89297  Biso   1.000  H
  O135     1.0000 0.04670  0.57173  0.89540  Biso   1.000  O
  H793     1.0000 0.16607  0.65215  0.89302  Biso   1.000  H
  H794     1.0000 0.16902  0.56811  0.92898  Biso   1.000  H
  C1134    1.0000 0.58561  0.33983  0.08901  Biso   1.000  C
  C1135    1.0000 0.58559  0.33977  0.08901  Biso   1.000  C
  H795     1.0000 0.70399  0.30601  0.11599  Biso   1.000  H
  C1136    1.0000 0.55808  0.41130  0.17057  Biso   1.000  C
  C1137    1.0000 0.55810  0.41130  0.17062  Biso   1.000  C
  H796     1.0000 0.65501  0.43305  0.26101  Biso   1.000  H
  H797     1.0000 0.65499  0.43299  0.26101  Biso   1.000  H
  C1138    1.0000 0.98893  0.31454  0.61561  Biso   1.000  C
  C1139    1.0000 0.18562  0.50275  0.59642  Biso   1.000  C
  H798     1.0000 0.13400  0.42707  0.65898  Biso   1.000  H
  H799     1.0000 0.13401  0.42707  0.65902  Biso   1.000  H
  C1140    1.0000 0.11653  0.42597  0.66990  Biso   1.000  C
  H800     1.0000 0.22504  0.54006  0.50398  Biso   1.000  H
  H801     1.0000 0.22498  0.54006  0.50398  Biso   1.000  H
  C1141    1.0000 0.84981  0.20862  0.76847  Biso   1.000  C
  H802     1.0000 0.74902  0.22815  0.80899  Biso   1.000  H
  H803     1.0000 0.75896  0.27710  0.73997  Biso   1.000  H
  C1142    1.0000 0.84983  0.20862  0.76852  Biso   1.000  C
  H804     1.0000 0.75898  0.27711  0.74002  Biso   1.000  H
  C1143    1.0000 0.84975  0.20862  0.76847  Biso   1.000  C
  H805     1.0000 0.74896  0.22815  0.80899  Biso   1.000  H
  H806     1.0000 0.75899  0.27716  0.73997  Biso   1.000  H
  C1144    1.0000 0.84977  0.20862  0.76852  Biso   1.000  C
  C1145    1.0000 0.38291  0.66422  0.44019  Biso   1.000  C
  C1146    1.0000 0.38293  0.66428  0.44019  Biso   1.000  C
  C1147    1.0000 0.43317  0.67566  0.38499  Biso   1.000  C
  C1148    1.0000 0.04888  0.59900  0.54189  Biso   1.000  C
  H807     1.0000 0.08006  0.70609  0.50000  Biso   1.000  H
  H808     1.0000 0.00410  0.68410  0.54897  Biso   1.000  H
  H809     1.0000 0.00409  0.68405  0.54902  Biso   1.000  H
  H810     1.0000 0.08012  0.70609  0.50000  Biso   1.000  H
  H811     1.0000 0.00404  0.68410  0.54897  Biso   1.000  H
  H812     1.0000 0.00405  0.68411  0.54902  Biso   1.000  H
  C1149    1.0000 0.09220  0.82220  0.62331  Biso   1.000  C
  C1150    1.0000 0.25341  0.84230  0.64711  Biso   1.000  C
  C1151    1.0000 0.25335  0.84230  0.64711  Biso   1.000  C
  C1152    1.0000 0.09214  0.82220  0.62331  Biso   1.000  C
  C1153    1.0000 0.00594  0.62650  0.87440  Biso   1.000  C
  C1154    1.0000 0.92172  0.66834  0.78320  Biso   1.000  C
  C1155    1.0000 0.92169  0.66828  0.78320  Biso   1.000  C
  C1156    1.0000 0.92165  0.66834  0.78320  Biso   1.000  C
  C1157    1.0000 0.00597  0.62656  0.87440  Biso   1.000  C
  H813     1.0000 0.82904  0.49612  0.73199  Biso   1.000  H
  H814     1.0000 0.87003  0.56108  0.67898  Biso   1.000  H
  C1158    1.0000 0.88828  0.46342  0.67979  Biso   1.000  C
  H815     1.0000 0.82910  0.49612  0.73199  Biso   1.000  H
  H816     1.0000 0.87009  0.56108  0.67898  Biso   1.000  H
  C1159    1.0000 0.88821  0.46342  0.67979  Biso   1.000  C
  C1160    1.0000 0.53311  0.37791  0.10849  Biso   1.000  C
  H817     1.0000 0.56603  0.31399  0.04099  Biso   1.000  H
  H818     1.0000 0.56597  0.31399  0.04099  Biso   1.000  H
  H819     1.0000 0.51705  0.44103  0.18601  Biso   1.000  H
  H820     1.0000 0.51699  0.44103  0.18601  Biso   1.000  H
  C1161    1.0000 0.04790  0.35609  0.67171  Biso   1.000  C
  H821     1.0000 0.25802  0.51206  0.61599  Biso   1.000  H
  H822     1.0000 0.25796  0.51206  0.61599  Biso   1.000  H
  C1162    1.0000 0.94492  0.23335  0.78249  Biso   1.000  C
  C1163    1.0000 0.79779  0.13720  0.73441  Biso   1.000  C
  C1164    1.0000 0.94490  0.23329  0.78249  Biso   1.000  C
  C1165    1.0000 0.94486  0.23335  0.78249  Biso   1.000  C
  H823     1.0000 0.48901  0.67104  0.43401  Biso   1.000  H
  H824     1.0000 0.11005  0.59508  0.53301  Biso   1.000  H
  C1166    1.0000 0.98387  0.56725  0.48888  Biso   1.000  C
  C1167    1.0000 0.98383  0.56731  0.48888  Biso   1.000  C
  C1168    1.0000 0.98381  0.56725  0.48888  Biso   1.000  C
  H825     1.0000 0.03906  0.57412  0.58498  Biso   1.000  H
  H826     1.0000 0.03905  0.57406  0.58502  Biso   1.000  H
  C1169    1.0000 0.11223  0.89993  0.64198  Biso   1.000  C
  H827     1.0000 0.02210  0.78412  0.60697  Biso   1.000  H
  C1170    1.0000 0.11221  0.89987  0.64198  Biso   1.000  C
  H828     1.0000 0.02210  0.78406  0.60702  Biso   1.000  H
  C1171    1.0000 0.11217  0.89993  0.64198  Biso   1.000  C
  H829     1.0000 0.02204  0.78412  0.60697  Biso   1.000  H
  C1172    1.0000 0.11215  0.89987  0.64198  Biso   1.000  C
  H830     1.0000 0.02206  0.78412  0.60702  Biso   1.000  H
  C1173    1.0000 0.27338  0.92003  0.66578  Biso   1.000  C
  C1174    1.0000 0.27337  0.91998  0.66582  Biso   1.000  C
  C1175    1.0000 0.00100  0.68463  0.91297  Biso   1.000  C
  C1176    1.0000 0.00102  0.68464  0.91302  Biso   1.000  C
  C1177    1.0000 0.00094  0.68463  0.91297  Biso   1.000  C
  C1178    1.0000 0.00096  0.68464  0.91302  Biso   1.000  C
  C1179    1.0000 0.91671  0.72641  0.82182  Biso   1.000  C
  H831     1.0000 0.89108  0.66210  0.73299  Biso   1.000  H
  C1180    1.0000 0.91664  0.72641  0.82182  Biso   1.000  C
  H832     1.0000 0.91106  0.42608  0.71199  Biso   1.000  H
  H833     1.0000 0.94005  0.49010  0.65399  Biso   1.000  H
  C1181    1.0000 0.80073  0.40330  0.62378  Biso   1.000  C
  C1182    1.0000 0.80079  0.40330  0.62378  Biso   1.000  C
  H834     1.0000 0.91100  0.42608  0.71199  Biso   1.000  H
  O136     1.0000 0.45672  0.39012  0.07547  Biso   1.000  O
  O137     1.0000 0.45671  0.39007  0.07552  Biso   1.000  O
  C1183    1.0000 0.98798  0.18673  0.76249  Biso   1.000  C
  H835     1.0000 0.98500  0.28813  0.80899  Biso   1.000  H
  C1184    1.0000 0.84089  0.09063  0.71427  Biso   1.000  C
  C1185    1.0000 0.84091  0.09063  0.71432  Biso   1.000  C
  C1186    1.0000 0.97017  0.58577  0.42627  Biso   1.000  C
  C1187    1.0000 0.91273  0.51386  0.50888  Biso   1.000  C
  C1188    1.0000 0.97019  0.58577  0.42632  Biso   1.000  C
  C1189    1.0000 0.93304  0.58725  0.44442  Biso   1.000  C
  C1190    1.0000 0.04207  0.93349  0.65029  Biso   1.000  C
  C1191    1.0000 0.20283  0.94871  0.66331  Biso   1.000  C
  C1192    1.0000 0.20277  0.94871  0.66331  Biso   1.000  C
  C1193    1.0000 0.37231  0.97313  0.68748  Biso   1.000  C
  C1194    1.0000 0.95639  0.73451  0.88680  Biso   1.000  C
  C1195    1.0000 0.95633  0.73451  0.88680  Biso   1.000  C
  C1196    1.0000 0.03794  0.68024  0.98227  Biso   1.000  C
  C1197    1.0000 0.03802  0.68024  0.98232  Biso   1.000  C
  C1198    1.0000 0.03796  0.68024  0.98232  Biso   1.000  C
  C1199    1.0000 0.86707  0.78694  0.80381  Biso   1.000  C
  C1200    1.0000 0.86711  0.78689  0.80381  Biso   1.000  C
  C1201    1.0000 0.77531  0.35095  0.57068  Biso   1.000  C
  C1202    1.0000 0.73423  0.42201  0.64487  Biso   1.000  C
  C1203    1.0000 0.73429  0.42196  0.64492  Biso   1.000  C
  C1204    1.0000 0.77533  0.35101  0.57068  Biso   1.000  C
  C1205    1.0000 0.73425  0.42202  0.64492  Biso   1.000  C
  C1206    1.0000 0.71942  0.41781  0.56398  Biso   1.000  C
  C1207    1.0000 0.43243  0.36690  0.01149  Biso   1.000  C
  C1208    1.0000 0.43237  0.36690  0.01149  Biso   1.000  C
  C1209    1.0000 0.93601  0.11542  0.72829  Biso   1.000  C
  C1210    1.0000 0.93595  0.11542  0.72829  Biso   1.000  C
  H836     1.0000 0.06200  0.20612  0.77299  Biso   1.000  H
  H837     1.0000 0.80097  0.03513  0.68801  Biso   1.000  H
  H838     1.0000 0.02307  0.63006  0.40898  Biso   1.000  H
  C1211    1.0000 0.88549  0.55077  0.38357  Biso   1.000  C
  C1212    1.0000 0.88551  0.55078  0.38362  Biso   1.000  C
  C1213    1.0000 0.88543  0.55077  0.38357  Biso   1.000  C
  C1214    1.0000 0.88544  0.55078  0.38362  Biso   1.000  C
  C1215    1.0000 0.87404  0.54574  0.38818  Biso   1.000  C
  H839     1.0000 0.02301  0.63006  0.40898  Biso   1.000  H
  C1216    1.0000 0.00159  0.65718  0.44252  Biso   1.000  C
  C1217    1.0000 0.82805  0.47886  0.46618  Biso   1.000  C
  H840     1.0000 0.93203  0.51706  0.56498  Biso   1.000  H
  C1218    1.0000 0.82807  0.47887  0.46622  Biso   1.000  C
  H841     1.0000 0.93206  0.51712  0.56498  Biso   1.000  H
  C1219    1.0000 0.02068  0.92890  0.71161  Biso   1.000  C
  H842     1.0000 0.06409  0.99609  0.65100  Biso   1.000  H
  C1220    1.0000 0.95933  0.89770  0.58840  Biso   1.000  C
  C1221    1.0000 0.95927  0.89770  0.58840  Biso   1.000  C
  O138     1.0000 0.22351  0.02441  0.68079  Biso   1.000  O
  O139     1.0000 0.22345  0.02441  0.68079  Biso   1.000  O
  C1222    1.0000 0.43110  0.97341  0.74591  Biso   1.000  C
  C1223    1.0000 0.40541  0.01883  0.64179  Biso   1.000  C
  C1224    1.0000 0.40539  0.01878  0.64179  Biso   1.000  C
  C1225    1.0000 0.40535  0.01883  0.64179  Biso   1.000  C
  C1226    1.0000 0.40532  0.01878  0.64179  Biso   1.000  C
  O140     1.0000 0.95671  0.78773  0.93411  Biso   1.000  O
  O141     1.0000 0.95665  0.78773  0.93411  Biso   1.000  O
  C1227    1.0000 0.10022  0.74841  0.01681  Biso   1.000  C
  C1228    1.0000 0.01338  0.61232  0.01230  Biso   1.000  C
  C1229    1.0000 0.10016  0.74841  0.01681  Biso   1.000  C
  C1230    1.0000 0.93517  0.85620  0.78230  Biso   1.000  C
  C1231    1.0000 0.93519  0.85626  0.78230  Biso   1.000  C
  H843     1.0000 0.84213  0.80414  0.84101  Biso   1.000  H
  C1232    1.0000 0.78446  0.74882  0.74790  Biso   1.000  C
  H844     1.0000 0.84206  0.80414  0.84101  Biso   1.000  H
  C1233    1.0000 0.68363  0.31726  0.53871  Biso   1.000  C
  C1234    1.0000 0.68365  0.31731  0.53871  Biso   1.000  C
  H845     1.0000 0.77206  0.36307  0.53002  Biso   1.000  H
  C1235    1.0000 0.64237  0.38832  0.61291  Biso   1.000  C
  C1236    1.0000 0.64235  0.38826  0.61291  Biso   1.000  C
  C1237    1.0000 0.61406  0.39036  0.55572  Biso   1.000  C
  C1238    1.0000 0.34318  0.37327  0.97458  Biso   1.000  C
  C1239    1.0000 0.34325  0.37327  0.97458  Biso   1.000  C
  H846     1.0000 0.48601  0.39816  0.98897  Biso   1.000  H
  H847     1.0000 0.48603  0.39816  0.98902  Biso   1.000  H
  H848     1.0000 0.42201  0.30596  0.00797  Biso   1.000  H
  H849     1.0000 0.42202  0.30596  0.00802  Biso   1.000  H
  H850     1.0000 0.42197  0.30602  0.00797  Biso   1.000  H
  H851     1.0000 0.42196  0.30596  0.00802  Biso   1.000  H
  H852     1.0000 0.96901  0.07912  0.71299  Biso   1.000  H
  H853     1.0000 0.96895  0.07912  0.71299  Biso   1.000  H
  C1240    1.0000 0.81447  0.49738  0.40357  Biso   1.000  C
  H854     1.0000 0.86609  0.57306  0.34101  Biso   1.000  H
  C1241    1.0000 0.81446  0.49733  0.40362  Biso   1.000  C
  C1242    1.0000 0.81441  0.49738  0.40357  Biso   1.000  C
  H855     1.0000 0.86602  0.57306  0.34101  Biso   1.000  H
  C1243    1.0000 0.81448  0.49739  0.40362  Biso   1.000  C
  C1244    1.0000 0.88355  0.57416  0.33009  Biso   1.000  C
  C1245    1.0000 0.01115  0.68559  0.38438  Biso   1.000  C
  H856     1.0000 0.77504  0.46007  0.49601  Biso   1.000  H
  C1246    1.0000 0.07228  0.98641  0.76078  Biso   1.000  C
  C1247    1.0000 0.95220  0.86383  0.72240  Biso   1.000  C
  H857     1.0000 0.92510  0.83708  0.59300  Biso   1.000  H
  H858     1.0000 0.98507  0.90311  0.54598  Biso   1.000  H
  C1248    1.0000 0.89460  0.94659  0.58407  Biso   1.000  C
  C1249    1.0000 0.89462  0.94660  0.58412  Biso   1.000  C
  H859     1.0000 0.92506  0.83713  0.59300  Biso   1.000  H
  C1250    1.0000 0.89454  0.94659  0.58407  Biso   1.000  C
  H860     1.0000 0.92504  0.83708  0.59300  Biso   1.000  H
  C1251    1.0000 0.22011  0.04754  0.74239  Biso   1.000  C
  C1252    1.0000 0.22005  0.04754  0.74239  Biso   1.000  C
  H861     1.0000 0.40513  0.93813  0.78101  Biso   1.000  H
  H862     1.0000 0.40506  0.93813  0.78101  Biso   1.000  H
  C1253    1.0000 0.52296  0.01951  0.75859  Biso   1.000  C
  C1254    1.0000 0.49738  0.06481  0.65437  Biso   1.000  C
  H863     1.0000 0.35996  0.01810  0.59699  Biso   1.000  H
  C1255    1.0000 0.49740  0.06481  0.65442  Biso   1.000  C
  C1256    1.0000 0.01622  0.86807  0.93411  Biso   1.000  C
  C1257    1.0000 0.01620  0.86801  0.93411  Biso   1.000  C
  C1258    1.0000 0.01616  0.86807  0.93411  Biso   1.000  C
  H864     1.0000 0.11912  0.80115  0.99301  Biso   1.000  H
  H865     1.0000 0.11905  0.80115  0.99301  Biso   1.000  H
  C1259    1.0000 0.13785  0.74897  0.08131  Biso   1.000  C
  C1260    1.0000 0.13783  0.74891  0.08131  Biso   1.000  C
  C1261    1.0000 0.13779  0.74897  0.08131  Biso   1.000  C
  H866     1.0000 0.96504  0.55912  0.98598  Biso   1.000  H
  C1262    1.0000 0.05100  0.61294  0.07690  Biso   1.000  C
  C1263    1.0000 0.98679  0.91371  0.83151  Biso   1.000  C
  H867     1.0000 0.80309  0.72912  0.70800  Biso   1.000  H
  H868     1.0000 0.75407  0.79209  0.73399  Biso   1.000  H
  C1264    1.0000 0.70510  0.67961  0.76672  Biso   1.000  C
  H869     1.0000 0.75409  0.79215  0.73399  Biso   1.000  H
  C1265    1.0000 0.70504  0.67961  0.76672  Biso   1.000  C
  C1266    1.0000 0.61717  0.33591  0.55980  Biso   1.000  C
  C1267    1.0000 0.61715  0.33585  0.55980  Biso   1.000  C
  C1268    1.0000 0.61711  0.33591  0.55980  Biso   1.000  C
  C1269    1.0000 0.61709  0.33585  0.55980  Biso   1.000  C
  C1270    1.0000 0.56691  0.32447  0.61500  Biso   1.000  C
  C1271    1.0000 0.25958  0.33124  0.98679  Biso   1.000  C
  C1272    1.0000 0.34861  0.43135  0.93340  Biso   1.000  C
  H870     1.0000 0.74206  0.48807  0.38400  Biso   1.000  H
  C1273    1.0000 0.95212  0.64404  0.32828  Biso   1.000  C
  C1274    1.0000 0.05530  0.97890  0.82068  Biso   1.000  C
  C1275    1.0000 0.05531  0.97891  0.82072  Biso   1.000  C
  C1276    1.0000 0.05526  0.97896  0.82068  Biso   1.000  C
  O142     1.0000 0.14107  0.04893  0.74819  Biso   1.000  O
  H871     1.0000 0.91207  0.81910  0.68402  Biso   1.000  H
  H872     1.0000 0.87509  0.94412  0.62801  Biso   1.000  H
  C1277    1.0000 0.81917  0.91240  0.52987  Biso   1.000  C
  C1278    1.0000 0.81919  0.91241  0.52992  Biso   1.000  C
  H873     1.0000 0.92898  0.00608  0.57700  Biso   1.000  H
  H874     1.0000 0.24199  0.00915  0.77498  Biso   1.000  H
  H875     1.0000 0.26797  0.10614  0.75598  Biso   1.000  H
  H876     1.0000 0.24197  0.00909  0.77498  Biso   1.000  H
  C1279    1.0000 0.55619  0.06521  0.71290  Biso   1.000  C
  H877     1.0000 0.56801  0.02014  0.80400  Biso   1.000  H
  H878     1.0000 0.56795  0.02014  0.80400  Biso   1.000  H
  H879     1.0000 0.52296  0.10012  0.61899  Biso   1.000  H
  H880     1.0000 0.52303  0.10012  0.61899  Biso   1.000  H
  O143     1.0000 0.97512  0.90735  0.89141  Biso   1.000  O
  O144     1.0000 0.97505  0.90735  0.89141  Biso   1.000  O
  H881     1.0000 0.07707  0.86714  0.92100  Biso   1.000  H
  H882     1.0000 0.03512  0.89712  0.98099  Biso   1.000  H
  H883     1.0000 0.03508  0.89718  0.98099  Biso   1.000  H
  H884     1.0000 0.03506  0.89712  0.98099  Biso   1.000  H
  C1280    1.0000 0.11318  0.68123  0.11138  Biso   1.000  C
  H885     1.0000 0.18613  0.80203  0.10801  Biso   1.000  H
  H886     1.0000 0.18607  0.80203  0.10801  Biso   1.000  H
  H887     1.0000 0.03205  0.56001  0.09998  Biso   1.000  H
  H888     1.0000 0.03208  0.56007  0.09998  Biso   1.000  H
  H889     1.0000 0.67908  0.70110  0.80201  Biso   1.000  H
  C1281    1.0000 0.61626  0.63090  0.70639  Biso   1.000  C
  H890     1.0000 0.67910  0.70116  0.80201  Biso   1.000  H
  H891     1.0000 0.73903  0.64009  0.78700  Biso   1.000  H
  H892     1.0000 0.51103  0.32910  0.56602  Biso   1.000  H
  C1282    1.0000 0.24519  0.27026  0.03310  Biso   1.000  C
  C1283    1.0000 0.24521  0.27032  0.03310  Biso   1.000  C
  C1284    1.0000 0.18142  0.34743  0.95791  Biso   1.000  C
  C1285    1.0000 0.18138  0.34749  0.95791  Biso   1.000  C
  C1286    1.0000 0.18135  0.34743  0.95791  Biso   1.000  C
  C1287    1.0000 0.27043  0.44765  0.90452  Biso   1.000  C
  H893     1.0000 0.41303  0.46417  0.92399  Biso   1.000  H
  C1288    1.0000 0.11397  0.04092  0.87150  Biso   1.000  C
  C1289    1.0000 0.81699  0.89316  0.46741  Biso   1.000  C
  C1290    1.0000 0.74180  0.87991  0.55268  Biso   1.000  C
  C1291    1.0000 0.74180  0.87986  0.55272  Biso   1.000  C
  C1292    1.0000 0.81701  0.89322  0.46741  Biso   1.000  C
  C1293    1.0000 0.74174  0.87991  0.55268  Biso   1.000  C
  C1294    1.0000 0.74182  0.87992  0.55272  Biso   1.000  C
  C1295    1.0000 0.73746  0.90366  0.46850  Biso   1.000  C
  O145     1.0000 0.65470  0.10200  0.75199  Biso   1.000  O
  C1296    1.0000 0.66767  0.11032  0.70767  Biso   1.000  C
  C1297    1.0000 0.66768  0.11032  0.70772  Biso   1.000  C
  O146     1.0000 0.65464  0.10200  0.75199  Biso   1.000  O
  O147     1.0000 0.14417  0.66923  0.17551  Biso   1.000  O
  O148     1.0000 0.14419  0.66928  0.17551  Biso   1.000  O
  C1298    1.0000 0.54965  0.66538  0.69380  Biso   1.000  C
  C1299    1.0000 0.61155  0.57159  0.66440  Biso   1.000  C
  C1300    1.0000 0.54967  0.66544  0.69380  Biso   1.000  C
  O149     1.0000 0.28060  0.21016  0.01790  Biso   1.000  O
  O150     1.0000 0.28056  0.21022  0.01790  Biso   1.000  O
  H894     1.0000 0.28398  0.29701  0.07998  Biso   1.000  H
  H895     1.0000 0.17400  0.24702  0.03201  Biso   1.000  H
  H896     1.0000 0.28402  0.29696  0.07998  Biso   1.000  H
  H897     1.0000 0.17397  0.24696  0.03201  Biso   1.000  H
  C1301    1.0000 0.18681  0.40563  0.91668  Biso   1.000  C
  H898     1.0000 0.11698  0.31516  0.96698  Biso   1.000  H
  C1302    1.0000 0.18683  0.40563  0.91672  Biso   1.000  C
  H899     1.0000 0.11704  0.31516  0.96698  Biso   1.000  H
  C1303    1.0000 0.18677  0.40568  0.91668  Biso   1.000  C
  H900     1.0000 0.27501  0.49216  0.87297  Biso   1.000  H
  H901     1.0000 0.27503  0.49216  0.87302  Biso   1.000  H
  C1304    1.0000 0.07488  0.08872  0.89487  Biso   1.000  C
  C1305    1.0000 0.20621  0.05193  0.89601  Biso   1.000  C
  C1306    1.0000 0.07489  0.08873  0.89492  Biso   1.000  C
  C1307    1.0000 0.20614  0.05193  0.89601  Biso   1.000  C
  C1308    1.0000 0.73738  0.84155  0.42779  Biso   1.000  C
  H902     1.0000 0.87711  0.91805  0.44998  Biso   1.000  H
  C1309    1.0000 0.73740  0.84161  0.42779  Biso   1.000  C
  H903     1.0000 0.87707  0.91811  0.44998  Biso   1.000  H
  H904     1.0000 0.87705  0.91805  0.44998  Biso   1.000  H
  C1310    1.0000 0.66221  0.82831  0.51311  Biso   1.000  C
  H905     1.0000 0.74309  0.89511  0.60098  Biso   1.000  H
  C1311    1.0000 0.66219  0.82825  0.51311  Biso   1.000  C
  C1312    1.0000 0.66215  0.82831  0.51311  Biso   1.000  C
  C1313    1.0000 0.66001  0.80906  0.45060  Biso   1.000  C
  C1314    1.0000 0.65995  0.80906  0.45060  Biso   1.000  C
  H906     1.0000 0.63797  0.06011  0.67399  Biso   1.000  H
  H907     1.0000 0.65703  0.15914  0.68501  Biso   1.000  H
  H908     1.0000 0.65701  0.15909  0.68501  Biso   1.000  H
  H909     1.0000 0.65696  0.15914  0.68501  Biso   1.000  H
  C1315    1.0000 0.20332  0.73835  0.21707  Biso   1.000  C
  C1316    1.0000 0.20333  0.73836  0.21712  Biso   1.000  C
  C1317    1.0000 0.20326  0.73835  0.21707  Biso   1.000  C
  C1318    1.0000 0.20327  0.73836  0.21712  Biso   1.000  C
  C1319    1.0000 0.47827  0.64060  0.63917  Biso   1.000  C
  H910     1.0000 0.55306  0.71110  0.72601  Biso   1.000  H
  C1320    1.0000 0.47829  0.64061  0.63922  Biso   1.000  C
  C1321    1.0000 0.54029  0.54681  0.60977  Biso   1.000  C
  H911     1.0000 0.66305  0.54508  0.67399  Biso   1.000  H
  C1322    1.0000 0.54030  0.54681  0.60982  Biso   1.000  C
  C1323    1.0000 0.54022  0.54681  0.60977  Biso   1.000  C
  H912     1.0000 0.66307  0.54513  0.67399  Biso   1.000  H
  C1324    1.0000 0.54024  0.54681  0.60982  Biso   1.000  C
  C1325    1.0000 0.22021  0.15853  0.96717  Biso   1.000  C
  C1326    1.0000 0.22023  0.15854  0.96722  Biso   1.000  C
  C1327    1.0000 0.22015  0.15853  0.96717  Biso   1.000  C
  C1328    1.0000 0.22016  0.15854  0.96722  Biso   1.000  C
  H913     1.0000 0.12600  0.41817  0.89397  Biso   1.000  H
  H914     1.0000 0.12599  0.41812  0.89402  Biso   1.000  H
  H915     1.0000 0.12601  0.41818  0.89402  Biso   1.000  H
  C1329    1.0000 0.12799  0.14753  0.94271  Biso   1.000  C
  H916     1.0000 0.00297  0.08012  0.87602  Biso   1.000  H
  C1330    1.0000 0.12802  0.14758  0.94271  Biso   1.000  C
  C1331    1.0000 0.25932  0.11086  0.94389  Biso   1.000  C
  H917     1.0000 0.23596  0.01511  0.87801  Biso   1.000  H
  C1332    1.0000 0.25926  0.11086  0.94389  Biso   1.000  C
  H918     1.0000 0.23598  0.01517  0.87801  Biso   1.000  H
  H919     1.0000 0.73608  0.82705  0.37901  Biso   1.000  H
  H920     1.0000 0.73611  0.82711  0.37901  Biso   1.000  H
  H921     1.0000 0.60211  0.80306  0.53101  Biso   1.000  H
  H922     1.0000 0.60207  0.80312  0.53101  Biso   1.000  H
  H923     1.0000 0.60205  0.80306  0.53101  Biso   1.000  H
  H924     1.0000 0.59811  0.76906  0.42000  Biso   1.000  H
  H925     1.0000 0.59804  0.76906  0.42000  Biso   1.000  H
  C1333    1.0000 0.15029  0.79157  0.23151  Biso   1.000  C
  H926     1.0000 0.25109  0.77204  0.19099  Biso   1.000  H
  H927     1.0000 0.24114  0.72309  0.26001  Biso   1.000  H
  H928     1.0000 0.24112  0.72303  0.26001  Biso   1.000  H
  H929     1.0000 0.24108  0.72309  0.26001  Biso   1.000  H
  C1334    1.0000 0.47355  0.58129  0.59718  Biso   1.000  C
  H930     1.0000 0.42708  0.66711  0.62901  Biso   1.000  H
  H931     1.0000 0.53707  0.50108  0.57700  Biso   1.000  H
  H932     1.0000 0.09801  0.18415  0.96099  Biso   1.000  H
  H933     1.0000 0.09795  0.18415  0.96099  Biso   1.000  H
  H934     1.0000 0.33099  0.11914  0.96299  Biso   1.000  H
  H935     1.0000 0.33093  0.11914  0.96299  Biso   1.000  H
  C1335    1.0000 0.05519  0.76684  0.21750  Biso   1.000  C
  C1336    1.0000 0.20231  0.86298  0.26557  Biso   1.000  C
  C1337    1.0000 0.20231  0.86293  0.26562  Biso   1.000  C
  C1338    1.0000 0.05521  0.76689  0.21750  Biso   1.000  C
  C1339    1.0000 0.20233  0.86299  0.26562  Biso   1.000  C
  H936     1.0000 0.41809  0.56210  0.55500  Biso   1.000  H
  H937     1.0000 0.41802  0.56210  0.55500  Biso   1.000  H
  C1340    1.0000 0.01213  0.81345  0.23750  Biso   1.000  C
  H938     1.0000 0.01510  0.71206  0.19099  Biso   1.000  H
  C1341    1.0000 0.01206  0.81345  0.23750  Biso   1.000  C
  C1342    1.0000 0.15922  0.90956  0.28571  Biso   1.000  C
  H939     1.0000 0.93811  0.79407  0.22700  Biso   1.000  H
  C1343    1.0000 0.06409  0.88477  0.27170  Biso   1.000  C
  C1344    1.0000 0.06415  0.88477  0.27170  Biso   1.000  C
  H940     1.0000 0.19913  0.96506  0.31198  Biso   1.000  H
  H941     1.0000 0.19907  0.96506  0.31198  Biso   1.000  H
  H942     1.0000 0.03109  0.92106  0.28699  Biso   1.000  H
  C1345    1.0000 0.74078  0.88933  0.05609  Biso   1.000  C
  C1346    1.0000 0.77990  0.84165  0.03282  Biso   1.000  C
  C1347    1.0000 0.77996  0.84165  0.03282  Biso   1.000  C
  C1348    1.0000 0.79390  0.94825  0.10397  Biso   1.000  C
  H943     1.0000 0.66911  0.88105  0.03700  Biso   1.000  H
  C1349    1.0000 0.79392  0.94826  0.10402  Biso   1.000  C
  O151     1.0000 0.71949  0.78997  0.98208  Biso   1.000  O
  O152     1.0000 0.71947  0.78991  0.98208  Biso   1.000  O
  C1350    1.0000 0.87211  0.85266  0.05728  Biso   1.000  C
  C1351    1.0000 0.87209  0.85260  0.05728  Biso   1.000  C
  C1352    1.0000 0.74085  0.88933  0.05609  Biso   1.000  C
  C1353    1.0000 0.88613  0.95927  0.12848  Biso   1.000  C
  C1354    1.0000 0.88607  0.95927  0.12848  Biso   1.000  C
  H944     1.0000 0.76415  0.98508  0.12198  Biso   1.000  H
  H945     1.0000 0.76415  0.98503  0.12202  Biso   1.000  H
  H946     1.0000 0.76409  0.98508  0.12198  Biso   1.000  H
  H947     1.0000 0.76408  0.98503  0.12202  Biso   1.000  H
  C1355    1.0000 0.75489  0.72987  0.96688  Biso   1.000  C
  C1356    1.0000 0.75487  0.72981  0.96688  Biso   1.000  C
  C1357    1.0000 0.92523  0.91147  0.10511  Biso   1.000  C
  H948     1.0000 0.90210  0.81604  0.03899  Biso   1.000  H
  C1358    1.0000 0.92521  0.91141  0.10511  Biso   1.000  C
  C1359    1.0000 0.94479  0.02123  0.17931  Biso   1.000  C
  C1360    1.0000 0.94477  0.02117  0.17931  Biso   1.000  C
  C1361    1.0000 0.74053  0.66894  0.01320  Biso   1.000  C
  C1362    1.0000 0.74046  0.66894  0.01320  Biso   1.000  C
  H949     1.0000 0.71611  0.70312  0.92000  Biso   1.000  H
  H950     1.0000 0.82609  0.75311  0.96798  Biso   1.000  H
  H951     1.0000 0.71604  0.70312  0.92000  Biso   1.000  H
  H952     1.0000 0.82605  0.75317  0.96798  Biso   1.000  H
  H953     1.0000 0.82603  0.75311  0.96798  Biso   1.000  H
  H954     1.0000 0.99714  0.92007  0.12397  Biso   1.000  H
  H955     1.0000 0.99713  0.92002  0.12402  Biso   1.000  H
  H956     1.0000 0.99707  0.92007  0.12397  Biso   1.000  H
  H957     1.0000 0.99709  0.92007  0.12402  Biso   1.000  H
  C1363    1.0000 0.92780  0.01372  0.23921  Biso   1.000  C
  C1364    1.0000 0.92774  0.01372  0.23921  Biso   1.000  C
  C1365    1.0000 0.01329  0.08642  0.16848  Biso   1.000  C
  C1366    1.0000 0.65692  0.62692  0.02541  Biso   1.000  C
  C1367    1.0000 0.65686  0.62692  0.02541  Biso   1.000  C
  C1368    1.0000 0.81869  0.65276  0.04208  Biso   1.000  C
  C1369    1.0000 0.81867  0.65270  0.04208  Biso   1.000  C
  O153     1.0000 0.85904  0.95126  0.25180  Biso   1.000  O
  O154     1.0000 0.85897  0.95126  0.25180  Biso   1.000  O
  C1370    1.0000 0.97941  0.07123  0.28837  Biso   1.000  C
  C1371    1.0000 0.97942  0.07123  0.28842  Biso   1.000  C
  C1372    1.0000 0.97934  0.07123  0.28837  Biso   1.000  C
  C1373    1.0000 0.97936  0.07123  0.28842  Biso   1.000  C
  O155     1.0000 0.02497  0.09278  0.10858  Biso   1.000  O
  C1374    1.0000 0.06492  0.14393  0.21769  Biso   1.000  C
  C1375    1.0000 0.06489  0.14387  0.21769  Biso   1.000  C
  C1376    1.0000 0.06485  0.14393  0.21769  Biso   1.000  C
  C1377    1.0000 0.56765  0.63323  0.98850  Biso   1.000  C
  C1378    1.0000 0.65150  0.56884  0.06659  Biso   1.000  C
  C1379    1.0000 0.65143  0.56884  0.06659  Biso   1.000  C
  C1380    1.0000 0.81330  0.59456  0.08331  Biso   1.000  C
  H958     1.0000 0.88313  0.68503  0.03301  Biso   1.000  H
  C1381    1.0000 0.81328  0.59450  0.08331  Biso   1.000  C
  H959     1.0000 0.88307  0.68503  0.03301  Biso   1.000  H
  C1382    1.0000 0.77999  0.95265  0.25759  Biso   1.000  C
  C1383    1.0000 0.95801  0.06664  0.34970  Biso   1.000  C
  C1384    1.0000 0.95795  0.06664  0.34970  Biso   1.000  C
  C1385    1.0000 0.04788  0.13630  0.27759  Biso   1.000  C
  C1386    1.0000 0.98386  0.13206  0.06588  Biso   1.000  C
  C1387    1.0000 0.98388  0.13207  0.06592  Biso   1.000  C
  C1388    1.0000 0.98388  0.13212  0.06588  Biso   1.000  C
  C1389    1.0000 0.13301  0.21319  0.19617  Biso   1.000  C
  C1390    1.0000 0.13303  0.21319  0.19622  Biso   1.000  C
  C1391    1.0000 0.13295  0.21319  0.19617  Biso   1.000  C
  C1392    1.0000 0.13297  0.21319  0.19622  Biso   1.000  C
  O156     1.0000 0.54337  0.61001  0.92451  Biso   1.000  O
  O157     1.0000 0.54339  0.61007  0.92451  Biso   1.000  O
  H960     1.0000 0.57808  0.69417  0.99201  Biso   1.000  H
  H961     1.0000 0.57805  0.69411  0.99201  Biso   1.000  H
  H962     1.0000 0.51409  0.60203  0.01101  Biso   1.000  H
  C1393    1.0000 0.72968  0.55253  0.09547  Biso   1.000  C
  H963     1.0000 0.58708  0.53602  0.07599  Biso   1.000  H
  C1394    1.0000 0.72969  0.55254  0.09552  Biso   1.000  C
  H964     1.0000 0.87411  0.58202  0.10602  Biso   1.000  H
  H965     1.0000 0.87407  0.58207  0.10602  Biso   1.000  H
  H966     1.0000 0.87405  0.58202  0.10602  Biso   1.000  H
  O158     1.0000 0.77660  0.97578  0.31920  Biso   1.000  O
  H967     1.0000 0.75812  0.99104  0.22501  Biso   1.000  H
  H968     1.0000 0.73214  0.89405  0.24401  Biso   1.000  H
  O159     1.0000 0.77666  0.97578  0.31920  Biso   1.000  O
  H969     1.0000 0.75814  0.99110  0.22501  Biso   1.000  H
  H970     1.0000 0.73207  0.89405  0.24401  Biso   1.000  H
  C1395    1.0000 0.88785  0.10020  0.35801  Biso   1.000  C
  H971     1.0000 0.93599  0.00404  0.34898  Biso   1.000  H
  C1396    1.0000 0.88791  0.10020  0.35801  Biso   1.000  C
  H972     1.0000 0.93597  0.00398  0.34898  Biso   1.000  H
  C1397    1.0000 0.88787  0.10026  0.35801  Biso   1.000  C
  H973     1.0000 0.93593  0.00404  0.34898  Biso   1.000  H
  C1398    1.0000 0.04075  0.10243  0.41159  Biso   1.000  C
  C1399    1.0000 0.04082  0.10243  0.41159  Biso   1.000  C
  H974     1.0000 0.08801  0.18103  0.31597  Biso   1.000  H
  H975     1.0000 0.08803  0.18104  0.31602  Biso   1.000  H
  H976     1.0000 0.08795  0.18103  0.31597  Biso   1.000  H
  H977     1.0000 0.08797  0.18104  0.31602  Biso   1.000  H
  H978     1.0000 0.96496  0.10301  0.01899  Biso   1.000  H
  H979     1.0000 0.92301  0.13299  0.07899  Biso   1.000  H
  H980     1.0000 0.96500  0.10295  0.01899  Biso   1.000  H
  H981     1.0000 0.92295  0.13299  0.07899  Biso   1.000  H
  O160     1.0000 0.04337  0.21240  0.06588  Biso   1.000  O
  O161     1.0000 0.04339  0.21241  0.06592  Biso   1.000  O
  C1400    1.0000 0.08338  0.27372  0.17817  Biso   1.000  C
  H982     1.0000 0.15796  0.19599  0.15898  Biso   1.000  H
  C1401    1.0000 0.21562  0.25131  0.25208  Biso   1.000  C
  C1402    1.0000 0.08339  0.27372  0.17822  Biso   1.000  C
  H983     1.0000 0.15802  0.19599  0.15898  Biso   1.000  H
  C1403    1.0000 0.21556  0.25131  0.25208  Biso   1.000  C
  C1404    1.0000 0.46698  0.62222  0.89150  Biso   1.000  C
  H984     1.0000 0.72510  0.50803  0.12701  Biso   1.000  H
  H985     1.0000 0.72503  0.50803  0.12701  Biso   1.000  H
  C1405    1.0000 0.79725  0.05142  0.33668  Biso   1.000  C
  C1406    1.0000 0.90788  0.17793  0.37668  Biso   1.000  C
  C1407    1.0000 0.90790  0.17794  0.37672  Biso   1.000  C
  H986     1.0000 0.07498  0.16305  0.40698  Biso   1.000  H
  H987     1.0000 0.01501  0.09702  0.45401  Biso   1.000  H
  C1408    1.0000 0.10548  0.05354  0.41591  Biso   1.000  C
  H988     1.0000 0.07496  0.16300  0.40698  Biso   1.000  H
  H989     1.0000 0.01495  0.09702  0.45401  Biso   1.000  H
  C1409    1.0000 0.04369  0.26562  0.11319  Biso   1.000  C
  C1410    1.0000 0.07837  0.33179  0.21679  Biso   1.000  C
  C1411    1.0000 0.07843  0.33179  0.21679  Biso   1.000  C
  H990     1.0000 0.19699  0.27101  0.29198  Biso   1.000  H
  H991     1.0000 0.24601  0.20804  0.26600  Biso   1.000  H
  C1412    1.0000 0.29498  0.32052  0.23327  Biso   1.000  C
  H992     1.0000 0.24599  0.20798  0.26600  Biso   1.000  H
  C1413    1.0000 0.29500  0.32053  0.23332  Biso   1.000  C
  H993     1.0000 0.24595  0.20804  0.26600  Biso   1.000  H
  C1414    1.0000 0.41447  0.66030  0.91098  Biso   1.000  C
  C1415    1.0000 0.41449  0.66031  0.91102  Biso   1.000  C
  C1416    1.0000 0.41443  0.66036  0.91098  Biso   1.000  C
  C1417    1.0000 0.41443  0.66031  0.91102  Biso   1.000  C
  C1418    1.0000 0.44200  0.58883  0.82942  Biso   1.000  C
  C1419    1.0000 0.44194  0.58883  0.82942  Biso   1.000  C
  C1420    1.0000 0.72671  0.08010  0.33421  Biso   1.000  C
  C1421    1.0000 0.72667  0.08015  0.33421  Biso   1.000  C
  C1422    1.0000 0.72664  0.08010  0.33421  Biso   1.000  C
  C1423    1.0000 0.83732  0.20673  0.37421  Biso   1.000  C
  H994     1.0000 0.97798  0.21601  0.39302  Biso   1.000  H
  C1424    1.0000 0.83726  0.20673  0.37421  Biso   1.000  C
  H995     1.0000 0.97801  0.21607  0.39302  Biso   1.000  H
  H996     1.0000 0.07113  0.99411  0.42299  Biso   1.000  H
  H997     1.0000 0.12499  0.05601  0.37197  Biso   1.000  H
  C1425    1.0000 0.18091  0.08773  0.47011  Biso   1.000  C
  H998     1.0000 0.12501  0.05601  0.37202  Biso   1.000  H
  H999     1.0000 0.12493  0.05601  0.37197  Biso   1.000  H
  C1426    1.0000 0.18085  0.08773  0.47011  Biso   1.000  C
  H1000    1.0000 0.12495  0.05601  0.37202  Biso   1.000  H
  C1427    1.0000 0.99908  0.31550  0.08701  Biso   1.000  C
  C1428    1.0000 0.99914  0.31550  0.08701  Biso   1.000  C
  C1429    1.0000 0.03384  0.38173  0.19061  Biso   1.000  C
  H1001    1.0000 0.10901  0.33803  0.26700  Biso   1.000  H
  C1430    1.0000 0.03378  0.38173  0.19061  Biso   1.000  C
  H1002    1.0000 0.32100  0.29903  0.19798  Biso   1.000  H
  C1431    1.0000 0.38382  0.36923  0.29360  Biso   1.000  C
  H1003    1.0000 0.32098  0.29897  0.19798  Biso   1.000  H
  C1432    1.0000 0.38376  0.36923  0.29360  Biso   1.000  C
  H1004    1.0000 0.26099  0.36004  0.21299  Biso   1.000  H
  C1433    1.0000 0.33698  0.66484  0.86851  Biso   1.000  C
  H1005    1.0000 0.43405  0.68614  0.95900  Biso   1.000  H
  H1006    1.0000 0.43412  0.68614  0.95900  Biso   1.000  H
  C1434    1.0000 0.36447  0.59331  0.78690  Biso   1.000  C
  H1007    1.0000 0.48303  0.55910  0.81398  Biso   1.000  H
  C1435    1.0000 0.74668  0.15783  0.35288  Biso   1.000  C
  C1436    1.0000 0.62778  0.02700  0.31250  Biso   1.000  C
  C1437    1.0000 0.85652  0.29305  0.39340  Biso   1.000  C
  C1438    1.0000 0.85646  0.29305  0.39340  Biso   1.000  C
  C1439    1.0000 0.18309  0.10697  0.53258  Biso   1.000  C
  C1440    1.0000 0.25828  0.12022  0.44731  Biso   1.000  C
  C1441    1.0000 0.18309  0.10692  0.53262  Biso   1.000  C
  C1442    1.0000 0.25830  0.12027  0.44731  Biso   1.000  C
  C1443    1.0000 0.18311  0.10697  0.53262  Biso   1.000  C
  C1444    1.0000 0.26256  0.09647  0.53148  Biso   1.000  C
  C1445    1.0000 0.99414  0.37363  0.12559  Biso   1.000  C
  C1446    1.0000 0.96214  0.31989  0.01771  Biso   1.000  C
  C1447    1.0000 0.99412  0.37357  0.12559  Biso   1.000  C
  C1448    1.0000 0.99408  0.37363  0.12559  Biso   1.000  C
  C1449    1.0000 0.96208  0.31989  0.01771  Biso   1.000  C
  C1450    1.0000 0.02633  0.43809  0.23930  Biso   1.000  C
  C1451    1.0000 0.02629  0.43815  0.23930  Biso   1.000  C
  C1452    1.0000 0.02627  0.43809  0.23930  Biso   1.000  C
  C1453    1.0000 0.45043  0.33475  0.30618  Biso   1.000  C
  C1454    1.0000 0.38854  0.42854  0.33559  Biso   1.000  C
  C1455    1.0000 0.45041  0.33469  0.30618  Biso   1.000  C
  C1456    1.0000 0.45037  0.33475  0.30618  Biso   1.000  C
  C1457    1.0000 0.38848  0.42854  0.33559  Biso   1.000  C
  C1458    1.0000 0.31200  0.63133  0.80638  Biso   1.000  C
  C1459    1.0000 0.31194  0.63133  0.80638  Biso   1.000  C
  H1008    1.0000 0.29610  0.69412  0.88400  Biso   1.000  H
  H1009    1.0000 0.29603  0.69412  0.88400  Biso   1.000  H
  H1010    1.0000 0.34507  0.56708  0.73897  Biso   1.000  H
  H1011    1.0000 0.34509  0.56708  0.73902  Biso   1.000  H
  H1012    1.0000 0.34503  0.56714  0.73897  Biso   1.000  H
  H1013    1.0000 0.34503  0.56708  0.73902  Biso   1.000  H
  O162     1.0000 0.67396  0.18153  0.35179  Biso   1.000  O
  O163     1.0000 0.67403  0.18153  0.35179  Biso   1.000  O
  C1460    1.0000 0.59470  0.98135  0.35820  Biso   1.000  C
  C1461    1.0000 0.59472  0.98141  0.35820  Biso   1.000  C
  C1462    1.0000 0.56898  0.02672  0.25408  Biso   1.000  C
  C1463    1.0000 0.56900  0.02672  0.25412  Biso   1.000  C
  C1464    1.0000 0.86101  0.33316  0.32989  Biso   1.000  C
  C1465    1.0000 0.86099  0.33310  0.32989  Biso   1.000  C
  H1014    1.0000 0.80200  0.30105  0.41097  Biso   1.000  H
  C1466    1.0000 0.93517  0.32221  0.45847  Biso   1.000  C
  H1015    1.0000 0.80201  0.30105  0.41102  Biso   1.000  H
  C1467    1.0000 0.93519  0.32222  0.45852  Biso   1.000  C
  C1468    1.0000 0.93519  0.32227  0.45847  Biso   1.000  C
  C1469    1.0000 0.26270  0.15858  0.57219  Biso   1.000  C
  H1016    1.0000 0.12297  0.08208  0.55001  Biso   1.000  H
  C1470    1.0000 0.26268  0.15852  0.57219  Biso   1.000  C
  H1017    1.0000 0.12301  0.08202  0.55001  Biso   1.000  H
  C1471    1.0000 0.33787  0.17182  0.48688  Biso   1.000  C
  H1018    1.0000 0.25699  0.10502  0.39900  Biso   1.000  H
  H1019    1.0000 0.25693  0.10502  0.39900  Biso   1.000  H
  C1472    1.0000 0.34007  0.19107  0.54939  Biso   1.000  C
  C1473    1.0000 0.34011  0.19101  0.54939  Biso   1.000  C
  O164     1.0000 0.95344  0.42840  0.10459  Biso   1.000  O
  O165     1.0000 0.95338  0.42840  0.10459  Biso   1.000  O
  C1474    1.0000 0.89988  0.25177  0.98318  Biso   1.000  C
  C1475    1.0000 0.98673  0.38786  0.98769  Biso   1.000  C
  C1476    1.0000 0.89986  0.25172  0.98318  Biso   1.000  C
  C1477    1.0000 0.98666  0.38786  0.98769  Biso   1.000  C
  C1478    1.0000 0.93758  0.40260  0.25370  Biso   1.000  C
  C1479    1.0000 0.93764  0.40260  0.25370  Biso   1.000  C
  H1020    1.0000 0.02501  0.49104  0.21997  Biso   1.000  H
  C1480    1.0000 0.11644  0.48121  0.29079  Biso   1.000  C
  H1021    1.0000 0.02501  0.49099  0.22002  Biso   1.000  H
  C1481    1.0000 0.11638  0.48121  0.29079  Biso   1.000  C
  H1022    1.0000 0.02503  0.49104  0.22002  Biso   1.000  H
  C1482    1.0000 0.52181  0.35953  0.36081  Biso   1.000  C
  H1023    1.0000 0.44702  0.28903  0.27398  Biso   1.000  H
  H1024    1.0000 0.44696  0.28903  0.27398  Biso   1.000  H
  C1483    1.0000 0.45980  0.45332  0.39021  Biso   1.000  C
  H1025    1.0000 0.33703  0.45505  0.32599  Biso   1.000  H
  H1026    1.0000 0.33701  0.45500  0.32599  Biso   1.000  H
  H1027    1.0000 0.33697  0.45505  0.32599  Biso   1.000  H
  C1484    1.0000 0.22580  0.63153  0.76377  Biso   1.000  C
  C1485    1.0000 0.22582  0.63153  0.76382  Biso   1.000  C
  C1486    1.0000 0.22574  0.63153  0.76377  Biso   1.000  C
  C1487    1.0000 0.22576  0.63153  0.76382  Biso   1.000  C
  C1488    1.0000 0.64823  0.22225  0.29801  Biso   1.000  C
  C1489    1.0000 0.64820  0.22219  0.29801  Biso   1.000  C
  C1490    1.0000 0.64816  0.22225  0.29801  Biso   1.000  C
  C1491    1.0000 0.50273  0.93538  0.34561  Biso   1.000  C
  H1028    1.0000 0.64015  0.98209  0.40299  Biso   1.000  H
  H1029    1.0000 0.64009  0.98209  0.40299  Biso   1.000  H
  C1492    1.0000 0.47714  0.98068  0.24139  Biso   1.000  C
  C1493    1.0000 0.47708  0.98068  0.24139  Biso   1.000  C
  H1030    1.0000 0.59496  0.06200  0.21897  Biso   1.000  H
  H1031    1.0000 0.59498  0.06201  0.21902  Biso   1.000  H
  C1494    1.0000 0.77773  0.33361  0.29279  Biso   1.000  C
  C1495    1.0000 0.77766  0.33361  0.29279  Biso   1.000  C
  C1496    1.0000 0.94088  0.36763  0.31041  Biso   1.000  C
  C1497    1.0000 0.94095  0.36763  0.31041  Biso   1.000  C
  H1032    1.0000 0.99599  0.31603  0.45102  Biso   1.000  H
  H1033    1.0000 0.92003  0.29404  0.49999  Biso   1.000  H
  C1498    1.0000 0.95120  0.40113  0.45809  Biso   1.000  C
  H1034    1.0000 0.91996  0.29404  0.49999  Biso   1.000  H
  H1035    1.0000 0.26400  0.17308  0.62097  Biso   1.000  H
  H1036    1.0000 0.26399  0.17303  0.62102  Biso   1.000  H
  H1037    1.0000 0.26402  0.17309  0.62102  Biso   1.000  H
  H1038    1.0000 0.39798  0.19707  0.46897  Biso   1.000  H
  H1039    1.0000 0.39797  0.19701  0.46902  Biso   1.000  H
  H1040    1.0000 0.40198  0.23107  0.57998  Biso   1.000  H
  C1499    1.0000 0.86555  0.41002  0.11100  Biso   1.000  C
  C1500    1.0000 0.86553  0.40996  0.11100  Biso   1.000  C
  C1501    1.0000 0.86549  0.41002  0.11100  Biso   1.000  C
  C1502    1.0000 0.86226  0.25122  0.91867  Biso   1.000  C
  C1503    1.0000 0.86234  0.25123  0.91872  Biso   1.000  C
  C1504    1.0000 0.86228  0.25128  0.91867  Biso   1.000  C
  C1505    1.0000 0.86227  0.25123  0.91872  Biso   1.000  C
  H1041    1.0000 0.88097  0.19898  0.00698  Biso   1.000  H
  H1042    1.0000 0.88098  0.19898  0.00702  Biso   1.000  H
  C1506    1.0000 0.94911  0.38725  0.92309  Biso   1.000  C
  H1043    1.0000 0.03504  0.44101  0.01401  Biso   1.000  H
  H1044    1.0000 0.03498  0.44101  0.01401  Biso   1.000  H
  C1507    1.0000 0.85419  0.40312  0.21660  Biso   1.000  C
  H1045    1.0000 0.17105  0.50401  0.26799  Biso   1.000  H
  H1046    1.0000 0.13005  0.43905  0.32101  Biso   1.000  H
  C1508    1.0000 0.11181  0.53671  0.32020  Biso   1.000  C
  H1047    1.0000 0.17099  0.50401  0.26799  Biso   1.000  H
  H1048    1.0000 0.12999  0.43905  0.32101  Biso   1.000  H
  C1509    1.0000 0.52653  0.41884  0.40280  Biso   1.000  C
  H1049    1.0000 0.57300  0.33302  0.37098  Biso   1.000  H
  H1050    1.0000 0.57302  0.33303  0.37102  Biso   1.000  H
  C1510    1.0000 0.52647  0.41884  0.40280  Biso   1.000  C
  H1051    1.0000 0.57294  0.33302  0.37098  Biso   1.000  H
  H1052    1.0000 0.46302  0.49905  0.42299  Biso   1.000  H
  C1511    1.0000 0.22236  0.66652  0.70720  Biso   1.000  C
  C1512    1.0000 0.14589  0.59701  0.78339  Biso   1.000  C
  C1513    1.0000 0.14583  0.59701  0.78339  Biso   1.000  C
  O166     1.0000 0.69485  0.30435  0.31241  Biso   1.000  O
  O167     1.0000 0.69482  0.30429  0.31241  Biso   1.000  O
  O168     1.0000 0.69478  0.30435  0.31241  Biso   1.000  O
  H1053    1.0000 0.66398  0.20104  0.25797  Biso   1.000  H
  H1054    1.0000 0.57601  0.21104  0.28799  Biso   1.000  H
  H1055    1.0000 0.66398  0.20099  0.25802  Biso   1.000  H
  H1056    1.0000 0.57599  0.21099  0.28799  Biso   1.000  H
  H1057    1.0000 0.57595  0.21104  0.28799  Biso   1.000  H
  H1058    1.0000 0.66400  0.20104  0.25802  Biso   1.000  H
  C1514    1.0000 0.44392  0.93497  0.28709  Biso   1.000  C
  H1059    1.0000 0.47714  0.90007  0.38100  Biso   1.000  H
  H1060    1.0000 0.47708  0.90007  0.38100  Biso   1.000  H
  H1061    1.0000 0.43209  0.98005  0.19598  Biso   1.000  H
  C1515    1.0000 0.77428  0.36860  0.23622  Biso   1.000  C
  C1516    1.0000 0.77434  0.36860  0.23622  Biso   1.000  C
  H1062    1.0000 0.00499  0.36704  0.33901  Biso   1.000  H
  H1063    1.0000 0.96103  0.42601  0.41501  Biso   1.000  H
  H1064    1.0000 0.89003  0.40505  0.46698  Biso   1.000  H
  H1065    1.0000 0.89005  0.40506  0.46702  Biso   1.000  H
  H1066    1.0000 0.96099  0.42607  0.41501  Biso   1.000  H
  H1067    1.0000 0.88997  0.40505  0.46698  Biso   1.000  H
  H1068    1.0000 0.96096  0.42601  0.41501  Biso   1.000  H
  H1069    1.0000 0.88999  0.40506  0.46702  Biso   1.000  H
  C1517    1.0000 0.01621  0.43288  0.51110  Biso   1.000  C
  C1518    1.0000 0.01619  0.43282  0.51110  Biso   1.000  C
  O169     1.0000 0.85509  0.44101  0.16387  Biso   1.000  O
  O170     1.0000 0.85511  0.44101  0.16392  Biso   1.000  O
  H1070    1.0000 0.83100  0.43202  0.07101  Biso   1.000  H
  H1071    1.0000 0.83403  0.34798  0.10701  Biso   1.000  H
  H1072    1.0000 0.83098  0.43196  0.07101  Biso   1.000  H
  H1073    1.0000 0.83396  0.34798  0.10701  Biso   1.000  H
  C1519    1.0000 0.88692  0.31896  0.88860  Biso   1.000  C
  H1074    1.0000 0.81397  0.19815  0.89198  Biso   1.000  H
  H1075    1.0000 0.81399  0.19816  0.89202  Biso   1.000  H
  C1520    1.0000 0.88686  0.31896  0.88860  Biso   1.000  C
  H1076    1.0000 0.96805  0.44018  0.90000  Biso   1.000  H
  H1077    1.0000 0.96803  0.44012  0.90000  Biso   1.000  H
  H1078    1.0000 0.96799  0.44018  0.90000  Biso   1.000  H
  H1079    1.0000 0.96797  0.44012  0.90000  Biso   1.000  H
  H1080    1.0000 0.08902  0.57405  0.28799  Biso   1.000  H
  H1081    1.0000 0.06003  0.51003  0.34599  Biso   1.000  H
  C1521    1.0000 0.19935  0.59683  0.37620  Biso   1.000  C
  H1082    1.0000 0.08900  0.57399  0.28799  Biso   1.000  H
  H1083    1.0000 0.05997  0.51003  0.34599  Biso   1.000  H
  C1522    1.0000 0.19929  0.59683  0.37620  Biso   1.000  C
  H1084    1.0000 0.58200  0.43803  0.44498  Biso   1.000  H
  C1523    1.0000 0.13908  0.66697  0.67010  Biso   1.000  C
  C1524    1.0000 0.13904  0.66703  0.67010  Biso   1.000  C
  O171     1.0000 0.30524  0.69578  0.68758  Biso   1.000  O
  O172     1.0000 0.30530  0.69578  0.68758  Biso   1.000  O
  O173     1.0000 0.30526  0.69584  0.68758  Biso   1.000  O
  C1525    1.0000 0.06251  0.59753  0.74629  Biso   1.000  C
  C1526    1.0000 0.06249  0.59747  0.74629  Biso   1.000  C
  C1527    1.0000 0.06245  0.59753  0.74629  Biso   1.000  C
  O174     1.0000 0.14499  0.55912  0.83611  Biso   1.000  O
  O175     1.0000 0.14493  0.55912  0.83611  Biso   1.000  O
  O176     1.0000 0.34541  0.89818  0.24800  Biso   1.000  O
  C1528    1.0000 0.33244  0.88987  0.29231  Biso   1.000  C
  O177     1.0000 0.34538  0.89813  0.24800  Biso   1.000  O
  C1529    1.0000 0.33238  0.88987  0.29231  Biso   1.000  C
  C1530    1.0000 0.68808  0.36880  0.19361  Biso   1.000  C
  C1531    1.0000 0.68814  0.36880  0.19361  Biso   1.000  C
  C1532    1.0000 0.02991  0.41436  0.57371  Biso   1.000  C
  C1533    1.0000 0.08735  0.48627  0.49111  Biso   1.000  C
  C1534    1.0000 0.08729  0.48627  0.49111  Biso   1.000  C
  C1535    1.0000 0.06700  0.41288  0.55561  Biso   1.000  C
  O178     1.0000 0.85594  0.33096  0.82448  Biso   1.000  O
  O179     1.0000 0.85593  0.33091  0.82452  Biso   1.000  O
  O180     1.0000 0.85587  0.33096  0.82448  Biso   1.000  O
  O181     1.0000 0.85587  0.33091  0.82452  Biso   1.000  O
  C1536    1.0000 0.22478  0.64918  0.42931  Biso   1.000  C
  C1537    1.0000 0.26585  0.57812  0.35511  Biso   1.000  C
  C1538    1.0000 0.22475  0.64912  0.42931  Biso   1.000  C
  C1539    1.0000 0.22471  0.64918  0.42931  Biso   1.000  C
  C1540    1.0000 0.26581  0.57817  0.35511  Biso   1.000  C
  C1541    1.0000 0.22469  0.64912  0.42931  Biso   1.000  C
  C1542    1.0000 0.26579  0.57812  0.35511  Biso   1.000  C
  C1543    1.0000 0.28060  0.58232  0.43601  Biso   1.000  C
  C1544    1.0000 0.14356  0.70708  0.60659  Biso   1.000  C
  C1545    1.0000 0.05920  0.63250  0.68957  Biso   1.000  C
  C1546    1.0000 0.05922  0.63251  0.68962  Biso   1.000  C
  C1547    1.0000 0.05914  0.63250  0.68957  Biso   1.000  C
  C1548    1.0000 0.05915  0.63251  0.68962  Biso   1.000  C
  C1549    1.0000 0.35186  0.77788  0.70197  Biso   1.000  C
  C1550    1.0000 0.35188  0.77789  0.70202  Biso   1.000  C
  C1551    1.0000 0.35188  0.77794  0.70197  Biso   1.000  C
  C1552    1.0000 0.97375  0.56204  0.76068  Biso   1.000  C
  C1553    1.0000 0.97373  0.56198  0.76068  Biso   1.000  C
  C1554    1.0000 0.13454  0.59011  0.88898  Biso   1.000  C
  H1085    1.0000 0.36213  0.94008  0.32599  Biso   1.000  H
  H1086    1.0000 0.34308  0.84104  0.31497  Biso   1.000  H
  H1087    1.0000 0.34310  0.84105  0.31502  Biso   1.000  H
  H1088    1.0000 0.36207  0.94008  0.32599  Biso   1.000  H
  H1089    1.0000 0.34310  0.84110  0.31497  Biso   1.000  H
  C1555    1.0000 0.66311  0.33529  0.13148  Biso   1.000  C
  C1556    1.0000 0.66312  0.33529  0.13152  Biso   1.000  C
  C1557    1.0000 0.66304  0.33529  0.13148  Biso   1.000  C
  C1558    1.0000 0.66306  0.33529  0.13152  Biso   1.000  C
  C1559    1.0000 0.63562  0.40682  0.21308  Biso   1.000  C
  C1560    1.0000 0.63556  0.40682  0.21308  Biso   1.000  C
  H1090    1.0000 0.97701  0.37007  0.59100  Biso   1.000  H
  C1561    1.0000 0.99851  0.34296  0.55751  Biso   1.000  C
  C1562    1.0000 0.11460  0.44936  0.61641  Biso   1.000  C
  C1563    1.0000 0.12604  0.45439  0.61181  Biso   1.000  C
  C1564    1.0000 0.17204  0.52127  0.53381  Biso   1.000  C
  H1091    1.0000 0.06805  0.48307  0.43501  Biso   1.000  H
  H1092    1.0000 0.06803  0.48301  0.43501  Biso   1.000  H
  H1093    1.0000 0.06799  0.48307  0.43501  Biso   1.000  H
  C1565    1.0000 0.79679  0.26183  0.78291  Biso   1.000  C
  C1566    1.0000 0.31645  0.68287  0.46128  Biso   1.000  C
  C1567    1.0000 0.31645  0.68282  0.46132  Biso   1.000  C
  C1568    1.0000 0.31639  0.68287  0.46128  Biso   1.000  C
  C1569    1.0000 0.31641  0.68288  0.46132  Biso   1.000  C
  H1094    1.0000 0.22804  0.63707  0.47002  Biso   1.000  H
  C1570    1.0000 0.35772  0.61181  0.38708  Biso   1.000  C
  C1571    1.0000 0.35774  0.61187  0.38708  Biso   1.000  C
  C1572    1.0000 0.38602  0.60977  0.44427  Biso   1.000  C
  C1573    1.0000 0.06491  0.67792  0.54151  Biso   1.000  C
  C1574    1.0000 0.06489  0.67786  0.54151  Biso   1.000  C
  C1575    1.0000 0.06485  0.67792  0.54151  Biso   1.000  C
  C1576    1.0000 0.06483  0.67786  0.54151  Biso   1.000  C
  C1577    1.0000 0.16277  0.79340  0.62578  Biso   1.000  C
  H1095    1.0000 0.19809  0.69908  0.58901  Biso   1.000  H
  H1096    1.0000 0.99509  0.63309  0.66098  Biso   1.000  H
  H1097    1.0000 0.99503  0.63309  0.66098  Biso   1.000  H
  O182     1.0000 0.32612  0.81860  0.64820  Biso   1.000  O
  O183     1.0000 0.32606  0.81860  0.64820  Biso   1.000  O
  H1098    1.0000 0.33610  0.79909  0.74201  Biso   1.000  H
  H1099    1.0000 0.42407  0.78909  0.71199  Biso   1.000  H
  H1100    1.0000 0.33606  0.79915  0.74201  Biso   1.000  H
  H1101    1.0000 0.42409  0.78914  0.71199  Biso   1.000  H
  H1102    1.0000 0.33604  0.79909  0.74201  Biso   1.000  H
  C1578    1.0000 0.96624  0.61840  0.80937  Biso   1.000  C
  H1103    1.0000 0.97507  0.50909  0.78002  Biso   1.000  H
  C1579    1.0000 0.88364  0.51892  0.70919  Biso   1.000  C
  C1580    1.0000 0.96626  0.61840  0.80942  Biso   1.000  C
  C1581    1.0000 0.88370  0.51892  0.70919  Biso   1.000  C
  H1104    1.0000 0.97503  0.50915  0.78002  Biso   1.000  H
  O184     1.0000 0.04664  0.57173  0.89540  Biso   1.000  O
  H1105    1.0000 0.16908  0.56811  0.92898  Biso   1.000  H
  H1106    1.0000 0.16606  0.65215  0.89297  Biso   1.000  H
  O185     1.0000 0.04670  0.57173  0.89540  Biso   1.000  O
  H1107    1.0000 0.16607  0.65215  0.89302  Biso   1.000  H
  H1108    1.0000 0.16902  0.56811  0.92898  Biso   1.000  H
  C1582    1.0000 0.58561  0.33983  0.08901  Biso   1.000  C
  C1583    1.0000 0.58559  0.33977  0.08901  Biso   1.000  C
  H1109    1.0000 0.70399  0.30601  0.11599  Biso   1.000  H
  C1584    1.0000 0.55808  0.41130  0.17057  Biso   1.000  C
  C1585    1.0000 0.55810  0.41130  0.17062  Biso   1.000  C
  H1110    1.0000 0.65501  0.43305  0.26101  Biso   1.000  H
  H1111    1.0000 0.65499  0.43299  0.26101  Biso   1.000  H
  C1586    1.0000 0.98893  0.31454  0.61561  Biso   1.000  C
  C1587    1.0000 0.18562  0.50275  0.59642  Biso   1.000  C
  H1112    1.0000 0.13400  0.42707  0.65898  Biso   1.000  H
  H1113    1.0000 0.13401  0.42707  0.65902  Biso   1.000  H
  C1588    1.0000 0.11653  0.42597  0.66990  Biso   1.000  C
  H1114    1.0000 0.22504  0.54006  0.50398  Biso   1.000  H
  H1115    1.0000 0.22498  0.54006  0.50398  Biso   1.000  H
  C1589    1.0000 0.84981  0.20862  0.76847  Biso   1.000  C
  H1116    1.0000 0.74902  0.22815  0.80899  Biso   1.000  H
  H1117    1.0000 0.75896  0.27710  0.73997  Biso   1.000  H
  C1590    1.0000 0.84983  0.20862  0.76852  Biso   1.000  C
  H1118    1.0000 0.75898  0.27711  0.74002  Biso   1.000  H
  C1591    1.0000 0.84975  0.20862  0.76847  Biso   1.000  C
  H1119    1.0000 0.74896  0.22815  0.80899  Biso   1.000  H
  H1120    1.0000 0.75899  0.27716  0.73997  Biso   1.000  H
  C1592    1.0000 0.84977  0.20862  0.76852  Biso   1.000  C
  C1593    1.0000 0.38291  0.66422  0.44019  Biso   1.000  C
  C1594    1.0000 0.38293  0.66428  0.44019  Biso   1.000  C
  C1595    1.0000 0.43317  0.67566  0.38499  Biso   1.000  C
  C1596    1.0000 0.04888  0.59900  0.54189  Biso   1.000  C
  H1121    1.0000 0.00410  0.68410  0.54897  Biso   1.000  H
  H1122    1.0000 0.08006  0.70609  0.50000  Biso   1.000  H
  H1123    1.0000 0.00409  0.68405  0.54902  Biso   1.000  H
  H1124    1.0000 0.08012  0.70609  0.50000  Biso   1.000  H
  H1125    1.0000 0.00404  0.68410  0.54897  Biso   1.000  H
  H1126    1.0000 0.00405  0.68411  0.54902  Biso   1.000  H
  C1597    1.0000 0.25341  0.84230  0.64711  Biso   1.000  C
  C1598    1.0000 0.09220  0.82220  0.62331  Biso   1.000  C
  C1599    1.0000 0.25335  0.84230  0.64711  Biso   1.000  C
  C1600    1.0000 0.09214  0.82220  0.62331  Biso   1.000  C
  C1601    1.0000 0.92172  0.66834  0.78320  Biso   1.000  C
  C1602    1.0000 0.92169  0.66828  0.78320  Biso   1.000  C
  C1603    1.0000 0.92165  0.66834  0.78320  Biso   1.000  C
  C1604    1.0000 0.00594  0.62650  0.87440  Biso   1.000  C
  C1605    1.0000 0.00597  0.62656  0.87440  Biso   1.000  C
  H1127    1.0000 0.82904  0.49612  0.73199  Biso   1.000  H
  H1128    1.0000 0.87003  0.56108  0.67898  Biso   1.000  H
  C1606    1.0000 0.88828  0.46342  0.67979  Biso   1.000  C
  H1129    1.0000 0.82910  0.49612  0.73199  Biso   1.000  H
  H1130    1.0000 0.87009  0.56108  0.67898  Biso   1.000  H
  C1607    1.0000 0.88821  0.46342  0.67979  Biso   1.000  C
  C1608    1.0000 0.53311  0.37791  0.10849  Biso   1.000  C
  H1131    1.0000 0.56603  0.31399  0.04099  Biso   1.000  H
  H1132    1.0000 0.56597  0.31399  0.04099  Biso   1.000  H
  H1133    1.0000 0.51705  0.44103  0.18601  Biso   1.000  H
  H1134    1.0000 0.51699  0.44103  0.18601  Biso   1.000  H
  C1609    1.0000 0.04790  0.35609  0.67171  Biso   1.000  C
  H1135    1.0000 0.25802  0.51206  0.61599  Biso   1.000  H
  H1136    1.0000 0.25796  0.51206  0.61599  Biso   1.000  H
  C1610    1.0000 0.94492  0.23335  0.78249  Biso   1.000  C
  C1611    1.0000 0.79779  0.13720  0.73441  Biso   1.000  C
  C1612    1.0000 0.94490  0.23329  0.78249  Biso   1.000  C
  C1613    1.0000 0.94486  0.23335  0.78249  Biso   1.000  C
  H1137    1.0000 0.48901  0.67104  0.43401  Biso   1.000  H
  H1138    1.0000 0.11005  0.59508  0.53301  Biso   1.000  H
  C1614    1.0000 0.98387  0.56725  0.48888  Biso   1.000  C
  C1615    1.0000 0.98383  0.56731  0.48888  Biso   1.000  C
  C1616    1.0000 0.98381  0.56725  0.48888  Biso   1.000  C
  H1139    1.0000 0.03906  0.57412  0.58498  Biso   1.000  H
  H1140    1.0000 0.03905  0.57406  0.58502  Biso   1.000  H
  C1617    1.0000 0.27338  0.92003  0.66578  Biso   1.000  C
  C1618    1.0000 0.27337  0.91998  0.66582  Biso   1.000  C
  C1619    1.0000 0.11223  0.89993  0.64198  Biso   1.000  C
  H1141    1.0000 0.02210  0.78412  0.60697  Biso   1.000  H
  C1620    1.0000 0.11221  0.89987  0.64198  Biso   1.000  C
  H1142    1.0000 0.02210  0.78406  0.60702  Biso   1.000  H
  C1621    1.0000 0.11217  0.89993  0.64198  Biso   1.000  C
  H1143    1.0000 0.02204  0.78412  0.60697  Biso   1.000  H
  C1622    1.0000 0.11215  0.89987  0.64198  Biso   1.000  C
  H1144    1.0000 0.02206  0.78412  0.60702  Biso   1.000  H
  C1623    1.0000 0.91671  0.72641  0.82182  Biso   1.000  C
  H1145    1.0000 0.89108  0.66210  0.73299  Biso   1.000  H
  C1624    1.0000 0.91664  0.72641  0.82182  Biso   1.000  C
  C1625    1.0000 0.00100  0.68463  0.91297  Biso   1.000  C
  C1626    1.0000 0.00102  0.68464  0.91302  Biso   1.000  C
  C1627    1.0000 0.00094  0.68463  0.91297  Biso   1.000  C
  C1628    1.0000 0.00096  0.68464  0.91302  Biso   1.000  C
  H1146    1.0000 0.91106  0.42608  0.71199  Biso   1.000  H
  H1147    1.0000 0.94005  0.49010  0.65399  Biso   1.000  H
  C1629    1.0000 0.80073  0.40330  0.62378  Biso   1.000  C
  C1630    1.0000 0.80079  0.40330  0.62378  Biso   1.000  C
  H1148    1.0000 0.91100  0.42608  0.71199  Biso   1.000  H
  O186     1.0000 0.45672  0.39012  0.07547  Biso   1.000  O
  O187     1.0000 0.45671  0.39007  0.07552  Biso   1.000  O
  C1631    1.0000 0.98798  0.18673  0.76249  Biso   1.000  C
  H1149    1.0000 0.98500  0.28813  0.80899  Biso   1.000  H
  C1632    1.0000 0.84089  0.09063  0.71427  Biso   1.000  C
  C1633    1.0000 0.84091  0.09063  0.71432  Biso   1.000  C
  C1634    1.0000 0.97017  0.58577  0.42627  Biso   1.000  C
  C1635    1.0000 0.91273  0.51386  0.50888  Biso   1.000  C
  C1636    1.0000 0.97019  0.58577  0.42632  Biso   1.000  C
  C1637    1.0000 0.93304  0.58725  0.44442  Biso   1.000  C
  C1638    1.0000 0.37231  0.97313  0.68748  Biso   1.000  C
  C1639    1.0000 0.20283  0.94871  0.66331  Biso   1.000  C
  C1640    1.0000 0.20277  0.94871  0.66331  Biso   1.000  C
  C1641    1.0000 0.04207  0.93349  0.65029  Biso   1.000  C
  C1642    1.0000 0.86707  0.78694  0.80381  Biso   1.000  C
  C1643    1.0000 0.86711  0.78689  0.80381  Biso   1.000  C
  C1644    1.0000 0.95639  0.73451  0.88680  Biso   1.000  C
  C1645    1.0000 0.95633  0.73451  0.88680  Biso   1.000  C
  C1646    1.0000 0.03794  0.68024  0.98227  Biso   1.000  C
  C1647    1.0000 0.03802  0.68024  0.98232  Biso   1.000  C
  C1648    1.0000 0.03796  0.68024  0.98232  Biso   1.000  C
  C1649    1.0000 0.77531  0.35095  0.57068  Biso   1.000  C
  C1650    1.0000 0.73423  0.42201  0.64487  Biso   1.000  C
  C1651    1.0000 0.73429  0.42196  0.64492  Biso   1.000  C
  C1652    1.0000 0.77533  0.35101  0.57068  Biso   1.000  C
  C1653    1.0000 0.73425  0.42202  0.64492  Biso   1.000  C
  C1654    1.0000 0.71942  0.41781  0.56398  Biso   1.000  C
  C1655    1.0000 0.43243  0.36690  0.01149  Biso   1.000  C
  C1656    1.0000 0.43237  0.36690  0.01149  Biso   1.000  C
  C1657    1.0000 0.93601  0.11542  0.72829  Biso   1.000  C
  C1658    1.0000 0.93595  0.11542  0.72829  Biso   1.000  C
  H1150    1.0000 0.06200  0.20612  0.77299  Biso   1.000  H
  H1151    1.0000 0.80097  0.03513  0.68801  Biso   1.000  H
  C1659    1.0000 0.88549  0.55077  0.38357  Biso   1.000  C
  C1660    1.0000 0.88551  0.55078  0.38362  Biso   1.000  C
  C1661    1.0000 0.88543  0.55077  0.38357  Biso   1.000  C
  C1662    1.0000 0.88544  0.55078  0.38362  Biso   1.000  C
  C1663    1.0000 0.87404  0.54574  0.38818  Biso   1.000  C
  H1152    1.0000 0.02307  0.63006  0.40898  Biso   1.000  H
  H1153    1.0000 0.02301  0.63006  0.40898  Biso   1.000  H
  C1664    1.0000 0.00159  0.65718  0.44252  Biso   1.000  C
  C1665    1.0000 0.82805  0.47886  0.46618  Biso   1.000  C
  H1154    1.0000 0.93203  0.51706  0.56498  Biso   1.000  H
  C1666    1.0000 0.82807  0.47887  0.46622  Biso   1.000  C
  H1155    1.0000 0.93206  0.51712  0.56498  Biso   1.000  H
  C1667    1.0000 0.43110  0.97341  0.74591  Biso   1.000  C
  C1668    1.0000 0.40541  0.01883  0.64179  Biso   1.000  C
  C1669    1.0000 0.40539  0.01878  0.64179  Biso   1.000  C
  C1670    1.0000 0.40535  0.01883  0.64179  Biso   1.000  C
  C1671    1.0000 0.40532  0.01878  0.64179  Biso   1.000  C
  O188     1.0000 0.22351  0.02441  0.68079  Biso   1.000  O
  O189     1.0000 0.22345  0.02441  0.68079  Biso   1.000  O
  C1672    1.0000 0.02068  0.92890  0.71161  Biso   1.000  C
  H1156    1.0000 0.06409  0.99609  0.65100  Biso   1.000  H
  C1673    1.0000 0.95933  0.89770  0.58840  Biso   1.000  C
  C1674    1.0000 0.95927  0.89770  0.58840  Biso   1.000  C
  C1675    1.0000 0.93517  0.85620  0.78230  Biso   1.000  C
  C1676    1.0000 0.93519  0.85626  0.78230  Biso   1.000  C
  H1157    1.0000 0.84213  0.80414  0.84101  Biso   1.000  H
  C1677    1.0000 0.78446  0.74882  0.74790  Biso   1.000  C
  H1158    1.0000 0.84206  0.80414  0.84101  Biso   1.000  H
  O190     1.0000 0.95671  0.78773  0.93411  Biso   1.000  O
  O191     1.0000 0.95665  0.78773  0.93411  Biso   1.000  O
  C1678    1.0000 0.10022  0.74841  0.01681  Biso   1.000  C
  C1679    1.0000 0.01338  0.61232  0.01230  Biso   1.000  C
  C1680    1.0000 0.10016  0.74841  0.01681  Biso   1.000  C
  C1681    1.0000 0.68363  0.31726  0.53871  Biso   1.000  C
  C1682    1.0000 0.68365  0.31731  0.53871  Biso   1.000  C
  H1159    1.0000 0.77206  0.36307  0.53002  Biso   1.000  H
  C1683    1.0000 0.64237  0.38832  0.61291  Biso   1.000  C
  C1684    1.0000 0.64235  0.38826  0.61291  Biso   1.000  C
  C1685    1.0000 0.61406  0.39036  0.55572  Biso   1.000  C
  C1686    1.0000 0.34318  0.37327  0.97458  Biso   1.000  C
  C1687    1.0000 0.34325  0.37327  0.97458  Biso   1.000  C
  H1160    1.0000 0.48601  0.39816  0.98897  Biso   1.000  H
  H1161    1.0000 0.48603  0.39816  0.98902  Biso   1.000  H
  H1162    1.0000 0.42201  0.30596  0.00797  Biso   1.000  H
  H1163    1.0000 0.42202  0.30596  0.00802  Biso   1.000  H
  H1164    1.0000 0.42197  0.30602  0.00797  Biso   1.000  H
  H1165    1.0000 0.42196  0.30596  0.00802  Biso   1.000  H
  H1166    1.0000 0.96901  0.07912  0.71299  Biso   1.000  H
  H1167    1.0000 0.96895  0.07912  0.71299  Biso   1.000  H
  C1688    1.0000 0.81447  0.49738  0.40357  Biso   1.000  C
  H1168    1.0000 0.86609  0.57306  0.34101  Biso   1.000  H
  C1689    1.0000 0.81446  0.49733  0.40362  Biso   1.000  C
  C1690    1.0000 0.81441  0.49738  0.40357  Biso   1.000  C
  H1169    1.0000 0.86602  0.57306  0.34101  Biso   1.000  H
  C1691    1.0000 0.81448  0.49739  0.40362  Biso   1.000  C
  C1692    1.0000 0.88355  0.57416  0.33009  Biso   1.000  C
  C1693    1.0000 0.01115  0.68559  0.38438  Biso   1.000  C
  H1170    1.0000 0.77504  0.46007  0.49601  Biso   1.000  H
  H1171    1.0000 0.40513  0.93813  0.78101  Biso   1.000  H
  H1172    1.0000 0.40506  0.93813  0.78101  Biso   1.000  H
  C1694    1.0000 0.52296  0.01951  0.75859  Biso   1.000  C
  C1695    1.0000 0.49738  0.06481  0.65437  Biso   1.000  C
  H1173    1.0000 0.35996  0.01810  0.59699  Biso   1.000  H
  C1696    1.0000 0.49740  0.06481  0.65442  Biso   1.000  C
  C1697    1.0000 0.22011  0.04754  0.74239  Biso   1.000  C
  C1698    1.0000 0.22005  0.04754  0.74239  Biso   1.000  C
  C1699    1.0000 0.07228  0.98641  0.76078  Biso   1.000  C
  C1700    1.0000 0.95220  0.86383  0.72240  Biso   1.000  C
  H1174    1.0000 0.92510  0.83708  0.59300  Biso   1.000  H
  H1175    1.0000 0.98507  0.90311  0.54598  Biso   1.000  H
  C1701    1.0000 0.89460  0.94659  0.58407  Biso   1.000  C
  C1702    1.0000 0.89462  0.94660  0.58412  Biso   1.000  C
  H1176    1.0000 0.92506  0.83713  0.59300  Biso   1.000  H
  C1703    1.0000 0.89454  0.94659  0.58407  Biso   1.000  C
  H1177    1.0000 0.92504  0.83708  0.59300  Biso   1.000  H
  C1704    1.0000 0.98679  0.91371  0.83151  Biso   1.000  C
  H1178    1.0000 0.80309  0.72912  0.70800  Biso   1.000  H
  H1179    1.0000 0.75407  0.79209  0.73399  Biso   1.000  H
  C1705    1.0000 0.70510  0.67961  0.76672  Biso   1.000  C
  H1180    1.0000 0.75409  0.79215  0.73399  Biso   1.000  H
  C1706    1.0000 0.70504  0.67961  0.76672  Biso   1.000  C
  C1707    1.0000 0.01622  0.86807  0.93411  Biso   1.000  C
  C1708    1.0000 0.01620  0.86801  0.93411  Biso   1.000  C
  C1709    1.0000 0.01616  0.86807  0.93411  Biso   1.000  C
  H1181    1.0000 0.11912  0.80115  0.99301  Biso   1.000  H
  H1182    1.0000 0.11905  0.80115  0.99301  Biso   1.000  H
  C1710    1.0000 0.13785  0.74897  0.08131  Biso   1.000  C
  C1711    1.0000 0.13783  0.74891  0.08131  Biso   1.000  C
  C1712    1.0000 0.13779  0.74897  0.08131  Biso   1.000  C
  H1183    1.0000 0.96504  0.55912  0.98598  Biso   1.000  H
  C1713    1.0000 0.05100  0.61294  0.07690  Biso   1.000  C
  C1714    1.0000 0.61717  0.33591  0.55980  Biso   1.000  C
  C1715    1.0000 0.61715  0.33585  0.55980  Biso   1.000  C
  C1716    1.0000 0.61711  0.33591  0.55980  Biso   1.000  C
  C1717    1.0000 0.61709  0.33585  0.55980  Biso   1.000  C
  C1718    1.0000 0.56691  0.32447  0.61500  Biso   1.000  C
  C1719    1.0000 0.25958  0.33124  0.98679  Biso   1.000  C
  C1720    1.0000 0.34861  0.43135  0.93340  Biso   1.000  C
  H1184    1.0000 0.74206  0.48807  0.38400  Biso   1.000  H
  C1721    1.0000 0.95212  0.64404  0.32828  Biso   1.000  C
  C1722    1.0000 0.55619  0.06521  0.71290  Biso   1.000  C
  H1185    1.0000 0.56801  0.02014  0.80400  Biso   1.000  H
  H1186    1.0000 0.56795  0.02014  0.80400  Biso   1.000  H
  H1187    1.0000 0.52296  0.10012  0.61899  Biso   1.000  H
  H1188    1.0000 0.52303  0.10012  0.61899  Biso   1.000  H
  O192     1.0000 0.14107  0.04893  0.74819  Biso   1.000  O
  H1189    1.0000 0.24199  0.00915  0.77498  Biso   1.000  H
  H1190    1.0000 0.26797  0.10614  0.75598  Biso   1.000  H
  H1191    1.0000 0.24197  0.00909  0.77498  Biso   1.000  H
  C1723    1.0000 0.05530  0.97890  0.82068  Biso   1.000  C
  C1724    1.0000 0.05531  0.97891  0.82072  Biso   1.000  C
  C1725    1.0000 0.05526  0.97896  0.82068  Biso   1.000  C
  H1192    1.0000 0.91207  0.81910  0.68402  Biso   1.000  H
  H1193    1.0000 0.87509  0.94412  0.62801  Biso   1.000  H
  C1726    1.0000 0.81917  0.91240  0.52987  Biso   1.000  C
  C1727    1.0000 0.81919  0.91241  0.52992  Biso   1.000  C
  H1194    1.0000 0.92898  0.00608  0.57700  Biso   1.000  H
  O193     1.0000 0.97512  0.90735  0.89141  Biso   1.000  O
  O194     1.0000 0.97505  0.90735  0.89141  Biso   1.000  O
  H1195    1.0000 0.67908  0.70110  0.80201  Biso   1.000  H
  C1728    1.0000 0.61626  0.63090  0.70639  Biso   1.000  C
  H1196    1.0000 0.67910  0.70116  0.80201  Biso   1.000  H
  H1197    1.0000 0.73903  0.64009  0.78700  Biso   1.000  H
  H1198    1.0000 0.07707  0.86714  0.92100  Biso   1.000  H
  H1199    1.0000 0.03512  0.89712  0.98099  Biso   1.000  H
  H1200    1.0000 0.03508  0.89718  0.98099  Biso   1.000  H
  H1201    1.0000 0.03506  0.89712  0.98099  Biso   1.000  H
  C1729    1.0000 0.11318  0.68123  0.11138  Biso   1.000  C
  H1202    1.0000 0.18613  0.80203  0.10801  Biso   1.000  H
  H1203    1.0000 0.18607  0.80203  0.10801  Biso   1.000  H
  H1204    1.0000 0.03205  0.56001  0.09998  Biso   1.000  H
  H1205    1.0000 0.03208  0.56007  0.09998  Biso   1.000  H
  H1206    1.0000 0.51103  0.32910  0.56602  Biso   1.000  H
  C1730    1.0000 0.24519  0.27026  0.03310  Biso   1.000  C
  C1731    1.0000 0.24521  0.27032  0.03310  Biso   1.000  C
  C1732    1.0000 0.18142  0.34743  0.95791  Biso   1.000  C
  C1733    1.0000 0.18138  0.34749  0.95791  Biso   1.000  C
  C1734    1.0000 0.18135  0.34743  0.95791  Biso   1.000  C
  C1735    1.0000 0.27043  0.44765  0.90452  Biso   1.000  C
  H1207    1.0000 0.41303  0.46417  0.92399  Biso   1.000  H
  O195     1.0000 0.65470  0.10200  0.75199  Biso   1.000  O
  C1736    1.0000 0.66767  0.11032  0.70767  Biso   1.000  C
  C1737    1.0000 0.66768  0.11032  0.70772  Biso   1.000  C
  O196     1.0000 0.65464  0.10200  0.75199  Biso   1.000  O
  C1738    1.0000 0.11397  0.04092  0.87150  Biso   1.000  C
  C1739    1.0000 0.81699  0.89316  0.46741  Biso   1.000  C
  C1740    1.0000 0.74180  0.87991  0.55268  Biso   1.000  C
  C1741    1.0000 0.74180  0.87986  0.55272  Biso   1.000  C
  C1742    1.0000 0.81701  0.89322  0.46741  Biso   1.000  C
  C1743    1.0000 0.74174  0.87991  0.55268  Biso   1.000  C
  C1744    1.0000 0.74182  0.87992  0.55272  Biso   1.000  C
  C1745    1.0000 0.73746  0.90366  0.46850  Biso   1.000  C
  C1746    1.0000 0.54965  0.66538  0.69380  Biso   1.000  C
  C1747    1.0000 0.61155  0.57159  0.66440  Biso   1.000  C
  C1748    1.0000 0.54967  0.66544  0.69380  Biso   1.000  C
  O197     1.0000 0.14417  0.66923  0.17551  Biso   1.000  O
  O198     1.0000 0.14419  0.66928  0.17551  Biso   1.000  O
  O199     1.0000 0.28060  0.21016  0.01790  Biso   1.000  O
  O200     1.0000 0.28056  0.21022  0.01790  Biso   1.000  O
  H1208    1.0000 0.28398  0.29701  0.07998  Biso   1.000  H
  H1209    1.0000 0.17400  0.24702  0.03201  Biso   1.000  H
  H1210    1.0000 0.28402  0.29696  0.07998  Biso   1.000  H
  H1211    1.0000 0.17397  0.24696  0.03201  Biso   1.000  H
  C1749    1.0000 0.18681  0.40563  0.91668  Biso   1.000  C
  H1212    1.0000 0.11698  0.31516  0.96698  Biso   1.000  H
  C1750    1.0000 0.18683  0.40563  0.91672  Biso   1.000  C
  H1213    1.0000 0.11704  0.31516  0.96698  Biso   1.000  H
  C1751    1.0000 0.18677  0.40568  0.91668  Biso   1.000  C
  H1214    1.0000 0.27501  0.49216  0.87297  Biso   1.000  H
  H1215    1.0000 0.27503  0.49216  0.87302  Biso   1.000  H
  H1216    1.0000 0.63797  0.06011  0.67399  Biso   1.000  H
  H1217    1.0000 0.65703  0.15914  0.68501  Biso   1.000  H
  H1218    1.0000 0.65701  0.15909  0.68501  Biso   1.000  H
  H1219    1.0000 0.65696  0.15914  0.68501  Biso   1.000  H
  C1752    1.0000 0.07488  0.08872  0.89487  Biso   1.000  C
  C1753    1.0000 0.20621  0.05193  0.89601  Biso   1.000  C
  C1754    1.0000 0.07489  0.08873  0.89492  Biso   1.000  C
  C1755    1.0000 0.20614  0.05193  0.89601  Biso   1.000  C
  C1756    1.0000 0.73738  0.84155  0.42779  Biso   1.000  C
  H1220    1.0000 0.87711  0.91805  0.44998  Biso   1.000  H
  C1757    1.0000 0.73740  0.84161  0.42779  Biso   1.000  C
  H1221    1.0000 0.87707  0.91811  0.44998  Biso   1.000  H
  H1222    1.0000 0.87705  0.91805  0.44998  Biso   1.000  H
  C1758    1.0000 0.66221  0.82831  0.51311  Biso   1.000  C
  H1223    1.0000 0.74309  0.89511  0.60098  Biso   1.000  H
  C1759    1.0000 0.66219  0.82825  0.51311  Biso   1.000  C
  C1760    1.0000 0.66215  0.82831  0.51311  Biso   1.000  C
  C1761    1.0000 0.66001  0.80906  0.45060  Biso   1.000  C
  C1762    1.0000 0.65995  0.80906  0.45060  Biso   1.000  C
  C1763    1.0000 0.47827  0.64060  0.63917  Biso   1.000  C
  H1224    1.0000 0.55306  0.71110  0.72601  Biso   1.000  H
  C1764    1.0000 0.47829  0.64061  0.63922  Biso   1.000  C
  C1765    1.0000 0.54029  0.54681  0.60977  Biso   1.000  C
  H1225    1.0000 0.66305  0.54508  0.67399  Biso   1.000  H
  C1766    1.0000 0.54030  0.54681  0.60982  Biso   1.000  C
  C1767    1.0000 0.54022  0.54681  0.60977  Biso   1.000  C
  H1226    1.0000 0.66307  0.54513  0.67399  Biso   1.000  H
  C1768    1.0000 0.54024  0.54681  0.60982  Biso   1.000  C
  C1769    1.0000 0.20332  0.73835  0.21707  Biso   1.000  C
  C1770    1.0000 0.20333  0.73836  0.21712  Biso   1.000  C
  C1771    1.0000 0.20326  0.73835  0.21707  Biso   1.000  C
  C1772    1.0000 0.20327  0.73836  0.21712  Biso   1.000  C
  C1773    1.0000 0.22021  0.15853  0.96717  Biso   1.000  C
  C1774    1.0000 0.22023  0.15854  0.96722  Biso   1.000  C
  C1775    1.0000 0.22015  0.15853  0.96717  Biso   1.000  C
  C1776    1.0000 0.22016  0.15854  0.96722  Biso   1.000  C
  H1227    1.0000 0.12600  0.41817  0.89397  Biso   1.000  H
  H1228    1.0000 0.12599  0.41812  0.89402  Biso   1.000  H
  H1229    1.0000 0.12601  0.41818  0.89402  Biso   1.000  H
  C1777    1.0000 0.12799  0.14753  0.94271  Biso   1.000  C
  H1230    1.0000 0.00297  0.08012  0.87602  Biso   1.000  H
  C1778    1.0000 0.12802  0.14758  0.94271  Biso   1.000  C
  C1779    1.0000 0.25932  0.11086  0.94389  Biso   1.000  C
  H1231    1.0000 0.23596  0.01511  0.87801  Biso   1.000  H
  C1780    1.0000 0.25926  0.11086  0.94389  Biso   1.000  C
  H1232    1.0000 0.23598  0.01517  0.87801  Biso   1.000  H
  H1233    1.0000 0.73608  0.82705  0.37901  Biso   1.000  H
  H1234    1.0000 0.73611  0.82711  0.37901  Biso   1.000  H
  H1235    1.0000 0.60211  0.80306  0.53101  Biso   1.000  H
  H1236    1.0000 0.60207  0.80312  0.53101  Biso   1.000  H
  H1237    1.0000 0.60205  0.80306  0.53101  Biso   1.000  H
  H1238    1.0000 0.59811  0.76906  0.42000  Biso   1.000  H
  H1239    1.0000 0.59804  0.76906  0.42000  Biso   1.000  H
  C1781    1.0000 0.47355  0.58129  0.59718  Biso   1.000  C
  H1240    1.0000 0.42708  0.66711  0.62901  Biso   1.000  H
  H1241    1.0000 0.53707  0.50108  0.57700  Biso   1.000  H
  C1782    1.0000 0.15029  0.79157  0.23151  Biso   1.000  C
  H1242    1.0000 0.25109  0.77204  0.19099  Biso   1.000  H
  H1243    1.0000 0.24114  0.72309  0.26001  Biso   1.000  H
  H1244    1.0000 0.24112  0.72303  0.26001  Biso   1.000  H
  H1245    1.0000 0.24108  0.72309  0.26001  Biso   1.000  H
  H1246    1.0000 0.09801  0.18415  0.96099  Biso   1.000  H
  H1247    1.0000 0.09795  0.18415  0.96099  Biso   1.000  H
  H1248    1.0000 0.33099  0.11914  0.96299  Biso   1.000  H
  H1249    1.0000 0.33093  0.11914  0.96299  Biso   1.000  H
  H1250    1.0000 0.41809  0.56210  0.55500  Biso   1.000  H
  H1251    1.0000 0.41802  0.56210  0.55500  Biso   1.000  H
  C1783    1.0000 0.05519  0.76684  0.21750  Biso   1.000  C
  C1784    1.0000 0.20231  0.86298  0.26557  Biso   1.000  C
  C1785    1.0000 0.20231  0.86293  0.26562  Biso   1.000  C
  C1786    1.0000 0.05521  0.76689  0.21750  Biso   1.000  C
  C1787    1.0000 0.20233  0.86299  0.26562  Biso   1.000  C
  C1788    1.0000 0.01213  0.81345  0.23750  Biso   1.000  C
  H1252    1.0000 0.01510  0.71206  0.19099  Biso   1.000  H
  C1789    1.0000 0.01206  0.81345  0.23750  Biso   1.000  C
  C1790    1.0000 0.15922  0.90956  0.28571  Biso   1.000  C
  H1253    1.0000 0.93811  0.79407  0.22700  Biso   1.000  H
  C1791    1.0000 0.06409  0.88477  0.27170  Biso   1.000  C
  C1792    1.0000 0.06415  0.88477  0.27170  Biso   1.000  C
  H1254    1.0000 0.19913  0.96506  0.31198  Biso   1.000  H
  H1255    1.0000 0.19907  0.96506  0.31198  Biso   1.000  H
  H1256    1.0000 0.03109  0.92106  0.28699  Biso   1.000  H
