data_image0
_cell_length_a       14.921
_cell_length_b       15.154
_cell_length_c       17.194
_cell_angle_alpha    99.7
_cell_angle_beta     96.33
_cell_angle_gamma    95.04

_symmetry_space_group_name_H-M    "P 1"
_symmetry_int_tables_number       1

loop_
  _symmetry_equiv_pos_as_xyz
  'x, y, z'

loop_
  _atom_site_label
  _atom_site_occupancy
  _atom_site_fract_x
  _atom_site_fract_y
  _atom_site_fract_z
  _atom_site_thermal_displace_type
  _atom_site_B_iso_or_equiv
  _atom_site_type_symbol
  C1       1.0000 0.15220  0.22997  0.07269  Biso   1.000  C
  O1       1.0000 0.13743  0.30373  0.03022  Biso   1.000  O
  O2       1.0000 0.13743  0.30366  0.03022  Biso   1.000  O
  O3       1.0000 0.17720  0.26049  0.15681  Biso   1.000  O
  H1       1.0000 0.08999  0.18501  0.06300  Biso   1.000  H
  H2       1.0000 0.20599  0.19501  0.04902  Biso   1.000  H
  H3       1.0000 0.20605  0.19501  0.04902  Biso   1.000  H
  H4       1.0000 0.08998  0.18494  0.06300  Biso   1.000  H
  H5       1.0000 0.20598  0.19494  0.04902  Biso   1.000  H
  C2       1.0000 0.05118  0.32647  0.02219  Biso   1.000  C
  C3       1.0000 0.05119  0.32654  0.02219  Biso   1.000  C
  C4       1.0000 0.15221  0.23004  0.07269  Biso   1.000  C
  C5       1.0000 0.10283  0.26919  0.20309  Biso   1.000  C
  C6       1.0000 0.10283  0.26913  0.20309  Biso   1.000  C
  C7       1.0000 0.01280  0.38580  0.07668  Biso   1.000  C
  C8       1.0000 0.01281  0.38581  0.07674  Biso   1.000  C
  C9       1.0000 0.01280  0.38575  0.07674  Biso   1.000  C
  C10      1.0000 0.00253  0.29023  0.94801  Biso   1.000  C
  C11      1.0000 0.00260  0.29023  0.94801  Biso   1.000  C
  C12      1.0000 0.00254  0.29029  0.94801  Biso   1.000  C
  C13      1.0000 0.00261  0.29029  0.94801  Biso   1.000  C
  C14      1.0000 0.05104  0.34167  0.20767  Biso   1.000  C
  C15      1.0000 0.05105  0.34168  0.20773  Biso   1.000  C
  C16      1.0000 0.05105  0.34174  0.20767  Biso   1.000  C
  C17      1.0000 0.08832  0.20328  0.24961  Biso   1.000  C
  C18      1.0000 0.08833  0.20335  0.24961  Biso   1.000  C
  C19      1.0000 0.92564  0.40878  0.05711  Biso   1.000  C
  C20      1.0000 0.92565  0.40884  0.05711  Biso   1.000  C
  C21      1.0000 0.07580  0.41427  0.15431  Biso   1.000  C
  C22      1.0000 0.07581  0.41434  0.15431  Biso   1.000  C
  C23      1.0000 0.91536  0.31312  0.92838  Biso   1.000  C
  C24      1.0000 0.91537  0.31314  0.92844  Biso   1.000  C
  C25      1.0000 0.91537  0.31319  0.92838  Biso   1.000  C
  C26      1.0000 0.91537  0.31320  0.92844  Biso   1.000  C
  O4       1.0000 0.03516  0.22631  0.89471  Biso   1.000  O
  O5       1.0000 0.03517  0.22637  0.89471  Biso   1.000  O
  C27      1.0000 0.98469  0.34840  0.25889  Biso   1.000  C
  C28      1.0000 0.98476  0.34840  0.25889  Biso   1.000  C
  C29      1.0000 0.98475  0.34833  0.25889  Biso   1.000  C
  C30      1.0000 0.02204  0.20989  0.30089  Biso   1.000  C
  O6       1.0000 0.13233  0.12600  0.23932  Biso   1.000  O
  O7       1.0000 0.13232  0.12593  0.23932  Biso   1.000  O
  C31      1.0000 0.87699  0.37246  0.98293  Biso   1.000  C
  H6       1.0000 0.89601  0.45500  0.09899  Biso   1.000  H
  H7       1.0000 0.89601  0.45494  0.09899  Biso   1.000  H
  H8       1.0000 0.14602  0.41900  0.14402  Biso   1.000  H
  C32      1.0000 0.05059  0.50862  0.19928  Biso   1.000  C
  C33      1.0000 0.05066  0.50862  0.19928  Biso   1.000  C
  C34      1.0000 0.05066  0.50856  0.19928  Biso   1.000  C
  O8       1.0000 0.86795  0.28404  0.85360  Biso   1.000  O
  C35      1.0000 0.07483  0.26483  0.83278  Biso   1.000  C
  C36      1.0000 0.07484  0.26484  0.83284  Biso   1.000  C
  C37      1.0000 0.07484  0.26490  0.83278  Biso   1.000  C
  C38      1.0000 0.07485  0.26491  0.83284  Biso   1.000  C
  C39      1.0000 0.97020  0.28251  0.30553  Biso   1.000  C
  C40      1.0000 0.97026  0.28251  0.30553  Biso   1.000  C
  C41      1.0000 0.97026  0.28245  0.30553  Biso   1.000  C
  H9       1.0000 0.94503  0.40501  0.26300  Biso   1.000  H
  H10      1.0000 0.94502  0.40495  0.26300  Biso   1.000  H
  O9       1.0000 0.01421  0.14315  0.34628  Biso   1.000  O
  O10      1.0000 0.01422  0.14323  0.34634  Biso   1.000  O
  O11      1.0000 0.01422  0.14322  0.34628  Biso   1.000  O
  O12      1.0000 0.01422  0.14317  0.34634  Biso   1.000  O
  C42      1.0000 0.21434  0.12747  0.28881  Biso   1.000  C
  C43      1.0000 0.21435  0.12754  0.28881  Biso   1.000  C
  C44      1.0000 0.77869  0.38697  0.96502  Biso   1.000  C
  H11      1.0000 0.98400  0.50098  0.21802  Biso   1.000  H
  H12      1.0000 0.98407  0.50098  0.21802  Biso   1.000  H
  H13      1.0000 0.98401  0.50105  0.21802  Biso   1.000  H
  H14      1.0000 0.05202  0.55799  0.16002  Biso   1.000  H
  C45      1.0000 0.12633  0.54062  0.27442  Biso   1.000  C
  H15      1.0000 0.05203  0.55806  0.16002  Biso   1.000  H
  C46      1.0000 0.12632  0.54056  0.27442  Biso   1.000  C
  C47      1.0000 0.80556  0.20565  0.84438  Biso   1.000  C
  C48      1.0000 0.80557  0.20566  0.84444  Biso   1.000  C
  C49      1.0000 0.07908  0.18777  0.76050  Biso   1.000  C
  H16      1.0000 0.03402  0.31492  0.81398  Biso   1.000  H
  H17      1.0000 0.14303  0.29593  0.85503  Biso   1.000  H
  H18      1.0000 0.03409  0.31492  0.81398  Biso   1.000  H
  H19      1.0000 0.14310  0.29593  0.85503  Biso   1.000  H
  H20      1.0000 0.03403  0.31499  0.81398  Biso   1.000  H
  H21      1.0000 0.14304  0.29599  0.85503  Biso   1.000  H
  H22      1.0000 0.03409  0.31499  0.81398  Biso   1.000  H
  H23      1.0000 0.14310  0.29599  0.85503  Biso   1.000  H
  C50      1.0000 0.89631  0.28260  0.35800  Biso   1.000  C
  C51      1.0000 0.89631  0.28254  0.35800  Biso   1.000  C
  C52      1.0000 0.94100  0.07307  0.32778  Biso   1.000  C
  C53      1.0000 0.94101  0.07308  0.32784  Biso   1.000  C
  C54      1.0000 0.94101  0.07314  0.32778  Biso   1.000  C
  C55      1.0000 0.24700  0.04259  0.28578  Biso   1.000  C
  H24      1.0000 0.26501  0.17399  0.27198  Biso   1.000  H
  H25      1.0000 0.20305  0.15100  0.34902  Biso   1.000  H
  C56      1.0000 0.24701  0.04260  0.28584  Biso   1.000  C
  H26      1.0000 0.26502  0.17400  0.27204  Biso   1.000  H
  C57      1.0000 0.24700  0.04253  0.28584  Biso   1.000  C
  H27      1.0000 0.26501  0.17394  0.27204  Biso   1.000  H
  H28      1.0000 0.20304  0.15093  0.34902  Biso   1.000  H
  C58      1.0000 0.71964  0.31085  0.98519  Biso   1.000  C
  C59      1.0000 0.71971  0.31085  0.98519  Biso   1.000  C
  H29      1.0000 0.76103  0.38394  0.90202  Biso   1.000  H
  C60      1.0000 0.76026  0.48616  0.99929  Biso   1.000  C
  H30      1.0000 0.76110  0.38394  0.90202  Biso   1.000  H
  H31      1.0000 0.76104  0.38400  0.90202  Biso   1.000  H
  H32      1.0000 0.76111  0.38400  0.90202  Biso   1.000  H
  H33      1.0000 0.12803  0.48799  0.30999  Biso   1.000  H
  H34      1.0000 0.19204  0.55197  0.25401  Biso   1.000  H
  C61      1.0000 0.10632  0.62736  0.32558  Biso   1.000  C
  C62      1.0000 0.10633  0.62737  0.32564  Biso   1.000  C
  H35      1.0000 0.19204  0.55204  0.25401  Biso   1.000  H
  C63      1.0000 0.10633  0.62743  0.32558  Biso   1.000  C
  O13      1.0000 0.71604  0.22832  0.85128  Biso   1.000  O
  O14      1.0000 0.71605  0.22833  0.85134  Biso   1.000  O
  O15      1.0000 0.71605  0.22839  0.85128  Biso   1.000  O
  O16      1.0000 0.71605  0.22840  0.85134  Biso   1.000  O
  H36      1.0000 0.82508  0.16791  0.89001  Biso   1.000  H
  H37      1.0000 0.80703  0.16494  0.78697  Biso   1.000  H
  H38      1.0000 0.80704  0.16495  0.78703  Biso   1.000  H
  H39      1.0000 0.82509  0.16798  0.89001  Biso   1.000  H
  O17      1.0000 0.13836  0.12613  0.78668  Biso   1.000  O
  H40      1.0000 0.10403  0.21492  0.71202  Biso   1.000  H
  H41      1.0000 0.01204  0.15292  0.74099  Biso   1.000  H
  O18      1.0000 0.13837  0.12614  0.78674  Biso   1.000  O
  O19      1.0000 0.13837  0.12619  0.78668  Biso   1.000  O
  H42      1.0000 0.10403  0.21499  0.71202  Biso   1.000  H
  H43      1.0000 0.01204  0.15299  0.74099  Biso   1.000  H
  O20      1.0000 0.13838  0.12621  0.78674  Biso   1.000  O
  C64      1.0000 0.80903  0.22468  0.31041  Biso   1.000  C
  C65      1.0000 0.80904  0.22475  0.31041  Biso   1.000  C
  H44      1.0000 0.91404  0.25000  0.40803  Biso   1.000  H
  C66      1.0000 0.88494  0.37756  0.39750  Biso   1.000  C
  C67      1.0000 0.88495  0.37763  0.39750  Biso   1.000  C
  H45      1.0000 0.91403  0.24993  0.40803  Biso   1.000  H
  O21      1.0000 0.86003  0.09396  0.35419  Biso   1.000  O
  O22      1.0000 0.86004  0.09402  0.35419  Biso   1.000  O
  H46      1.0000 0.92898  0.05399  0.26401  Biso   1.000  H
  H47      1.0000 0.96205  0.01701  0.35401  Biso   1.000  H
  H48      1.0000 0.92905  0.05399  0.26401  Biso   1.000  H
  H49      1.0000 0.92899  0.05405  0.26401  Biso   1.000  H
  H50      1.0000 0.96204  0.01694  0.35401  Biso   1.000  H
  H51      1.0000 0.19903  0.99597  0.30601  Biso   1.000  H
  H52      1.0000 0.19904  0.99603  0.30601  Biso   1.000  H
  O23      1.0000 0.26472  0.00780  0.20279  Biso   1.000  O
  H53      1.0000 0.31104  0.05097  0.32397  Biso   1.000  H
  H54      1.0000 0.31105  0.05098  0.32403  Biso   1.000  H
  H55      1.0000 0.31104  0.05103  0.32397  Biso   1.000  H
  O24      1.0000 0.26471  0.00773  0.20279  Biso   1.000  O
  C68      1.0000 0.69060  0.31719  0.06020  Biso   1.000  C
  C69      1.0000 0.69060  0.31726  0.06020  Biso   1.000  C
  C70      1.0000 0.69435  0.23286  0.92850  Biso   1.000  C
  H56      1.0000 0.76398  0.49497  0.06300  Biso   1.000  H
  H57      1.0000 0.76405  0.49503  0.06300  Biso   1.000  H
  H58      1.0000 0.76399  0.49503  0.06300  Biso   1.000  H
  H59      1.0000 0.76405  0.49497  0.06300  Biso   1.000  H
  H60      1.0000 0.81004  0.53392  0.98299  Biso   1.000  H
  C71      1.0000 0.66564  0.50206  0.96449  Biso   1.000  C
  H61      1.0000 0.81010  0.53392  0.98299  Biso   1.000  H
  C72      1.0000 0.66571  0.50206  0.96449  Biso   1.000  C
  H62      1.0000 0.81004  0.53398  0.98299  Biso   1.000  H
  H63      1.0000 0.81011  0.53398  0.98299  Biso   1.000  H
  C73      1.0000 0.17035  0.70279  0.33718  Biso   1.000  C
  C74      1.0000 0.02663  0.63219  0.36067  Biso   1.000  C
  C75      1.0000 0.17036  0.70281  0.33724  Biso   1.000  C
  C76      1.0000 0.02664  0.63221  0.36073  Biso   1.000  C
  C77      1.0000 0.17035  0.70274  0.33724  Biso   1.000  C
  C78      1.0000 0.02663  0.63214  0.36073  Biso   1.000  C
  C79      1.0000 0.22955  0.15442  0.79453  Biso   1.000  C
  C80      1.0000 0.22955  0.15449  0.79453  Biso   1.000  C
  C81      1.0000 0.74704  0.26380  0.26341  Biso   1.000  C
  C82      1.0000 0.74703  0.26373  0.26341  Biso   1.000  C
  C83      1.0000 0.79993  0.13157  0.30731  Biso   1.000  C
  C84      1.0000 0.79994  0.13164  0.30731  Biso   1.000  C
  H64      1.0000 0.86300  0.41500  0.35199  Biso   1.000  H
  H65      1.0000 0.94904  0.40896  0.42998  Biso   1.000  H
  C85      1.0000 0.81351  0.37579  0.45580  Biso   1.000  C
  H66      1.0000 0.86306  0.41500  0.35199  Biso   1.000  H
  H67      1.0000 0.94904  0.40897  0.43004  Biso   1.000  H
  C86      1.0000 0.81358  0.37579  0.45580  Biso   1.000  C
  H68      1.0000 0.94904  0.40902  0.42998  Biso   1.000  H
  H69      1.0000 0.86306  0.41493  0.35199  Biso   1.000  H
  C87      1.0000 0.81357  0.37573  0.45580  Biso   1.000  C
  C88      1.0000 0.34242  0.05550  0.18168  Biso   1.000  C
  C89      1.0000 0.34243  0.05551  0.18174  Biso   1.000  C
  C90      1.0000 0.34243  0.05544  0.18174  Biso   1.000  C
  C91      1.0000 0.63633  0.24547  0.07852  Biso   1.000  C
  C92      1.0000 0.63633  0.24554  0.07852  Biso   1.000  C
  H70      1.0000 0.71003  0.37798  0.10398  Biso   1.000  H
  H71      1.0000 0.71003  0.37805  0.10398  Biso   1.000  H
  C93      1.0000 0.64008  0.16114  0.94682  Biso   1.000  C
  C94      1.0000 0.64009  0.16120  0.94682  Biso   1.000  C
  H72      1.0000 0.66608  0.49893  0.90101  Biso   1.000  H
  H73      1.0000 0.61907  0.44795  0.97400  Biso   1.000  H
  C95      1.0000 0.63009  0.58842  0.99590  Biso   1.000  C
  H74      1.0000 0.66609  0.49900  0.90101  Biso   1.000  H
  C96      1.0000 0.63010  0.58848  0.99590  Biso   1.000  C
  C97      1.0000 0.15462  0.78299  0.38387  Biso   1.000  C
  H75      1.0000 0.23204  0.69898  0.30999  Biso   1.000  H
  C98      1.0000 0.15463  0.78300  0.38393  Biso   1.000  C
  H76      1.0000 0.23204  0.69904  0.30999  Biso   1.000  H
  C99      1.0000 0.15462  0.78294  0.38393  Biso   1.000  C
  H77      1.0000 0.97704  0.57398  0.35199  Biso   1.000  H
  C100     1.0000 0.01092  0.71242  0.40749  Biso   1.000  C
  C101     1.0000 0.01091  0.71235  0.40749  Biso   1.000  C
  C102     1.0000 0.27923  0.07664  0.81398  Biso   1.000  C
  H78      1.0000 0.24801  0.17392  0.73998  Biso   1.000  H
  H79      1.0000 0.24605  0.21093  0.84200  Biso   1.000  H
  H80      1.0000 0.24809  0.17393  0.74004  Biso   1.000  H
  H81      1.0000 0.24802  0.17398  0.73998  Biso   1.000  H
  H82      1.0000 0.24605  0.21100  0.84200  Biso   1.000  H
  H83      1.0000 0.24809  0.17399  0.74004  Biso   1.000  H
  C103     1.0000 0.67581  0.20987  0.21332  Biso   1.000  C
  C104     1.0000 0.67582  0.20994  0.21332  Biso   1.000  C
  H84      1.0000 0.75401  0.33601  0.26603  Biso   1.000  H
  H85      1.0000 0.75401  0.33594  0.26603  Biso   1.000  H
  C105     1.0000 0.72871  0.07771  0.25723  Biso   1.000  C
  C106     1.0000 0.72870  0.07764  0.25723  Biso   1.000  C
  H86      1.0000 0.74901  0.34698  0.42201  Biso   1.000  H
  H87      1.0000 0.83403  0.33397  0.49797  Biso   1.000  H
  C107     1.0000 0.80076  0.46750  0.50047  Biso   1.000  C
  H88      1.0000 0.74907  0.34698  0.42201  Biso   1.000  H
  H89      1.0000 0.83404  0.33399  0.49803  Biso   1.000  H
  C108     1.0000 0.80077  0.46752  0.50053  Biso   1.000  C
  H90      1.0000 0.74901  0.34705  0.42201  Biso   1.000  H
  H91      1.0000 0.83404  0.33404  0.49797  Biso   1.000  H
  C109     1.0000 0.80076  0.46745  0.50053  Biso   1.000  C
  C110     1.0000 0.35432  0.99850  0.10220  Biso   1.000  C
  C111     1.0000 0.35432  0.99856  0.10220  Biso   1.000  C
  H92      1.0000 0.40102  0.05796  0.22498  Biso   1.000  H
  H93      1.0000 0.33004  0.12297  0.17501  Biso   1.000  H
  H94      1.0000 0.40103  0.05803  0.22498  Biso   1.000  H
  H95      1.0000 0.33004  0.12303  0.17501  Biso   1.000  H
  C112     1.0000 0.60071  0.24677  0.16068  Biso   1.000  C
  C113     1.0000 0.60071  0.24679  0.16074  Biso   1.000  C
  C114     1.0000 0.60071  0.24684  0.16068  Biso   1.000  C
  C115     1.0000 0.61098  0.16760  0.02177  Biso   1.000  C
  C116     1.0000 0.61105  0.16761  0.02183  Biso   1.000  C
  C117     1.0000 0.61098  0.16754  0.02183  Biso   1.000  C
  O25      1.0000 0.61492  0.08721  0.88668  Biso   1.000  O
  O26      1.0000 0.61500  0.08722  0.88674  Biso   1.000  O
  O27      1.0000 0.61493  0.08728  0.88668  Biso   1.000  O
  O28      1.0000 0.61500  0.08729  0.88674  Biso   1.000  O
  C118     1.0000 0.58902  0.58717  0.06490  Biso   1.000  C
  C119     1.0000 0.58902  0.58724  0.06490  Biso   1.000  C
  C120     1.0000 0.63667  0.66673  0.96312  Biso   1.000  C
  C121     1.0000 0.63667  0.66680  0.96312  Biso   1.000  C
  C122     1.0000 0.07494  0.78778  0.41909  Biso   1.000  C
  H96      1.0000 0.20404  0.84096  0.39298  Biso   1.000  H
  H97      1.0000 0.20406  0.84103  0.39304  Biso   1.000  H
  H98      1.0000 0.20405  0.84102  0.39298  Biso   1.000  H
  H99      1.0000 0.20405  0.84097  0.39304  Biso   1.000  H
  H100     1.0000 0.94905  0.71596  0.43497  Biso   1.000  H
  H101     1.0000 0.94906  0.71597  0.43503  Biso   1.000  H
  H102     1.0000 0.94905  0.71603  0.43497  Biso   1.000  H
  O29      1.0000 0.27705  0.01131  0.73718  Biso   1.000  O
  H103     1.0000 0.24606  0.04393  0.85598  Biso   1.000  H
  H104     1.0000 0.34904  0.09995  0.83801  Biso   1.000  H
  O30      1.0000 0.27705  0.01138  0.73718  Biso   1.000  O
  H105     1.0000 0.24607  0.04394  0.85604  Biso   1.000  H
  H106     1.0000 0.24607  0.04399  0.85598  Biso   1.000  H
  H107     1.0000 0.24607  0.04400  0.85604  Biso   1.000  H
  C123     1.0000 0.66673  0.11691  0.21029  Biso   1.000  C
  C124     1.0000 0.66672  0.11684  0.21029  Biso   1.000  C
  O31      1.0000 0.72301  0.98862  0.26282  Biso   1.000  O
  C125     1.0000 0.86027  0.54489  0.50410  Biso   1.000  C
  C126     1.0000 0.72217  0.47260  0.53718  Biso   1.000  C
  C127     1.0000 0.72218  0.47261  0.53723  Biso   1.000  C
  C128     1.0000 0.72210  0.47260  0.53718  Biso   1.000  C
  C129     1.0000 0.86026  0.54482  0.50410  Biso   1.000  C
  C130     1.0000 0.72217  0.47254  0.53723  Biso   1.000  C
  O32      1.0000 0.38514  0.91272  0.11332  Biso   1.000  O
  H108     1.0000 0.29004  0.98602  0.06502  Biso   1.000  H
  H109     1.0000 0.40303  0.03402  0.07299  Biso   1.000  H
  H110     1.0000 0.40303  0.03395  0.07299  Biso   1.000  H
  C131     1.0000 0.57609  0.34282  0.19280  Biso   1.000  C
  C132     1.0000 0.57616  0.34282  0.19280  Biso   1.000  C
  C133     1.0000 0.57615  0.34275  0.19280  Biso   1.000  C
  H111     1.0000 0.53800  0.20502  0.15800  Biso   1.000  H
  H112     1.0000 0.53799  0.20496  0.15800  Biso   1.000  H
  O33      1.0000 0.55848  0.09418  0.03992  Biso   1.000  O
  O34      1.0000 0.55855  0.09418  0.03992  Biso   1.000  O
  O35      1.0000 0.55848  0.09425  0.03992  Biso   1.000  O
  C134     1.0000 0.64575  0.00144  0.89780  Biso   1.000  C
  C135     1.0000 0.64575  0.00150  0.89780  Biso   1.000  C
  C136     1.0000 0.55471  0.66411  0.10113  Biso   1.000  C
  H113     1.0000 0.58402  0.52697  0.09001  Biso   1.000  H
  H114     1.0000 0.58403  0.52703  0.09001  Biso   1.000  H
  C137     1.0000 0.55470  0.66404  0.10113  Biso   1.000  C
  C138     1.0000 0.60228  0.74371  0.99923  Biso   1.000  C
  H115     1.0000 0.66809  0.66796  0.90999  Biso   1.000  H
  C139     1.0000 0.60229  0.74378  0.99923  Biso   1.000  C
  H116     1.0000 0.06301  0.85002  0.45502  Biso   1.000  H
  H117     1.0000 0.06308  0.85002  0.45502  Biso   1.000  H
  H118     1.0000 0.06307  0.84995  0.45502  Biso   1.000  H
  C140     1.0000 0.27136  0.92229  0.74277  Biso   1.000  C
  C141     1.0000 0.27136  0.92223  0.74283  Biso   1.000  C
  C142     1.0000 0.27137  0.92230  0.74283  Biso   1.000  C
  O36      1.0000 0.59290  0.06090  0.16591  Biso   1.000  O
  C143     1.0000 0.72083  0.92329  0.18602  Biso   1.000  C
  C144     1.0000 0.72084  0.92336  0.18602  Biso   1.000  C
  C145     1.0000 0.84104  0.62736  0.54437  Biso   1.000  C
  H119     1.0000 0.92102  0.54096  0.47602  Biso   1.000  H
  C146     1.0000 0.84105  0.62737  0.54443  Biso   1.000  C
  H120     1.0000 0.92103  0.54102  0.47602  Biso   1.000  H
  C147     1.0000 0.84105  0.62742  0.54437  Biso   1.000  C
  C148     1.0000 0.70295  0.55508  0.57751  Biso   1.000  C
  H121     1.0000 0.67604  0.41300  0.53402  Biso   1.000  H
  C149     1.0000 0.70296  0.55514  0.57751  Biso   1.000  C
  H122     1.0000 0.67603  0.41293  0.53402  Biso   1.000  H
  C150     1.0000 0.35998  0.83880  0.05318  Biso   1.000  C
  C151     1.0000 0.52591  0.33285  0.26323  Biso   1.000  C
  H123     1.0000 0.63705  0.38800  0.21201  Biso   1.000  H
  H124     1.0000 0.53405  0.36800  0.14801  Biso   1.000  H
  C152     1.0000 0.52591  0.33291  0.26317  Biso   1.000  C
  C153     1.0000 0.52592  0.33292  0.26323  Biso   1.000  C
  H125     1.0000 0.63699  0.38800  0.21201  Biso   1.000  H
  H126     1.0000 0.63705  0.38794  0.21201  Biso   1.000  H
  H127     1.0000 0.53404  0.36794  0.14801  Biso   1.000  H
  C154     1.0000 0.60178  0.03287  0.08459  Biso   1.000  C
  C155     1.0000 0.60185  0.03293  0.08459  Biso   1.000  C
  C156     1.0000 0.60178  0.03293  0.08459  Biso   1.000  C
  C157     1.0000 0.60184  0.03287  0.08459  Biso   1.000  C
  H128     1.0000 0.59703  0.96598  0.92701  Biso   1.000  H
  C158     1.0000 0.65764  0.94450  0.81832  Biso   1.000  C
  H129     1.0000 0.59710  0.96592  0.92701  Biso   1.000  H
  C159     1.0000 0.65764  0.94444  0.81832  Biso   1.000  C
  H130     1.0000 0.59710  0.96598  0.92701  Biso   1.000  H
  H131     1.0000 0.71002  0.01391  0.93498  Biso   1.000  H
  H132     1.0000 0.71010  0.01393  0.93504  Biso   1.000  H
  H133     1.0000 0.71003  0.01398  0.93498  Biso   1.000  H
  H134     1.0000 0.71011  0.01399  0.93504  Biso   1.000  H
  C160     1.0000 0.56133  0.74239  0.06817  Biso   1.000  C
  H135     1.0000 0.52306  0.66303  0.15503  Biso   1.000  H
  C161     1.0000 0.56134  0.74240  0.06823  Biso   1.000  C
  C162     1.0000 0.56133  0.74246  0.06817  Biso   1.000  C
  H136     1.0000 0.52299  0.66303  0.15503  Biso   1.000  H
  H137     1.0000 0.52305  0.66297  0.15503  Biso   1.000  H
  H138     1.0000 0.60707  0.80396  0.97400  Biso   1.000  H
  C163     1.0000 0.20014  0.86843  0.69269  Biso   1.000  C
  C164     1.0000 0.20013  0.86836  0.69269  Biso   1.000  C
  C165     1.0000 0.33334  0.88309  0.78971  Biso   1.000  C
  C166     1.0000 0.33333  0.88303  0.78971  Biso   1.000  C
  C167     1.0000 0.77051  0.84551  0.20547  Biso   1.000  C
  H139     1.0000 0.75400  0.95601  0.14402  Biso   1.000  H
  H140     1.0000 0.65102  0.89998  0.16199  Biso   1.000  H
  C168     1.0000 0.77052  0.84552  0.20553  Biso   1.000  C
  H141     1.0000 0.65103  0.90005  0.16199  Biso   1.000  H
  C169     1.0000 0.76232  0.63245  0.58108  Biso   1.000  C
  H142     1.0000 0.88704  0.68698  0.54699  Biso   1.000  H
  C170     1.0000 0.76233  0.63253  0.58114  Biso   1.000  C
  C171     1.0000 0.76232  0.63251  0.58108  Biso   1.000  C
  C172     1.0000 0.76233  0.63246  0.58114  Biso   1.000  C
  H143     1.0000 0.64204  0.55896  0.60600  Biso   1.000  H
  H144     1.0000 0.64205  0.55903  0.60600  Biso   1.000  H
  C173     1.0000 0.30571  0.76708  0.07150  Biso   1.000  C
  C174     1.0000 0.30571  0.76714  0.07150  Biso   1.000  C
  C175     1.0000 0.38909  0.83240  0.97823  Biso   1.000  C
  C176     1.0000 0.38908  0.83234  0.97823  Biso   1.000  C
  H145     1.0000 0.56806  0.30800  0.30803  Biso   1.000  H
  H146     1.0000 0.46404  0.28800  0.24402  Biso   1.000  H
  C177     1.0000 0.50320  0.43116  0.29607  Biso   1.000  C
  C178     1.0000 0.50321  0.43117  0.29613  Biso   1.000  C
  C179     1.0000 0.50321  0.43123  0.29607  Biso   1.000  C
  H147     1.0000 0.46404  0.28793  0.24402  Biso   1.000  H
  H148     1.0000 0.67298  0.03496  0.07698  Biso   1.000  H
  H149     1.0000 0.67306  0.03504  0.07704  Biso   1.000  H
  H150     1.0000 0.67298  0.03503  0.07698  Biso   1.000  H
  H151     1.0000 0.67298  0.03497  0.07704  Biso   1.000  H
  H152     1.0000 0.56898  0.96501  0.06401  Biso   1.000  H
  H153     1.0000 0.56905  0.96501  0.06401  Biso   1.000  H
  H154     1.0000 0.59904  0.94204  0.77502  Biso   1.000  H
  H155     1.0000 0.67003  0.87703  0.82499  Biso   1.000  H
  O37      1.0000 0.73535  0.99220  0.79721  Biso   1.000  O
  H156     1.0000 0.59904  0.94197  0.77502  Biso   1.000  H
  H157     1.0000 0.67009  0.87697  0.82499  Biso   1.000  H
  O38      1.0000 0.73535  0.99214  0.79721  Biso   1.000  O
  H158     1.0000 0.67002  0.87697  0.82499  Biso   1.000  H
  H159     1.0000 0.53500  0.80198  0.09601  Biso   1.000  H
  H160     1.0000 0.53506  0.80198  0.09601  Biso   1.000  H
  H161     1.0000 0.53500  0.80205  0.09601  Biso   1.000  H
  O39      1.0000 0.14004  0.90604  0.64581  Biso   1.000  O
  O40      1.0000 0.14003  0.90598  0.64581  Biso   1.000  O
  C180     1.0000 0.19104  0.77532  0.68959  Biso   1.000  C
  C181     1.0000 0.19103  0.77525  0.68959  Biso   1.000  C
  C182     1.0000 0.32425  0.79013  0.78668  Biso   1.000  C
  C183     1.0000 0.32426  0.79008  0.78674  Biso   1.000  C
  C184     1.0000 0.32425  0.79006  0.78668  Biso   1.000  C
  O41      1.0000 0.40717  0.93910  0.83409  Biso   1.000  O
  O42      1.0000 0.40717  0.93904  0.83409  Biso   1.000  O
  O43      1.0000 0.86170  0.87381  0.21332  Biso   1.000  O
  H162     1.0000 0.75205  0.82602  0.26002  Biso   1.000  H
  H163     1.0000 0.75401  0.78900  0.15800  Biso   1.000  H
  H164     1.0000 0.74705  0.69599  0.61201  Biso   1.000  H
  H165     1.0000 0.74705  0.69592  0.61201  Biso   1.000  H
  C185     1.0000 0.28042  0.68908  0.01481  Biso   1.000  C
  C186     1.0000 0.28043  0.68915  0.01481  Biso   1.000  C
  O44      1.0000 0.28402  0.77161  0.14872  Biso   1.000  O
  C187     1.0000 0.36374  0.75453  0.92148  Biso   1.000  C
  C188     1.0000 0.36374  0.75447  0.92154  Biso   1.000  C
  C189     1.0000 0.36373  0.75446  0.92148  Biso   1.000  C
  O45      1.0000 0.44159  0.90582  0.96008  Biso   1.000  O
  O46      1.0000 0.44158  0.90575  0.96008  Biso   1.000  O
  C190     1.0000 0.44332  0.47590  0.25229  Biso   1.000  C
  C191     1.0000 0.54395  0.47259  0.37198  Biso   1.000  C
  C192     1.0000 0.54396  0.47261  0.37204  Biso   1.000  C
  C193     1.0000 0.44332  0.47583  0.25229  Biso   1.000  C
  C194     1.0000 0.54396  0.47254  0.37204  Biso   1.000  C
  C195     1.0000 0.75307  0.95741  0.71422  Biso   1.000  C
  C196     1.0000 0.75306  0.95734  0.71422  Biso   1.000  C
  C197     1.0000 0.05907  0.92693  0.67222  Biso   1.000  C
  C198     1.0000 0.05906  0.92686  0.67222  Biso   1.000  C
  C199     1.0000 0.10375  0.71740  0.64200  Biso   1.000  C
  C200     1.0000 0.10375  0.71733  0.64200  Biso   1.000  C
  C201     1.0000 0.25303  0.73620  0.73659  Biso   1.000  C
  C202     1.0000 0.25302  0.73614  0.73659  Biso   1.000  C
  C203     1.0000 0.39936  0.75323  0.83932  Biso   1.000  C
  C204     1.0000 0.39936  0.75316  0.83932  Biso   1.000  C
  C205     1.0000 0.39829  0.96713  0.91541  Biso   1.000  C
  C206     1.0000 0.39828  0.96707  0.91541  Biso   1.000  C
  C207     1.0000 0.92098  0.81217  0.23950  Biso   1.000  C
  C208     1.0000 0.92105  0.81217  0.23950  Biso   1.000  C
  C209     1.0000 0.92099  0.81223  0.23950  Biso   1.000  C
  C210     1.0000 0.92105  0.81223  0.23950  Biso   1.000  C
  C211     1.0000 0.22137  0.61297  0.03498  Biso   1.000  C
  C212     1.0000 0.22138  0.61298  0.03504  Biso   1.000  C
  C213     1.0000 0.22138  0.61303  0.03498  Biso   1.000  C
  C214     1.0000 0.22138  0.61305  0.03504  Biso   1.000  C
  C215     1.0000 0.30947  0.68281  0.93980  Biso   1.000  C
  C216     1.0000 0.30946  0.68274  0.93980  Biso   1.000  C
  C217     1.0000 0.19450  0.79428  0.15562  Biso   1.000  C
  C218     1.0000 0.19451  0.79435  0.15562  Biso   1.000  C
  C219     1.0000 0.42424  0.56191  0.28429  Biso   1.000  C
  H166     1.0000 0.41203  0.44402  0.19399  Biso   1.000  H
  C220     1.0000 0.42423  0.56185  0.28429  Biso   1.000  C
  H167     1.0000 0.41202  0.44395  0.19399  Biso   1.000  H
  C221     1.0000 0.52473  0.55861  0.40398  Biso   1.000  C
  H168     1.0000 0.59003  0.43799  0.40600  Biso   1.000  H
  C222     1.0000 0.52473  0.55854  0.40398  Biso   1.000  C
  H169     1.0000 0.59002  0.43792  0.40600  Biso   1.000  H
  H170     1.0000 0.68903  0.94903  0.67603  Biso   1.000  H
  C223     1.0000 0.78572  0.87253  0.71119  Biso   1.000  C
  H171     1.0000 0.68909  0.94897  0.67603  Biso   1.000  H
  C224     1.0000 0.78579  0.87246  0.71119  Biso   1.000  C
  H172     1.0000 0.68902  0.94897  0.67603  Biso   1.000  H
  C225     1.0000 0.78572  0.87246  0.71119  Biso   1.000  C
  H173     1.0000 0.80103  0.00397  0.69399  Biso   1.000  H
  O47      1.0000 0.98586  0.85685  0.65372  Biso   1.000  O
  O48      1.0000 0.98585  0.85678  0.65372  Biso   1.000  O
  H174     1.0000 0.07108  0.94601  0.73599  Biso   1.000  H
  H175     1.0000 0.03802  0.98299  0.64599  Biso   1.000  H
  H176     1.0000 0.07108  0.94595  0.73599  Biso   1.000  H
  H177     1.0000 0.03808  0.98293  0.64599  Biso   1.000  H
  H178     1.0000 0.07101  0.94595  0.73599  Biso   1.000  H
  H179     1.0000 0.03808  0.98299  0.64599  Biso   1.000  H
  C226     1.0000 0.02987  0.71749  0.69447  Biso   1.000  C
  C227     1.0000 0.02987  0.71743  0.69453  Biso   1.000  C
  C228     1.0000 0.02980  0.71749  0.69447  Biso   1.000  C
  C229     1.0000 0.02988  0.71750  0.69453  Biso   1.000  C
  H180     1.0000 0.08603  0.75000  0.59197  Biso   1.000  H
  C230     1.0000 0.11513  0.62244  0.60250  Biso   1.000  C
  H181     1.0000 0.08603  0.74995  0.59203  Biso   1.000  H
  C231     1.0000 0.11512  0.62237  0.60250  Biso   1.000  C
  H182     1.0000 0.08604  0.75001  0.59203  Biso   1.000  H
  H183     1.0000 0.24605  0.66399  0.73397  Biso   1.000  H
  H184     1.0000 0.24606  0.66394  0.73403  Biso   1.000  H
  H185     1.0000 0.24606  0.66401  0.73403  Biso   1.000  H
  H186     1.0000 0.46207  0.79498  0.84200  Biso   1.000  H
  C232     1.0000 0.42397  0.65718  0.80720  Biso   1.000  C
  C233     1.0000 0.42397  0.65712  0.80720  Biso   1.000  C
  H187     1.0000 0.32709  0.96504  0.92302  Biso   1.000  H
  H188     1.0000 0.32709  0.96497  0.92302  Biso   1.000  H
  H189     1.0000 0.43108  0.03492  0.93599  Biso   1.000  H
  H190     1.0000 0.43109  0.03499  0.93599  Biso   1.000  H
  C234     1.0000 0.92523  0.73510  0.16722  Biso   1.000  C
  H191     1.0000 0.89603  0.78501  0.28798  Biso   1.000  H
  H192     1.0000 0.98803  0.84701  0.25901  Biso   1.000  H
  H193     1.0000 0.89604  0.78502  0.28804  Biso   1.000  H
  C235     1.0000 0.12308  0.62747  0.01707  Biso   1.000  C
  C236     1.0000 0.12308  0.62748  0.01713  Biso   1.000  C
  C237     1.0000 0.12308  0.62754  0.01707  Biso   1.000  C
  C238     1.0000 0.12309  0.62755  0.01713  Biso   1.000  C
  H194     1.0000 0.23903  0.61600  0.09798  Biso   1.000  H
  C239     1.0000 0.23980  0.51377  0.00071  Biso   1.000  C
  H195     1.0000 0.23904  0.61601  0.09804  Biso   1.000  H
  C240     1.0000 0.23980  0.51384  0.00071  Biso   1.000  C
  H196     1.0000 0.29004  0.62202  0.89602  Biso   1.000  H
  H197     1.0000 0.29003  0.62195  0.89602  Biso   1.000  H
  O49      1.0000 0.13212  0.71589  0.14640  Biso   1.000  O
  O50      1.0000 0.13212  0.71596  0.14640  Biso   1.000  O
  H198     1.0000 0.17498  0.83202  0.10999  Biso   1.000  H
  H199     1.0000 0.19303  0.83499  0.21303  Biso   1.000  H
  H200     1.0000 0.17505  0.83202  0.10999  Biso   1.000  H
  H201     1.0000 0.19303  0.83506  0.21303  Biso   1.000  H
  C241     1.0000 0.46496  0.60319  0.36008  Biso   1.000  C
  H202     1.0000 0.37802  0.59601  0.25003  Biso   1.000  H
  C242     1.0000 0.46497  0.60320  0.36014  Biso   1.000  C
  C243     1.0000 0.46496  0.60314  0.36014  Biso   1.000  C
  H203     1.0000 0.37801  0.59594  0.25003  Biso   1.000  H
  H204     1.0000 0.55603  0.59097  0.46299  Biso   1.000  H
  H205     1.0000 0.55603  0.59103  0.46299  Biso   1.000  H
  H206     1.0000 0.73506  0.82601  0.72802  Biso   1.000  H
  H207     1.0000 0.79702  0.84900  0.65098  Biso   1.000  H
  O51      1.0000 0.86774  0.87400  0.76068  Biso   1.000  O
  H208     1.0000 0.73505  0.82594  0.72802  Biso   1.000  H
  H209     1.0000 0.79701  0.84894  0.65098  Biso   1.000  H
  O52      1.0000 0.86774  0.87395  0.76074  Biso   1.000  O
  O53      1.0000 0.86774  0.87393  0.76068  Biso   1.000  O
  O54      1.0000 0.86775  0.87401  0.76074  Biso   1.000  O
  C244     1.0000 0.97803  0.79011  0.69911  Biso   1.000  C
  C245     1.0000 0.97802  0.79004  0.69911  Biso   1.000  C
  C246     1.0000 0.01537  0.65160  0.74111  Biso   1.000  C
  C247     1.0000 0.01537  0.65154  0.74111  Biso   1.000  C
  H210     1.0000 0.13707  0.58500  0.64801  Biso   1.000  H
  H211     1.0000 0.05103  0.59104  0.57002  Biso   1.000  H
  C248     1.0000 0.18656  0.62421  0.54420  Biso   1.000  C
  H212     1.0000 0.13707  0.58494  0.64801  Biso   1.000  H
  H213     1.0000 0.05103  0.59098  0.57002  Biso   1.000  H
  C249     1.0000 0.18655  0.62414  0.54420  Biso   1.000  C
  H214     1.0000 0.36301  0.61200  0.78799  Biso   1.000  H
  H215     1.0000 0.46602  0.63200  0.85199  Biso   1.000  H
  C250     1.0000 0.47416  0.66709  0.73683  Biso   1.000  C
  H216     1.0000 0.36308  0.61193  0.78799  Biso   1.000  H
  H217     1.0000 0.46608  0.63193  0.85199  Biso   1.000  H
  C251     1.0000 0.47415  0.66703  0.73683  Biso   1.000  C
  H218     1.0000 0.36301  0.61193  0.78799  Biso   1.000  H
  H219     1.0000 0.36308  0.61200  0.78799  Biso   1.000  H
  H220     1.0000 0.46609  0.63200  0.85199  Biso   1.000  H
  O55      1.0000 0.96490  0.77363  0.10529  Biso   1.000  O
  H221     1.0000 0.96604  0.68501  0.18602  Biso   1.000  H
  H222     1.0000 0.85703  0.70401  0.14497  Biso   1.000  H
  H223     1.0000 0.85704  0.70402  0.14503  Biso   1.000  H
  H224     1.0000 0.96597  0.68501  0.18602  Biso   1.000  H
  H225     1.0000 0.85696  0.70401  0.14497  Biso   1.000  H
  C252     1.0000 0.08470  0.68681  0.07162  Biso   1.000  C
  C253     1.0000 0.07443  0.59122  0.94289  Biso   1.000  C
  C254     1.0000 0.07449  0.59116  0.94289  Biso   1.000  C
  C255     1.0000 0.07442  0.59116  0.94289  Biso   1.000  C
  H226     1.0000 0.23609  0.50503  0.93700  Biso   1.000  H
  H227     1.0000 0.23608  0.50497  0.93700  Biso   1.000  H
  H228     1.0000 0.19003  0.46602  0.01701  Biso   1.000  H
  C256     1.0000 0.33442  0.49788  0.03551  Biso   1.000  C
  C257     1.0000 0.33442  0.49794  0.03551  Biso   1.000  C
  H229     1.0000 0.45003  0.67001  0.38501  Biso   1.000  H
  H230     1.0000 0.45002  0.66994  0.38501  Biso   1.000  H
  C258     1.0000 0.91175  0.79672  0.75039  Biso   1.000  C
  C259     1.0000 0.91174  0.79665  0.75039  Biso   1.000  C
  C260     1.0000 0.94903  0.65833  0.79233  Biso   1.000  C
  C261     1.0000 0.94909  0.65826  0.79233  Biso   1.000  C
  C262     1.0000 0.94902  0.65826  0.79233  Biso   1.000  C
  H231     1.0000 0.05504  0.59499  0.73700  Biso   1.000  H
  H232     1.0000 0.05503  0.59492  0.73700  Biso   1.000  H
  H233     1.0000 0.25106  0.65302  0.57799  Biso   1.000  H
  H234     1.0000 0.16603  0.66603  0.50203  Biso   1.000  H
  C263     1.0000 0.19931  0.53250  0.49953  Biso   1.000  C
  H235     1.0000 0.25105  0.65295  0.57799  Biso   1.000  H
  H236     1.0000 0.16603  0.66596  0.50203  Biso   1.000  H
  C264     1.0000 0.19937  0.53243  0.49953  Biso   1.000  C
  C265     1.0000 0.19937  0.53250  0.49953  Biso   1.000  C
  H237     1.0000 0.43201  0.69200  0.69197  Biso   1.000  H
  H238     1.0000 0.53602  0.71200  0.75598  Biso   1.000  H
  C266     1.0000 0.49687  0.56884  0.70393  Biso   1.000  C
  H239     1.0000 0.43208  0.69195  0.69203  Biso   1.000  H
  H240     1.0000 0.53608  0.71193  0.75598  Biso   1.000  H
  C267     1.0000 0.49686  0.56877  0.70393  Biso   1.000  C
  H241     1.0000 0.43200  0.69194  0.69197  Biso   1.000  H
  H242     1.0000 0.53602  0.71193  0.75598  Biso   1.000  H
  H243     1.0000 0.43209  0.69202  0.69203  Biso   1.000  H
  C268     1.0000 0.99753  0.70971  0.05199  Biso   1.000  C
  C269     1.0000 0.98727  0.61420  0.92332  Biso   1.000  C
  C270     1.0000 0.98726  0.61413  0.92332  Biso   1.000  C
  H244     1.0000 0.10406  0.54500  0.90101  Biso   1.000  H
  H245     1.0000 0.10405  0.54493  0.90101  Biso   1.000  H
  H246     1.0000 0.33398  0.50100  0.09899  Biso   1.000  H
  H247     1.0000 0.38100  0.55198  0.02600  Biso   1.000  H
  C271     1.0000 0.36997  0.41152  0.00410  Biso   1.000  C
  H248     1.0000 0.38100  0.55205  0.02600  Biso   1.000  H
  C272     1.0000 0.89723  0.73081  0.79691  Biso   1.000  C
  C273     1.0000 0.89723  0.73074  0.79691  Biso   1.000  C
  C274     1.0000 0.92426  0.58573  0.84569  Biso   1.000  C
  C275     1.0000 0.92426  0.58566  0.84569  Biso   1.000  C
  C276     1.0000 0.13980  0.45511  0.49590  Biso   1.000  C
  C277     1.0000 0.27790  0.52740  0.46282  Biso   1.000  C
  C278     1.0000 0.13986  0.45504  0.49590  Biso   1.000  C
  C279     1.0000 0.27796  0.52734  0.46282  Biso   1.000  C
  C280     1.0000 0.13987  0.45511  0.49590  Biso   1.000  C
  C281     1.0000 0.27796  0.52740  0.46282  Biso   1.000  C
  C282     1.0000 0.55674  0.52410  0.74771  Biso   1.000  C
  C283     1.0000 0.45611  0.52741  0.62802  Biso   1.000  C
  C284     1.0000 0.55674  0.52403  0.74771  Biso   1.000  C
  C285     1.0000 0.45617  0.52734  0.62802  Biso   1.000  C
  C286     1.0000 0.45618  0.52741  0.62802  Biso   1.000  C
  C287     1.0000 0.94888  0.67353  0.97781  Biso   1.000  C
  C288     1.0000 0.94888  0.67346  0.97781  Biso   1.000  C
  C289     1.0000 0.41105  0.41283  0.93510  Biso   1.000  C
  C290     1.0000 0.41104  0.41276  0.93510  Biso   1.000  C
  C291     1.0000 0.36339  0.33320  0.03688  Biso   1.000  C
  O56      1.0000 0.82286  0.73951  0.84319  Biso   1.000  O
  O57      1.0000 0.82286  0.73944  0.84319  Biso   1.000  O
  H249     1.0000 0.85404  0.58100  0.85598  Biso   1.000  H
  C292     1.0000 0.94947  0.49138  0.80072  Biso   1.000  C
  H250     1.0000 0.85405  0.58095  0.85604  Biso   1.000  H
  H251     1.0000 0.85404  0.58094  0.85598  Biso   1.000  H
  C293     1.0000 0.15903  0.37264  0.45563  Biso   1.000  C
  H252     1.0000 0.07904  0.45904  0.52398  Biso   1.000  H
  C294     1.0000 0.15902  0.37258  0.45563  Biso   1.000  C
  H253     1.0000 0.07905  0.45899  0.52404  Biso   1.000  H
  H254     1.0000 0.07904  0.45898  0.52398  Biso   1.000  H
  C295     1.0000 0.29711  0.44492  0.42249  Biso   1.000  C
  H255     1.0000 0.32403  0.58700  0.46598  Biso   1.000  H
  C296     1.0000 0.29711  0.44486  0.42249  Biso   1.000  C
  H256     1.0000 0.32403  0.58695  0.46604  Biso   1.000  H
  H257     1.0000 0.32404  0.58702  0.46604  Biso   1.000  H
  C297     1.0000 0.57583  0.43809  0.71571  Biso   1.000  C
  H258     1.0000 0.58804  0.55598  0.80601  Biso   1.000  H
  C298     1.0000 0.57583  0.43802  0.71571  Biso   1.000  C
  H259     1.0000 0.58803  0.55592  0.80601  Biso   1.000  H
  C299     1.0000 0.47534  0.44139  0.59602  Biso   1.000  C
  H260     1.0000 0.41004  0.56201  0.59400  Biso   1.000  H
  C300     1.0000 0.47533  0.44133  0.59602  Biso   1.000  C
  H261     1.0000 0.41004  0.56194  0.59400  Biso   1.000  H
  O58      1.0000 0.86263  0.69627  0.96978  Biso   1.000  O
  O59      1.0000 0.86264  0.69622  0.96984  Biso   1.000  O
  O60      1.0000 0.86264  0.69628  0.96984  Biso   1.000  O
  C301     1.0000 0.44536  0.33589  0.89887  Biso   1.000  C
  H262     1.0000 0.41605  0.47303  0.90999  Biso   1.000  H
  C302     1.0000 0.44536  0.33584  0.89893  Biso   1.000  C
  H263     1.0000 0.41604  0.47297  0.90999  Biso   1.000  H
  C303     1.0000 0.44536  0.33590  0.89893  Biso   1.000  C
  C304     1.0000 0.39778  0.25622  0.00077  Biso   1.000  C
  H264     1.0000 0.33197  0.33197  0.09001  Biso   1.000  H
  C305     1.0000 0.39779  0.25623  0.00083  Biso   1.000  C
  H265     1.0000 0.33204  0.33204  0.09001  Biso   1.000  H
  H266     1.0000 0.33197  0.33204  0.09001  Biso   1.000  H
  C306     1.0000 0.84787  0.77003  0.92731  Biso   1.000  C
  C307     1.0000 0.84786  0.76996  0.92731  Biso   1.000  C
  H267     1.0000 0.94805  0.44201  0.83998  Biso   1.000  H
  C308     1.0000 0.87374  0.45938  0.72558  Biso   1.000  C
  H268     1.0000 0.94805  0.44195  0.84004  Biso   1.000  H
  H269     1.0000 0.94804  0.44194  0.83998  Biso   1.000  H
  H270     1.0000 0.01607  0.49902  0.78198  Biso   1.000  H
  H271     1.0000 0.01607  0.49896  0.78204  Biso   1.000  H
  H272     1.0000 0.01606  0.49895  0.78198  Biso   1.000  H
  C309     1.0000 0.23775  0.36755  0.41892  Biso   1.000  C
  H273     1.0000 0.11303  0.31302  0.45301  Biso   1.000  H
  C310     1.0000 0.23774  0.36749  0.41892  Biso   1.000  C
  H274     1.0000 0.11302  0.31295  0.45301  Biso   1.000  H
  H275     1.0000 0.35802  0.44104  0.39400  Biso   1.000  H
  H276     1.0000 0.35802  0.44097  0.39400  Biso   1.000  H
  C311     1.0000 0.53511  0.39681  0.63992  Biso   1.000  C
  H277     1.0000 0.62205  0.40399  0.74997  Biso   1.000  H
  C312     1.0000 0.53517  0.39674  0.63992  Biso   1.000  C
  H278     1.0000 0.62205  0.40394  0.75003  Biso   1.000  H
  C313     1.0000 0.53518  0.39681  0.63992  Biso   1.000  C
  H279     1.0000 0.62206  0.40401  0.75003  Biso   1.000  H
  H280     1.0000 0.44404  0.40903  0.53701  Biso   1.000  H
  H281     1.0000 0.44404  0.40897  0.53701  Biso   1.000  H
  C314     1.0000 0.43874  0.25761  0.93183  Biso   1.000  C
  H282     1.0000 0.47701  0.33697  0.84497  Biso   1.000  H
  C315     1.0000 0.43873  0.25754  0.93183  Biso   1.000  C
  H283     1.0000 0.47708  0.33698  0.84503  Biso   1.000  H
  H284     1.0000 0.39300  0.19598  0.02600  Biso   1.000  H
  H285     1.0000 0.39300  0.19604  0.02600  Biso   1.000  H
  H286     1.0000 0.91008  0.81499  0.93700  Biso   1.000  H
  H287     1.0000 0.79408  0.80499  0.95098  Biso   1.000  H
  H288     1.0000 0.91007  0.81493  0.93700  Biso   1.000  H
  H289     1.0000 0.79407  0.80492  0.95098  Biso   1.000  H
  H290     1.0000 0.87204  0.51201  0.69001  Biso   1.000  H
  H291     1.0000 0.80803  0.44803  0.74599  Biso   1.000  H
  C316     1.0000 0.89375  0.37264  0.67442  Biso   1.000  C
  H292     1.0000 0.87203  0.51195  0.69001  Biso   1.000  H
  H293     1.0000 0.80802  0.44796  0.74599  Biso   1.000  H
  C317     1.0000 0.89374  0.37257  0.67442  Biso   1.000  C
  H294     1.0000 0.25301  0.30401  0.38799  Biso   1.000  H
  H295     1.0000 0.25301  0.30395  0.38799  Biso   1.000  H
  H296     1.0000 0.55004  0.32999  0.61499  Biso   1.000  H
  H297     1.0000 0.55003  0.32992  0.61499  Biso   1.000  H
  H298     1.0000 0.46507  0.19802  0.90399  Biso   1.000  H
  H299     1.0000 0.46506  0.19795  0.90399  Biso   1.000  H
  C318     1.0000 0.82972  0.29721  0.66282  Biso   1.000  C
  C319     1.0000 0.97343  0.36781  0.63933  Biso   1.000  C
  C320     1.0000 0.82978  0.29714  0.66282  Biso   1.000  C
  C321     1.0000 0.97343  0.36774  0.63933  Biso   1.000  C
  C322     1.0000 0.84545  0.21701  0.61613  Biso   1.000  C
  H300     1.0000 0.76803  0.30102  0.69001  Biso   1.000  H
  C323     1.0000 0.84544  0.21694  0.61613  Biso   1.000  C
  H301     1.0000 0.76803  0.30096  0.69001  Biso   1.000  H
  C324     1.0000 0.98915  0.28758  0.59251  Biso   1.000  C
  H302     1.0000 0.02303  0.42602  0.64801  Biso   1.000  H
  H303     1.0000 0.02302  0.42595  0.64801  Biso   1.000  H
  C325     1.0000 0.92512  0.21222  0.58091  Biso   1.000  C
  H304     1.0000 0.79602  0.15904  0.60702  Biso   1.000  H
  C326     1.0000 0.92512  0.21215  0.58091  Biso   1.000  C
  H305     1.0000 0.79602  0.15898  0.60702  Biso   1.000  H
  H306     1.0000 0.05102  0.28404  0.56503  Biso   1.000  H
  H307     1.0000 0.05101  0.28397  0.56503  Biso   1.000  H
  H308     1.0000 0.93705  0.14998  0.54498  Biso   1.000  H
  H309     1.0000 0.93706  0.14999  0.54504  Biso   1.000  H
  H310     1.0000 0.93699  0.14998  0.54498  Biso   1.000  H
  C327     1.0000 0.15220  0.22997  0.07269  Biso   1.000  C
  O61      1.0000 0.13743  0.30373  0.03022  Biso   1.000  O
  O62      1.0000 0.13743  0.30366  0.03022  Biso   1.000  O
  O63      1.0000 0.17720  0.26049  0.15681  Biso   1.000  O
  H311     1.0000 0.08999  0.18501  0.06300  Biso   1.000  H
  H312     1.0000 0.20599  0.19501  0.04902  Biso   1.000  H
  H313     1.0000 0.20605  0.19501  0.04902  Biso   1.000  H
  H314     1.0000 0.08998  0.18494  0.06300  Biso   1.000  H
  H315     1.0000 0.20598  0.19494  0.04902  Biso   1.000  H
  C328     1.0000 0.05118  0.32647  0.02219  Biso   1.000  C
  C329     1.0000 0.05119  0.32654  0.02219  Biso   1.000  C
  C330     1.0000 0.15221  0.23004  0.07269  Biso   1.000  C
  C331     1.0000 0.10283  0.26919  0.20309  Biso   1.000  C
  C332     1.0000 0.10283  0.26913  0.20309  Biso   1.000  C
  C333     1.0000 0.01280  0.38580  0.07668  Biso   1.000  C
  C334     1.0000 0.01281  0.38581  0.07674  Biso   1.000  C
  C335     1.0000 0.01280  0.38575  0.07674  Biso   1.000  C
  C336     1.0000 0.00253  0.29023  0.94801  Biso   1.000  C
  C337     1.0000 0.00260  0.29023  0.94801  Biso   1.000  C
  C338     1.0000 0.00254  0.29029  0.94801  Biso   1.000  C
  C339     1.0000 0.00261  0.29029  0.94801  Biso   1.000  C
  C340     1.0000 0.05104  0.34167  0.20767  Biso   1.000  C
  C341     1.0000 0.05105  0.34168  0.20773  Biso   1.000  C
  C342     1.0000 0.05105  0.34174  0.20767  Biso   1.000  C
  C343     1.0000 0.08832  0.20328  0.24961  Biso   1.000  C
  C344     1.0000 0.08833  0.20335  0.24961  Biso   1.000  C
  C345     1.0000 0.92564  0.40878  0.05711  Biso   1.000  C
  C346     1.0000 0.92565  0.40884  0.05711  Biso   1.000  C
  C347     1.0000 0.07580  0.41427  0.15431  Biso   1.000  C
  C348     1.0000 0.07581  0.41434  0.15431  Biso   1.000  C
  C349     1.0000 0.91536  0.31312  0.92838  Biso   1.000  C
  C350     1.0000 0.91537  0.31314  0.92844  Biso   1.000  C
  C351     1.0000 0.91537  0.31319  0.92838  Biso   1.000  C
  C352     1.0000 0.91537  0.31320  0.92844  Biso   1.000  C
  O64      1.0000 0.03516  0.22631  0.89471  Biso   1.000  O
  O65      1.0000 0.03517  0.22637  0.89471  Biso   1.000  O
  C353     1.0000 0.98469  0.34840  0.25889  Biso   1.000  C
  C354     1.0000 0.98476  0.34840  0.25889  Biso   1.000  C
  C355     1.0000 0.98475  0.34833  0.25889  Biso   1.000  C
  C356     1.0000 0.02204  0.20989  0.30089  Biso   1.000  C
  O66      1.0000 0.13233  0.12600  0.23932  Biso   1.000  O
  O67      1.0000 0.13232  0.12593  0.23932  Biso   1.000  O
  C357     1.0000 0.87699  0.37246  0.98293  Biso   1.000  C
  H316     1.0000 0.89601  0.45500  0.09899  Biso   1.000  H
  H317     1.0000 0.89601  0.45494  0.09899  Biso   1.000  H
  H318     1.0000 0.14602  0.41900  0.14402  Biso   1.000  H
  C358     1.0000 0.05059  0.50862  0.19928  Biso   1.000  C
  C359     1.0000 0.05066  0.50862  0.19928  Biso   1.000  C
  C360     1.0000 0.05066  0.50856  0.19928  Biso   1.000  C
  O68      1.0000 0.86795  0.28404  0.85360  Biso   1.000  O
  C361     1.0000 0.07483  0.26483  0.83278  Biso   1.000  C
  C362     1.0000 0.07484  0.26484  0.83284  Biso   1.000  C
  C363     1.0000 0.07484  0.26490  0.83278  Biso   1.000  C
  C364     1.0000 0.07485  0.26491  0.83284  Biso   1.000  C
  C365     1.0000 0.97020  0.28251  0.30553  Biso   1.000  C
  C366     1.0000 0.97026  0.28251  0.30553  Biso   1.000  C
  C367     1.0000 0.97026  0.28245  0.30553  Biso   1.000  C
  H319     1.0000 0.94503  0.40501  0.26300  Biso   1.000  H
  H320     1.0000 0.94502  0.40495  0.26300  Biso   1.000  H
  O69      1.0000 0.01421  0.14315  0.34628  Biso   1.000  O
  O70      1.0000 0.01422  0.14323  0.34634  Biso   1.000  O
  O71      1.0000 0.01422  0.14322  0.34628  Biso   1.000  O
  O72      1.0000 0.01422  0.14317  0.34634  Biso   1.000  O
  C368     1.0000 0.21434  0.12747  0.28881  Biso   1.000  C
  C369     1.0000 0.21435  0.12754  0.28881  Biso   1.000  C
  C370     1.0000 0.77869  0.38697  0.96502  Biso   1.000  C
  H321     1.0000 0.98400  0.50098  0.21802  Biso   1.000  H
  H322     1.0000 0.98407  0.50098  0.21802  Biso   1.000  H
  H323     1.0000 0.98401  0.50105  0.21802  Biso   1.000  H
  H324     1.0000 0.05202  0.55799  0.16002  Biso   1.000  H
  C371     1.0000 0.12633  0.54062  0.27442  Biso   1.000  C
  H325     1.0000 0.05203  0.55806  0.16002  Biso   1.000  H
  C372     1.0000 0.12632  0.54056  0.27442  Biso   1.000  C
  C373     1.0000 0.80556  0.20565  0.84438  Biso   1.000  C
  C374     1.0000 0.80557  0.20566  0.84444  Biso   1.000  C
  C375     1.0000 0.07908  0.18777  0.76050  Biso   1.000  C
  H326     1.0000 0.03402  0.31492  0.81398  Biso   1.000  H
  H327     1.0000 0.14303  0.29593  0.85503  Biso   1.000  H
  H328     1.0000 0.03409  0.31492  0.81398  Biso   1.000  H
  H329     1.0000 0.14310  0.29593  0.85503  Biso   1.000  H
  H330     1.0000 0.03403  0.31499  0.81398  Biso   1.000  H
  H331     1.0000 0.14304  0.29599  0.85503  Biso   1.000  H
  H332     1.0000 0.03409  0.31499  0.81398  Biso   1.000  H
  H333     1.0000 0.14310  0.29599  0.85503  Biso   1.000  H
  C376     1.0000 0.89631  0.28260  0.35800  Biso   1.000  C
  C377     1.0000 0.89631  0.28254  0.35800  Biso   1.000  C
  C378     1.0000 0.94101  0.07308  0.32784  Biso   1.000  C
  C379     1.0000 0.94100  0.07307  0.32778  Biso   1.000  C
  C380     1.0000 0.94101  0.07314  0.32778  Biso   1.000  C
  C381     1.0000 0.24700  0.04259  0.28578  Biso   1.000  C
  H334     1.0000 0.26501  0.17399  0.27198  Biso   1.000  H
  H335     1.0000 0.20305  0.15100  0.34902  Biso   1.000  H
  C382     1.0000 0.24701  0.04260  0.28584  Biso   1.000  C
  H336     1.0000 0.26502  0.17400  0.27204  Biso   1.000  H
  C383     1.0000 0.24700  0.04253  0.28584  Biso   1.000  C
  H337     1.0000 0.26501  0.17394  0.27204  Biso   1.000  H
  H338     1.0000 0.20304  0.15093  0.34902  Biso   1.000  H
  C384     1.0000 0.71964  0.31085  0.98519  Biso   1.000  C
  C385     1.0000 0.71971  0.31085  0.98519  Biso   1.000  C
  H339     1.0000 0.76103  0.38394  0.90202  Biso   1.000  H
  C386     1.0000 0.76026  0.48616  0.99929  Biso   1.000  C
  H340     1.0000 0.76110  0.38394  0.90202  Biso   1.000  H
  H341     1.0000 0.76104  0.38400  0.90202  Biso   1.000  H
  H342     1.0000 0.76111  0.38400  0.90202  Biso   1.000  H
  H343     1.0000 0.12803  0.48799  0.30999  Biso   1.000  H
  H344     1.0000 0.19204  0.55197  0.25401  Biso   1.000  H
  C387     1.0000 0.10632  0.62736  0.32558  Biso   1.000  C
  C388     1.0000 0.10633  0.62737  0.32564  Biso   1.000  C
  H345     1.0000 0.19204  0.55204  0.25401  Biso   1.000  H
  C389     1.0000 0.10633  0.62743  0.32558  Biso   1.000  C
  O73      1.0000 0.71604  0.22832  0.85128  Biso   1.000  O
  O74      1.0000 0.71605  0.22833  0.85134  Biso   1.000  O
  O75      1.0000 0.71605  0.22839  0.85128  Biso   1.000  O
  O76      1.0000 0.71605  0.22840  0.85134  Biso   1.000  O
  H346     1.0000 0.82508  0.16791  0.89001  Biso   1.000  H
  H347     1.0000 0.80703  0.16494  0.78697  Biso   1.000  H
  H348     1.0000 0.80704  0.16495  0.78703  Biso   1.000  H
  H349     1.0000 0.82509  0.16798  0.89001  Biso   1.000  H
  O77      1.0000 0.13836  0.12613  0.78668  Biso   1.000  O
  H350     1.0000 0.10403  0.21492  0.71202  Biso   1.000  H
  H351     1.0000 0.01204  0.15292  0.74099  Biso   1.000  H
  O78      1.0000 0.13837  0.12614  0.78674  Biso   1.000  O
  O79      1.0000 0.13837  0.12619  0.78668  Biso   1.000  O
  H352     1.0000 0.10403  0.21499  0.71202  Biso   1.000  H
  H353     1.0000 0.01204  0.15299  0.74099  Biso   1.000  H
  O80      1.0000 0.13838  0.12621  0.78674  Biso   1.000  O
  C390     1.0000 0.80903  0.22468  0.31041  Biso   1.000  C
  C391     1.0000 0.80904  0.22475  0.31041  Biso   1.000  C
  H354     1.0000 0.91404  0.25000  0.40803  Biso   1.000  H
  C392     1.0000 0.88494  0.37756  0.39750  Biso   1.000  C
  C393     1.0000 0.88495  0.37763  0.39750  Biso   1.000  C
  H355     1.0000 0.91403  0.24993  0.40803  Biso   1.000  H
  O81      1.0000 0.86004  0.09402  0.35419  Biso   1.000  O
  O82      1.0000 0.86003  0.09396  0.35419  Biso   1.000  O
  H356     1.0000 0.96205  0.01701  0.35401  Biso   1.000  H
  H357     1.0000 0.92905  0.05399  0.26401  Biso   1.000  H
  H358     1.0000 0.92898  0.05399  0.26401  Biso   1.000  H
  H359     1.0000 0.92899  0.05405  0.26401  Biso   1.000  H
  H360     1.0000 0.96204  0.01694  0.35401  Biso   1.000  H
  H361     1.0000 0.19903  0.99597  0.30601  Biso   1.000  H
  H362     1.0000 0.19904  0.99603  0.30601  Biso   1.000  H
  O83      1.0000 0.26472  0.00780  0.20279  Biso   1.000  O
  H363     1.0000 0.31104  0.05097  0.32397  Biso   1.000  H
  H364     1.0000 0.31105  0.05098  0.32403  Biso   1.000  H
  H365     1.0000 0.31104  0.05103  0.32397  Biso   1.000  H
  O84      1.0000 0.26471  0.00773  0.20279  Biso   1.000  O
  C394     1.0000 0.69060  0.31719  0.06020  Biso   1.000  C
  C395     1.0000 0.69060  0.31726  0.06020  Biso   1.000  C
  C396     1.0000 0.69435  0.23286  0.92850  Biso   1.000  C
  H366     1.0000 0.76398  0.49497  0.06300  Biso   1.000  H
  H367     1.0000 0.76405  0.49503  0.06300  Biso   1.000  H
  H368     1.0000 0.76399  0.49503  0.06300  Biso   1.000  H
  H369     1.0000 0.76405  0.49497  0.06300  Biso   1.000  H
  H370     1.0000 0.81004  0.53392  0.98299  Biso   1.000  H
  C397     1.0000 0.66564  0.50206  0.96449  Biso   1.000  C
  H371     1.0000 0.81010  0.53392  0.98299  Biso   1.000  H
  C398     1.0000 0.66571  0.50206  0.96449  Biso   1.000  C
  H372     1.0000 0.81004  0.53398  0.98299  Biso   1.000  H
  H373     1.0000 0.81011  0.53398  0.98299  Biso   1.000  H
  C399     1.0000 0.17035  0.70279  0.33718  Biso   1.000  C
  C400     1.0000 0.02663  0.63219  0.36067  Biso   1.000  C
  C401     1.0000 0.17036  0.70281  0.33724  Biso   1.000  C
  C402     1.0000 0.02664  0.63221  0.36073  Biso   1.000  C
  C403     1.0000 0.17035  0.70274  0.33724  Biso   1.000  C
  C404     1.0000 0.02663  0.63214  0.36073  Biso   1.000  C
  C405     1.0000 0.22955  0.15442  0.79453  Biso   1.000  C
  C406     1.0000 0.22955  0.15449  0.79453  Biso   1.000  C
  C407     1.0000 0.74704  0.26380  0.26341  Biso   1.000  C
  C408     1.0000 0.74703  0.26373  0.26341  Biso   1.000  C
  C409     1.0000 0.79993  0.13157  0.30731  Biso   1.000  C
  C410     1.0000 0.79994  0.13164  0.30731  Biso   1.000  C
  H374     1.0000 0.86300  0.41500  0.35199  Biso   1.000  H
  C411     1.0000 0.81351  0.37579  0.45580  Biso   1.000  C
  H375     1.0000 0.94904  0.40897  0.43004  Biso   1.000  H
  H376     1.0000 0.94904  0.40896  0.42998  Biso   1.000  H
  H377     1.0000 0.86306  0.41500  0.35199  Biso   1.000  H
  C412     1.0000 0.81358  0.37579  0.45580  Biso   1.000  C
  H378     1.0000 0.94904  0.40902  0.42998  Biso   1.000  H
  H379     1.0000 0.86306  0.41493  0.35199  Biso   1.000  H
  C413     1.0000 0.81357  0.37573  0.45580  Biso   1.000  C
  C414     1.0000 0.34242  0.05550  0.18168  Biso   1.000  C
  C415     1.0000 0.34243  0.05551  0.18174  Biso   1.000  C
  C416     1.0000 0.34243  0.05544  0.18174  Biso   1.000  C
  C417     1.0000 0.63633  0.24554  0.07852  Biso   1.000  C
  C418     1.0000 0.63633  0.24547  0.07852  Biso   1.000  C
  H380     1.0000 0.71003  0.37798  0.10398  Biso   1.000  H
  H381     1.0000 0.71003  0.37805  0.10398  Biso   1.000  H
  C419     1.0000 0.64008  0.16114  0.94682  Biso   1.000  C
  C420     1.0000 0.64009  0.16120  0.94682  Biso   1.000  C
  H382     1.0000 0.66608  0.49893  0.90101  Biso   1.000  H
  H383     1.0000 0.61907  0.44795  0.97400  Biso   1.000  H
  C421     1.0000 0.63009  0.58842  0.99590  Biso   1.000  C
  H384     1.0000 0.66609  0.49900  0.90101  Biso   1.000  H
  C422     1.0000 0.63010  0.58848  0.99590  Biso   1.000  C
  C423     1.0000 0.15462  0.78299  0.38387  Biso   1.000  C
  H385     1.0000 0.23204  0.69898  0.30999  Biso   1.000  H
  C424     1.0000 0.15463  0.78300  0.38393  Biso   1.000  C
  H386     1.0000 0.23204  0.69904  0.30999  Biso   1.000  H
  C425     1.0000 0.15462  0.78294  0.38393  Biso   1.000  C
  H387     1.0000 0.97704  0.57398  0.35199  Biso   1.000  H
  C426     1.0000 0.01092  0.71242  0.40749  Biso   1.000  C
  C427     1.0000 0.01091  0.71235  0.40749  Biso   1.000  C
  C428     1.0000 0.27923  0.07664  0.81398  Biso   1.000  C
  H388     1.0000 0.24801  0.17392  0.73998  Biso   1.000  H
  H389     1.0000 0.24605  0.21093  0.84200  Biso   1.000  H
  H390     1.0000 0.24809  0.17393  0.74004  Biso   1.000  H
  H391     1.0000 0.24802  0.17398  0.73998  Biso   1.000  H
  H392     1.0000 0.24605  0.21100  0.84200  Biso   1.000  H
  H393     1.0000 0.24809  0.17399  0.74004  Biso   1.000  H
  C429     1.0000 0.67582  0.20994  0.21332  Biso   1.000  C
  C430     1.0000 0.67581  0.20987  0.21332  Biso   1.000  C
  H394     1.0000 0.75401  0.33601  0.26603  Biso   1.000  H
  H395     1.0000 0.75401  0.33594  0.26603  Biso   1.000  H
  C431     1.0000 0.72871  0.07771  0.25723  Biso   1.000  C
  C432     1.0000 0.72870  0.07764  0.25723  Biso   1.000  C
  C433     1.0000 0.80076  0.46750  0.50047  Biso   1.000  C
  H396     1.0000 0.74901  0.34698  0.42201  Biso   1.000  H
  H397     1.0000 0.83404  0.33399  0.49803  Biso   1.000  H
  H398     1.0000 0.83403  0.33397  0.49797  Biso   1.000  H
  H399     1.0000 0.74907  0.34698  0.42201  Biso   1.000  H
  C434     1.0000 0.80077  0.46752  0.50053  Biso   1.000  C
  H400     1.0000 0.74901  0.34705  0.42201  Biso   1.000  H
  H401     1.0000 0.83404  0.33404  0.49797  Biso   1.000  H
  C435     1.0000 0.80076  0.46745  0.50053  Biso   1.000  C
  C436     1.0000 0.35432  0.99850  0.10220  Biso   1.000  C
  C437     1.0000 0.35432  0.99856  0.10220  Biso   1.000  C
  H402     1.0000 0.40102  0.05796  0.22498  Biso   1.000  H
  H403     1.0000 0.33004  0.12297  0.17501  Biso   1.000  H
  H404     1.0000 0.40103  0.05803  0.22498  Biso   1.000  H
  H405     1.0000 0.33004  0.12303  0.17501  Biso   1.000  H
  C438     1.0000 0.60071  0.24679  0.16074  Biso   1.000  C
  C439     1.0000 0.60071  0.24677  0.16068  Biso   1.000  C
  C440     1.0000 0.60071  0.24684  0.16068  Biso   1.000  C
  C441     1.0000 0.61098  0.16760  0.02177  Biso   1.000  C
  C442     1.0000 0.61105  0.16761  0.02183  Biso   1.000  C
  C443     1.0000 0.61098  0.16754  0.02183  Biso   1.000  C
  O85      1.0000 0.61492  0.08721  0.88668  Biso   1.000  O
  O86      1.0000 0.61500  0.08722  0.88674  Biso   1.000  O
  O87      1.0000 0.61493  0.08728  0.88668  Biso   1.000  O
  O88      1.0000 0.61500  0.08729  0.88674  Biso   1.000  O
  C444     1.0000 0.58902  0.58717  0.06490  Biso   1.000  C
  C445     1.0000 0.58902  0.58724  0.06490  Biso   1.000  C
  C446     1.0000 0.63667  0.66673  0.96312  Biso   1.000  C
  C447     1.0000 0.63667  0.66680  0.96312  Biso   1.000  C
  C448     1.0000 0.07494  0.78778  0.41909  Biso   1.000  C
  H406     1.0000 0.20404  0.84096  0.39298  Biso   1.000  H
  H407     1.0000 0.20406  0.84103  0.39304  Biso   1.000  H
  H408     1.0000 0.20405  0.84102  0.39298  Biso   1.000  H
  H409     1.0000 0.20405  0.84097  0.39304  Biso   1.000  H
  H410     1.0000 0.94906  0.71597  0.43503  Biso   1.000  H
  H411     1.0000 0.94905  0.71596  0.43497  Biso   1.000  H
  H412     1.0000 0.94905  0.71603  0.43497  Biso   1.000  H
  O89      1.0000 0.27705  0.01131  0.73718  Biso   1.000  O
  H413     1.0000 0.24606  0.04393  0.85598  Biso   1.000  H
  H414     1.0000 0.34904  0.09995  0.83801  Biso   1.000  H
  O90      1.0000 0.27705  0.01138  0.73718  Biso   1.000  O
  H415     1.0000 0.24607  0.04394  0.85604  Biso   1.000  H
  H416     1.0000 0.24607  0.04399  0.85598  Biso   1.000  H
  H417     1.0000 0.24607  0.04400  0.85604  Biso   1.000  H
  C449     1.0000 0.66673  0.11691  0.21029  Biso   1.000  C
  C450     1.0000 0.66672  0.11684  0.21029  Biso   1.000  C
  O91      1.0000 0.72301  0.98862  0.26282  Biso   1.000  O
  C451     1.0000 0.86027  0.54489  0.50410  Biso   1.000  C
  C452     1.0000 0.72217  0.47260  0.53718  Biso   1.000  C
  C453     1.0000 0.72218  0.47261  0.53723  Biso   1.000  C
  C454     1.0000 0.72210  0.47260  0.53718  Biso   1.000  C
  C455     1.0000 0.86026  0.54482  0.50410  Biso   1.000  C
  C456     1.0000 0.72217  0.47254  0.53723  Biso   1.000  C
  O92      1.0000 0.38514  0.91272  0.11332  Biso   1.000  O
  H418     1.0000 0.29004  0.98602  0.06502  Biso   1.000  H
  H419     1.0000 0.40303  0.03402  0.07299  Biso   1.000  H
  H420     1.0000 0.40303  0.03395  0.07299  Biso   1.000  H
  C457     1.0000 0.57609  0.34282  0.19280  Biso   1.000  C
  C458     1.0000 0.57616  0.34282  0.19280  Biso   1.000  C
  C459     1.0000 0.57615  0.34275  0.19280  Biso   1.000  C
  H421     1.0000 0.53800  0.20502  0.15800  Biso   1.000  H
  H422     1.0000 0.53799  0.20496  0.15800  Biso   1.000  H
  O93      1.0000 0.55855  0.09418  0.03992  Biso   1.000  O
  O94      1.0000 0.55848  0.09418  0.03992  Biso   1.000  O
  O95      1.0000 0.55848  0.09425  0.03992  Biso   1.000  O
  C460     1.0000 0.64575  0.00144  0.89780  Biso   1.000  C
  C461     1.0000 0.64575  0.00150  0.89780  Biso   1.000  C
  C462     1.0000 0.55471  0.66411  0.10113  Biso   1.000  C
  H423     1.0000 0.58403  0.52703  0.09001  Biso   1.000  H
  H424     1.0000 0.58402  0.52697  0.09001  Biso   1.000  H
  C463     1.0000 0.55470  0.66404  0.10113  Biso   1.000  C
  C464     1.0000 0.60228  0.74371  0.99923  Biso   1.000  C
  H425     1.0000 0.66809  0.66796  0.90999  Biso   1.000  H
  C465     1.0000 0.60229  0.74378  0.99923  Biso   1.000  C
  H426     1.0000 0.06301  0.85002  0.45502  Biso   1.000  H
  H427     1.0000 0.06308  0.85002  0.45502  Biso   1.000  H
  H428     1.0000 0.06307  0.84995  0.45502  Biso   1.000  H
  C466     1.0000 0.27136  0.92229  0.74277  Biso   1.000  C
  C467     1.0000 0.27136  0.92223  0.74283  Biso   1.000  C
  C468     1.0000 0.27137  0.92230  0.74283  Biso   1.000  C
  O96      1.0000 0.59290  0.06090  0.16591  Biso   1.000  O
  C469     1.0000 0.72083  0.92329  0.18602  Biso   1.000  C
  C470     1.0000 0.72084  0.92336  0.18602  Biso   1.000  C
  H429     1.0000 0.92103  0.54102  0.47602  Biso   1.000  H
  C471     1.0000 0.84105  0.62737  0.54443  Biso   1.000  C
  H430     1.0000 0.92102  0.54096  0.47602  Biso   1.000  H
  C472     1.0000 0.84104  0.62736  0.54437  Biso   1.000  C
  C473     1.0000 0.84105  0.62742  0.54437  Biso   1.000  C
  C474     1.0000 0.70295  0.55508  0.57751  Biso   1.000  C
  H431     1.0000 0.67604  0.41300  0.53402  Biso   1.000  H
  C475     1.0000 0.70296  0.55514  0.57751  Biso   1.000  C
  H432     1.0000 0.67603  0.41293  0.53402  Biso   1.000  H
  C476     1.0000 0.35998  0.83880  0.05318  Biso   1.000  C
  C477     1.0000 0.52591  0.33285  0.26323  Biso   1.000  C
  H433     1.0000 0.63705  0.38800  0.21201  Biso   1.000  H
  H434     1.0000 0.53405  0.36800  0.14801  Biso   1.000  H
  C478     1.0000 0.52591  0.33291  0.26317  Biso   1.000  C
  C479     1.0000 0.52592  0.33292  0.26323  Biso   1.000  C
  H435     1.0000 0.63699  0.38800  0.21201  Biso   1.000  H
  H436     1.0000 0.63705  0.38794  0.21201  Biso   1.000  H
  H437     1.0000 0.53404  0.36794  0.14801  Biso   1.000  H
  C480     1.0000 0.60178  0.03287  0.08459  Biso   1.000  C
  C481     1.0000 0.60185  0.03293  0.08459  Biso   1.000  C
  C482     1.0000 0.60178  0.03293  0.08459  Biso   1.000  C
  C483     1.0000 0.60184  0.03287  0.08459  Biso   1.000  C
  H438     1.0000 0.59703  0.96598  0.92701  Biso   1.000  H
  C484     1.0000 0.65764  0.94450  0.81832  Biso   1.000  C
  H439     1.0000 0.59710  0.96592  0.92701  Biso   1.000  H
  C485     1.0000 0.65764  0.94444  0.81832  Biso   1.000  C
  H440     1.0000 0.59710  0.96598  0.92701  Biso   1.000  H
  H441     1.0000 0.71002  0.01391  0.93498  Biso   1.000  H
  H442     1.0000 0.71010  0.01393  0.93504  Biso   1.000  H
  H443     1.0000 0.71003  0.01398  0.93498  Biso   1.000  H
  H444     1.0000 0.71011  0.01399  0.93504  Biso   1.000  H
  H445     1.0000 0.52306  0.66303  0.15503  Biso   1.000  H
  C486     1.0000 0.56134  0.74240  0.06823  Biso   1.000  C
  C487     1.0000 0.56133  0.74239  0.06817  Biso   1.000  C
  C488     1.0000 0.56133  0.74246  0.06817  Biso   1.000  C
  H446     1.0000 0.52299  0.66303  0.15503  Biso   1.000  H
  H447     1.0000 0.52305  0.66297  0.15503  Biso   1.000  H
  H448     1.0000 0.60707  0.80396  0.97400  Biso   1.000  H
  C489     1.0000 0.33334  0.88309  0.78971  Biso   1.000  C
  C490     1.0000 0.20014  0.86843  0.69269  Biso   1.000  C
  C491     1.0000 0.33333  0.88303  0.78971  Biso   1.000  C
  C492     1.0000 0.20013  0.86836  0.69269  Biso   1.000  C
  C493     1.0000 0.77051  0.84551  0.20547  Biso   1.000  C
  H449     1.0000 0.75400  0.95601  0.14402  Biso   1.000  H
  H450     1.0000 0.65102  0.89998  0.16199  Biso   1.000  H
  C494     1.0000 0.77052  0.84552  0.20553  Biso   1.000  C
  H451     1.0000 0.65103  0.90005  0.16199  Biso   1.000  H
  H452     1.0000 0.88704  0.68698  0.54699  Biso   1.000  H
  C495     1.0000 0.76232  0.63245  0.58108  Biso   1.000  C
  C496     1.0000 0.76233  0.63253  0.58114  Biso   1.000  C
  C497     1.0000 0.76232  0.63251  0.58108  Biso   1.000  C
  C498     1.0000 0.76233  0.63246  0.58114  Biso   1.000  C
  H453     1.0000 0.64204  0.55896  0.60600  Biso   1.000  H
  H454     1.0000 0.64205  0.55903  0.60600  Biso   1.000  H
  C499     1.0000 0.30571  0.76708  0.07150  Biso   1.000  C
  C500     1.0000 0.30571  0.76714  0.07150  Biso   1.000  C
  C501     1.0000 0.38909  0.83240  0.97823  Biso   1.000  C
  C502     1.0000 0.38908  0.83234  0.97823  Biso   1.000  C
  H455     1.0000 0.56806  0.30800  0.30803  Biso   1.000  H
  H456     1.0000 0.46404  0.28800  0.24402  Biso   1.000  H
  C503     1.0000 0.50321  0.43117  0.29613  Biso   1.000  C
  C504     1.0000 0.50320  0.43116  0.29607  Biso   1.000  C
  C505     1.0000 0.50321  0.43123  0.29607  Biso   1.000  C
  H457     1.0000 0.46404  0.28793  0.24402  Biso   1.000  H
  H458     1.0000 0.67298  0.03496  0.07698  Biso   1.000  H
  H459     1.0000 0.67306  0.03504  0.07704  Biso   1.000  H
  H460     1.0000 0.67298  0.03503  0.07698  Biso   1.000  H
  H461     1.0000 0.67298  0.03497  0.07704  Biso   1.000  H
  H462     1.0000 0.56898  0.96501  0.06401  Biso   1.000  H
  H463     1.0000 0.56905  0.96501  0.06401  Biso   1.000  H
  H464     1.0000 0.59904  0.94204  0.77502  Biso   1.000  H
  H465     1.0000 0.67003  0.87703  0.82499  Biso   1.000  H
  O97      1.0000 0.73535  0.99220  0.79721  Biso   1.000  O
  H466     1.0000 0.59904  0.94197  0.77502  Biso   1.000  H
  H467     1.0000 0.67009  0.87697  0.82499  Biso   1.000  H
  O98      1.0000 0.73535  0.99214  0.79721  Biso   1.000  O
  H468     1.0000 0.67002  0.87697  0.82499  Biso   1.000  H
  H469     1.0000 0.53500  0.80198  0.09601  Biso   1.000  H
  H470     1.0000 0.53506  0.80198  0.09601  Biso   1.000  H
  H471     1.0000 0.53500  0.80205  0.09601  Biso   1.000  H
  C506     1.0000 0.32425  0.79013  0.78668  Biso   1.000  C
  O99      1.0000 0.40717  0.93910  0.83409  Biso   1.000  O
  C507     1.0000 0.32426  0.79008  0.78674  Biso   1.000  C
  O100     1.0000 0.40717  0.93904  0.83409  Biso   1.000  O
  C508     1.0000 0.32425  0.79006  0.78668  Biso   1.000  C
  O101     1.0000 0.14004  0.90604  0.64581  Biso   1.000  O
  O102     1.0000 0.14003  0.90598  0.64581  Biso   1.000  O
  C509     1.0000 0.19104  0.77532  0.68959  Biso   1.000  C
  C510     1.0000 0.19103  0.77525  0.68959  Biso   1.000  C
  O103     1.0000 0.86170  0.87381  0.21332  Biso   1.000  O
  H472     1.0000 0.75205  0.82602  0.26002  Biso   1.000  H
  H473     1.0000 0.75401  0.78900  0.15800  Biso   1.000  H
  H474     1.0000 0.74705  0.69599  0.61201  Biso   1.000  H
  H475     1.0000 0.74705  0.69592  0.61201  Biso   1.000  H
  C511     1.0000 0.28042  0.68908  0.01481  Biso   1.000  C
  C512     1.0000 0.28043  0.68915  0.01481  Biso   1.000  C
  O104     1.0000 0.28402  0.77161  0.14872  Biso   1.000  O
  C513     1.0000 0.36374  0.75453  0.92148  Biso   1.000  C
  C514     1.0000 0.36374  0.75447  0.92154  Biso   1.000  C
  C515     1.0000 0.36373  0.75446  0.92148  Biso   1.000  C
  O105     1.0000 0.44159  0.90582  0.96008  Biso   1.000  O
  O106     1.0000 0.44158  0.90575  0.96008  Biso   1.000  O
  C516     1.0000 0.44332  0.47590  0.25229  Biso   1.000  C
  C517     1.0000 0.54395  0.47259  0.37198  Biso   1.000  C
  C518     1.0000 0.54396  0.47261  0.37204  Biso   1.000  C
  C519     1.0000 0.44332  0.47583  0.25229  Biso   1.000  C
  C520     1.0000 0.54396  0.47254  0.37204  Biso   1.000  C
  C521     1.0000 0.75307  0.95741  0.71422  Biso   1.000  C
  C522     1.0000 0.75306  0.95734  0.71422  Biso   1.000  C
  C523     1.0000 0.25303  0.73620  0.73659  Biso   1.000  C
  C524     1.0000 0.25302  0.73614  0.73659  Biso   1.000  C
  C525     1.0000 0.39936  0.75323  0.83932  Biso   1.000  C
  C526     1.0000 0.39936  0.75316  0.83932  Biso   1.000  C
  C527     1.0000 0.39829  0.96713  0.91541  Biso   1.000  C
  C528     1.0000 0.39828  0.96707  0.91541  Biso   1.000  C
  C529     1.0000 0.05907  0.92693  0.67222  Biso   1.000  C
  C530     1.0000 0.05906  0.92686  0.67222  Biso   1.000  C
  C531     1.0000 0.10375  0.71740  0.64200  Biso   1.000  C
  C532     1.0000 0.10375  0.71733  0.64200  Biso   1.000  C
  C533     1.0000 0.92098  0.81217  0.23950  Biso   1.000  C
  C534     1.0000 0.92105  0.81217  0.23950  Biso   1.000  C
  C535     1.0000 0.92099  0.81223  0.23950  Biso   1.000  C
  C536     1.0000 0.92105  0.81223  0.23950  Biso   1.000  C
  C537     1.0000 0.22137  0.61297  0.03498  Biso   1.000  C
  C538     1.0000 0.22138  0.61298  0.03504  Biso   1.000  C
  C539     1.0000 0.22138  0.61303  0.03498  Biso   1.000  C
  C540     1.0000 0.22138  0.61305  0.03504  Biso   1.000  C
  C541     1.0000 0.30947  0.68281  0.93980  Biso   1.000  C
  C542     1.0000 0.30946  0.68274  0.93980  Biso   1.000  C
  C543     1.0000 0.19450  0.79428  0.15562  Biso   1.000  C
  C544     1.0000 0.19451  0.79435  0.15562  Biso   1.000  C
  C545     1.0000 0.42424  0.56191  0.28429  Biso   1.000  C
  H476     1.0000 0.41203  0.44402  0.19399  Biso   1.000  H
  C546     1.0000 0.42423  0.56185  0.28429  Biso   1.000  C
  H477     1.0000 0.41202  0.44395  0.19399  Biso   1.000  H
  C547     1.0000 0.52473  0.55861  0.40398  Biso   1.000  C
  H478     1.0000 0.59003  0.43799  0.40600  Biso   1.000  H
  C548     1.0000 0.52473  0.55854  0.40398  Biso   1.000  C
  H479     1.0000 0.59002  0.43792  0.40600  Biso   1.000  H
  H480     1.0000 0.68903  0.94903  0.67603  Biso   1.000  H
  C549     1.0000 0.78572  0.87253  0.71119  Biso   1.000  C
  H481     1.0000 0.68909  0.94897  0.67603  Biso   1.000  H
  C550     1.0000 0.78579  0.87246  0.71119  Biso   1.000  C
  H482     1.0000 0.68902  0.94897  0.67603  Biso   1.000  H
  C551     1.0000 0.78572  0.87246  0.71119  Biso   1.000  C
  H483     1.0000 0.80103  0.00397  0.69399  Biso   1.000  H
  H484     1.0000 0.24605  0.66399  0.73397  Biso   1.000  H
  H485     1.0000 0.24606  0.66394  0.73403  Biso   1.000  H
  H486     1.0000 0.24606  0.66401  0.73403  Biso   1.000  H
  H487     1.0000 0.46207  0.79498  0.84200  Biso   1.000  H
  C552     1.0000 0.42397  0.65718  0.80720  Biso   1.000  C
  C553     1.0000 0.42397  0.65712  0.80720  Biso   1.000  C
  H488     1.0000 0.32709  0.96504  0.92302  Biso   1.000  H
  H489     1.0000 0.32709  0.96497  0.92302  Biso   1.000  H
  H490     1.0000 0.43108  0.03492  0.93599  Biso   1.000  H
  H491     1.0000 0.43109  0.03499  0.93599  Biso   1.000  H
  O107     1.0000 0.98586  0.85685  0.65372  Biso   1.000  O
  O108     1.0000 0.98585  0.85678  0.65372  Biso   1.000  O
  H492     1.0000 0.07108  0.94601  0.73599  Biso   1.000  H
  H493     1.0000 0.03802  0.98299  0.64599  Biso   1.000  H
  H494     1.0000 0.07108  0.94595  0.73599  Biso   1.000  H
  H495     1.0000 0.03808  0.98293  0.64599  Biso   1.000  H
  H496     1.0000 0.07101  0.94595  0.73599  Biso   1.000  H
  H497     1.0000 0.03808  0.98299  0.64599  Biso   1.000  H
  C554     1.0000 0.02987  0.71749  0.69447  Biso   1.000  C
  C555     1.0000 0.02987  0.71743  0.69453  Biso   1.000  C
  C556     1.0000 0.02980  0.71749  0.69447  Biso   1.000  C
  C557     1.0000 0.02988  0.71750  0.69453  Biso   1.000  C
  H498     1.0000 0.08603  0.75000  0.59197  Biso   1.000  H
  C558     1.0000 0.11513  0.62244  0.60250  Biso   1.000  C
  H499     1.0000 0.08603  0.74995  0.59203  Biso   1.000  H
  C559     1.0000 0.11512  0.62237  0.60250  Biso   1.000  C
  H500     1.0000 0.08604  0.75001  0.59203  Biso   1.000  H
  C560     1.0000 0.92523  0.73510  0.16722  Biso   1.000  C
  H501     1.0000 0.89603  0.78501  0.28798  Biso   1.000  H
  H502     1.0000 0.98803  0.84701  0.25901  Biso   1.000  H
  H503     1.0000 0.89604  0.78502  0.28804  Biso   1.000  H
  C561     1.0000 0.12308  0.62747  0.01707  Biso   1.000  C
  C562     1.0000 0.12308  0.62748  0.01713  Biso   1.000  C
  C563     1.0000 0.12308  0.62754  0.01707  Biso   1.000  C
  C564     1.0000 0.12309  0.62755  0.01713  Biso   1.000  C
  H504     1.0000 0.23903  0.61600  0.09798  Biso   1.000  H
  C565     1.0000 0.23980  0.51377  0.00071  Biso   1.000  C
  H505     1.0000 0.23904  0.61601  0.09804  Biso   1.000  H
  C566     1.0000 0.23980  0.51384  0.00071  Biso   1.000  C
  H506     1.0000 0.29004  0.62202  0.89602  Biso   1.000  H
  H507     1.0000 0.29003  0.62195  0.89602  Biso   1.000  H
  O109     1.0000 0.13212  0.71589  0.14640  Biso   1.000  O
  O110     1.0000 0.13212  0.71596  0.14640  Biso   1.000  O
  H508     1.0000 0.17498  0.83202  0.10999  Biso   1.000  H
  H509     1.0000 0.19303  0.83499  0.21303  Biso   1.000  H
  H510     1.0000 0.17505  0.83202  0.10999  Biso   1.000  H
  H511     1.0000 0.19303  0.83506  0.21303  Biso   1.000  H
  H512     1.0000 0.37802  0.59601  0.25003  Biso   1.000  H
  C567     1.0000 0.46496  0.60319  0.36008  Biso   1.000  C
  C568     1.0000 0.46497  0.60320  0.36014  Biso   1.000  C
  C569     1.0000 0.46496  0.60314  0.36014  Biso   1.000  C
  H513     1.0000 0.37801  0.59594  0.25003  Biso   1.000  H
  H514     1.0000 0.55603  0.59097  0.46299  Biso   1.000  H
  H515     1.0000 0.55603  0.59103  0.46299  Biso   1.000  H
  H516     1.0000 0.73506  0.82601  0.72802  Biso   1.000  H
  H517     1.0000 0.79702  0.84900  0.65098  Biso   1.000  H
  O111     1.0000 0.86774  0.87400  0.76068  Biso   1.000  O
  H518     1.0000 0.73505  0.82594  0.72802  Biso   1.000  H
  H519     1.0000 0.79701  0.84894  0.65098  Biso   1.000  H
  O112     1.0000 0.86774  0.87395  0.76074  Biso   1.000  O
  O113     1.0000 0.86774  0.87393  0.76068  Biso   1.000  O
  O114     1.0000 0.86775  0.87401  0.76074  Biso   1.000  O
  H520     1.0000 0.36301  0.61200  0.78799  Biso   1.000  H
  H521     1.0000 0.46602  0.63200  0.85199  Biso   1.000  H
  C570     1.0000 0.47416  0.66709  0.73683  Biso   1.000  C
  H522     1.0000 0.36308  0.61193  0.78799  Biso   1.000  H
  H523     1.0000 0.46608  0.63193  0.85199  Biso   1.000  H
  C571     1.0000 0.47415  0.66703  0.73683  Biso   1.000  C
  H524     1.0000 0.36301  0.61193  0.78799  Biso   1.000  H
  H525     1.0000 0.36308  0.61200  0.78799  Biso   1.000  H
  H526     1.0000 0.46609  0.63200  0.85199  Biso   1.000  H
  C572     1.0000 0.97803  0.79011  0.69911  Biso   1.000  C
  C573     1.0000 0.97802  0.79004  0.69911  Biso   1.000  C
  C574     1.0000 0.01537  0.65160  0.74111  Biso   1.000  C
  C575     1.0000 0.01537  0.65154  0.74111  Biso   1.000  C
  H527     1.0000 0.13707  0.58500  0.64801  Biso   1.000  H
  H528     1.0000 0.05103  0.59104  0.57002  Biso   1.000  H
  C576     1.0000 0.18656  0.62421  0.54420  Biso   1.000  C
  H529     1.0000 0.13707  0.58494  0.64801  Biso   1.000  H
  H530     1.0000 0.05103  0.59098  0.57002  Biso   1.000  H
  C577     1.0000 0.18655  0.62414  0.54420  Biso   1.000  C
  O115     1.0000 0.96490  0.77363  0.10529  Biso   1.000  O
  H531     1.0000 0.96604  0.68501  0.18602  Biso   1.000  H
  H532     1.0000 0.85703  0.70401  0.14497  Biso   1.000  H
  H533     1.0000 0.85704  0.70402  0.14503  Biso   1.000  H
  H534     1.0000 0.96597  0.68501  0.18602  Biso   1.000  H
  H535     1.0000 0.85696  0.70401  0.14497  Biso   1.000  H
  C578     1.0000 0.08470  0.68681  0.07162  Biso   1.000  C
  C579     1.0000 0.07443  0.59122  0.94289  Biso   1.000  C
  C580     1.0000 0.07449  0.59116  0.94289  Biso   1.000  C
  C581     1.0000 0.07442  0.59116  0.94289  Biso   1.000  C
  H536     1.0000 0.23609  0.50503  0.93700  Biso   1.000  H
  H537     1.0000 0.23608  0.50497  0.93700  Biso   1.000  H
  H538     1.0000 0.19003  0.46602  0.01701  Biso   1.000  H
  C582     1.0000 0.33442  0.49788  0.03551  Biso   1.000  C
  C583     1.0000 0.33442  0.49794  0.03551  Biso   1.000  C
  H539     1.0000 0.45003  0.67001  0.38501  Biso   1.000  H
  H540     1.0000 0.45002  0.66994  0.38501  Biso   1.000  H
  C584     1.0000 0.91175  0.79672  0.75039  Biso   1.000  C
  C585     1.0000 0.91174  0.79665  0.75039  Biso   1.000  C
  H541     1.0000 0.43201  0.69200  0.69197  Biso   1.000  H
  H542     1.0000 0.53602  0.71200  0.75598  Biso   1.000  H
  C586     1.0000 0.49687  0.56884  0.70393  Biso   1.000  C
  H543     1.0000 0.43208  0.69195  0.69203  Biso   1.000  H
  H544     1.0000 0.53608  0.71193  0.75598  Biso   1.000  H
  C587     1.0000 0.49686  0.56877  0.70393  Biso   1.000  C
  H545     1.0000 0.43200  0.69194  0.69197  Biso   1.000  H
  H546     1.0000 0.53602  0.71193  0.75598  Biso   1.000  H
  H547     1.0000 0.43209  0.69202  0.69203  Biso   1.000  H
  C588     1.0000 0.94903  0.65833  0.79233  Biso   1.000  C
  C589     1.0000 0.94909  0.65826  0.79233  Biso   1.000  C
  C590     1.0000 0.94902  0.65826  0.79233  Biso   1.000  C
  H548     1.0000 0.05504  0.59499  0.73700  Biso   1.000  H
  H549     1.0000 0.05503  0.59492  0.73700  Biso   1.000  H
  H550     1.0000 0.25106  0.65302  0.57799  Biso   1.000  H
  H551     1.0000 0.16603  0.66603  0.50203  Biso   1.000  H
  C591     1.0000 0.19931  0.53250  0.49953  Biso   1.000  C
  H552     1.0000 0.25105  0.65295  0.57799  Biso   1.000  H
  H553     1.0000 0.16603  0.66596  0.50203  Biso   1.000  H
  C592     1.0000 0.19937  0.53243  0.49953  Biso   1.000  C
  C593     1.0000 0.19937  0.53250  0.49953  Biso   1.000  C
  C594     1.0000 0.99753  0.70971  0.05199  Biso   1.000  C
  C595     1.0000 0.98727  0.61420  0.92332  Biso   1.000  C
  C596     1.0000 0.98726  0.61413  0.92332  Biso   1.000  C
  H554     1.0000 0.10406  0.54500  0.90101  Biso   1.000  H
  H555     1.0000 0.10405  0.54493  0.90101  Biso   1.000  H
  H556     1.0000 0.33398  0.50100  0.09899  Biso   1.000  H
  H557     1.0000 0.38100  0.55198  0.02600  Biso   1.000  H
  C597     1.0000 0.36997  0.41152  0.00410  Biso   1.000  C
  H558     1.0000 0.38100  0.55205  0.02600  Biso   1.000  H
  C598     1.0000 0.89723  0.73081  0.79691  Biso   1.000  C
  C599     1.0000 0.89723  0.73074  0.79691  Biso   1.000  C
  C600     1.0000 0.55674  0.52410  0.74771  Biso   1.000  C
  C601     1.0000 0.45611  0.52741  0.62802  Biso   1.000  C
  C602     1.0000 0.55674  0.52403  0.74771  Biso   1.000  C
  C603     1.0000 0.45617  0.52734  0.62802  Biso   1.000  C
  C604     1.0000 0.45618  0.52741  0.62802  Biso   1.000  C
  C605     1.0000 0.92426  0.58573  0.84569  Biso   1.000  C
  C606     1.0000 0.92426  0.58566  0.84569  Biso   1.000  C
  C607     1.0000 0.13980  0.45511  0.49590  Biso   1.000  C
  C608     1.0000 0.27790  0.52740  0.46282  Biso   1.000  C
  C609     1.0000 0.13986  0.45504  0.49590  Biso   1.000  C
  C610     1.0000 0.27796  0.52734  0.46282  Biso   1.000  C
  C611     1.0000 0.13987  0.45511  0.49590  Biso   1.000  C
  C612     1.0000 0.27796  0.52740  0.46282  Biso   1.000  C
  C613     1.0000 0.94888  0.67353  0.97781  Biso   1.000  C
  C614     1.0000 0.94888  0.67346  0.97781  Biso   1.000  C
  C615     1.0000 0.41105  0.41283  0.93510  Biso   1.000  C
  C616     1.0000 0.41104  0.41276  0.93510  Biso   1.000  C
  C617     1.0000 0.36339  0.33320  0.03688  Biso   1.000  C
  O116     1.0000 0.82286  0.73951  0.84319  Biso   1.000  O
  O117     1.0000 0.82286  0.73944  0.84319  Biso   1.000  O
  C618     1.0000 0.57583  0.43809  0.71571  Biso   1.000  C
  H559     1.0000 0.58804  0.55598  0.80601  Biso   1.000  H
  C619     1.0000 0.57583  0.43802  0.71571  Biso   1.000  C
  H560     1.0000 0.58803  0.55592  0.80601  Biso   1.000  H
  C620     1.0000 0.47534  0.44139  0.59602  Biso   1.000  C
  H561     1.0000 0.41004  0.56201  0.59400  Biso   1.000  H
  C621     1.0000 0.47533  0.44133  0.59602  Biso   1.000  C
  H562     1.0000 0.41004  0.56194  0.59400  Biso   1.000  H
  H563     1.0000 0.85404  0.58100  0.85598  Biso   1.000  H
  C622     1.0000 0.94947  0.49138  0.80072  Biso   1.000  C
  H564     1.0000 0.85405  0.58095  0.85604  Biso   1.000  H
  H565     1.0000 0.85404  0.58094  0.85598  Biso   1.000  H
  C623     1.0000 0.15903  0.37264  0.45563  Biso   1.000  C
  H566     1.0000 0.07904  0.45904  0.52398  Biso   1.000  H
  C624     1.0000 0.15902  0.37258  0.45563  Biso   1.000  C
  H567     1.0000 0.07905  0.45899  0.52404  Biso   1.000  H
  H568     1.0000 0.07904  0.45898  0.52398  Biso   1.000  H
  C625     1.0000 0.29711  0.44492  0.42249  Biso   1.000  C
  H569     1.0000 0.32403  0.58700  0.46598  Biso   1.000  H
  C626     1.0000 0.29711  0.44486  0.42249  Biso   1.000  C
  H570     1.0000 0.32403  0.58695  0.46604  Biso   1.000  H
  H571     1.0000 0.32404  0.58702  0.46604  Biso   1.000  H
  O118     1.0000 0.86263  0.69627  0.96978  Biso   1.000  O
  O119     1.0000 0.86264  0.69622  0.96984  Biso   1.000  O
  O120     1.0000 0.86264  0.69628  0.96984  Biso   1.000  O
  C627     1.0000 0.44536  0.33589  0.89887  Biso   1.000  C
  H572     1.0000 0.41605  0.47303  0.90999  Biso   1.000  H
  C628     1.0000 0.44536  0.33584  0.89893  Biso   1.000  C
  H573     1.0000 0.41604  0.47297  0.90999  Biso   1.000  H
  C629     1.0000 0.44536  0.33590  0.89893  Biso   1.000  C
  C630     1.0000 0.39778  0.25622  0.00077  Biso   1.000  C
  H574     1.0000 0.33197  0.33197  0.09001  Biso   1.000  H
  C631     1.0000 0.39779  0.25623  0.00083  Biso   1.000  C
  H575     1.0000 0.33204  0.33204  0.09001  Biso   1.000  H
  H576     1.0000 0.33197  0.33204  0.09001  Biso   1.000  H
  C632     1.0000 0.84787  0.77003  0.92731  Biso   1.000  C
  C633     1.0000 0.84786  0.76996  0.92731  Biso   1.000  C
  C634     1.0000 0.53511  0.39681  0.63992  Biso   1.000  C
  H577     1.0000 0.62205  0.40399  0.74997  Biso   1.000  H
  C635     1.0000 0.53517  0.39674  0.63992  Biso   1.000  C
  H578     1.0000 0.62205  0.40394  0.75003  Biso   1.000  H
  C636     1.0000 0.53518  0.39681  0.63992  Biso   1.000  C
  H579     1.0000 0.62206  0.40401  0.75003  Biso   1.000  H
  H580     1.0000 0.44404  0.40903  0.53701  Biso   1.000  H
  H581     1.0000 0.44404  0.40897  0.53701  Biso   1.000  H
  H582     1.0000 0.94805  0.44201  0.83998  Biso   1.000  H
  C637     1.0000 0.87374  0.45938  0.72558  Biso   1.000  C
  H583     1.0000 0.94805  0.44195  0.84004  Biso   1.000  H
  H584     1.0000 0.94804  0.44194  0.83998  Biso   1.000  H
  H585     1.0000 0.01607  0.49902  0.78198  Biso   1.000  H
  H586     1.0000 0.01607  0.49896  0.78204  Biso   1.000  H
  H587     1.0000 0.01606  0.49895  0.78198  Biso   1.000  H
  C638     1.0000 0.23775  0.36755  0.41892  Biso   1.000  C
  H588     1.0000 0.11303  0.31302  0.45301  Biso   1.000  H
  C639     1.0000 0.23774  0.36749  0.41892  Biso   1.000  C
  H589     1.0000 0.11302  0.31295  0.45301  Biso   1.000  H
  H590     1.0000 0.35802  0.44104  0.39400  Biso   1.000  H
  H591     1.0000 0.35802  0.44097  0.39400  Biso   1.000  H
  C640     1.0000 0.43874  0.25761  0.93183  Biso   1.000  C
  H592     1.0000 0.47701  0.33697  0.84497  Biso   1.000  H
  C641     1.0000 0.43873  0.25754  0.93183  Biso   1.000  C
  H593     1.0000 0.47708  0.33698  0.84503  Biso   1.000  H
  H594     1.0000 0.39300  0.19598  0.02600  Biso   1.000  H
  H595     1.0000 0.39300  0.19604  0.02600  Biso   1.000  H
  H596     1.0000 0.91008  0.81499  0.93700  Biso   1.000  H
  H597     1.0000 0.79408  0.80499  0.95098  Biso   1.000  H
  H598     1.0000 0.91007  0.81493  0.93700  Biso   1.000  H
  H599     1.0000 0.79407  0.80492  0.95098  Biso   1.000  H
  H600     1.0000 0.55004  0.32999  0.61499  Biso   1.000  H
  H601     1.0000 0.55003  0.32992  0.61499  Biso   1.000  H
  H602     1.0000 0.87204  0.51201  0.69001  Biso   1.000  H
  H603     1.0000 0.80803  0.44803  0.74599  Biso   1.000  H
  C642     1.0000 0.89375  0.37264  0.67442  Biso   1.000  C
  H604     1.0000 0.87203  0.51195  0.69001  Biso   1.000  H
  H605     1.0000 0.80802  0.44796  0.74599  Biso   1.000  H
  C643     1.0000 0.89374  0.37257  0.67442  Biso   1.000  C
  H606     1.0000 0.25301  0.30401  0.38799  Biso   1.000  H
  H607     1.0000 0.25301  0.30395  0.38799  Biso   1.000  H
  H608     1.0000 0.46507  0.19802  0.90399  Biso   1.000  H
  H609     1.0000 0.46506  0.19795  0.90399  Biso   1.000  H
  C644     1.0000 0.82972  0.29721  0.66282  Biso   1.000  C
  C645     1.0000 0.97343  0.36781  0.63933  Biso   1.000  C
  C646     1.0000 0.82978  0.29714  0.66282  Biso   1.000  C
  C647     1.0000 0.97343  0.36774  0.63933  Biso   1.000  C
  C648     1.0000 0.84545  0.21701  0.61613  Biso   1.000  C
  H610     1.0000 0.76803  0.30102  0.69001  Biso   1.000  H
  C649     1.0000 0.84544  0.21694  0.61613  Biso   1.000  C
  H611     1.0000 0.76803  0.30096  0.69001  Biso   1.000  H
  C650     1.0000 0.98915  0.28758  0.59251  Biso   1.000  C
  H612     1.0000 0.02303  0.42602  0.64801  Biso   1.000  H
  H613     1.0000 0.02302  0.42595  0.64801  Biso   1.000  H
  C651     1.0000 0.92512  0.21222  0.58091  Biso   1.000  C
  H614     1.0000 0.79602  0.15904  0.60702  Biso   1.000  H
  C652     1.0000 0.92512  0.21215  0.58091  Biso   1.000  C
  H615     1.0000 0.79602  0.15898  0.60702  Biso   1.000  H
  H616     1.0000 0.05102  0.28404  0.56503  Biso   1.000  H
  H617     1.0000 0.05101  0.28397  0.56503  Biso   1.000  H
  H618     1.0000 0.93705  0.14998  0.54498  Biso   1.000  H
  H619     1.0000 0.93706  0.14999  0.54504  Biso   1.000  H
  H620     1.0000 0.93699  0.14998  0.54498  Biso   1.000  H
  C653     1.0000 0.15220  0.22997  0.07269  Biso   1.000  C
  O121     1.0000 0.13743  0.30373  0.03022  Biso   1.000  O
  O122     1.0000 0.13743  0.30366  0.03022  Biso   1.000  O
  O123     1.0000 0.17720  0.26049  0.15681  Biso   1.000  O
  H621     1.0000 0.08999  0.18501  0.06300  Biso   1.000  H
  H622     1.0000 0.20599  0.19501  0.04902  Biso   1.000  H
  H623     1.0000 0.20605  0.19501  0.04902  Biso   1.000  H
  H624     1.0000 0.08998  0.18494  0.06300  Biso   1.000  H
  H625     1.0000 0.20598  0.19494  0.04902  Biso   1.000  H
  C654     1.0000 0.05118  0.32647  0.02219  Biso   1.000  C
  C655     1.0000 0.05119  0.32654  0.02219  Biso   1.000  C
  C656     1.0000 0.15221  0.23004  0.07269  Biso   1.000  C
  C657     1.0000 0.10283  0.26919  0.20309  Biso   1.000  C
  C658     1.0000 0.10283  0.26913  0.20309  Biso   1.000  C
  C659     1.0000 0.01280  0.38580  0.07668  Biso   1.000  C
  C660     1.0000 0.01281  0.38581  0.07674  Biso   1.000  C
  C661     1.0000 0.01280  0.38575  0.07674  Biso   1.000  C
  C662     1.0000 0.00253  0.29023  0.94801  Biso   1.000  C
  C663     1.0000 0.00260  0.29023  0.94801  Biso   1.000  C
  C664     1.0000 0.00254  0.29029  0.94801  Biso   1.000  C
  C665     1.0000 0.00261  0.29029  0.94801  Biso   1.000  C
  C666     1.0000 0.05104  0.34167  0.20767  Biso   1.000  C
  C667     1.0000 0.05105  0.34168  0.20773  Biso   1.000  C
  C668     1.0000 0.05105  0.34174  0.20767  Biso   1.000  C
  C669     1.0000 0.08832  0.20328  0.24961  Biso   1.000  C
  C670     1.0000 0.08833  0.20335  0.24961  Biso   1.000  C
  C671     1.0000 0.92564  0.40878  0.05711  Biso   1.000  C
  C672     1.0000 0.92565  0.40884  0.05711  Biso   1.000  C
  C673     1.0000 0.07580  0.41427  0.15431  Biso   1.000  C
  C674     1.0000 0.07581  0.41434  0.15431  Biso   1.000  C
  C675     1.0000 0.91536  0.31312  0.92838  Biso   1.000  C
  C676     1.0000 0.91537  0.31314  0.92844  Biso   1.000  C
  C677     1.0000 0.91537  0.31319  0.92838  Biso   1.000  C
  C678     1.0000 0.91537  0.31320  0.92844  Biso   1.000  C
  O124     1.0000 0.03516  0.22631  0.89471  Biso   1.000  O
  O125     1.0000 0.03517  0.22637  0.89471  Biso   1.000  O
  C679     1.0000 0.98469  0.34840  0.25889  Biso   1.000  C
  C680     1.0000 0.98476  0.34840  0.25889  Biso   1.000  C
  C681     1.0000 0.98475  0.34833  0.25889  Biso   1.000  C
  C682     1.0000 0.02204  0.20989  0.30089  Biso   1.000  C
  O126     1.0000 0.13233  0.12600  0.23932  Biso   1.000  O
  O127     1.0000 0.13232  0.12593  0.23932  Biso   1.000  O
  C683     1.0000 0.87699  0.37246  0.98293  Biso   1.000  C
  H626     1.0000 0.89601  0.45500  0.09899  Biso   1.000  H
  H627     1.0000 0.89601  0.45494  0.09899  Biso   1.000  H
  H628     1.0000 0.14602  0.41900  0.14402  Biso   1.000  H
  C684     1.0000 0.05059  0.50862  0.19928  Biso   1.000  C
  C685     1.0000 0.05066  0.50862  0.19928  Biso   1.000  C
  C686     1.0000 0.05066  0.50856  0.19928  Biso   1.000  C
  O128     1.0000 0.86795  0.28404  0.85360  Biso   1.000  O
  C687     1.0000 0.07483  0.26483  0.83278  Biso   1.000  C
  C688     1.0000 0.07484  0.26484  0.83284  Biso   1.000  C
  C689     1.0000 0.07484  0.26490  0.83278  Biso   1.000  C
  C690     1.0000 0.07485  0.26491  0.83284  Biso   1.000  C
  C691     1.0000 0.97020  0.28251  0.30553  Biso   1.000  C
  C692     1.0000 0.97026  0.28251  0.30553  Biso   1.000  C
  C693     1.0000 0.97026  0.28245  0.30553  Biso   1.000  C
  H629     1.0000 0.94503  0.40501  0.26300  Biso   1.000  H
  H630     1.0000 0.94502  0.40495  0.26300  Biso   1.000  H
  O129     1.0000 0.01421  0.14315  0.34628  Biso   1.000  O
  O130     1.0000 0.01422  0.14323  0.34634  Biso   1.000  O
  O131     1.0000 0.01422  0.14322  0.34628  Biso   1.000  O
  O132     1.0000 0.01422  0.14317  0.34634  Biso   1.000  O
  C694     1.0000 0.21434  0.12747  0.28881  Biso   1.000  C
  C695     1.0000 0.21435  0.12754  0.28881  Biso   1.000  C
  C696     1.0000 0.77869  0.38697  0.96502  Biso   1.000  C
  H631     1.0000 0.98400  0.50098  0.21802  Biso   1.000  H
  H632     1.0000 0.98407  0.50098  0.21802  Biso   1.000  H
  H633     1.0000 0.98401  0.50105  0.21802  Biso   1.000  H
  H634     1.0000 0.05202  0.55799  0.16002  Biso   1.000  H
  C697     1.0000 0.12633  0.54062  0.27442  Biso   1.000  C
  H635     1.0000 0.05203  0.55806  0.16002  Biso   1.000  H
  C698     1.0000 0.12632  0.54056  0.27442  Biso   1.000  C
  C699     1.0000 0.80556  0.20565  0.84438  Biso   1.000  C
  C700     1.0000 0.80557  0.20566  0.84444  Biso   1.000  C
  C701     1.0000 0.07908  0.18777  0.76050  Biso   1.000  C
  H636     1.0000 0.03402  0.31492  0.81398  Biso   1.000  H
  H637     1.0000 0.14303  0.29593  0.85503  Biso   1.000  H
  H638     1.0000 0.03409  0.31492  0.81398  Biso   1.000  H
  H639     1.0000 0.14310  0.29593  0.85503  Biso   1.000  H
  H640     1.0000 0.03403  0.31499  0.81398  Biso   1.000  H
  H641     1.0000 0.14304  0.29599  0.85503  Biso   1.000  H
  H642     1.0000 0.03409  0.31499  0.81398  Biso   1.000  H
  H643     1.0000 0.14310  0.29599  0.85503  Biso   1.000  H
  C702     1.0000 0.89631  0.28260  0.35800  Biso   1.000  C
  C703     1.0000 0.89631  0.28254  0.35800  Biso   1.000  C
  C704     1.0000 0.94101  0.07308  0.32784  Biso   1.000  C
  C705     1.0000 0.94100  0.07307  0.32778  Biso   1.000  C
  C706     1.0000 0.94101  0.07314  0.32778  Biso   1.000  C
  C707     1.0000 0.24700  0.04259  0.28578  Biso   1.000  C
  H644     1.0000 0.26501  0.17399  0.27198  Biso   1.000  H
  H645     1.0000 0.20305  0.15100  0.34902  Biso   1.000  H
  C708     1.0000 0.24701  0.04260  0.28584  Biso   1.000  C
  H646     1.0000 0.26502  0.17400  0.27204  Biso   1.000  H
  C709     1.0000 0.24700  0.04253  0.28584  Biso   1.000  C
  H647     1.0000 0.26501  0.17394  0.27204  Biso   1.000  H
  H648     1.0000 0.20304  0.15093  0.34902  Biso   1.000  H
  C710     1.0000 0.71964  0.31085  0.98519  Biso   1.000  C
  C711     1.0000 0.71971  0.31085  0.98519  Biso   1.000  C
  H649     1.0000 0.76103  0.38394  0.90202  Biso   1.000  H
  C712     1.0000 0.76026  0.48616  0.99929  Biso   1.000  C
  H650     1.0000 0.76110  0.38394  0.90202  Biso   1.000  H
  H651     1.0000 0.76104  0.38400  0.90202  Biso   1.000  H
  H652     1.0000 0.76111  0.38400  0.90202  Biso   1.000  H
  H653     1.0000 0.12803  0.48799  0.30999  Biso   1.000  H
  H654     1.0000 0.19204  0.55197  0.25401  Biso   1.000  H
  C713     1.0000 0.10632  0.62736  0.32558  Biso   1.000  C
  C714     1.0000 0.10633  0.62737  0.32564  Biso   1.000  C
  H655     1.0000 0.19204  0.55204  0.25401  Biso   1.000  H
  C715     1.0000 0.10633  0.62743  0.32558  Biso   1.000  C
  O133     1.0000 0.71604  0.22832  0.85128  Biso   1.000  O
  O134     1.0000 0.71605  0.22833  0.85134  Biso   1.000  O
  O135     1.0000 0.71605  0.22839  0.85128  Biso   1.000  O
  O136     1.0000 0.71605  0.22840  0.85134  Biso   1.000  O
  H656     1.0000 0.82508  0.16791  0.89001  Biso   1.000  H
  H657     1.0000 0.80703  0.16494  0.78697  Biso   1.000  H
  H658     1.0000 0.80704  0.16495  0.78703  Biso   1.000  H
  H659     1.0000 0.82509  0.16798  0.89001  Biso   1.000  H
  O137     1.0000 0.13836  0.12613  0.78668  Biso   1.000  O
  H660     1.0000 0.10403  0.21492  0.71202  Biso   1.000  H
  H661     1.0000 0.01204  0.15292  0.74099  Biso   1.000  H
  O138     1.0000 0.13837  0.12614  0.78674  Biso   1.000  O
  O139     1.0000 0.13837  0.12619  0.78668  Biso   1.000  O
  H662     1.0000 0.10403  0.21499  0.71202  Biso   1.000  H
  H663     1.0000 0.01204  0.15299  0.74099  Biso   1.000  H
  O140     1.0000 0.13838  0.12621  0.78674  Biso   1.000  O
  C716     1.0000 0.80903  0.22468  0.31041  Biso   1.000  C
  C717     1.0000 0.80904  0.22475  0.31041  Biso   1.000  C
  H664     1.0000 0.91404  0.25000  0.40803  Biso   1.000  H
  C718     1.0000 0.88494  0.37756  0.39750  Biso   1.000  C
  C719     1.0000 0.88495  0.37763  0.39750  Biso   1.000  C
  H665     1.0000 0.91403  0.24993  0.40803  Biso   1.000  H
  O141     1.0000 0.86003  0.09396  0.35419  Biso   1.000  O
  O142     1.0000 0.86004  0.09402  0.35419  Biso   1.000  O
  H666     1.0000 0.96205  0.01701  0.35401  Biso   1.000  H
  H667     1.0000 0.92905  0.05399  0.26401  Biso   1.000  H
  H668     1.0000 0.92898  0.05399  0.26401  Biso   1.000  H
  H669     1.0000 0.92899  0.05405  0.26401  Biso   1.000  H
  H670     1.0000 0.96204  0.01694  0.35401  Biso   1.000  H
  H671     1.0000 0.19903  0.99597  0.30601  Biso   1.000  H
  H672     1.0000 0.19904  0.99603  0.30601  Biso   1.000  H
  O143     1.0000 0.26472  0.00780  0.20279  Biso   1.000  O
  H673     1.0000 0.31104  0.05097  0.32397  Biso   1.000  H
  H674     1.0000 0.31105  0.05098  0.32403  Biso   1.000  H
  H675     1.0000 0.31104  0.05103  0.32397  Biso   1.000  H
  O144     1.0000 0.26471  0.00773  0.20279  Biso   1.000  O
  C720     1.0000 0.69060  0.31719  0.06020  Biso   1.000  C
  C721     1.0000 0.69060  0.31726  0.06020  Biso   1.000  C
  C722     1.0000 0.69435  0.23286  0.92850  Biso   1.000  C
  H676     1.0000 0.81004  0.53392  0.98299  Biso   1.000  H
  C723     1.0000 0.66564  0.50206  0.96449  Biso   1.000  C
  H677     1.0000 0.81010  0.53392  0.98299  Biso   1.000  H
  C724     1.0000 0.66571  0.50206  0.96449  Biso   1.000  C
  H678     1.0000 0.81004  0.53398  0.98299  Biso   1.000  H
  H679     1.0000 0.81011  0.53398  0.98299  Biso   1.000  H
  H680     1.0000 0.76398  0.49497  0.06300  Biso   1.000  H
  H681     1.0000 0.76405  0.49503  0.06300  Biso   1.000  H
  H682     1.0000 0.76399  0.49503  0.06300  Biso   1.000  H
  H683     1.0000 0.76405  0.49497  0.06300  Biso   1.000  H
  C725     1.0000 0.17035  0.70279  0.33718  Biso   1.000  C
  C726     1.0000 0.02663  0.63219  0.36067  Biso   1.000  C
  C727     1.0000 0.17036  0.70281  0.33724  Biso   1.000  C
  C728     1.0000 0.02664  0.63221  0.36073  Biso   1.000  C
  C729     1.0000 0.17035  0.70274  0.33724  Biso   1.000  C
  C730     1.0000 0.02663  0.63214  0.36073  Biso   1.000  C
  C731     1.0000 0.22955  0.15442  0.79453  Biso   1.000  C
  C732     1.0000 0.22955  0.15449  0.79453  Biso   1.000  C
  C733     1.0000 0.74704  0.26380  0.26341  Biso   1.000  C
  C734     1.0000 0.74703  0.26373  0.26341  Biso   1.000  C
  C735     1.0000 0.79993  0.13157  0.30731  Biso   1.000  C
  C736     1.0000 0.79994  0.13164  0.30731  Biso   1.000  C
  H684     1.0000 0.86300  0.41500  0.35199  Biso   1.000  H
  C737     1.0000 0.81351  0.37579  0.45580  Biso   1.000  C
  H685     1.0000 0.94904  0.40897  0.43004  Biso   1.000  H
  H686     1.0000 0.94904  0.40896  0.42998  Biso   1.000  H
  H687     1.0000 0.86306  0.41500  0.35199  Biso   1.000  H
  C738     1.0000 0.81358  0.37579  0.45580  Biso   1.000  C
  H688     1.0000 0.94904  0.40902  0.42998  Biso   1.000  H
  H689     1.0000 0.86306  0.41493  0.35199  Biso   1.000  H
  C739     1.0000 0.81357  0.37573  0.45580  Biso   1.000  C
  C740     1.0000 0.34242  0.05550  0.18168  Biso   1.000  C
  C741     1.0000 0.34243  0.05551  0.18174  Biso   1.000  C
  C742     1.0000 0.34243  0.05544  0.18174  Biso   1.000  C
  C743     1.0000 0.63633  0.24547  0.07852  Biso   1.000  C
  C744     1.0000 0.63633  0.24554  0.07852  Biso   1.000  C
  H690     1.0000 0.71003  0.37798  0.10398  Biso   1.000  H
  H691     1.0000 0.71003  0.37805  0.10398  Biso   1.000  H
  C745     1.0000 0.64008  0.16114  0.94682  Biso   1.000  C
  C746     1.0000 0.64009  0.16120  0.94682  Biso   1.000  C
  H692     1.0000 0.66608  0.49893  0.90101  Biso   1.000  H
  H693     1.0000 0.61907  0.44795  0.97400  Biso   1.000  H
  C747     1.0000 0.63009  0.58842  0.99590  Biso   1.000  C
  H694     1.0000 0.66609  0.49900  0.90101  Biso   1.000  H
  C748     1.0000 0.63010  0.58848  0.99590  Biso   1.000  C
  C749     1.0000 0.15462  0.78299  0.38387  Biso   1.000  C
  H695     1.0000 0.23204  0.69898  0.30999  Biso   1.000  H
  C750     1.0000 0.15463  0.78300  0.38393  Biso   1.000  C
  H696     1.0000 0.23204  0.69904  0.30999  Biso   1.000  H
  C751     1.0000 0.15462  0.78294  0.38393  Biso   1.000  C
  H697     1.0000 0.97704  0.57398  0.35199  Biso   1.000  H
  C752     1.0000 0.01092  0.71242  0.40749  Biso   1.000  C
  C753     1.0000 0.01091  0.71235  0.40749  Biso   1.000  C
  C754     1.0000 0.27923  0.07664  0.81398  Biso   1.000  C
  H698     1.0000 0.24801  0.17392  0.73998  Biso   1.000  H
  H699     1.0000 0.24605  0.21093  0.84200  Biso   1.000  H
  H700     1.0000 0.24809  0.17393  0.74004  Biso   1.000  H
  H701     1.0000 0.24802  0.17398  0.73998  Biso   1.000  H
  H702     1.0000 0.24605  0.21100  0.84200  Biso   1.000  H
  H703     1.0000 0.24809  0.17399  0.74004  Biso   1.000  H
  C755     1.0000 0.67581  0.20987  0.21332  Biso   1.000  C
  C756     1.0000 0.67582  0.20994  0.21332  Biso   1.000  C
  H704     1.0000 0.75401  0.33601  0.26603  Biso   1.000  H
  H705     1.0000 0.75401  0.33594  0.26603  Biso   1.000  H
  C757     1.0000 0.72871  0.07771  0.25723  Biso   1.000  C
  C758     1.0000 0.72870  0.07764  0.25723  Biso   1.000  C
  H706     1.0000 0.74901  0.34698  0.42201  Biso   1.000  H
  C759     1.0000 0.80076  0.46750  0.50047  Biso   1.000  C
  H707     1.0000 0.83404  0.33399  0.49803  Biso   1.000  H
  H708     1.0000 0.83403  0.33397  0.49797  Biso   1.000  H
  H709     1.0000 0.74907  0.34698  0.42201  Biso   1.000  H
  C760     1.0000 0.80077  0.46752  0.50053  Biso   1.000  C
  H710     1.0000 0.74901  0.34705  0.42201  Biso   1.000  H
  H711     1.0000 0.83404  0.33404  0.49797  Biso   1.000  H
  C761     1.0000 0.80076  0.46745  0.50053  Biso   1.000  C
  C762     1.0000 0.35432  0.99850  0.10220  Biso   1.000  C
  C763     1.0000 0.35432  0.99856  0.10220  Biso   1.000  C
  H712     1.0000 0.40102  0.05796  0.22498  Biso   1.000  H
  H713     1.0000 0.33004  0.12297  0.17501  Biso   1.000  H
  H714     1.0000 0.40103  0.05803  0.22498  Biso   1.000  H
  H715     1.0000 0.33004  0.12303  0.17501  Biso   1.000  H
  C764     1.0000 0.60071  0.24679  0.16074  Biso   1.000  C
  C765     1.0000 0.60071  0.24677  0.16068  Biso   1.000  C
  C766     1.0000 0.60071  0.24684  0.16068  Biso   1.000  C
  C767     1.0000 0.61098  0.16760  0.02177  Biso   1.000  C
  C768     1.0000 0.61105  0.16761  0.02183  Biso   1.000  C
  C769     1.0000 0.61098  0.16754  0.02183  Biso   1.000  C
  O145     1.0000 0.61492  0.08721  0.88668  Biso   1.000  O
  O146     1.0000 0.61500  0.08722  0.88674  Biso   1.000  O
  O147     1.0000 0.61493  0.08728  0.88668  Biso   1.000  O
  O148     1.0000 0.61500  0.08729  0.88674  Biso   1.000  O
  C770     1.0000 0.58902  0.58717  0.06490  Biso   1.000  C
  C771     1.0000 0.63667  0.66673  0.96312  Biso   1.000  C
  C772     1.0000 0.63667  0.66680  0.96312  Biso   1.000  C
  C773     1.0000 0.58902  0.58724  0.06490  Biso   1.000  C
  C774     1.0000 0.07494  0.78778  0.41909  Biso   1.000  C
  H716     1.0000 0.20404  0.84096  0.39298  Biso   1.000  H
  H717     1.0000 0.20406  0.84103  0.39304  Biso   1.000  H
  H718     1.0000 0.20405  0.84102  0.39298  Biso   1.000  H
  H719     1.0000 0.20405  0.84097  0.39304  Biso   1.000  H
  H720     1.0000 0.94906  0.71597  0.43503  Biso   1.000  H
  H721     1.0000 0.94905  0.71596  0.43497  Biso   1.000  H
  H722     1.0000 0.94905  0.71603  0.43497  Biso   1.000  H
  O149     1.0000 0.27705  0.01131  0.73718  Biso   1.000  O
  H723     1.0000 0.24606  0.04393  0.85598  Biso   1.000  H
  H724     1.0000 0.34904  0.09995  0.83801  Biso   1.000  H
  O150     1.0000 0.27705  0.01138  0.73718  Biso   1.000  O
  H725     1.0000 0.24607  0.04394  0.85604  Biso   1.000  H
  H726     1.0000 0.24607  0.04399  0.85598  Biso   1.000  H
  H727     1.0000 0.24607  0.04400  0.85604  Biso   1.000  H
  C775     1.0000 0.66673  0.11691  0.21029  Biso   1.000  C
  C776     1.0000 0.66672  0.11684  0.21029  Biso   1.000  C
  O151     1.0000 0.72301  0.98862  0.26282  Biso   1.000  O
  C777     1.0000 0.86027  0.54489  0.50410  Biso   1.000  C
  C778     1.0000 0.72217  0.47260  0.53718  Biso   1.000  C
  C779     1.0000 0.72218  0.47261  0.53723  Biso   1.000  C
  C780     1.0000 0.72210  0.47260  0.53718  Biso   1.000  C
  C781     1.0000 0.86026  0.54482  0.50410  Biso   1.000  C
  C782     1.0000 0.72217  0.47254  0.53723  Biso   1.000  C
  O152     1.0000 0.38514  0.91272  0.11332  Biso   1.000  O
  H728     1.0000 0.29004  0.98602  0.06502  Biso   1.000  H
  H729     1.0000 0.40303  0.03402  0.07299  Biso   1.000  H
  H730     1.0000 0.40303  0.03395  0.07299  Biso   1.000  H
  C783     1.0000 0.57609  0.34282  0.19280  Biso   1.000  C
  C784     1.0000 0.57616  0.34282  0.19280  Biso   1.000  C
  C785     1.0000 0.57615  0.34275  0.19280  Biso   1.000  C
  H731     1.0000 0.53800  0.20502  0.15800  Biso   1.000  H
  H732     1.0000 0.53799  0.20496  0.15800  Biso   1.000  H
  O153     1.0000 0.55855  0.09418  0.03992  Biso   1.000  O
  O154     1.0000 0.55848  0.09418  0.03992  Biso   1.000  O
  O155     1.0000 0.55848  0.09425  0.03992  Biso   1.000  O
  C786     1.0000 0.64575  0.00144  0.89780  Biso   1.000  C
  C787     1.0000 0.64575  0.00150  0.89780  Biso   1.000  C
  C788     1.0000 0.55471  0.66411  0.10113  Biso   1.000  C
  H733     1.0000 0.58402  0.52697  0.09001  Biso   1.000  H
  H734     1.0000 0.58403  0.52703  0.09001  Biso   1.000  H
  C789     1.0000 0.55470  0.66404  0.10113  Biso   1.000  C
  C790     1.0000 0.60228  0.74371  0.99923  Biso   1.000  C
  H735     1.0000 0.66809  0.66796  0.90999  Biso   1.000  H
  C791     1.0000 0.60229  0.74378  0.99923  Biso   1.000  C
  H736     1.0000 0.06301  0.85002  0.45502  Biso   1.000  H
  H737     1.0000 0.06308  0.85002  0.45502  Biso   1.000  H
  H738     1.0000 0.06307  0.84995  0.45502  Biso   1.000  H
  C792     1.0000 0.27136  0.92229  0.74277  Biso   1.000  C
  C793     1.0000 0.27136  0.92223  0.74283  Biso   1.000  C
  C794     1.0000 0.27137  0.92230  0.74283  Biso   1.000  C
  O156     1.0000 0.59290  0.06090  0.16591  Biso   1.000  O
  C795     1.0000 0.72083  0.92329  0.18602  Biso   1.000  C
  C796     1.0000 0.72084  0.92336  0.18602  Biso   1.000  C
  H739     1.0000 0.92102  0.54096  0.47602  Biso   1.000  H
  C797     1.0000 0.84105  0.62737  0.54443  Biso   1.000  C
  H740     1.0000 0.92103  0.54102  0.47602  Biso   1.000  H
  C798     1.0000 0.84104  0.62736  0.54437  Biso   1.000  C
  C799     1.0000 0.84105  0.62742  0.54437  Biso   1.000  C
  H741     1.0000 0.67604  0.41300  0.53402  Biso   1.000  H
  C800     1.0000 0.70295  0.55508  0.57751  Biso   1.000  C
  C801     1.0000 0.70296  0.55514  0.57751  Biso   1.000  C
  H742     1.0000 0.67603  0.41293  0.53402  Biso   1.000  H
  C802     1.0000 0.35998  0.83880  0.05318  Biso   1.000  C
  C803     1.0000 0.52591  0.33291  0.26317  Biso   1.000  C
  H743     1.0000 0.53405  0.36800  0.14801  Biso   1.000  H
  H744     1.0000 0.63705  0.38800  0.21201  Biso   1.000  H
  C804     1.0000 0.52592  0.33292  0.26323  Biso   1.000  C
  H745     1.0000 0.63699  0.38800  0.21201  Biso   1.000  H
  H746     1.0000 0.63705  0.38794  0.21201  Biso   1.000  H
  H747     1.0000 0.53404  0.36794  0.14801  Biso   1.000  H
  C805     1.0000 0.52591  0.33285  0.26323  Biso   1.000  C
  C806     1.0000 0.60178  0.03287  0.08459  Biso   1.000  C
  C807     1.0000 0.60185  0.03293  0.08459  Biso   1.000  C
  C808     1.0000 0.60178  0.03293  0.08459  Biso   1.000  C
  C809     1.0000 0.60184  0.03287  0.08459  Biso   1.000  C
  H748     1.0000 0.59703  0.96598  0.92701  Biso   1.000  H
  C810     1.0000 0.65764  0.94450  0.81832  Biso   1.000  C
  H749     1.0000 0.59710  0.96592  0.92701  Biso   1.000  H
  C811     1.0000 0.65764  0.94444  0.81832  Biso   1.000  C
  H750     1.0000 0.59710  0.96598  0.92701  Biso   1.000  H
  H751     1.0000 0.71002  0.01391  0.93498  Biso   1.000  H
  H752     1.0000 0.71010  0.01393  0.93504  Biso   1.000  H
  H753     1.0000 0.71003  0.01398  0.93498  Biso   1.000  H
  H754     1.0000 0.71011  0.01399  0.93504  Biso   1.000  H
  H755     1.0000 0.52306  0.66303  0.15503  Biso   1.000  H
  C812     1.0000 0.56134  0.74240  0.06823  Biso   1.000  C
  C813     1.0000 0.56133  0.74239  0.06817  Biso   1.000  C
  C814     1.0000 0.56133  0.74246  0.06817  Biso   1.000  C
  H756     1.0000 0.52299  0.66303  0.15503  Biso   1.000  H
  H757     1.0000 0.52305  0.66297  0.15503  Biso   1.000  H
  H758     1.0000 0.60707  0.80396  0.97400  Biso   1.000  H
  C815     1.0000 0.33334  0.88309  0.78971  Biso   1.000  C
  C816     1.0000 0.20014  0.86843  0.69269  Biso   1.000  C
  C817     1.0000 0.33333  0.88303  0.78971  Biso   1.000  C
  C818     1.0000 0.20013  0.86836  0.69269  Biso   1.000  C
  C819     1.0000 0.77051  0.84551  0.20547  Biso   1.000  C
  H759     1.0000 0.75400  0.95601  0.14402  Biso   1.000  H
  H760     1.0000 0.65102  0.89998  0.16199  Biso   1.000  H
  C820     1.0000 0.77052  0.84552  0.20553  Biso   1.000  C
  H761     1.0000 0.65103  0.90005  0.16199  Biso   1.000  H
  H762     1.0000 0.88704  0.68698  0.54699  Biso   1.000  H
  C821     1.0000 0.76232  0.63245  0.58108  Biso   1.000  C
  C822     1.0000 0.76233  0.63253  0.58114  Biso   1.000  C
  C823     1.0000 0.76232  0.63251  0.58108  Biso   1.000  C
  C824     1.0000 0.76233  0.63246  0.58114  Biso   1.000  C
  H763     1.0000 0.64204  0.55896  0.60600  Biso   1.000  H
  H764     1.0000 0.64205  0.55903  0.60600  Biso   1.000  H
  C825     1.0000 0.30571  0.76708  0.07150  Biso   1.000  C
  C826     1.0000 0.30571  0.76714  0.07150  Biso   1.000  C
  C827     1.0000 0.38909  0.83240  0.97823  Biso   1.000  C
  C828     1.0000 0.38908  0.83234  0.97823  Biso   1.000  C
  H765     1.0000 0.56806  0.30800  0.30803  Biso   1.000  H
  H766     1.0000 0.46404  0.28800  0.24402  Biso   1.000  H
  C829     1.0000 0.50321  0.43117  0.29613  Biso   1.000  C
  C830     1.0000 0.50320  0.43116  0.29607  Biso   1.000  C
  C831     1.0000 0.50321  0.43123  0.29607  Biso   1.000  C
  H767     1.0000 0.46404  0.28793  0.24402  Biso   1.000  H
  H768     1.0000 0.56898  0.96501  0.06401  Biso   1.000  H
  H769     1.0000 0.56905  0.96501  0.06401  Biso   1.000  H
  H770     1.0000 0.67298  0.03496  0.07698  Biso   1.000  H
  H771     1.0000 0.67306  0.03504  0.07704  Biso   1.000  H
  H772     1.0000 0.67298  0.03503  0.07698  Biso   1.000  H
  H773     1.0000 0.67298  0.03497  0.07704  Biso   1.000  H
  H774     1.0000 0.59904  0.94204  0.77502  Biso   1.000  H
  H775     1.0000 0.67003  0.87703  0.82499  Biso   1.000  H
  O157     1.0000 0.73535  0.99220  0.79721  Biso   1.000  O
  H776     1.0000 0.59904  0.94197  0.77502  Biso   1.000  H
  H777     1.0000 0.67009  0.87697  0.82499  Biso   1.000  H
  O158     1.0000 0.73535  0.99214  0.79721  Biso   1.000  O
  H778     1.0000 0.67002  0.87697  0.82499  Biso   1.000  H
  H779     1.0000 0.53500  0.80198  0.09601  Biso   1.000  H
  H780     1.0000 0.53506  0.80198  0.09601  Biso   1.000  H
  H781     1.0000 0.53500  0.80205  0.09601  Biso   1.000  H
  C832     1.0000 0.32425  0.79013  0.78668  Biso   1.000  C
  O159     1.0000 0.40717  0.93910  0.83409  Biso   1.000  O
  C833     1.0000 0.32426  0.79008  0.78674  Biso   1.000  C
  O160     1.0000 0.40717  0.93904  0.83409  Biso   1.000  O
  C834     1.0000 0.32425  0.79006  0.78668  Biso   1.000  C
  O161     1.0000 0.14004  0.90604  0.64581  Biso   1.000  O
  O162     1.0000 0.14003  0.90598  0.64581  Biso   1.000  O
  C835     1.0000 0.19104  0.77532  0.68959  Biso   1.000  C
  C836     1.0000 0.19103  0.77525  0.68959  Biso   1.000  C
  O163     1.0000 0.86170  0.87381  0.21332  Biso   1.000  O
  H782     1.0000 0.75205  0.82602  0.26002  Biso   1.000  H
  H783     1.0000 0.75401  0.78900  0.15800  Biso   1.000  H
  H784     1.0000 0.74705  0.69599  0.61201  Biso   1.000  H
  H785     1.0000 0.74705  0.69592  0.61201  Biso   1.000  H
  C837     1.0000 0.28042  0.68908  0.01481  Biso   1.000  C
  C838     1.0000 0.28043  0.68915  0.01481  Biso   1.000  C
  O164     1.0000 0.28402  0.77161  0.14872  Biso   1.000  O
  C839     1.0000 0.36374  0.75453  0.92148  Biso   1.000  C
  C840     1.0000 0.36374  0.75447  0.92154  Biso   1.000  C
  C841     1.0000 0.36373  0.75446  0.92148  Biso   1.000  C
  O165     1.0000 0.44159  0.90582  0.96008  Biso   1.000  O
  O166     1.0000 0.44158  0.90575  0.96008  Biso   1.000  O
  C842     1.0000 0.44332  0.47590  0.25229  Biso   1.000  C
  C843     1.0000 0.54395  0.47259  0.37198  Biso   1.000  C
  C844     1.0000 0.54396  0.47261  0.37204  Biso   1.000  C
  C845     1.0000 0.44332  0.47583  0.25229  Biso   1.000  C
  C846     1.0000 0.54396  0.47254  0.37204  Biso   1.000  C
  C847     1.0000 0.75307  0.95741  0.71422  Biso   1.000  C
  C848     1.0000 0.75306  0.95734  0.71422  Biso   1.000  C
  C849     1.0000 0.25303  0.73620  0.73659  Biso   1.000  C
  C850     1.0000 0.25302  0.73614  0.73659  Biso   1.000  C
  C851     1.0000 0.39936  0.75323  0.83932  Biso   1.000  C
  C852     1.0000 0.39936  0.75316  0.83932  Biso   1.000  C
  C853     1.0000 0.39829  0.96713  0.91541  Biso   1.000  C
  C854     1.0000 0.39828  0.96707  0.91541  Biso   1.000  C
  C855     1.0000 0.05907  0.92693  0.67222  Biso   1.000  C
  C856     1.0000 0.05906  0.92686  0.67222  Biso   1.000  C
  C857     1.0000 0.10375  0.71740  0.64200  Biso   1.000  C
  C858     1.0000 0.10375  0.71733  0.64200  Biso   1.000  C
  C859     1.0000 0.92098  0.81217  0.23950  Biso   1.000  C
  C860     1.0000 0.92105  0.81217  0.23950  Biso   1.000  C
  C861     1.0000 0.92099  0.81223  0.23950  Biso   1.000  C
  C862     1.0000 0.92105  0.81223  0.23950  Biso   1.000  C
  C863     1.0000 0.22137  0.61297  0.03498  Biso   1.000  C
  C864     1.0000 0.22138  0.61298  0.03504  Biso   1.000  C
  C865     1.0000 0.22138  0.61303  0.03498  Biso   1.000  C
  C866     1.0000 0.22138  0.61305  0.03504  Biso   1.000  C
  C867     1.0000 0.30947  0.68281  0.93980  Biso   1.000  C
  C868     1.0000 0.30946  0.68274  0.93980  Biso   1.000  C
  C869     1.0000 0.19450  0.79428  0.15562  Biso   1.000  C
  C870     1.0000 0.19451  0.79435  0.15562  Biso   1.000  C
  C871     1.0000 0.42424  0.56191  0.28429  Biso   1.000  C
  H786     1.0000 0.41203  0.44402  0.19399  Biso   1.000  H
  C872     1.0000 0.42423  0.56185  0.28429  Biso   1.000  C
  H787     1.0000 0.41202  0.44395  0.19399  Biso   1.000  H
  C873     1.0000 0.52473  0.55861  0.40398  Biso   1.000  C
  H788     1.0000 0.59003  0.43799  0.40600  Biso   1.000  H
  C874     1.0000 0.52473  0.55854  0.40398  Biso   1.000  C
  H789     1.0000 0.59002  0.43792  0.40600  Biso   1.000  H
  H790     1.0000 0.68903  0.94903  0.67603  Biso   1.000  H
  C875     1.0000 0.78572  0.87253  0.71119  Biso   1.000  C
  H791     1.0000 0.68909  0.94897  0.67603  Biso   1.000  H
  C876     1.0000 0.78579  0.87246  0.71119  Biso   1.000  C
  H792     1.0000 0.68902  0.94897  0.67603  Biso   1.000  H
  C877     1.0000 0.78572  0.87246  0.71119  Biso   1.000  C
  H793     1.0000 0.80103  0.00397  0.69399  Biso   1.000  H
  H794     1.0000 0.24605  0.66399  0.73397  Biso   1.000  H
  H795     1.0000 0.24606  0.66394  0.73403  Biso   1.000  H
  H796     1.0000 0.24606  0.66401  0.73403  Biso   1.000  H
  H797     1.0000 0.46207  0.79498  0.84200  Biso   1.000  H
  C878     1.0000 0.42397  0.65718  0.80720  Biso   1.000  C
  C879     1.0000 0.42397  0.65712  0.80720  Biso   1.000  C
  H798     1.0000 0.32709  0.96504  0.92302  Biso   1.000  H
  H799     1.0000 0.32709  0.96497  0.92302  Biso   1.000  H
  H800     1.0000 0.43108  0.03492  0.93599  Biso   1.000  H
  H801     1.0000 0.43109  0.03499  0.93599  Biso   1.000  H
  O167     1.0000 0.98586  0.85685  0.65372  Biso   1.000  O
  O168     1.0000 0.98585  0.85678  0.65372  Biso   1.000  O
  H802     1.0000 0.07108  0.94601  0.73599  Biso   1.000  H
  H803     1.0000 0.03802  0.98299  0.64599  Biso   1.000  H
  H804     1.0000 0.07108  0.94595  0.73599  Biso   1.000  H
  H805     1.0000 0.03808  0.98293  0.64599  Biso   1.000  H
  H806     1.0000 0.07101  0.94595  0.73599  Biso   1.000  H
  H807     1.0000 0.03808  0.98299  0.64599  Biso   1.000  H
  C880     1.0000 0.02987  0.71749  0.69447  Biso   1.000  C
  C881     1.0000 0.02987  0.71743  0.69453  Biso   1.000  C
  C882     1.0000 0.02980  0.71749  0.69447  Biso   1.000  C
  C883     1.0000 0.02988  0.71750  0.69453  Biso   1.000  C
  H808     1.0000 0.08603  0.75000  0.59197  Biso   1.000  H
  C884     1.0000 0.11513  0.62244  0.60250  Biso   1.000  C
  H809     1.0000 0.08603  0.74995  0.59203  Biso   1.000  H
  C885     1.0000 0.11512  0.62237  0.60250  Biso   1.000  C
  H810     1.0000 0.08604  0.75001  0.59203  Biso   1.000  H
  C886     1.0000 0.92523  0.73510  0.16722  Biso   1.000  C
  H811     1.0000 0.89603  0.78501  0.28798  Biso   1.000  H
  H812     1.0000 0.98803  0.84701  0.25901  Biso   1.000  H
  H813     1.0000 0.89604  0.78502  0.28804  Biso   1.000  H
  C887     1.0000 0.12308  0.62747  0.01707  Biso   1.000  C
  C888     1.0000 0.12308  0.62748  0.01713  Biso   1.000  C
  C889     1.0000 0.12308  0.62754  0.01707  Biso   1.000  C
  C890     1.0000 0.12309  0.62755  0.01713  Biso   1.000  C
  H814     1.0000 0.23903  0.61600  0.09798  Biso   1.000  H
  C891     1.0000 0.23980  0.51377  0.00071  Biso   1.000  C
  H815     1.0000 0.23904  0.61601  0.09804  Biso   1.000  H
  C892     1.0000 0.23980  0.51384  0.00071  Biso   1.000  C
  H816     1.0000 0.29004  0.62202  0.89602  Biso   1.000  H
  H817     1.0000 0.29003  0.62195  0.89602  Biso   1.000  H
  O169     1.0000 0.13212  0.71589  0.14640  Biso   1.000  O
  O170     1.0000 0.13212  0.71596  0.14640  Biso   1.000  O
  H818     1.0000 0.17498  0.83202  0.10999  Biso   1.000  H
  H819     1.0000 0.19303  0.83499  0.21303  Biso   1.000  H
  H820     1.0000 0.17505  0.83202  0.10999  Biso   1.000  H
  H821     1.0000 0.19303  0.83506  0.21303  Biso   1.000  H
  H822     1.0000 0.37802  0.59601  0.25003  Biso   1.000  H
  C893     1.0000 0.46496  0.60319  0.36008  Biso   1.000  C
  C894     1.0000 0.46497  0.60320  0.36014  Biso   1.000  C
  C895     1.0000 0.46496  0.60314  0.36014  Biso   1.000  C
  H823     1.0000 0.37801  0.59594  0.25003  Biso   1.000  H
  H824     1.0000 0.55603  0.59097  0.46299  Biso   1.000  H
  H825     1.0000 0.55603  0.59103  0.46299  Biso   1.000  H
  H826     1.0000 0.73506  0.82601  0.72802  Biso   1.000  H
  H827     1.0000 0.79702  0.84900  0.65098  Biso   1.000  H
  O171     1.0000 0.86774  0.87400  0.76068  Biso   1.000  O
  H828     1.0000 0.73505  0.82594  0.72802  Biso   1.000  H
  H829     1.0000 0.79701  0.84894  0.65098  Biso   1.000  H
  O172     1.0000 0.86774  0.87395  0.76074  Biso   1.000  O
  O173     1.0000 0.86774  0.87393  0.76068  Biso   1.000  O
  O174     1.0000 0.86775  0.87401  0.76074  Biso   1.000  O
  H830     1.0000 0.36301  0.61200  0.78799  Biso   1.000  H
  H831     1.0000 0.46602  0.63200  0.85199  Biso   1.000  H
  C896     1.0000 0.47416  0.66709  0.73683  Biso   1.000  C
  H832     1.0000 0.36308  0.61193  0.78799  Biso   1.000  H
  H833     1.0000 0.46608  0.63193  0.85199  Biso   1.000  H
  C897     1.0000 0.47415  0.66703  0.73683  Biso   1.000  C
  H834     1.0000 0.36301  0.61193  0.78799  Biso   1.000  H
  H835     1.0000 0.36308  0.61200  0.78799  Biso   1.000  H
  H836     1.0000 0.46609  0.63200  0.85199  Biso   1.000  H
  C898     1.0000 0.97803  0.79011  0.69911  Biso   1.000  C
  C899     1.0000 0.97802  0.79004  0.69911  Biso   1.000  C
  C900     1.0000 0.01537  0.65160  0.74111  Biso   1.000  C
  C901     1.0000 0.01537  0.65154  0.74111  Biso   1.000  C
  H837     1.0000 0.13707  0.58500  0.64801  Biso   1.000  H
  H838     1.0000 0.05103  0.59104  0.57002  Biso   1.000  H
  C902     1.0000 0.18656  0.62421  0.54420  Biso   1.000  C
  H839     1.0000 0.13707  0.58494  0.64801  Biso   1.000  H
  H840     1.0000 0.05103  0.59098  0.57002  Biso   1.000  H
  C903     1.0000 0.18655  0.62414  0.54420  Biso   1.000  C
  O175     1.0000 0.96490  0.77363  0.10529  Biso   1.000  O
  H841     1.0000 0.96604  0.68501  0.18602  Biso   1.000  H
  H842     1.0000 0.85703  0.70401  0.14497  Biso   1.000  H
  H843     1.0000 0.85704  0.70402  0.14503  Biso   1.000  H
  H844     1.0000 0.96597  0.68501  0.18602  Biso   1.000  H
  H845     1.0000 0.85696  0.70401  0.14497  Biso   1.000  H
  C904     1.0000 0.08470  0.68681  0.07162  Biso   1.000  C
  C905     1.0000 0.07443  0.59122  0.94289  Biso   1.000  C
  C906     1.0000 0.07449  0.59116  0.94289  Biso   1.000  C
  C907     1.0000 0.07442  0.59116  0.94289  Biso   1.000  C
  H846     1.0000 0.23609  0.50503  0.93700  Biso   1.000  H
  H847     1.0000 0.23608  0.50497  0.93700  Biso   1.000  H
  H848     1.0000 0.19003  0.46602  0.01701  Biso   1.000  H
  C908     1.0000 0.33442  0.49788  0.03551  Biso   1.000  C
  C909     1.0000 0.33442  0.49794  0.03551  Biso   1.000  C
  H849     1.0000 0.45003  0.67001  0.38501  Biso   1.000  H
  H850     1.0000 0.45002  0.66994  0.38501  Biso   1.000  H
  C910     1.0000 0.91175  0.79672  0.75039  Biso   1.000  C
  C911     1.0000 0.91174  0.79665  0.75039  Biso   1.000  C
  H851     1.0000 0.43201  0.69200  0.69197  Biso   1.000  H
  H852     1.0000 0.53602  0.71200  0.75598  Biso   1.000  H
  C912     1.0000 0.49687  0.56884  0.70393  Biso   1.000  C
  H853     1.0000 0.43208  0.69195  0.69203  Biso   1.000  H
  H854     1.0000 0.53608  0.71193  0.75598  Biso   1.000  H
  C913     1.0000 0.49686  0.56877  0.70393  Biso   1.000  C
  H855     1.0000 0.43200  0.69194  0.69197  Biso   1.000  H
  H856     1.0000 0.53602  0.71193  0.75598  Biso   1.000  H
  H857     1.0000 0.43209  0.69202  0.69203  Biso   1.000  H
  C914     1.0000 0.94903  0.65833  0.79233  Biso   1.000  C
  C915     1.0000 0.94909  0.65826  0.79233  Biso   1.000  C
  C916     1.0000 0.94902  0.65826  0.79233  Biso   1.000  C
  H858     1.0000 0.05504  0.59499  0.73700  Biso   1.000  H
  H859     1.0000 0.05503  0.59492  0.73700  Biso   1.000  H
  H860     1.0000 0.25106  0.65302  0.57799  Biso   1.000  H
  H861     1.0000 0.16603  0.66603  0.50203  Biso   1.000  H
  C917     1.0000 0.19931  0.53250  0.49953  Biso   1.000  C
  H862     1.0000 0.25105  0.65295  0.57799  Biso   1.000  H
  H863     1.0000 0.16603  0.66596  0.50203  Biso   1.000  H
  C918     1.0000 0.19937  0.53243  0.49953  Biso   1.000  C
  C919     1.0000 0.19937  0.53250  0.49953  Biso   1.000  C
  C920     1.0000 0.99753  0.70971  0.05199  Biso   1.000  C
  C921     1.0000 0.98727  0.61420  0.92332  Biso   1.000  C
  C922     1.0000 0.98726  0.61413  0.92332  Biso   1.000  C
  H864     1.0000 0.10406  0.54500  0.90101  Biso   1.000  H
  H865     1.0000 0.10405  0.54493  0.90101  Biso   1.000  H
  H866     1.0000 0.33398  0.50100  0.09899  Biso   1.000  H
  H867     1.0000 0.38100  0.55198  0.02600  Biso   1.000  H
  C923     1.0000 0.36997  0.41152  0.00410  Biso   1.000  C
  H868     1.0000 0.38100  0.55205  0.02600  Biso   1.000  H
  C924     1.0000 0.89723  0.73081  0.79691  Biso   1.000  C
  C925     1.0000 0.89723  0.73074  0.79691  Biso   1.000  C
  C926     1.0000 0.55674  0.52410  0.74771  Biso   1.000  C
  C927     1.0000 0.45611  0.52741  0.62802  Biso   1.000  C
  C928     1.0000 0.55674  0.52403  0.74771  Biso   1.000  C
  C929     1.0000 0.45617  0.52734  0.62802  Biso   1.000  C
  C930     1.0000 0.45618  0.52741  0.62802  Biso   1.000  C
  C931     1.0000 0.92426  0.58573  0.84569  Biso   1.000  C
  C932     1.0000 0.92426  0.58566  0.84569  Biso   1.000  C
  C933     1.0000 0.13980  0.45511  0.49590  Biso   1.000  C
  C934     1.0000 0.27790  0.52740  0.46282  Biso   1.000  C
  C935     1.0000 0.13986  0.45504  0.49590  Biso   1.000  C
  C936     1.0000 0.27796  0.52734  0.46282  Biso   1.000  C
  C937     1.0000 0.13987  0.45511  0.49590  Biso   1.000  C
  C938     1.0000 0.27796  0.52740  0.46282  Biso   1.000  C
  C939     1.0000 0.94888  0.67353  0.97781  Biso   1.000  C
  C940     1.0000 0.94888  0.67346  0.97781  Biso   1.000  C
  C941     1.0000 0.41105  0.41283  0.93510  Biso   1.000  C
  C942     1.0000 0.41104  0.41276  0.93510  Biso   1.000  C
  C943     1.0000 0.36339  0.33320  0.03688  Biso   1.000  C
  O176     1.0000 0.82286  0.73951  0.84319  Biso   1.000  O
  O177     1.0000 0.82286  0.73944  0.84319  Biso   1.000  O
  C944     1.0000 0.57583  0.43809  0.71571  Biso   1.000  C
  H869     1.0000 0.58804  0.55598  0.80601  Biso   1.000  H
  C945     1.0000 0.57583  0.43802  0.71571  Biso   1.000  C
  H870     1.0000 0.58803  0.55592  0.80601  Biso   1.000  H
  C946     1.0000 0.47534  0.44139  0.59602  Biso   1.000  C
  H871     1.0000 0.41004  0.56201  0.59400  Biso   1.000  H
  C947     1.0000 0.47533  0.44133  0.59602  Biso   1.000  C
  H872     1.0000 0.41004  0.56194  0.59400  Biso   1.000  H
  H873     1.0000 0.85404  0.58100  0.85598  Biso   1.000  H
  C948     1.0000 0.94947  0.49138  0.80072  Biso   1.000  C
  H874     1.0000 0.85405  0.58095  0.85604  Biso   1.000  H
  H875     1.0000 0.85404  0.58094  0.85598  Biso   1.000  H
  C949     1.0000 0.15903  0.37264  0.45563  Biso   1.000  C
  H876     1.0000 0.07904  0.45904  0.52398  Biso   1.000  H
  C950     1.0000 0.15902  0.37258  0.45563  Biso   1.000  C
  H877     1.0000 0.07905  0.45899  0.52404  Biso   1.000  H
  H878     1.0000 0.07904  0.45898  0.52398  Biso   1.000  H
  C951     1.0000 0.29711  0.44492  0.42249  Biso   1.000  C
  H879     1.0000 0.32403  0.58700  0.46598  Biso   1.000  H
  C952     1.0000 0.29711  0.44486  0.42249  Biso   1.000  C
  H880     1.0000 0.32403  0.58695  0.46604  Biso   1.000  H
  H881     1.0000 0.32404  0.58702  0.46604  Biso   1.000  H
  O178     1.0000 0.86263  0.69627  0.96978  Biso   1.000  O
  O179     1.0000 0.86264  0.69622  0.96984  Biso   1.000  O
  O180     1.0000 0.86264  0.69628  0.96984  Biso   1.000  O
  C953     1.0000 0.44536  0.33589  0.89887  Biso   1.000  C
  H882     1.0000 0.41605  0.47303  0.90999  Biso   1.000  H
  C954     1.0000 0.44536  0.33584  0.89893  Biso   1.000  C
  H883     1.0000 0.41604  0.47297  0.90999  Biso   1.000  H
  C955     1.0000 0.44536  0.33590  0.89893  Biso   1.000  C
  C956     1.0000 0.39778  0.25622  0.00077  Biso   1.000  C
  H884     1.0000 0.33197  0.33197  0.09001  Biso   1.000  H
  C957     1.0000 0.39779  0.25623  0.00083  Biso   1.000  C
  H885     1.0000 0.33204  0.33204  0.09001  Biso   1.000  H
  H886     1.0000 0.33197  0.33204  0.09001  Biso   1.000  H
  C958     1.0000 0.84787  0.77003  0.92731  Biso   1.000  C
  C959     1.0000 0.84786  0.76996  0.92731  Biso   1.000  C
  C960     1.0000 0.53511  0.39681  0.63992  Biso   1.000  C
  H887     1.0000 0.62205  0.40399  0.74997  Biso   1.000  H
  C961     1.0000 0.53517  0.39674  0.63992  Biso   1.000  C
  H888     1.0000 0.62205  0.40394  0.75003  Biso   1.000  H
  C962     1.0000 0.53518  0.39681  0.63992  Biso   1.000  C
  H889     1.0000 0.62206  0.40401  0.75003  Biso   1.000  H
  H890     1.0000 0.44404  0.40903  0.53701  Biso   1.000  H
  H891     1.0000 0.44404  0.40897  0.53701  Biso   1.000  H
  H892     1.0000 0.94805  0.44201  0.83998  Biso   1.000  H
  C963     1.0000 0.87374  0.45938  0.72558  Biso   1.000  C
  H893     1.0000 0.94805  0.44195  0.84004  Biso   1.000  H
  H894     1.0000 0.94804  0.44194  0.83998  Biso   1.000  H
  H895     1.0000 0.01607  0.49902  0.78198  Biso   1.000  H
  H896     1.0000 0.01607  0.49896  0.78204  Biso   1.000  H
  H897     1.0000 0.01606  0.49895  0.78198  Biso   1.000  H
  C964     1.0000 0.23775  0.36755  0.41892  Biso   1.000  C
  H898     1.0000 0.11303  0.31302  0.45301  Biso   1.000  H
  C965     1.0000 0.23774  0.36749  0.41892  Biso   1.000  C
  H899     1.0000 0.11302  0.31295  0.45301  Biso   1.000  H
  H900     1.0000 0.35802  0.44104  0.39400  Biso   1.000  H
  H901     1.0000 0.35802  0.44097  0.39400  Biso   1.000  H
  C966     1.0000 0.43874  0.25761  0.93183  Biso   1.000  C
  H902     1.0000 0.47701  0.33697  0.84497  Biso   1.000  H
  C967     1.0000 0.43873  0.25754  0.93183  Biso   1.000  C
  H903     1.0000 0.47708  0.33698  0.84503  Biso   1.000  H
  H904     1.0000 0.39300  0.19598  0.02600  Biso   1.000  H
  H905     1.0000 0.39300  0.19604  0.02600  Biso   1.000  H
  H906     1.0000 0.91008  0.81499  0.93700  Biso   1.000  H
  H907     1.0000 0.79408  0.80499  0.95098  Biso   1.000  H
  H908     1.0000 0.91007  0.81493  0.93700  Biso   1.000  H
  H909     1.0000 0.79407  0.80492  0.95098  Biso   1.000  H
  H910     1.0000 0.55004  0.32999  0.61499  Biso   1.000  H
  H911     1.0000 0.55003  0.32992  0.61499  Biso   1.000  H
  H912     1.0000 0.87204  0.51201  0.69001  Biso   1.000  H
  H913     1.0000 0.80803  0.44803  0.74599  Biso   1.000  H
  C968     1.0000 0.89375  0.37264  0.67442  Biso   1.000  C
  H914     1.0000 0.87203  0.51195  0.69001  Biso   1.000  H
  H915     1.0000 0.80802  0.44796  0.74599  Biso   1.000  H
  C969     1.0000 0.89374  0.37257  0.67442  Biso   1.000  C
  H916     1.0000 0.25301  0.30401  0.38799  Biso   1.000  H
  H917     1.0000 0.25301  0.30395  0.38799  Biso   1.000  H
  H918     1.0000 0.46507  0.19802  0.90399  Biso   1.000  H
  H919     1.0000 0.46506  0.19795  0.90399  Biso   1.000  H
  C970     1.0000 0.82972  0.29721  0.66282  Biso   1.000  C
  C971     1.0000 0.97343  0.36781  0.63933  Biso   1.000  C
  C972     1.0000 0.82978  0.29714  0.66282  Biso   1.000  C
  C973     1.0000 0.97343  0.36774  0.63933  Biso   1.000  C
  C974     1.0000 0.84545  0.21701  0.61613  Biso   1.000  C
  H920     1.0000 0.76803  0.30102  0.69001  Biso   1.000  H
  C975     1.0000 0.84544  0.21694  0.61613  Biso   1.000  C
  H921     1.0000 0.76803  0.30096  0.69001  Biso   1.000  H
  C976     1.0000 0.98915  0.28758  0.59251  Biso   1.000  C
  H922     1.0000 0.02303  0.42602  0.64801  Biso   1.000  H
  H923     1.0000 0.02302  0.42595  0.64801  Biso   1.000  H
  C977     1.0000 0.92512  0.21222  0.58091  Biso   1.000  C
  H924     1.0000 0.79602  0.15904  0.60702  Biso   1.000  H
  C978     1.0000 0.92512  0.21215  0.58091  Biso   1.000  C
  H925     1.0000 0.79602  0.15898  0.60702  Biso   1.000  H
  H926     1.0000 0.05102  0.28404  0.56503  Biso   1.000  H
  H927     1.0000 0.05101  0.28397  0.56503  Biso   1.000  H
  H928     1.0000 0.93705  0.14998  0.54498  Biso   1.000  H
  H929     1.0000 0.93706  0.14999  0.54504  Biso   1.000  H
  H930     1.0000 0.93699  0.14998  0.54498  Biso   1.000  H
  C979     1.0000 0.15220  0.22997  0.07269  Biso   1.000  C
  O181     1.0000 0.13743  0.30373  0.03022  Biso   1.000  O
  O182     1.0000 0.13743  0.30366  0.03022  Biso   1.000  O
  O183     1.0000 0.17720  0.26049  0.15681  Biso   1.000  O
  H931     1.0000 0.08999  0.18501  0.06300  Biso   1.000  H
  H932     1.0000 0.20599  0.19501  0.04902  Biso   1.000  H
  H933     1.0000 0.20605  0.19501  0.04902  Biso   1.000  H
  H934     1.0000 0.08998  0.18494  0.06300  Biso   1.000  H
  H935     1.0000 0.20598  0.19494  0.04902  Biso   1.000  H
  C980     1.0000 0.05118  0.32647  0.02219  Biso   1.000  C
  C981     1.0000 0.05119  0.32654  0.02219  Biso   1.000  C
  C982     1.0000 0.15221  0.23004  0.07269  Biso   1.000  C
  C983     1.0000 0.10283  0.26919  0.20309  Biso   1.000  C
  C984     1.0000 0.10283  0.26913  0.20309  Biso   1.000  C
  C985     1.0000 0.01280  0.38580  0.07668  Biso   1.000  C
  C986     1.0000 0.01281  0.38581  0.07674  Biso   1.000  C
  C987     1.0000 0.01280  0.38575  0.07674  Biso   1.000  C
  C988     1.0000 0.00253  0.29023  0.94801  Biso   1.000  C
  C989     1.0000 0.00260  0.29023  0.94801  Biso   1.000  C
  C990     1.0000 0.00254  0.29029  0.94801  Biso   1.000  C
  C991     1.0000 0.00261  0.29029  0.94801  Biso   1.000  C
  C992     1.0000 0.05104  0.34167  0.20767  Biso   1.000  C
  C993     1.0000 0.05105  0.34168  0.20773  Biso   1.000  C
  C994     1.0000 0.05105  0.34174  0.20767  Biso   1.000  C
  C995     1.0000 0.08832  0.20328  0.24961  Biso   1.000  C
  C996     1.0000 0.08833  0.20335  0.24961  Biso   1.000  C
  C997     1.0000 0.92564  0.40878  0.05711  Biso   1.000  C
  C998     1.0000 0.92565  0.40884  0.05711  Biso   1.000  C
  C999     1.0000 0.07580  0.41427  0.15431  Biso   1.000  C
  C1000    1.0000 0.07581  0.41434  0.15431  Biso   1.000  C
  C1001    1.0000 0.91536  0.31312  0.92838  Biso   1.000  C
  C1002    1.0000 0.91537  0.31314  0.92844  Biso   1.000  C
  C1003    1.0000 0.91537  0.31319  0.92838  Biso   1.000  C
  C1004    1.0000 0.91537  0.31320  0.92844  Biso   1.000  C
  O184     1.0000 0.03516  0.22631  0.89471  Biso   1.000  O
  O185     1.0000 0.03517  0.22637  0.89471  Biso   1.000  O
  C1005    1.0000 0.98469  0.34840  0.25889  Biso   1.000  C
  C1006    1.0000 0.98476  0.34840  0.25889  Biso   1.000  C
  C1007    1.0000 0.98475  0.34833  0.25889  Biso   1.000  C
  C1008    1.0000 0.02204  0.20989  0.30089  Biso   1.000  C
  O186     1.0000 0.13233  0.12600  0.23932  Biso   1.000  O
  O187     1.0000 0.13232  0.12593  0.23932  Biso   1.000  O
  C1009    1.0000 0.87699  0.37246  0.98293  Biso   1.000  C
  H936     1.0000 0.89601  0.45500  0.09899  Biso   1.000  H
  H937     1.0000 0.89601  0.45494  0.09899  Biso   1.000  H
  H938     1.0000 0.14602  0.41900  0.14402  Biso   1.000  H
  C1010    1.0000 0.05059  0.50862  0.19928  Biso   1.000  C
  C1011    1.0000 0.05066  0.50862  0.19928  Biso   1.000  C
  C1012    1.0000 0.05066  0.50856  0.19928  Biso   1.000  C
  O188     1.0000 0.86795  0.28404  0.85360  Biso   1.000  O
  C1013    1.0000 0.07483  0.26483  0.83278  Biso   1.000  C
  C1014    1.0000 0.07484  0.26484  0.83284  Biso   1.000  C
  C1015    1.0000 0.07484  0.26490  0.83278  Biso   1.000  C
  C1016    1.0000 0.07485  0.26491  0.83284  Biso   1.000  C
  C1017    1.0000 0.97020  0.28251  0.30553  Biso   1.000  C
  C1018    1.0000 0.97026  0.28251  0.30553  Biso   1.000  C
  C1019    1.0000 0.97026  0.28245  0.30553  Biso   1.000  C
  H939     1.0000 0.94503  0.40501  0.26300  Biso   1.000  H
  H940     1.0000 0.94502  0.40495  0.26300  Biso   1.000  H
  O189     1.0000 0.01421  0.14315  0.34628  Biso   1.000  O
  O190     1.0000 0.01422  0.14323  0.34634  Biso   1.000  O
  O191     1.0000 0.01422  0.14322  0.34628  Biso   1.000  O
  O192     1.0000 0.01422  0.14317  0.34634  Biso   1.000  O
  C1020    1.0000 0.21434  0.12747  0.28881  Biso   1.000  C
  C1021    1.0000 0.21435  0.12754  0.28881  Biso   1.000  C
  C1022    1.0000 0.77869  0.38697  0.96502  Biso   1.000  C
  H941     1.0000 0.98400  0.50098  0.21802  Biso   1.000  H
  H942     1.0000 0.98407  0.50098  0.21802  Biso   1.000  H
  H943     1.0000 0.98401  0.50105  0.21802  Biso   1.000  H
  H944     1.0000 0.05202  0.55799  0.16002  Biso   1.000  H
  C1023    1.0000 0.12633  0.54062  0.27442  Biso   1.000  C
  H945     1.0000 0.05203  0.55806  0.16002  Biso   1.000  H
  C1024    1.0000 0.12632  0.54056  0.27442  Biso   1.000  C
  C1025    1.0000 0.80556  0.20565  0.84438  Biso   1.000  C
  C1026    1.0000 0.80557  0.20566  0.84444  Biso   1.000  C
  C1027    1.0000 0.07908  0.18777  0.76050  Biso   1.000  C
  H946     1.0000 0.03402  0.31492  0.81398  Biso   1.000  H
  H947     1.0000 0.14303  0.29593  0.85503  Biso   1.000  H
  H948     1.0000 0.03409  0.31492  0.81398  Biso   1.000  H
  H949     1.0000 0.14310  0.29593  0.85503  Biso   1.000  H
  H950     1.0000 0.03403  0.31499  0.81398  Biso   1.000  H
  H951     1.0000 0.14304  0.29599  0.85503  Biso   1.000  H
  H952     1.0000 0.03409  0.31499  0.81398  Biso   1.000  H
  H953     1.0000 0.14310  0.29599  0.85503  Biso   1.000  H
  C1028    1.0000 0.89631  0.28260  0.35800  Biso   1.000  C
  C1029    1.0000 0.89631  0.28254  0.35800  Biso   1.000  C
  C1030    1.0000 0.94101  0.07308  0.32784  Biso   1.000  C
  C1031    1.0000 0.94100  0.07307  0.32778  Biso   1.000  C
  C1032    1.0000 0.94101  0.07314  0.32778  Biso   1.000  C
  C1033    1.0000 0.24700  0.04259  0.28578  Biso   1.000  C
  H954     1.0000 0.26501  0.17399  0.27198  Biso   1.000  H
  H955     1.0000 0.20305  0.15100  0.34902  Biso   1.000  H
  C1034    1.0000 0.24701  0.04260  0.28584  Biso   1.000  C
  H956     1.0000 0.26502  0.17400  0.27204  Biso   1.000  H
  C1035    1.0000 0.24700  0.04253  0.28584  Biso   1.000  C
  H957     1.0000 0.26501  0.17394  0.27204  Biso   1.000  H
  H958     1.0000 0.20304  0.15093  0.34902  Biso   1.000  H
  C1036    1.0000 0.71964  0.31085  0.98519  Biso   1.000  C
  C1037    1.0000 0.71971  0.31085  0.98519  Biso   1.000  C
  H959     1.0000 0.76103  0.38394  0.90202  Biso   1.000  H
  C1038    1.0000 0.76026  0.48616  0.99929  Biso   1.000  C
  H960     1.0000 0.76110  0.38394  0.90202  Biso   1.000  H
  H961     1.0000 0.76104  0.38400  0.90202  Biso   1.000  H
  H962     1.0000 0.76111  0.38400  0.90202  Biso   1.000  H
  H963     1.0000 0.12803  0.48799  0.30999  Biso   1.000  H
  H964     1.0000 0.19204  0.55197  0.25401  Biso   1.000  H
  C1039    1.0000 0.10632  0.62736  0.32558  Biso   1.000  C
  C1040    1.0000 0.10633  0.62737  0.32564  Biso   1.000  C
  H965     1.0000 0.19204  0.55204  0.25401  Biso   1.000  H
  C1041    1.0000 0.10633  0.62743  0.32558  Biso   1.000  C
  O193     1.0000 0.71604  0.22832  0.85128  Biso   1.000  O
  O194     1.0000 0.71605  0.22833  0.85134  Biso   1.000  O
  O195     1.0000 0.71605  0.22839  0.85128  Biso   1.000  O
  O196     1.0000 0.71605  0.22840  0.85134  Biso   1.000  O
  H966     1.0000 0.82508  0.16791  0.89001  Biso   1.000  H
  H967     1.0000 0.80703  0.16494  0.78697  Biso   1.000  H
  H968     1.0000 0.80704  0.16495  0.78703  Biso   1.000  H
  H969     1.0000 0.82509  0.16798  0.89001  Biso   1.000  H
  O197     1.0000 0.13836  0.12613  0.78668  Biso   1.000  O
  H970     1.0000 0.10403  0.21492  0.71202  Biso   1.000  H
  H971     1.0000 0.01204  0.15292  0.74099  Biso   1.000  H
  O198     1.0000 0.13837  0.12614  0.78674  Biso   1.000  O
  O199     1.0000 0.13837  0.12619  0.78668  Biso   1.000  O
  H972     1.0000 0.10403  0.21499  0.71202  Biso   1.000  H
  H973     1.0000 0.01204  0.15299  0.74099  Biso   1.000  H
  O200     1.0000 0.13838  0.12621  0.78674  Biso   1.000  O
  C1042    1.0000 0.80903  0.22468  0.31041  Biso   1.000  C
  C1043    1.0000 0.80904  0.22475  0.31041  Biso   1.000  C
  H974     1.0000 0.91404  0.25000  0.40803  Biso   1.000  H
  C1044    1.0000 0.88494  0.37756  0.39750  Biso   1.000  C
  C1045    1.0000 0.88495  0.37763  0.39750  Biso   1.000  C
  H975     1.0000 0.91403  0.24993  0.40803  Biso   1.000  H
  O201     1.0000 0.86004  0.09402  0.35419  Biso   1.000  O
  O202     1.0000 0.86003  0.09396  0.35419  Biso   1.000  O
  H976     1.0000 0.96205  0.01701  0.35401  Biso   1.000  H
  H977     1.0000 0.92905  0.05399  0.26401  Biso   1.000  H
  H978     1.0000 0.92898  0.05399  0.26401  Biso   1.000  H
  H979     1.0000 0.92899  0.05405  0.26401  Biso   1.000  H
  H980     1.0000 0.96204  0.01694  0.35401  Biso   1.000  H
  H981     1.0000 0.19903  0.99597  0.30601  Biso   1.000  H
  H982     1.0000 0.19904  0.99603  0.30601  Biso   1.000  H
  O203     1.0000 0.26472  0.00780  0.20279  Biso   1.000  O
  H983     1.0000 0.31104  0.05097  0.32397  Biso   1.000  H
  H984     1.0000 0.31105  0.05098  0.32403  Biso   1.000  H
  H985     1.0000 0.31104  0.05103  0.32397  Biso   1.000  H
  O204     1.0000 0.26471  0.00773  0.20279  Biso   1.000  O
  C1046    1.0000 0.69060  0.31719  0.06020  Biso   1.000  C
  C1047    1.0000 0.69060  0.31726  0.06020  Biso   1.000  C
  C1048    1.0000 0.69435  0.23286  0.92850  Biso   1.000  C
  H986     1.0000 0.81004  0.53392  0.98299  Biso   1.000  H
  C1049    1.0000 0.66564  0.50206  0.96449  Biso   1.000  C
  H987     1.0000 0.81010  0.53392  0.98299  Biso   1.000  H
  C1050    1.0000 0.66571  0.50206  0.96449  Biso   1.000  C
  H988     1.0000 0.81004  0.53398  0.98299  Biso   1.000  H
  H989     1.0000 0.81011  0.53398  0.98299  Biso   1.000  H
  H990     1.0000 0.76398  0.49497  0.06300  Biso   1.000  H
  H991     1.0000 0.76405  0.49503  0.06300  Biso   1.000  H
  H992     1.0000 0.76399  0.49503  0.06300  Biso   1.000  H
  H993     1.0000 0.76405  0.49497  0.06300  Biso   1.000  H
  C1051    1.0000 0.17035  0.70279  0.33718  Biso   1.000  C
  C1052    1.0000 0.02663  0.63219  0.36067  Biso   1.000  C
  C1053    1.0000 0.17036  0.70281  0.33724  Biso   1.000  C
  C1054    1.0000 0.02664  0.63221  0.36073  Biso   1.000  C
  C1055    1.0000 0.17035  0.70274  0.33724  Biso   1.000  C
  C1056    1.0000 0.02663  0.63214  0.36073  Biso   1.000  C
  C1057    1.0000 0.22955  0.15442  0.79453  Biso   1.000  C
  C1058    1.0000 0.22955  0.15449  0.79453  Biso   1.000  C
  C1059    1.0000 0.74704  0.26380  0.26341  Biso   1.000  C
  C1060    1.0000 0.74703  0.26373  0.26341  Biso   1.000  C
  C1061    1.0000 0.79993  0.13157  0.30731  Biso   1.000  C
  C1062    1.0000 0.79994  0.13164  0.30731  Biso   1.000  C
  H994     1.0000 0.86300  0.41500  0.35199  Biso   1.000  H
  C1063    1.0000 0.81351  0.37579  0.45580  Biso   1.000  C
  H995     1.0000 0.94904  0.40897  0.43004  Biso   1.000  H
  H996     1.0000 0.94904  0.40896  0.42998  Biso   1.000  H
  H997     1.0000 0.86306  0.41500  0.35199  Biso   1.000  H
  C1064    1.0000 0.81358  0.37579  0.45580  Biso   1.000  C
  H998     1.0000 0.94904  0.40902  0.42998  Biso   1.000  H
  H999     1.0000 0.86306  0.41493  0.35199  Biso   1.000  H
  C1065    1.0000 0.81357  0.37573  0.45580  Biso   1.000  C
  C1066    1.0000 0.34242  0.05550  0.18168  Biso   1.000  C
  C1067    1.0000 0.34243  0.05551  0.18174  Biso   1.000  C
  C1068    1.0000 0.34243  0.05544  0.18174  Biso   1.000  C
  C1069    1.0000 0.63633  0.24554  0.07852  Biso   1.000  C
  C1070    1.0000 0.63633  0.24547  0.07852  Biso   1.000  C
  H1000    1.0000 0.71003  0.37798  0.10398  Biso   1.000  H
  H1001    1.0000 0.71003  0.37805  0.10398  Biso   1.000  H
  C1071    1.0000 0.64008  0.16114  0.94682  Biso   1.000  C
  C1072    1.0000 0.64009  0.16120  0.94682  Biso   1.000  C
  H1002    1.0000 0.66608  0.49893  0.90101  Biso   1.000  H
  H1003    1.0000 0.61907  0.44795  0.97400  Biso   1.000  H
  C1073    1.0000 0.63009  0.58842  0.99590  Biso   1.000  C
  H1004    1.0000 0.66609  0.49900  0.90101  Biso   1.000  H
  C1074    1.0000 0.63010  0.58848  0.99590  Biso   1.000  C
  C1075    1.0000 0.15462  0.78299  0.38387  Biso   1.000  C
  H1005    1.0000 0.23204  0.69898  0.30999  Biso   1.000  H
  C1076    1.0000 0.15463  0.78300  0.38393  Biso   1.000  C
  H1006    1.0000 0.23204  0.69904  0.30999  Biso   1.000  H
  C1077    1.0000 0.15462  0.78294  0.38393  Biso   1.000  C
  H1007    1.0000 0.97704  0.57398  0.35199  Biso   1.000  H
  C1078    1.0000 0.01092  0.71242  0.40749  Biso   1.000  C
  C1079    1.0000 0.01091  0.71235  0.40749  Biso   1.000  C
  C1080    1.0000 0.27923  0.07664  0.81398  Biso   1.000  C
  H1008    1.0000 0.24801  0.17392  0.73998  Biso   1.000  H
  H1009    1.0000 0.24605  0.21093  0.84200  Biso   1.000  H
  H1010    1.0000 0.24809  0.17393  0.74004  Biso   1.000  H
  H1011    1.0000 0.24802  0.17398  0.73998  Biso   1.000  H
  H1012    1.0000 0.24605  0.21100  0.84200  Biso   1.000  H
  H1013    1.0000 0.24809  0.17399  0.74004  Biso   1.000  H
  C1081    1.0000 0.67582  0.20994  0.21332  Biso   1.000  C
  C1082    1.0000 0.67581  0.20987  0.21332  Biso   1.000  C
  H1014    1.0000 0.75401  0.33601  0.26603  Biso   1.000  H
  H1015    1.0000 0.75401  0.33594  0.26603  Biso   1.000  H
  C1083    1.0000 0.72871  0.07771  0.25723  Biso   1.000  C
  C1084    1.0000 0.72870  0.07764  0.25723  Biso   1.000  C
  C1085    1.0000 0.80076  0.46750  0.50047  Biso   1.000  C
  H1016    1.0000 0.74901  0.34698  0.42201  Biso   1.000  H
  H1017    1.0000 0.83404  0.33399  0.49803  Biso   1.000  H
  H1018    1.0000 0.83403  0.33397  0.49797  Biso   1.000  H
  H1019    1.0000 0.74907  0.34698  0.42201  Biso   1.000  H
  C1086    1.0000 0.80077  0.46752  0.50053  Biso   1.000  C
  H1020    1.0000 0.74901  0.34705  0.42201  Biso   1.000  H
  H1021    1.0000 0.83404  0.33404  0.49797  Biso   1.000  H
  C1087    1.0000 0.80076  0.46745  0.50053  Biso   1.000  C
  C1088    1.0000 0.35432  0.99850  0.10220  Biso   1.000  C
  C1089    1.0000 0.35432  0.99856  0.10220  Biso   1.000  C
  H1022    1.0000 0.40102  0.05796  0.22498  Biso   1.000  H
  H1023    1.0000 0.33004  0.12297  0.17501  Biso   1.000  H
  H1024    1.0000 0.40103  0.05803  0.22498  Biso   1.000  H
  H1025    1.0000 0.33004  0.12303  0.17501  Biso   1.000  H
  C1090    1.0000 0.60071  0.24679  0.16074  Biso   1.000  C
  C1091    1.0000 0.60071  0.24677  0.16068  Biso   1.000  C
  C1092    1.0000 0.60071  0.24684  0.16068  Biso   1.000  C
  C1093    1.0000 0.61098  0.16760  0.02177  Biso   1.000  C
  C1094    1.0000 0.61105  0.16761  0.02183  Biso   1.000  C
  C1095    1.0000 0.61098  0.16754  0.02183  Biso   1.000  C
  O205     1.0000 0.61492  0.08721  0.88668  Biso   1.000  O
  O206     1.0000 0.61500  0.08722  0.88674  Biso   1.000  O
  O207     1.0000 0.61493  0.08728  0.88668  Biso   1.000  O
  O208     1.0000 0.61500  0.08729  0.88674  Biso   1.000  O
  C1096    1.0000 0.58902  0.58717  0.06490  Biso   1.000  C
  C1097    1.0000 0.63667  0.66673  0.96312  Biso   1.000  C
  C1098    1.0000 0.63667  0.66680  0.96312  Biso   1.000  C
  C1099    1.0000 0.58902  0.58724  0.06490  Biso   1.000  C
  C1100    1.0000 0.07494  0.78778  0.41909  Biso   1.000  C
  H1026    1.0000 0.20404  0.84096  0.39298  Biso   1.000  H
  H1027    1.0000 0.20406  0.84103  0.39304  Biso   1.000  H
  H1028    1.0000 0.20405  0.84102  0.39298  Biso   1.000  H
  H1029    1.0000 0.20405  0.84097  0.39304  Biso   1.000  H
  H1030    1.0000 0.94906  0.71597  0.43503  Biso   1.000  H
  H1031    1.0000 0.94905  0.71596  0.43497  Biso   1.000  H
  H1032    1.0000 0.94905  0.71603  0.43497  Biso   1.000  H
  O209     1.0000 0.27705  0.01131  0.73718  Biso   1.000  O
  H1033    1.0000 0.24606  0.04393  0.85598  Biso   1.000  H
  H1034    1.0000 0.34904  0.09995  0.83801  Biso   1.000  H
  O210     1.0000 0.27705  0.01138  0.73718  Biso   1.000  O
  H1035    1.0000 0.24607  0.04394  0.85604  Biso   1.000  H
  H1036    1.0000 0.24607  0.04399  0.85598  Biso   1.000  H
  H1037    1.0000 0.24607  0.04400  0.85604  Biso   1.000  H
  C1101    1.0000 0.66673  0.11691  0.21029  Biso   1.000  C
  C1102    1.0000 0.66672  0.11684  0.21029  Biso   1.000  C
  O211     1.0000 0.72301  0.98862  0.26282  Biso   1.000  O
  C1103    1.0000 0.86027  0.54489  0.50410  Biso   1.000  C
  C1104    1.0000 0.72217  0.47260  0.53718  Biso   1.000  C
  C1105    1.0000 0.72218  0.47261  0.53723  Biso   1.000  C
  C1106    1.0000 0.72210  0.47260  0.53718  Biso   1.000  C
  C1107    1.0000 0.86026  0.54482  0.50410  Biso   1.000  C
  C1108    1.0000 0.72217  0.47254  0.53723  Biso   1.000  C
  O212     1.0000 0.38514  0.91272  0.11332  Biso   1.000  O
  H1038    1.0000 0.29004  0.98602  0.06502  Biso   1.000  H
  H1039    1.0000 0.40303  0.03402  0.07299  Biso   1.000  H
  H1040    1.0000 0.40303  0.03395  0.07299  Biso   1.000  H
  C1109    1.0000 0.57609  0.34282  0.19280  Biso   1.000  C
  C1110    1.0000 0.57616  0.34282  0.19280  Biso   1.000  C
  C1111    1.0000 0.57615  0.34275  0.19280  Biso   1.000  C
  H1041    1.0000 0.53800  0.20502  0.15800  Biso   1.000  H
  H1042    1.0000 0.53799  0.20496  0.15800  Biso   1.000  H
  O213     1.0000 0.55855  0.09418  0.03992  Biso   1.000  O
  O214     1.0000 0.55848  0.09418  0.03992  Biso   1.000  O
  O215     1.0000 0.55848  0.09425  0.03992  Biso   1.000  O
  C1112    1.0000 0.64575  0.00144  0.89780  Biso   1.000  C
  C1113    1.0000 0.64575  0.00150  0.89780  Biso   1.000  C
  C1114    1.0000 0.55471  0.66411  0.10113  Biso   1.000  C
  H1043    1.0000 0.58403  0.52703  0.09001  Biso   1.000  H
  H1044    1.0000 0.58402  0.52697  0.09001  Biso   1.000  H
  C1115    1.0000 0.55470  0.66404  0.10113  Biso   1.000  C
  C1116    1.0000 0.60228  0.74371  0.99923  Biso   1.000  C
  H1045    1.0000 0.66809  0.66796  0.90999  Biso   1.000  H
  C1117    1.0000 0.60229  0.74378  0.99923  Biso   1.000  C
  H1046    1.0000 0.06301  0.85002  0.45502  Biso   1.000  H
  H1047    1.0000 0.06308  0.85002  0.45502  Biso   1.000  H
  H1048    1.0000 0.06307  0.84995  0.45502  Biso   1.000  H
  C1118    1.0000 0.27136  0.92229  0.74277  Biso   1.000  C
  C1119    1.0000 0.27136  0.92223  0.74283  Biso   1.000  C
  C1120    1.0000 0.27137  0.92230  0.74283  Biso   1.000  C
  O216     1.0000 0.59290  0.06090  0.16591  Biso   1.000  O
  C1121    1.0000 0.72083  0.92329  0.18602  Biso   1.000  C
  C1122    1.0000 0.72084  0.92336  0.18602  Biso   1.000  C
  H1049    1.0000 0.92103  0.54102  0.47602  Biso   1.000  H
  C1123    1.0000 0.84105  0.62737  0.54443  Biso   1.000  C
  H1050    1.0000 0.92102  0.54096  0.47602  Biso   1.000  H
  C1124    1.0000 0.84104  0.62736  0.54437  Biso   1.000  C
  C1125    1.0000 0.84105  0.62742  0.54437  Biso   1.000  C
  C1126    1.0000 0.70295  0.55508  0.57751  Biso   1.000  C
  H1051    1.0000 0.67604  0.41300  0.53402  Biso   1.000  H
  C1127    1.0000 0.70296  0.55514  0.57751  Biso   1.000  C
  H1052    1.0000 0.67603  0.41293  0.53402  Biso   1.000  H
  C1128    1.0000 0.35998  0.83880  0.05318  Biso   1.000  C
  C1129    1.0000 0.52591  0.33291  0.26317  Biso   1.000  C
  H1053    1.0000 0.53405  0.36800  0.14801  Biso   1.000  H
  H1054    1.0000 0.63705  0.38800  0.21201  Biso   1.000  H
  C1130    1.0000 0.52592  0.33292  0.26323  Biso   1.000  C
  H1055    1.0000 0.63699  0.38800  0.21201  Biso   1.000  H
  H1056    1.0000 0.63705  0.38794  0.21201  Biso   1.000  H
  H1057    1.0000 0.53404  0.36794  0.14801  Biso   1.000  H
  C1131    1.0000 0.52591  0.33285  0.26323  Biso   1.000  C
  C1132    1.0000 0.60178  0.03287  0.08459  Biso   1.000  C
  C1133    1.0000 0.60185  0.03293  0.08459  Biso   1.000  C
  C1134    1.0000 0.60178  0.03293  0.08459  Biso   1.000  C
  C1135    1.0000 0.60184  0.03287  0.08459  Biso   1.000  C
  H1058    1.0000 0.59703  0.96598  0.92701  Biso   1.000  H
  C1136    1.0000 0.65764  0.94450  0.81832  Biso   1.000  C
  H1059    1.0000 0.59710  0.96592  0.92701  Biso   1.000  H
  C1137    1.0000 0.65764  0.94444  0.81832  Biso   1.000  C
  H1060    1.0000 0.59710  0.96598  0.92701  Biso   1.000  H
  H1061    1.0000 0.71002  0.01391  0.93498  Biso   1.000  H
  H1062    1.0000 0.71010  0.01393  0.93504  Biso   1.000  H
  H1063    1.0000 0.71003  0.01398  0.93498  Biso   1.000  H
  H1064    1.0000 0.71011  0.01399  0.93504  Biso   1.000  H
  H1065    1.0000 0.52306  0.66303  0.15503  Biso   1.000  H
  C1138    1.0000 0.56134  0.74240  0.06823  Biso   1.000  C
  C1139    1.0000 0.56133  0.74239  0.06817  Biso   1.000  C
  C1140    1.0000 0.56133  0.74246  0.06817  Biso   1.000  C
  H1066    1.0000 0.52299  0.66303  0.15503  Biso   1.000  H
  H1067    1.0000 0.52305  0.66297  0.15503  Biso   1.000  H
  H1068    1.0000 0.60707  0.80396  0.97400  Biso   1.000  H
  C1141    1.0000 0.33334  0.88309  0.78971  Biso   1.000  C
  C1142    1.0000 0.20014  0.86843  0.69269  Biso   1.000  C
  C1143    1.0000 0.33333  0.88303  0.78971  Biso   1.000  C
  C1144    1.0000 0.20013  0.86836  0.69269  Biso   1.000  C
  C1145    1.0000 0.77051  0.84551  0.20547  Biso   1.000  C
  H1069    1.0000 0.75400  0.95601  0.14402  Biso   1.000  H
  H1070    1.0000 0.65102  0.89998  0.16199  Biso   1.000  H
  C1146    1.0000 0.77052  0.84552  0.20553  Biso   1.000  C
  H1071    1.0000 0.65103  0.90005  0.16199  Biso   1.000  H
  H1072    1.0000 0.88704  0.68698  0.54699  Biso   1.000  H
  C1147    1.0000 0.76232  0.63245  0.58108  Biso   1.000  C
  C1148    1.0000 0.76233  0.63253  0.58114  Biso   1.000  C
  C1149    1.0000 0.76232  0.63251  0.58108  Biso   1.000  C
  C1150    1.0000 0.76233  0.63246  0.58114  Biso   1.000  C
  H1073    1.0000 0.64204  0.55896  0.60600  Biso   1.000  H
  H1074    1.0000 0.64205  0.55903  0.60600  Biso   1.000  H
  C1151    1.0000 0.30571  0.76708  0.07150  Biso   1.000  C
  C1152    1.0000 0.30571  0.76714  0.07150  Biso   1.000  C
  C1153    1.0000 0.38909  0.83240  0.97823  Biso   1.000  C
  C1154    1.0000 0.38908  0.83234  0.97823  Biso   1.000  C
  H1075    1.0000 0.56806  0.30800  0.30803  Biso   1.000  H
  H1076    1.0000 0.46404  0.28800  0.24402  Biso   1.000  H
  C1155    1.0000 0.50321  0.43117  0.29613  Biso   1.000  C
  C1156    1.0000 0.50320  0.43116  0.29607  Biso   1.000  C
  C1157    1.0000 0.50321  0.43123  0.29607  Biso   1.000  C
  H1077    1.0000 0.46404  0.28793  0.24402  Biso   1.000  H
  H1078    1.0000 0.56898  0.96501  0.06401  Biso   1.000  H
  H1079    1.0000 0.56905  0.96501  0.06401  Biso   1.000  H
  H1080    1.0000 0.67298  0.03496  0.07698  Biso   1.000  H
  H1081    1.0000 0.67306  0.03504  0.07704  Biso   1.000  H
  H1082    1.0000 0.67298  0.03503  0.07698  Biso   1.000  H
  H1083    1.0000 0.67298  0.03497  0.07704  Biso   1.000  H
  H1084    1.0000 0.59904  0.94204  0.77502  Biso   1.000  H
  H1085    1.0000 0.67003  0.87703  0.82499  Biso   1.000  H
  O217     1.0000 0.73535  0.99220  0.79721  Biso   1.000  O
  H1086    1.0000 0.59904  0.94197  0.77502  Biso   1.000  H
  H1087    1.0000 0.67009  0.87697  0.82499  Biso   1.000  H
  O218     1.0000 0.73535  0.99214  0.79721  Biso   1.000  O
  H1088    1.0000 0.67002  0.87697  0.82499  Biso   1.000  H
  H1089    1.0000 0.53500  0.80198  0.09601  Biso   1.000  H
  H1090    1.0000 0.53506  0.80198  0.09601  Biso   1.000  H
  H1091    1.0000 0.53500  0.80205  0.09601  Biso   1.000  H
  C1158    1.0000 0.32425  0.79013  0.78668  Biso   1.000  C
  O219     1.0000 0.40717  0.93910  0.83409  Biso   1.000  O
  C1159    1.0000 0.32426  0.79008  0.78674  Biso   1.000  C
  O220     1.0000 0.40717  0.93904  0.83409  Biso   1.000  O
  C1160    1.0000 0.32425  0.79006  0.78668  Biso   1.000  C
  O221     1.0000 0.14004  0.90604  0.64581  Biso   1.000  O
  O222     1.0000 0.14003  0.90598  0.64581  Biso   1.000  O
  C1161    1.0000 0.19104  0.77532  0.68959  Biso   1.000  C
  C1162    1.0000 0.19103  0.77525  0.68959  Biso   1.000  C
  O223     1.0000 0.86170  0.87381  0.21332  Biso   1.000  O
  H1092    1.0000 0.75205  0.82602  0.26002  Biso   1.000  H
  H1093    1.0000 0.75401  0.78900  0.15800  Biso   1.000  H
  H1094    1.0000 0.74705  0.69599  0.61201  Biso   1.000  H
  H1095    1.0000 0.74705  0.69592  0.61201  Biso   1.000  H
  C1163    1.0000 0.28042  0.68908  0.01481  Biso   1.000  C
  C1164    1.0000 0.28043  0.68915  0.01481  Biso   1.000  C
  O224     1.0000 0.28402  0.77161  0.14872  Biso   1.000  O
  C1165    1.0000 0.36374  0.75453  0.92148  Biso   1.000  C
  C1166    1.0000 0.36374  0.75447  0.92154  Biso   1.000  C
  C1167    1.0000 0.36373  0.75446  0.92148  Biso   1.000  C
  O225     1.0000 0.44159  0.90582  0.96008  Biso   1.000  O
  O226     1.0000 0.44158  0.90575  0.96008  Biso   1.000  O
  C1168    1.0000 0.44332  0.47590  0.25229  Biso   1.000  C
  C1169    1.0000 0.54395  0.47259  0.37198  Biso   1.000  C
  C1170    1.0000 0.54396  0.47261  0.37204  Biso   1.000  C
  C1171    1.0000 0.44332  0.47583  0.25229  Biso   1.000  C
  C1172    1.0000 0.54396  0.47254  0.37204  Biso   1.000  C
  C1173    1.0000 0.75307  0.95741  0.71422  Biso   1.000  C
  C1174    1.0000 0.75306  0.95734  0.71422  Biso   1.000  C
  C1175    1.0000 0.25303  0.73620  0.73659  Biso   1.000  C
  C1176    1.0000 0.25302  0.73614  0.73659  Biso   1.000  C
  C1177    1.0000 0.39936  0.75323  0.83932  Biso   1.000  C
  C1178    1.0000 0.39936  0.75316  0.83932  Biso   1.000  C
  C1179    1.0000 0.39829  0.96713  0.91541  Biso   1.000  C
  C1180    1.0000 0.39828  0.96707  0.91541  Biso   1.000  C
  C1181    1.0000 0.05907  0.92693  0.67222  Biso   1.000  C
  C1182    1.0000 0.05906  0.92686  0.67222  Biso   1.000  C
  C1183    1.0000 0.10375  0.71740  0.64200  Biso   1.000  C
  C1184    1.0000 0.10375  0.71733  0.64200  Biso   1.000  C
  C1185    1.0000 0.92098  0.81217  0.23950  Biso   1.000  C
  C1186    1.0000 0.92105  0.81217  0.23950  Biso   1.000  C
  C1187    1.0000 0.92099  0.81223  0.23950  Biso   1.000  C
  C1188    1.0000 0.92105  0.81223  0.23950  Biso   1.000  C
  C1189    1.0000 0.22137  0.61297  0.03498  Biso   1.000  C
  C1190    1.0000 0.22138  0.61298  0.03504  Biso   1.000  C
  C1191    1.0000 0.22138  0.61303  0.03498  Biso   1.000  C
  C1192    1.0000 0.22138  0.61305  0.03504  Biso   1.000  C
  C1193    1.0000 0.30947  0.68281  0.93980  Biso   1.000  C
  C1194    1.0000 0.30946  0.68274  0.93980  Biso   1.000  C
  C1195    1.0000 0.19450  0.79428  0.15562  Biso   1.000  C
  C1196    1.0000 0.19451  0.79435  0.15562  Biso   1.000  C
  C1197    1.0000 0.42424  0.56191  0.28429  Biso   1.000  C
  H1096    1.0000 0.41203  0.44402  0.19399  Biso   1.000  H
  C1198    1.0000 0.42423  0.56185  0.28429  Biso   1.000  C
  H1097    1.0000 0.41202  0.44395  0.19399  Biso   1.000  H
  C1199    1.0000 0.52473  0.55861  0.40398  Biso   1.000  C
  H1098    1.0000 0.59003  0.43799  0.40600  Biso   1.000  H
  C1200    1.0000 0.52473  0.55854  0.40398  Biso   1.000  C
  H1099    1.0000 0.59002  0.43792  0.40600  Biso   1.000  H
  H1100    1.0000 0.68903  0.94903  0.67603  Biso   1.000  H
  C1201    1.0000 0.78572  0.87253  0.71119  Biso   1.000  C
  H1101    1.0000 0.68909  0.94897  0.67603  Biso   1.000  H
  C1202    1.0000 0.78579  0.87246  0.71119  Biso   1.000  C
  H1102    1.0000 0.68902  0.94897  0.67603  Biso   1.000  H
  C1203    1.0000 0.78572  0.87246  0.71119  Biso   1.000  C
  H1103    1.0000 0.80103  0.00397  0.69399  Biso   1.000  H
  H1104    1.0000 0.24605  0.66399  0.73397  Biso   1.000  H
  H1105    1.0000 0.24606  0.66394  0.73403  Biso   1.000  H
  H1106    1.0000 0.24606  0.66401  0.73403  Biso   1.000  H
  H1107    1.0000 0.46207  0.79498  0.84200  Biso   1.000  H
  C1204    1.0000 0.42397  0.65718  0.80720  Biso   1.000  C
  C1205    1.0000 0.42397  0.65712  0.80720  Biso   1.000  C
  H1108    1.0000 0.32709  0.96504  0.92302  Biso   1.000  H
  H1109    1.0000 0.32709  0.96497  0.92302  Biso   1.000  H
  H1110    1.0000 0.43108  0.03492  0.93599  Biso   1.000  H
  H1111    1.0000 0.43109  0.03499  0.93599  Biso   1.000  H
  O227     1.0000 0.98586  0.85685  0.65372  Biso   1.000  O
  O228     1.0000 0.98585  0.85678  0.65372  Biso   1.000  O
  H1112    1.0000 0.07108  0.94601  0.73599  Biso   1.000  H
  H1113    1.0000 0.03802  0.98299  0.64599  Biso   1.000  H
  H1114    1.0000 0.07108  0.94595  0.73599  Biso   1.000  H
  H1115    1.0000 0.03808  0.98293  0.64599  Biso   1.000  H
  H1116    1.0000 0.07101  0.94595  0.73599  Biso   1.000  H
  H1117    1.0000 0.03808  0.98299  0.64599  Biso   1.000  H
  C1206    1.0000 0.02987  0.71749  0.69447  Biso   1.000  C
  C1207    1.0000 0.02987  0.71743  0.69453  Biso   1.000  C
  C1208    1.0000 0.02980  0.71749  0.69447  Biso   1.000  C
  C1209    1.0000 0.02988  0.71750  0.69453  Biso   1.000  C
  H1118    1.0000 0.08603  0.75000  0.59197  Biso   1.000  H
  C1210    1.0000 0.11513  0.62244  0.60250  Biso   1.000  C
  H1119    1.0000 0.08603  0.74995  0.59203  Biso   1.000  H
  C1211    1.0000 0.11512  0.62237  0.60250  Biso   1.000  C
  H1120    1.0000 0.08604  0.75001  0.59203  Biso   1.000  H
  C1212    1.0000 0.92523  0.73510  0.16722  Biso   1.000  C
  H1121    1.0000 0.89603  0.78501  0.28798  Biso   1.000  H
  H1122    1.0000 0.98803  0.84701  0.25901  Biso   1.000  H
  H1123    1.0000 0.89604  0.78502  0.28804  Biso   1.000  H
  C1213    1.0000 0.12308  0.62747  0.01707  Biso   1.000  C
  C1214    1.0000 0.12308  0.62748  0.01713  Biso   1.000  C
  C1215    1.0000 0.12308  0.62754  0.01707  Biso   1.000  C
  C1216    1.0000 0.12309  0.62755  0.01713  Biso   1.000  C
  H1124    1.0000 0.23903  0.61600  0.09798  Biso   1.000  H
  C1217    1.0000 0.23980  0.51377  0.00071  Biso   1.000  C
  H1125    1.0000 0.23904  0.61601  0.09804  Biso   1.000  H
  C1218    1.0000 0.23980  0.51384  0.00071  Biso   1.000  C
  H1126    1.0000 0.29004  0.62202  0.89602  Biso   1.000  H
  H1127    1.0000 0.29003  0.62195  0.89602  Biso   1.000  H
  O229     1.0000 0.13212  0.71589  0.14640  Biso   1.000  O
  O230     1.0000 0.13212  0.71596  0.14640  Biso   1.000  O
  H1128    1.0000 0.17498  0.83202  0.10999  Biso   1.000  H
  H1129    1.0000 0.19303  0.83499  0.21303  Biso   1.000  H
  H1130    1.0000 0.17505  0.83202  0.10999  Biso   1.000  H
  H1131    1.0000 0.19303  0.83506  0.21303  Biso   1.000  H
  H1132    1.0000 0.37802  0.59601  0.25003  Biso   1.000  H
  C1219    1.0000 0.46496  0.60319  0.36008  Biso   1.000  C
  C1220    1.0000 0.46497  0.60320  0.36014  Biso   1.000  C
  C1221    1.0000 0.46496  0.60314  0.36014  Biso   1.000  C
  H1133    1.0000 0.37801  0.59594  0.25003  Biso   1.000  H
  H1134    1.0000 0.55603  0.59097  0.46299  Biso   1.000  H
  H1135    1.0000 0.55603  0.59103  0.46299  Biso   1.000  H
  H1136    1.0000 0.73506  0.82601  0.72802  Biso   1.000  H
  H1137    1.0000 0.79702  0.84900  0.65098  Biso   1.000  H
  O231     1.0000 0.86774  0.87400  0.76068  Biso   1.000  O
  H1138    1.0000 0.73505  0.82594  0.72802  Biso   1.000  H
  H1139    1.0000 0.79701  0.84894  0.65098  Biso   1.000  H
  O232     1.0000 0.86774  0.87395  0.76074  Biso   1.000  O
  O233     1.0000 0.86774  0.87393  0.76068  Biso   1.000  O
  O234     1.0000 0.86775  0.87401  0.76074  Biso   1.000  O
  H1140    1.0000 0.36301  0.61200  0.78799  Biso   1.000  H
  H1141    1.0000 0.46602  0.63200  0.85199  Biso   1.000  H
  C1222    1.0000 0.47416  0.66709  0.73683  Biso   1.000  C
  H1142    1.0000 0.36308  0.61193  0.78799  Biso   1.000  H
  H1143    1.0000 0.46608  0.63193  0.85199  Biso   1.000  H
  C1223    1.0000 0.47415  0.66703  0.73683  Biso   1.000  C
  H1144    1.0000 0.36301  0.61193  0.78799  Biso   1.000  H
  H1145    1.0000 0.36308  0.61200  0.78799  Biso   1.000  H
  H1146    1.0000 0.46609  0.63200  0.85199  Biso   1.000  H
  C1224    1.0000 0.97803  0.79011  0.69911  Biso   1.000  C
  C1225    1.0000 0.97802  0.79004  0.69911  Biso   1.000  C
  C1226    1.0000 0.01537  0.65160  0.74111  Biso   1.000  C
  C1227    1.0000 0.01537  0.65154  0.74111  Biso   1.000  C
  H1147    1.0000 0.13707  0.58500  0.64801  Biso   1.000  H
  H1148    1.0000 0.05103  0.59104  0.57002  Biso   1.000  H
  C1228    1.0000 0.18656  0.62421  0.54420  Biso   1.000  C
  H1149    1.0000 0.13707  0.58494  0.64801  Biso   1.000  H
  H1150    1.0000 0.05103  0.59098  0.57002  Biso   1.000  H
  C1229    1.0000 0.18655  0.62414  0.54420  Biso   1.000  C
  O235     1.0000 0.96490  0.77363  0.10529  Biso   1.000  O
  H1151    1.0000 0.96604  0.68501  0.18602  Biso   1.000  H
  H1152    1.0000 0.85703  0.70401  0.14497  Biso   1.000  H
  H1153    1.0000 0.85704  0.70402  0.14503  Biso   1.000  H
  H1154    1.0000 0.96597  0.68501  0.18602  Biso   1.000  H
  H1155    1.0000 0.85696  0.70401  0.14497  Biso   1.000  H
  C1230    1.0000 0.08470  0.68681  0.07162  Biso   1.000  C
  C1231    1.0000 0.07443  0.59122  0.94289  Biso   1.000  C
  C1232    1.0000 0.07449  0.59116  0.94289  Biso   1.000  C
  C1233    1.0000 0.07442  0.59116  0.94289  Biso   1.000  C
  H1156    1.0000 0.23609  0.50503  0.93700  Biso   1.000  H
  H1157    1.0000 0.23608  0.50497  0.93700  Biso   1.000  H
  H1158    1.0000 0.19003  0.46602  0.01701  Biso   1.000  H
  C1234    1.0000 0.33442  0.49788  0.03551  Biso   1.000  C
  C1235    1.0000 0.33442  0.49794  0.03551  Biso   1.000  C
  H1159    1.0000 0.45003  0.67001  0.38501  Biso   1.000  H
  H1160    1.0000 0.45002  0.66994  0.38501  Biso   1.000  H
  C1236    1.0000 0.91175  0.79672  0.75039  Biso   1.000  C
  C1237    1.0000 0.91174  0.79665  0.75039  Biso   1.000  C
  H1161    1.0000 0.43201  0.69200  0.69197  Biso   1.000  H
  H1162    1.0000 0.53602  0.71200  0.75598  Biso   1.000  H
  C1238    1.0000 0.49687  0.56884  0.70393  Biso   1.000  C
  H1163    1.0000 0.43208  0.69195  0.69203  Biso   1.000  H
  H1164    1.0000 0.53608  0.71193  0.75598  Biso   1.000  H
  C1239    1.0000 0.49686  0.56877  0.70393  Biso   1.000  C
  H1165    1.0000 0.43200  0.69194  0.69197  Biso   1.000  H
  H1166    1.0000 0.53602  0.71193  0.75598  Biso   1.000  H
  H1167    1.0000 0.43209  0.69202  0.69203  Biso   1.000  H
  C1240    1.0000 0.94903  0.65833  0.79233  Biso   1.000  C
  C1241    1.0000 0.94909  0.65826  0.79233  Biso   1.000  C
  C1242    1.0000 0.94902  0.65826  0.79233  Biso   1.000  C
  H1168    1.0000 0.05504  0.59499  0.73700  Biso   1.000  H
  H1169    1.0000 0.05503  0.59492  0.73700  Biso   1.000  H
  H1170    1.0000 0.25106  0.65302  0.57799  Biso   1.000  H
  H1171    1.0000 0.16603  0.66603  0.50203  Biso   1.000  H
  C1243    1.0000 0.19931  0.53250  0.49953  Biso   1.000  C
  H1172    1.0000 0.25105  0.65295  0.57799  Biso   1.000  H
  H1173    1.0000 0.16603  0.66596  0.50203  Biso   1.000  H
  C1244    1.0000 0.19937  0.53243  0.49953  Biso   1.000  C
  C1245    1.0000 0.19937  0.53250  0.49953  Biso   1.000  C
  C1246    1.0000 0.99753  0.70971  0.05199  Biso   1.000  C
  C1247    1.0000 0.98727  0.61420  0.92332  Biso   1.000  C
  C1248    1.0000 0.98726  0.61413  0.92332  Biso   1.000  C
  H1174    1.0000 0.10406  0.54500  0.90101  Biso   1.000  H
  H1175    1.0000 0.10405  0.54493  0.90101  Biso   1.000  H
  H1176    1.0000 0.33398  0.50100  0.09899  Biso   1.000  H
  H1177    1.0000 0.38100  0.55198  0.02600  Biso   1.000  H
  C1249    1.0000 0.36997  0.41152  0.00410  Biso   1.000  C
  H1178    1.0000 0.38100  0.55205  0.02600  Biso   1.000  H
  C1250    1.0000 0.89723  0.73081  0.79691  Biso   1.000  C
  C1251    1.0000 0.89723  0.73074  0.79691  Biso   1.000  C
  C1252    1.0000 0.55674  0.52410  0.74771  Biso   1.000  C
  C1253    1.0000 0.45611  0.52741  0.62802  Biso   1.000  C
  C1254    1.0000 0.55674  0.52403  0.74771  Biso   1.000  C
  C1255    1.0000 0.45617  0.52734  0.62802  Biso   1.000  C
  C1256    1.0000 0.45618  0.52741  0.62802  Biso   1.000  C
  C1257    1.0000 0.92426  0.58573  0.84569  Biso   1.000  C
  C1258    1.0000 0.92426  0.58566  0.84569  Biso   1.000  C
  C1259    1.0000 0.13980  0.45511  0.49590  Biso   1.000  C
  C1260    1.0000 0.27790  0.52740  0.46282  Biso   1.000  C
  C1261    1.0000 0.13986  0.45504  0.49590  Biso   1.000  C
  C1262    1.0000 0.27796  0.52734  0.46282  Biso   1.000  C
  C1263    1.0000 0.13987  0.45511  0.49590  Biso   1.000  C
  C1264    1.0000 0.27796  0.52740  0.46282  Biso   1.000  C
  C1265    1.0000 0.94888  0.67353  0.97781  Biso   1.000  C
  C1266    1.0000 0.94888  0.67346  0.97781  Biso   1.000  C
  C1267    1.0000 0.41105  0.41283  0.93510  Biso   1.000  C
  C1268    1.0000 0.41104  0.41276  0.93510  Biso   1.000  C
  C1269    1.0000 0.36339  0.33320  0.03688  Biso   1.000  C
  O236     1.0000 0.82286  0.73951  0.84319  Biso   1.000  O
  O237     1.0000 0.82286  0.73944  0.84319  Biso   1.000  O
  C1270    1.0000 0.57583  0.43809  0.71571  Biso   1.000  C
  H1179    1.0000 0.58804  0.55598  0.80601  Biso   1.000  H
  C1271    1.0000 0.57583  0.43802  0.71571  Biso   1.000  C
  H1180    1.0000 0.58803  0.55592  0.80601  Biso   1.000  H
  C1272    1.0000 0.47534  0.44139  0.59602  Biso   1.000  C
  H1181    1.0000 0.41004  0.56201  0.59400  Biso   1.000  H
  C1273    1.0000 0.47533  0.44133  0.59602  Biso   1.000  C
  H1182    1.0000 0.41004  0.56194  0.59400  Biso   1.000  H
  H1183    1.0000 0.85404  0.58100  0.85598  Biso   1.000  H
  C1274    1.0000 0.94947  0.49138  0.80072  Biso   1.000  C
  H1184    1.0000 0.85405  0.58095  0.85604  Biso   1.000  H
  H1185    1.0000 0.85404  0.58094  0.85598  Biso   1.000  H
  C1275    1.0000 0.15903  0.37264  0.45563  Biso   1.000  C
  H1186    1.0000 0.07904  0.45904  0.52398  Biso   1.000  H
  C1276    1.0000 0.15902  0.37258  0.45563  Biso   1.000  C
  H1187    1.0000 0.07905  0.45899  0.52404  Biso   1.000  H
  H1188    1.0000 0.07904  0.45898  0.52398  Biso   1.000  H
  C1277    1.0000 0.29711  0.44492  0.42249  Biso   1.000  C
  H1189    1.0000 0.32403  0.58700  0.46598  Biso   1.000  H
  C1278    1.0000 0.29711  0.44486  0.42249  Biso   1.000  C
  H1190    1.0000 0.32403  0.58695  0.46604  Biso   1.000  H
  H1191    1.0000 0.32404  0.58702  0.46604  Biso   1.000  H
  O238     1.0000 0.86263  0.69627  0.96978  Biso   1.000  O
  O239     1.0000 0.86264  0.69622  0.96984  Biso   1.000  O
  O240     1.0000 0.86264  0.69628  0.96984  Biso   1.000  O
  C1279    1.0000 0.44536  0.33589  0.89887  Biso   1.000  C
  H1192    1.0000 0.41605  0.47303  0.90999  Biso   1.000  H
  C1280    1.0000 0.44536  0.33584  0.89893  Biso   1.000  C
  H1193    1.0000 0.41604  0.47297  0.90999  Biso   1.000  H
  C1281    1.0000 0.44536  0.33590  0.89893  Biso   1.000  C
  C1282    1.0000 0.39778  0.25622  0.00077  Biso   1.000  C
  H1194    1.0000 0.33197  0.33197  0.09001  Biso   1.000  H
  C1283    1.0000 0.39779  0.25623  0.00083  Biso   1.000  C
  H1195    1.0000 0.33204  0.33204  0.09001  Biso   1.000  H
  H1196    1.0000 0.33197  0.33204  0.09001  Biso   1.000  H
  C1284    1.0000 0.84787  0.77003  0.92731  Biso   1.000  C
  C1285    1.0000 0.84786  0.76996  0.92731  Biso   1.000  C
  C1286    1.0000 0.53511  0.39681  0.63992  Biso   1.000  C
  H1197    1.0000 0.62205  0.40399  0.74997  Biso   1.000  H
  C1287    1.0000 0.53517  0.39674  0.63992  Biso   1.000  C
  H1198    1.0000 0.62205  0.40394  0.75003  Biso   1.000  H
  C1288    1.0000 0.53518  0.39681  0.63992  Biso   1.000  C
  H1199    1.0000 0.62206  0.40401  0.75003  Biso   1.000  H
  H1200    1.0000 0.44404  0.40903  0.53701  Biso   1.000  H
  H1201    1.0000 0.44404  0.40897  0.53701  Biso   1.000  H
  H1202    1.0000 0.94805  0.44201  0.83998  Biso   1.000  H
  C1289    1.0000 0.87374  0.45938  0.72558  Biso   1.000  C
  H1203    1.0000 0.94805  0.44195  0.84004  Biso   1.000  H
  H1204    1.0000 0.94804  0.44194  0.83998  Biso   1.000  H
  H1205    1.0000 0.01607  0.49902  0.78198  Biso   1.000  H
  H1206    1.0000 0.01607  0.49896  0.78204  Biso   1.000  H
  H1207    1.0000 0.01606  0.49895  0.78198  Biso   1.000  H
  C1290    1.0000 0.23775  0.36755  0.41892  Biso   1.000  C
  H1208    1.0000 0.11303  0.31302  0.45301  Biso   1.000  H
  C1291    1.0000 0.23774  0.36749  0.41892  Biso   1.000  C
  H1209    1.0000 0.11302  0.31295  0.45301  Biso   1.000  H
  H1210    1.0000 0.35802  0.44104  0.39400  Biso   1.000  H
  H1211    1.0000 0.35802  0.44097  0.39400  Biso   1.000  H
  C1292    1.0000 0.43874  0.25761  0.93183  Biso   1.000  C
  H1212    1.0000 0.47701  0.33697  0.84497  Biso   1.000  H
  C1293    1.0000 0.43873  0.25754  0.93183  Biso   1.000  C
  H1213    1.0000 0.47708  0.33698  0.84503  Biso   1.000  H
  H1214    1.0000 0.39300  0.19598  0.02600  Biso   1.000  H
  H1215    1.0000 0.39300  0.19604  0.02600  Biso   1.000  H
  H1216    1.0000 0.91008  0.81499  0.93700  Biso   1.000  H
  H1217    1.0000 0.79408  0.80499  0.95098  Biso   1.000  H
  H1218    1.0000 0.91007  0.81493  0.93700  Biso   1.000  H
  H1219    1.0000 0.79407  0.80492  0.95098  Biso   1.000  H
  H1220    1.0000 0.55004  0.32999  0.61499  Biso   1.000  H
  H1221    1.0000 0.55003  0.32992  0.61499  Biso   1.000  H
  H1222    1.0000 0.87204  0.51201  0.69001  Biso   1.000  H
  H1223    1.0000 0.80803  0.44803  0.74599  Biso   1.000  H
  C1294    1.0000 0.89375  0.37264  0.67442  Biso   1.000  C
  H1224    1.0000 0.87203  0.51195  0.69001  Biso   1.000  H
  H1225    1.0000 0.80802  0.44796  0.74599  Biso   1.000  H
  C1295    1.0000 0.89374  0.37257  0.67442  Biso   1.000  C
  H1226    1.0000 0.25301  0.30401  0.38799  Biso   1.000  H
  H1227    1.0000 0.25301  0.30395  0.38799  Biso   1.000  H
  H1228    1.0000 0.46507  0.19802  0.90399  Biso   1.000  H
  H1229    1.0000 0.46506  0.19795  0.90399  Biso   1.000  H
  C1296    1.0000 0.82972  0.29721  0.66282  Biso   1.000  C
  C1297    1.0000 0.97343  0.36781  0.63933  Biso   1.000  C
  C1298    1.0000 0.82978  0.29714  0.66282  Biso   1.000  C
  C1299    1.0000 0.97343  0.36774  0.63933  Biso   1.000  C
  C1300    1.0000 0.84545  0.21701  0.61613  Biso   1.000  C
  H1230    1.0000 0.76803  0.30102  0.69001  Biso   1.000  H
  C1301    1.0000 0.84544  0.21694  0.61613  Biso   1.000  C
  H1231    1.0000 0.76803  0.30096  0.69001  Biso   1.000  H
  C1302    1.0000 0.98915  0.28758  0.59251  Biso   1.000  C
  H1232    1.0000 0.02303  0.42602  0.64801  Biso   1.000  H
  H1233    1.0000 0.02302  0.42595  0.64801  Biso   1.000  H
  C1303    1.0000 0.92512  0.21222  0.58091  Biso   1.000  C
  H1234    1.0000 0.79602  0.15904  0.60702  Biso   1.000  H
  C1304    1.0000 0.92512  0.21215  0.58091  Biso   1.000  C
  H1235    1.0000 0.79602  0.15898  0.60702  Biso   1.000  H
  H1236    1.0000 0.05102  0.28404  0.56503  Biso   1.000  H
  H1237    1.0000 0.05101  0.28397  0.56503  Biso   1.000  H
  H1238    1.0000 0.93705  0.14998  0.54498  Biso   1.000  H
  H1239    1.0000 0.93706  0.14999  0.54504  Biso   1.000  H
  H1240    1.0000 0.93699  0.14998  0.54498  Biso   1.000  H
  C1305    1.0000 0.15220  0.22997  0.07269  Biso   1.000  C
  O241     1.0000 0.13743  0.30373  0.03022  Biso   1.000  O
  O242     1.0000 0.13743  0.30366  0.03022  Biso   1.000  O
  O243     1.0000 0.17720  0.26049  0.15681  Biso   1.000  O
  H1241    1.0000 0.08999  0.18501  0.06300  Biso   1.000  H
  H1242    1.0000 0.20599  0.19501  0.04902  Biso   1.000  H
  H1243    1.0000 0.20605  0.19501  0.04902  Biso   1.000  H
  H1244    1.0000 0.08998  0.18494  0.06300  Biso   1.000  H
  H1245    1.0000 0.20598  0.19494  0.04902  Biso   1.000  H
  C1306    1.0000 0.05118  0.32647  0.02219  Biso   1.000  C
  C1307    1.0000 0.05119  0.32654  0.02219  Biso   1.000  C
  C1308    1.0000 0.15221  0.23004  0.07269  Biso   1.000  C
  C1309    1.0000 0.10283  0.26919  0.20309  Biso   1.000  C
  C1310    1.0000 0.10283  0.26913  0.20309  Biso   1.000  C
  C1311    1.0000 0.01280  0.38580  0.07668  Biso   1.000  C
  C1312    1.0000 0.01281  0.38581  0.07674  Biso   1.000  C
  C1313    1.0000 0.01280  0.38575  0.07674  Biso   1.000  C
  C1314    1.0000 0.00253  0.29023  0.94801  Biso   1.000  C
  C1315    1.0000 0.00260  0.29023  0.94801  Biso   1.000  C
  C1316    1.0000 0.00254  0.29029  0.94801  Biso   1.000  C
  C1317    1.0000 0.00261  0.29029  0.94801  Biso   1.000  C
  C1318    1.0000 0.05104  0.34167  0.20767  Biso   1.000  C
  C1319    1.0000 0.05105  0.34168  0.20773  Biso   1.000  C
  C1320    1.0000 0.05105  0.34174  0.20767  Biso   1.000  C
  C1321    1.0000 0.08832  0.20328  0.24961  Biso   1.000  C
  C1322    1.0000 0.08833  0.20335  0.24961  Biso   1.000  C
  C1323    1.0000 0.92564  0.40878  0.05711  Biso   1.000  C
  C1324    1.0000 0.92565  0.40884  0.05711  Biso   1.000  C
  C1325    1.0000 0.07580  0.41427  0.15431  Biso   1.000  C
  C1326    1.0000 0.07581  0.41434  0.15431  Biso   1.000  C
  C1327    1.0000 0.91536  0.31312  0.92838  Biso   1.000  C
  C1328    1.0000 0.91537  0.31314  0.92844  Biso   1.000  C
  C1329    1.0000 0.91537  0.31319  0.92838  Biso   1.000  C
  C1330    1.0000 0.91537  0.31320  0.92844  Biso   1.000  C
  O244     1.0000 0.03516  0.22631  0.89471  Biso   1.000  O
  O245     1.0000 0.03517  0.22637  0.89471  Biso   1.000  O
  C1331    1.0000 0.98469  0.34840  0.25889  Biso   1.000  C
  C1332    1.0000 0.98476  0.34840  0.25889  Biso   1.000  C
  C1333    1.0000 0.98475  0.34833  0.25889  Biso   1.000  C
  C1334    1.0000 0.02204  0.20989  0.30089  Biso   1.000  C
  O246     1.0000 0.13233  0.12600  0.23932  Biso   1.000  O
  O247     1.0000 0.13232  0.12593  0.23932  Biso   1.000  O
  C1335    1.0000 0.87699  0.37246  0.98293  Biso   1.000  C
  H1246    1.0000 0.89601  0.45500  0.09899  Biso   1.000  H
  H1247    1.0000 0.89601  0.45494  0.09899  Biso   1.000  H
  H1248    1.0000 0.14602  0.41900  0.14402  Biso   1.000  H
  C1336    1.0000 0.05059  0.50862  0.19928  Biso   1.000  C
  C1337    1.0000 0.05066  0.50862  0.19928  Biso   1.000  C
  C1338    1.0000 0.05066  0.50856  0.19928  Biso   1.000  C
  O248     1.0000 0.86795  0.28404  0.85360  Biso   1.000  O
  C1339    1.0000 0.07483  0.26483  0.83278  Biso   1.000  C
  C1340    1.0000 0.07484  0.26484  0.83284  Biso   1.000  C
  C1341    1.0000 0.07484  0.26490  0.83278  Biso   1.000  C
  C1342    1.0000 0.07485  0.26491  0.83284  Biso   1.000  C
  C1343    1.0000 0.97020  0.28251  0.30553  Biso   1.000  C
  C1344    1.0000 0.97026  0.28251  0.30553  Biso   1.000  C
  C1345    1.0000 0.97026  0.28245  0.30553  Biso   1.000  C
  H1249    1.0000 0.94503  0.40501  0.26300  Biso   1.000  H
  H1250    1.0000 0.94502  0.40495  0.26300  Biso   1.000  H
  O249     1.0000 0.01421  0.14315  0.34628  Biso   1.000  O
  O250     1.0000 0.01422  0.14323  0.34634  Biso   1.000  O
  O251     1.0000 0.01422  0.14322  0.34628  Biso   1.000  O
  O252     1.0000 0.01422  0.14317  0.34634  Biso   1.000  O
  C1346    1.0000 0.21434  0.12747  0.28881  Biso   1.000  C
  C1347    1.0000 0.21435  0.12754  0.28881  Biso   1.000  C
  C1348    1.0000 0.77869  0.38697  0.96502  Biso   1.000  C
  H1251    1.0000 0.98400  0.50098  0.21802  Biso   1.000  H
  H1252    1.0000 0.98407  0.50098  0.21802  Biso   1.000  H
  H1253    1.0000 0.98401  0.50105  0.21802  Biso   1.000  H
  H1254    1.0000 0.05202  0.55799  0.16002  Biso   1.000  H
  C1349    1.0000 0.12633  0.54062  0.27442  Biso   1.000  C
  H1255    1.0000 0.05203  0.55806  0.16002  Biso   1.000  H
  C1350    1.0000 0.12632  0.54056  0.27442  Biso   1.000  C
  C1351    1.0000 0.80556  0.20565  0.84438  Biso   1.000  C
  C1352    1.0000 0.80557  0.20566  0.84444  Biso   1.000  C
  C1353    1.0000 0.07908  0.18777  0.76050  Biso   1.000  C
  H1256    1.0000 0.03402  0.31492  0.81398  Biso   1.000  H
  H1257    1.0000 0.14303  0.29593  0.85503  Biso   1.000  H
  H1258    1.0000 0.03409  0.31492  0.81398  Biso   1.000  H
  H1259    1.0000 0.14310  0.29593  0.85503  Biso   1.000  H
  H1260    1.0000 0.03403  0.31499  0.81398  Biso   1.000  H
  H1261    1.0000 0.14304  0.29599  0.85503  Biso   1.000  H
  H1262    1.0000 0.03409  0.31499  0.81398  Biso   1.000  H
  H1263    1.0000 0.14310  0.29599  0.85503  Biso   1.000  H
  C1354    1.0000 0.89631  0.28260  0.35800  Biso   1.000  C
  C1355    1.0000 0.89631  0.28254  0.35800  Biso   1.000  C
  C1356    1.0000 0.94100  0.07307  0.32778  Biso   1.000  C
  C1357    1.0000 0.94101  0.07308  0.32784  Biso   1.000  C
  C1358    1.0000 0.94101  0.07314  0.32778  Biso   1.000  C
  C1359    1.0000 0.24700  0.04259  0.28578  Biso   1.000  C
  H1264    1.0000 0.26501  0.17399  0.27198  Biso   1.000  H
  H1265    1.0000 0.20305  0.15100  0.34902  Biso   1.000  H
  C1360    1.0000 0.24701  0.04260  0.28584  Biso   1.000  C
  H1266    1.0000 0.26502  0.17400  0.27204  Biso   1.000  H
  C1361    1.0000 0.24700  0.04253  0.28584  Biso   1.000  C
  H1267    1.0000 0.26501  0.17394  0.27204  Biso   1.000  H
  H1268    1.0000 0.20304  0.15093  0.34902  Biso   1.000  H
  C1362    1.0000 0.71964  0.31085  0.98519  Biso   1.000  C
  C1363    1.0000 0.71971  0.31085  0.98519  Biso   1.000  C
  H1269    1.0000 0.76103  0.38394  0.90202  Biso   1.000  H
  C1364    1.0000 0.76026  0.48616  0.99929  Biso   1.000  C
  H1270    1.0000 0.76110  0.38394  0.90202  Biso   1.000  H
  H1271    1.0000 0.76104  0.38400  0.90202  Biso   1.000  H
  H1272    1.0000 0.76111  0.38400  0.90202  Biso   1.000  H
  H1273    1.0000 0.12803  0.48799  0.30999  Biso   1.000  H
  H1274    1.0000 0.19204  0.55197  0.25401  Biso   1.000  H
  C1365    1.0000 0.10632  0.62736  0.32558  Biso   1.000  C
  C1366    1.0000 0.10633  0.62737  0.32564  Biso   1.000  C
  H1275    1.0000 0.19204  0.55204  0.25401  Biso   1.000  H
  C1367    1.0000 0.10633  0.62743  0.32558  Biso   1.000  C
  O253     1.0000 0.71604  0.22832  0.85128  Biso   1.000  O
  O254     1.0000 0.71605  0.22833  0.85134  Biso   1.000  O
  O255     1.0000 0.71605  0.22839  0.85128  Biso   1.000  O
  O256     1.0000 0.71605  0.22840  0.85134  Biso   1.000  O
  H1276    1.0000 0.82508  0.16791  0.89001  Biso   1.000  H
  H1277    1.0000 0.80703  0.16494  0.78697  Biso   1.000  H
  H1278    1.0000 0.80704  0.16495  0.78703  Biso   1.000  H
  H1279    1.0000 0.82509  0.16798  0.89001  Biso   1.000  H
  O257     1.0000 0.13836  0.12613  0.78668  Biso   1.000  O
  H1280    1.0000 0.10403  0.21492  0.71202  Biso   1.000  H
  H1281    1.0000 0.01204  0.15292  0.74099  Biso   1.000  H
  O258     1.0000 0.13837  0.12614  0.78674  Biso   1.000  O
  O259     1.0000 0.13837  0.12619  0.78668  Biso   1.000  O
  H1282    1.0000 0.10403  0.21499  0.71202  Biso   1.000  H
  H1283    1.0000 0.01204  0.15299  0.74099  Biso   1.000  H
  O260     1.0000 0.13838  0.12621  0.78674  Biso   1.000  O
  C1368    1.0000 0.80903  0.22468  0.31041  Biso   1.000  C
  C1369    1.0000 0.80904  0.22475  0.31041  Biso   1.000  C
  H1284    1.0000 0.91404  0.25000  0.40803  Biso   1.000  H
  C1370    1.0000 0.88494  0.37756  0.39750  Biso   1.000  C
  C1371    1.0000 0.88495  0.37763  0.39750  Biso   1.000  C
  H1285    1.0000 0.91403  0.24993  0.40803  Biso   1.000  H
  O261     1.0000 0.86003  0.09396  0.35419  Biso   1.000  O
  O262     1.0000 0.86004  0.09402  0.35419  Biso   1.000  O
  H1286    1.0000 0.96205  0.01701  0.35401  Biso   1.000  H
  H1287    1.0000 0.92898  0.05399  0.26401  Biso   1.000  H
  H1288    1.0000 0.92905  0.05399  0.26401  Biso   1.000  H
  H1289    1.0000 0.92899  0.05405  0.26401  Biso   1.000  H
  H1290    1.0000 0.96204  0.01694  0.35401  Biso   1.000  H
  H1291    1.0000 0.19903  0.99597  0.30601  Biso   1.000  H
  H1292    1.0000 0.19904  0.99603  0.30601  Biso   1.000  H
  O263     1.0000 0.26472  0.00780  0.20279  Biso   1.000  O
  H1293    1.0000 0.31104  0.05097  0.32397  Biso   1.000  H
  H1294    1.0000 0.31105  0.05098  0.32403  Biso   1.000  H
  H1295    1.0000 0.31104  0.05103  0.32397  Biso   1.000  H
  O264     1.0000 0.26471  0.00773  0.20279  Biso   1.000  O
  C1372    1.0000 0.69060  0.31719  0.06020  Biso   1.000  C
  C1373    1.0000 0.69060  0.31726  0.06020  Biso   1.000  C
  C1374    1.0000 0.69435  0.23286  0.92850  Biso   1.000  C
  H1296    1.0000 0.81004  0.53392  0.98299  Biso   1.000  H
  C1375    1.0000 0.66564  0.50206  0.96449  Biso   1.000  C
  H1297    1.0000 0.81010  0.53392  0.98299  Biso   1.000  H
  C1376    1.0000 0.66571  0.50206  0.96449  Biso   1.000  C
  H1298    1.0000 0.81004  0.53398  0.98299  Biso   1.000  H
  H1299    1.0000 0.81011  0.53398  0.98299  Biso   1.000  H
  H1300    1.0000 0.76398  0.49497  0.06300  Biso   1.000  H
  H1301    1.0000 0.76405  0.49503  0.06300  Biso   1.000  H
  H1302    1.0000 0.76399  0.49503  0.06300  Biso   1.000  H
  H1303    1.0000 0.76405  0.49497  0.06300  Biso   1.000  H
  C1377    1.0000 0.17035  0.70279  0.33718  Biso   1.000  C
  C1378    1.0000 0.02663  0.63219  0.36067  Biso   1.000  C
  C1379    1.0000 0.17036  0.70281  0.33724  Biso   1.000  C
  C1380    1.0000 0.02664  0.63221  0.36073  Biso   1.000  C
  C1381    1.0000 0.17035  0.70274  0.33724  Biso   1.000  C
  C1382    1.0000 0.02663  0.63214  0.36073  Biso   1.000  C
  C1383    1.0000 0.22955  0.15442  0.79453  Biso   1.000  C
  C1384    1.0000 0.22955  0.15449  0.79453  Biso   1.000  C
  C1385    1.0000 0.74704  0.26380  0.26341  Biso   1.000  C
  C1386    1.0000 0.74703  0.26373  0.26341  Biso   1.000  C
  C1387    1.0000 0.79993  0.13157  0.30731  Biso   1.000  C
  C1388    1.0000 0.79994  0.13164  0.30731  Biso   1.000  C
  H1304    1.0000 0.86300  0.41500  0.35199  Biso   1.000  H
  H1305    1.0000 0.94904  0.40896  0.42998  Biso   1.000  H
  C1389    1.0000 0.81351  0.37579  0.45580  Biso   1.000  C
  H1306    1.0000 0.86306  0.41500  0.35199  Biso   1.000  H
  H1307    1.0000 0.94904  0.40897  0.43004  Biso   1.000  H
  C1390    1.0000 0.81358  0.37579  0.45580  Biso   1.000  C
  H1308    1.0000 0.94904  0.40902  0.42998  Biso   1.000  H
  H1309    1.0000 0.86306  0.41493  0.35199  Biso   1.000  H
  C1391    1.0000 0.81357  0.37573  0.45580  Biso   1.000  C
  C1392    1.0000 0.34242  0.05550  0.18168  Biso   1.000  C
  C1393    1.0000 0.34243  0.05551  0.18174  Biso   1.000  C
  C1394    1.0000 0.34243  0.05544  0.18174  Biso   1.000  C
  C1395    1.0000 0.63633  0.24547  0.07852  Biso   1.000  C
  C1396    1.0000 0.63633  0.24554  0.07852  Biso   1.000  C
  H1310    1.0000 0.71003  0.37798  0.10398  Biso   1.000  H
  H1311    1.0000 0.71003  0.37805  0.10398  Biso   1.000  H
  C1397    1.0000 0.64008  0.16114  0.94682  Biso   1.000  C
  C1398    1.0000 0.64009  0.16120  0.94682  Biso   1.000  C
  H1312    1.0000 0.66608  0.49893  0.90101  Biso   1.000  H
  H1313    1.0000 0.61907  0.44795  0.97400  Biso   1.000  H
  C1399    1.0000 0.63009  0.58842  0.99590  Biso   1.000  C
  H1314    1.0000 0.66609  0.49900  0.90101  Biso   1.000  H
  C1400    1.0000 0.63010  0.58848  0.99590  Biso   1.000  C
  C1401    1.0000 0.15462  0.78299  0.38387  Biso   1.000  C
  H1315    1.0000 0.23204  0.69898  0.30999  Biso   1.000  H
  C1402    1.0000 0.15463  0.78300  0.38393  Biso   1.000  C
  H1316    1.0000 0.23204  0.69904  0.30999  Biso   1.000  H
  C1403    1.0000 0.15462  0.78294  0.38393  Biso   1.000  C
  H1317    1.0000 0.97704  0.57398  0.35199  Biso   1.000  H
  C1404    1.0000 0.01092  0.71242  0.40749  Biso   1.000  C
  C1405    1.0000 0.01091  0.71235  0.40749  Biso   1.000  C
  C1406    1.0000 0.27923  0.07664  0.81398  Biso   1.000  C
  H1318    1.0000 0.24801  0.17392  0.73998  Biso   1.000  H
  H1319    1.0000 0.24605  0.21093  0.84200  Biso   1.000  H
  H1320    1.0000 0.24809  0.17393  0.74004  Biso   1.000  H
  H1321    1.0000 0.24802  0.17398  0.73998  Biso   1.000  H
  H1322    1.0000 0.24605  0.21100  0.84200  Biso   1.000  H
  H1323    1.0000 0.24809  0.17399  0.74004  Biso   1.000  H
  C1407    1.0000 0.67581  0.20987  0.21332  Biso   1.000  C
  C1408    1.0000 0.67582  0.20994  0.21332  Biso   1.000  C
  H1324    1.0000 0.75401  0.33601  0.26603  Biso   1.000  H
  H1325    1.0000 0.75401  0.33594  0.26603  Biso   1.000  H
  C1409    1.0000 0.72871  0.07771  0.25723  Biso   1.000  C
  C1410    1.0000 0.72870  0.07764  0.25723  Biso   1.000  C
  H1326    1.0000 0.74901  0.34698  0.42201  Biso   1.000  H
  H1327    1.0000 0.83403  0.33397  0.49797  Biso   1.000  H
  C1411    1.0000 0.80076  0.46750  0.50047  Biso   1.000  C
  H1328    1.0000 0.74907  0.34698  0.42201  Biso   1.000  H
  H1329    1.0000 0.83404  0.33399  0.49803  Biso   1.000  H
  C1412    1.0000 0.80077  0.46752  0.50053  Biso   1.000  C
  H1330    1.0000 0.74901  0.34705  0.42201  Biso   1.000  H
  H1331    1.0000 0.83404  0.33404  0.49797  Biso   1.000  H
  C1413    1.0000 0.80076  0.46745  0.50053  Biso   1.000  C
  C1414    1.0000 0.35432  0.99850  0.10220  Biso   1.000  C
  C1415    1.0000 0.35432  0.99856  0.10220  Biso   1.000  C
  H1332    1.0000 0.40102  0.05796  0.22498  Biso   1.000  H
  H1333    1.0000 0.33004  0.12297  0.17501  Biso   1.000  H
  H1334    1.0000 0.40103  0.05803  0.22498  Biso   1.000  H
  H1335    1.0000 0.33004  0.12303  0.17501  Biso   1.000  H
  C1416    1.0000 0.60071  0.24677  0.16068  Biso   1.000  C
  C1417    1.0000 0.60071  0.24679  0.16074  Biso   1.000  C
  C1418    1.0000 0.60071  0.24684  0.16068  Biso   1.000  C
  C1419    1.0000 0.61098  0.16760  0.02177  Biso   1.000  C
  C1420    1.0000 0.61105  0.16761  0.02183  Biso   1.000  C
  C1421    1.0000 0.61098  0.16754  0.02183  Biso   1.000  C
  O265     1.0000 0.61492  0.08721  0.88668  Biso   1.000  O
  O266     1.0000 0.61500  0.08722  0.88674  Biso   1.000  O
  O267     1.0000 0.61493  0.08728  0.88668  Biso   1.000  O
  O268     1.0000 0.61500  0.08729  0.88674  Biso   1.000  O
  C1422    1.0000 0.58902  0.58717  0.06490  Biso   1.000  C
  C1423    1.0000 0.63667  0.66673  0.96312  Biso   1.000  C
  C1424    1.0000 0.63667  0.66680  0.96312  Biso   1.000  C
  C1425    1.0000 0.58902  0.58724  0.06490  Biso   1.000  C
  C1426    1.0000 0.07494  0.78778  0.41909  Biso   1.000  C
  H1336    1.0000 0.20404  0.84096  0.39298  Biso   1.000  H
  H1337    1.0000 0.20406  0.84103  0.39304  Biso   1.000  H
  H1338    1.0000 0.20405  0.84102  0.39298  Biso   1.000  H
  H1339    1.0000 0.20405  0.84097  0.39304  Biso   1.000  H
  H1340    1.0000 0.94905  0.71596  0.43497  Biso   1.000  H
  H1341    1.0000 0.94906  0.71597  0.43503  Biso   1.000  H
  H1342    1.0000 0.94905  0.71603  0.43497  Biso   1.000  H
  O269     1.0000 0.27705  0.01131  0.73718  Biso   1.000  O
  H1343    1.0000 0.24606  0.04393  0.85598  Biso   1.000  H
  H1344    1.0000 0.34904  0.09995  0.83801  Biso   1.000  H
  O270     1.0000 0.27705  0.01138  0.73718  Biso   1.000  O
  H1345    1.0000 0.24607  0.04394  0.85604  Biso   1.000  H
  H1346    1.0000 0.24607  0.04399  0.85598  Biso   1.000  H
  H1347    1.0000 0.24607  0.04400  0.85604  Biso   1.000  H
  C1427    1.0000 0.66673  0.11691  0.21029  Biso   1.000  C
  C1428    1.0000 0.66672  0.11684  0.21029  Biso   1.000  C
  O271     1.0000 0.72301  0.98862  0.26282  Biso   1.000  O
  C1429    1.0000 0.86027  0.54489  0.50410  Biso   1.000  C
  C1430    1.0000 0.72217  0.47260  0.53718  Biso   1.000  C
  C1431    1.0000 0.72218  0.47261  0.53723  Biso   1.000  C
  C1432    1.0000 0.72210  0.47260  0.53718  Biso   1.000  C
  C1433    1.0000 0.86026  0.54482  0.50410  Biso   1.000  C
  C1434    1.0000 0.72217  0.47254  0.53723  Biso   1.000  C
  O272     1.0000 0.38514  0.91272  0.11332  Biso   1.000  O
  H1348    1.0000 0.29004  0.98602  0.06502  Biso   1.000  H
  H1349    1.0000 0.40303  0.03402  0.07299  Biso   1.000  H
  H1350    1.0000 0.40303  0.03395  0.07299  Biso   1.000  H
  C1435    1.0000 0.57609  0.34282  0.19280  Biso   1.000  C
  C1436    1.0000 0.57616  0.34282  0.19280  Biso   1.000  C
  C1437    1.0000 0.57615  0.34275  0.19280  Biso   1.000  C
  H1351    1.0000 0.53800  0.20502  0.15800  Biso   1.000  H
  H1352    1.0000 0.53799  0.20496  0.15800  Biso   1.000  H
  O273     1.0000 0.55848  0.09418  0.03992  Biso   1.000  O
  O274     1.0000 0.55855  0.09418  0.03992  Biso   1.000  O
  O275     1.0000 0.55848  0.09425  0.03992  Biso   1.000  O
  C1438    1.0000 0.64575  0.00144  0.89780  Biso   1.000  C
  C1439    1.0000 0.64575  0.00150  0.89780  Biso   1.000  C
  C1440    1.0000 0.55471  0.66411  0.10113  Biso   1.000  C
  H1353    1.0000 0.58402  0.52697  0.09001  Biso   1.000  H
  H1354    1.0000 0.58403  0.52703  0.09001  Biso   1.000  H
  C1441    1.0000 0.55470  0.66404  0.10113  Biso   1.000  C
  C1442    1.0000 0.60228  0.74371  0.99923  Biso   1.000  C
  H1355    1.0000 0.66809  0.66796  0.90999  Biso   1.000  H
  C1443    1.0000 0.60229  0.74378  0.99923  Biso   1.000  C
  H1356    1.0000 0.06301  0.85002  0.45502  Biso   1.000  H
  H1357    1.0000 0.06308  0.85002  0.45502  Biso   1.000  H
  H1358    1.0000 0.06307  0.84995  0.45502  Biso   1.000  H
  C1444    1.0000 0.27136  0.92229  0.74277  Biso   1.000  C
  C1445    1.0000 0.27136  0.92223  0.74283  Biso   1.000  C
  C1446    1.0000 0.27137  0.92230  0.74283  Biso   1.000  C
  O276     1.0000 0.59290  0.06090  0.16591  Biso   1.000  O
  C1447    1.0000 0.72083  0.92329  0.18602  Biso   1.000  C
  C1448    1.0000 0.72084  0.92336  0.18602  Biso   1.000  C
  C1449    1.0000 0.84104  0.62736  0.54437  Biso   1.000  C
  H1359    1.0000 0.92102  0.54096  0.47602  Biso   1.000  H
  C1450    1.0000 0.84105  0.62737  0.54443  Biso   1.000  C
  H1360    1.0000 0.92103  0.54102  0.47602  Biso   1.000  H
  C1451    1.0000 0.84105  0.62742  0.54437  Biso   1.000  C
  C1452    1.0000 0.70295  0.55508  0.57751  Biso   1.000  C
  H1361    1.0000 0.67604  0.41300  0.53402  Biso   1.000  H
  C1453    1.0000 0.70296  0.55514  0.57751  Biso   1.000  C
  H1362    1.0000 0.67603  0.41293  0.53402  Biso   1.000  H
  C1454    1.0000 0.35998  0.83880  0.05318  Biso   1.000  C
  C1455    1.0000 0.52591  0.33291  0.26317  Biso   1.000  C
  C1456    1.0000 0.52592  0.33292  0.26323  Biso   1.000  C
  C1457    1.0000 0.52591  0.33285  0.26323  Biso   1.000  C
  H1363    1.0000 0.53405  0.36800  0.14801  Biso   1.000  H
  H1364    1.0000 0.63705  0.38800  0.21201  Biso   1.000  H
  H1365    1.0000 0.63699  0.38800  0.21201  Biso   1.000  H
  H1366    1.0000 0.63705  0.38794  0.21201  Biso   1.000  H
  H1367    1.0000 0.53404  0.36794  0.14801  Biso   1.000  H
  C1458    1.0000 0.60178  0.03287  0.08459  Biso   1.000  C
  C1459    1.0000 0.60185  0.03293  0.08459  Biso   1.000  C
  C1460    1.0000 0.60178  0.03293  0.08459  Biso   1.000  C
  C1461    1.0000 0.60184  0.03287  0.08459  Biso   1.000  C
  H1368    1.0000 0.59703  0.96598  0.92701  Biso   1.000  H
  C1462    1.0000 0.65764  0.94450  0.81832  Biso   1.000  C
  H1369    1.0000 0.59710  0.96592  0.92701  Biso   1.000  H
  C1463    1.0000 0.65764  0.94444  0.81832  Biso   1.000  C
  H1370    1.0000 0.59710  0.96598  0.92701  Biso   1.000  H
  H1371    1.0000 0.71002  0.01391  0.93498  Biso   1.000  H
  H1372    1.0000 0.71010  0.01393  0.93504  Biso   1.000  H
  H1373    1.0000 0.71003  0.01398  0.93498  Biso   1.000  H
  H1374    1.0000 0.71011  0.01399  0.93504  Biso   1.000  H
  C1464    1.0000 0.56133  0.74239  0.06817  Biso   1.000  C
  H1375    1.0000 0.52306  0.66303  0.15503  Biso   1.000  H
  C1465    1.0000 0.56134  0.74240  0.06823  Biso   1.000  C
  C1466    1.0000 0.56133  0.74246  0.06817  Biso   1.000  C
  H1376    1.0000 0.52299  0.66303  0.15503  Biso   1.000  H
  H1377    1.0000 0.52305  0.66297  0.15503  Biso   1.000  H
  H1378    1.0000 0.60707  0.80396  0.97400  Biso   1.000  H
  C1467    1.0000 0.33334  0.88309  0.78971  Biso   1.000  C
  C1468    1.0000 0.20014  0.86843  0.69269  Biso   1.000  C
  C1469    1.0000 0.33333  0.88303  0.78971  Biso   1.000  C
  C1470    1.0000 0.20013  0.86836  0.69269  Biso   1.000  C
  C1471    1.0000 0.77051  0.84551  0.20547  Biso   1.000  C
  H1379    1.0000 0.75400  0.95601  0.14402  Biso   1.000  H
  H1380    1.0000 0.65102  0.89998  0.16199  Biso   1.000  H
  C1472    1.0000 0.77052  0.84552  0.20553  Biso   1.000  C
  H1381    1.0000 0.65103  0.90005  0.16199  Biso   1.000  H
  H1382    1.0000 0.88704  0.68698  0.54699  Biso   1.000  H
  C1473    1.0000 0.76232  0.63245  0.58108  Biso   1.000  C
  C1474    1.0000 0.76233  0.63253  0.58114  Biso   1.000  C
  C1475    1.0000 0.76232  0.63251  0.58108  Biso   1.000  C
  C1476    1.0000 0.76233  0.63246  0.58114  Biso   1.000  C
  H1383    1.0000 0.64204  0.55896  0.60600  Biso   1.000  H
  H1384    1.0000 0.64205  0.55903  0.60600  Biso   1.000  H
  C1477    1.0000 0.30571  0.76708  0.07150  Biso   1.000  C
  C1478    1.0000 0.30571  0.76714  0.07150  Biso   1.000  C
  C1479    1.0000 0.38909  0.83240  0.97823  Biso   1.000  C
  C1480    1.0000 0.38908  0.83234  0.97823  Biso   1.000  C
  C1481    1.0000 0.50320  0.43116  0.29607  Biso   1.000  C
  C1482    1.0000 0.50321  0.43117  0.29613  Biso   1.000  C
  C1483    1.0000 0.50321  0.43123  0.29607  Biso   1.000  C
  H1385    1.0000 0.56806  0.30800  0.30803  Biso   1.000  H
  H1386    1.0000 0.46404  0.28800  0.24402  Biso   1.000  H
  H1387    1.0000 0.46404  0.28793  0.24402  Biso   1.000  H
  H1388    1.0000 0.56898  0.96501  0.06401  Biso   1.000  H
  H1389    1.0000 0.56905  0.96501  0.06401  Biso   1.000  H
  H1390    1.0000 0.67298  0.03496  0.07698  Biso   1.000  H
  H1391    1.0000 0.67306  0.03504  0.07704  Biso   1.000  H
  H1392    1.0000 0.67298  0.03503  0.07698  Biso   1.000  H
  H1393    1.0000 0.67298  0.03497  0.07704  Biso   1.000  H
  H1394    1.0000 0.59904  0.94204  0.77502  Biso   1.000  H
  H1395    1.0000 0.67003  0.87703  0.82499  Biso   1.000  H
  O277     1.0000 0.73535  0.99220  0.79721  Biso   1.000  O
  H1396    1.0000 0.59904  0.94197  0.77502  Biso   1.000  H
  H1397    1.0000 0.67009  0.87697  0.82499  Biso   1.000  H
  O278     1.0000 0.73535  0.99214  0.79721  Biso   1.000  O
  H1398    1.0000 0.67002  0.87697  0.82499  Biso   1.000  H
  H1399    1.0000 0.53500  0.80198  0.09601  Biso   1.000  H
  H1400    1.0000 0.53506  0.80198  0.09601  Biso   1.000  H
  H1401    1.0000 0.53500  0.80205  0.09601  Biso   1.000  H
  C1484    1.0000 0.32425  0.79013  0.78668  Biso   1.000  C
  O279     1.0000 0.40717  0.93910  0.83409  Biso   1.000  O
  C1485    1.0000 0.32426  0.79008  0.78674  Biso   1.000  C
  O280     1.0000 0.40717  0.93904  0.83409  Biso   1.000  O
  C1486    1.0000 0.32425  0.79006  0.78668  Biso   1.000  C
  O281     1.0000 0.14004  0.90604  0.64581  Biso   1.000  O
  O282     1.0000 0.14003  0.90598  0.64581  Biso   1.000  O
  C1487    1.0000 0.19104  0.77532  0.68959  Biso   1.000  C
  C1488    1.0000 0.19103  0.77525  0.68959  Biso   1.000  C
  O283     1.0000 0.86170  0.87381  0.21332  Biso   1.000  O
  H1402    1.0000 0.75205  0.82602  0.26002  Biso   1.000  H
  H1403    1.0000 0.75401  0.78900  0.15800  Biso   1.000  H
  H1404    1.0000 0.74705  0.69599  0.61201  Biso   1.000  H
  H1405    1.0000 0.74705  0.69592  0.61201  Biso   1.000  H
  C1489    1.0000 0.28042  0.68908  0.01481  Biso   1.000  C
  C1490    1.0000 0.28043  0.68915  0.01481  Biso   1.000  C
  O284     1.0000 0.28402  0.77161  0.14872  Biso   1.000  O
  C1491    1.0000 0.36374  0.75453  0.92148  Biso   1.000  C
  C1492    1.0000 0.36374  0.75447  0.92154  Biso   1.000  C
  C1493    1.0000 0.36373  0.75446  0.92148  Biso   1.000  C
  O285     1.0000 0.44159  0.90582  0.96008  Biso   1.000  O
  O286     1.0000 0.44158  0.90575  0.96008  Biso   1.000  O
  C1494    1.0000 0.44332  0.47590  0.25229  Biso   1.000  C
  C1495    1.0000 0.44332  0.47583  0.25229  Biso   1.000  C
  C1496    1.0000 0.54395  0.47259  0.37198  Biso   1.000  C
  C1497    1.0000 0.54396  0.47261  0.37204  Biso   1.000  C
  C1498    1.0000 0.54396  0.47254  0.37204  Biso   1.000  C
  C1499    1.0000 0.75307  0.95741  0.71422  Biso   1.000  C
  C1500    1.0000 0.75306  0.95734  0.71422  Biso   1.000  C
  C1501    1.0000 0.25303  0.73620  0.73659  Biso   1.000  C
  C1502    1.0000 0.25302  0.73614  0.73659  Biso   1.000  C
  C1503    1.0000 0.39936  0.75323  0.83932  Biso   1.000  C
  C1504    1.0000 0.39936  0.75316  0.83932  Biso   1.000  C
  C1505    1.0000 0.39829  0.96713  0.91541  Biso   1.000  C
  C1506    1.0000 0.39828  0.96707  0.91541  Biso   1.000  C
  C1507    1.0000 0.05907  0.92693  0.67222  Biso   1.000  C
  C1508    1.0000 0.05906  0.92686  0.67222  Biso   1.000  C
  C1509    1.0000 0.10375  0.71740  0.64200  Biso   1.000  C
  C1510    1.0000 0.10375  0.71733  0.64200  Biso   1.000  C
  C1511    1.0000 0.92098  0.81217  0.23950  Biso   1.000  C
  C1512    1.0000 0.92105  0.81217  0.23950  Biso   1.000  C
  C1513    1.0000 0.92099  0.81223  0.23950  Biso   1.000  C
  C1514    1.0000 0.92105  0.81223  0.23950  Biso   1.000  C
  C1515    1.0000 0.22137  0.61297  0.03498  Biso   1.000  C
  C1516    1.0000 0.22138  0.61298  0.03504  Biso   1.000  C
  C1517    1.0000 0.22138  0.61303  0.03498  Biso   1.000  C
  C1518    1.0000 0.22138  0.61305  0.03504  Biso   1.000  C
  C1519    1.0000 0.30947  0.68281  0.93980  Biso   1.000  C
  C1520    1.0000 0.30946  0.68274  0.93980  Biso   1.000  C
  C1521    1.0000 0.19450  0.79428  0.15562  Biso   1.000  C
  C1522    1.0000 0.19451  0.79435  0.15562  Biso   1.000  C
  C1523    1.0000 0.42424  0.56191  0.28429  Biso   1.000  C
  H1406    1.0000 0.41203  0.44402  0.19399  Biso   1.000  H
  C1524    1.0000 0.42423  0.56185  0.28429  Biso   1.000  C
  H1407    1.0000 0.41202  0.44395  0.19399  Biso   1.000  H
  C1525    1.0000 0.52473  0.55861  0.40398  Biso   1.000  C
  C1526    1.0000 0.52473  0.55854  0.40398  Biso   1.000  C
  H1408    1.0000 0.59003  0.43799  0.40600  Biso   1.000  H
  H1409    1.0000 0.59002  0.43792  0.40600  Biso   1.000  H
  H1410    1.0000 0.68903  0.94903  0.67603  Biso   1.000  H
  C1527    1.0000 0.78572  0.87253  0.71119  Biso   1.000  C
  H1411    1.0000 0.68909  0.94897  0.67603  Biso   1.000  H
  C1528    1.0000 0.78579  0.87246  0.71119  Biso   1.000  C
  H1412    1.0000 0.68902  0.94897  0.67603  Biso   1.000  H
  C1529    1.0000 0.78572  0.87246  0.71119  Biso   1.000  C
  H1413    1.0000 0.80103  0.00397  0.69399  Biso   1.000  H
  H1414    1.0000 0.24605  0.66399  0.73397  Biso   1.000  H
  H1415    1.0000 0.24606  0.66394  0.73403  Biso   1.000  H
  H1416    1.0000 0.24606  0.66401  0.73403  Biso   1.000  H
  H1417    1.0000 0.46207  0.79498  0.84200  Biso   1.000  H
  C1530    1.0000 0.42397  0.65718  0.80720  Biso   1.000  C
  C1531    1.0000 0.42397  0.65712  0.80720  Biso   1.000  C
  H1418    1.0000 0.32709  0.96504  0.92302  Biso   1.000  H
  H1419    1.0000 0.32709  0.96497  0.92302  Biso   1.000  H
  H1420    1.0000 0.43108  0.03492  0.93599  Biso   1.000  H
  H1421    1.0000 0.43109  0.03499  0.93599  Biso   1.000  H
  O287     1.0000 0.98586  0.85685  0.65372  Biso   1.000  O
  O288     1.0000 0.98585  0.85678  0.65372  Biso   1.000  O
  H1422    1.0000 0.07108  0.94601  0.73599  Biso   1.000  H
  H1423    1.0000 0.03802  0.98299  0.64599  Biso   1.000  H
  H1424    1.0000 0.07108  0.94595  0.73599  Biso   1.000  H
  H1425    1.0000 0.03808  0.98293  0.64599  Biso   1.000  H
  H1426    1.0000 0.07101  0.94595  0.73599  Biso   1.000  H
  H1427    1.0000 0.03808  0.98299  0.64599  Biso   1.000  H
  C1532    1.0000 0.02987  0.71749  0.69447  Biso   1.000  C
  C1533    1.0000 0.02987  0.71743  0.69453  Biso   1.000  C
  C1534    1.0000 0.02980  0.71749  0.69447  Biso   1.000  C
  C1535    1.0000 0.02988  0.71750  0.69453  Biso   1.000  C
  H1428    1.0000 0.08603  0.75000  0.59197  Biso   1.000  H
  C1536    1.0000 0.11513  0.62244  0.60250  Biso   1.000  C
  H1429    1.0000 0.08603  0.74995  0.59203  Biso   1.000  H
  C1537    1.0000 0.11512  0.62237  0.60250  Biso   1.000  C
  H1430    1.0000 0.08604  0.75001  0.59203  Biso   1.000  H
  C1538    1.0000 0.92523  0.73510  0.16722  Biso   1.000  C
  H1431    1.0000 0.89603  0.78501  0.28798  Biso   1.000  H
  H1432    1.0000 0.98803  0.84701  0.25901  Biso   1.000  H
  H1433    1.0000 0.89604  0.78502  0.28804  Biso   1.000  H
  C1539    1.0000 0.12308  0.62747  0.01707  Biso   1.000  C
  C1540    1.0000 0.12308  0.62748  0.01713  Biso   1.000  C
  C1541    1.0000 0.12308  0.62754  0.01707  Biso   1.000  C
  C1542    1.0000 0.12309  0.62755  0.01713  Biso   1.000  C
  H1434    1.0000 0.23903  0.61600  0.09798  Biso   1.000  H
  C1543    1.0000 0.23980  0.51377  0.00071  Biso   1.000  C
  H1435    1.0000 0.23904  0.61601  0.09804  Biso   1.000  H
  C1544    1.0000 0.23980  0.51384  0.00071  Biso   1.000  C
  H1436    1.0000 0.29004  0.62202  0.89602  Biso   1.000  H
  H1437    1.0000 0.29003  0.62195  0.89602  Biso   1.000  H
  O289     1.0000 0.13212  0.71589  0.14640  Biso   1.000  O
  O290     1.0000 0.13212  0.71596  0.14640  Biso   1.000  O
  H1438    1.0000 0.17498  0.83202  0.10999  Biso   1.000  H
  H1439    1.0000 0.19303  0.83499  0.21303  Biso   1.000  H
  H1440    1.0000 0.17505  0.83202  0.10999  Biso   1.000  H
  H1441    1.0000 0.19303  0.83506  0.21303  Biso   1.000  H
  H1442    1.0000 0.37802  0.59601  0.25003  Biso   1.000  H
  C1545    1.0000 0.46496  0.60319  0.36008  Biso   1.000  C
  C1546    1.0000 0.46497  0.60320  0.36014  Biso   1.000  C
  C1547    1.0000 0.46496  0.60314  0.36014  Biso   1.000  C
  H1443    1.0000 0.37801  0.59594  0.25003  Biso   1.000  H
  H1444    1.0000 0.55603  0.59097  0.46299  Biso   1.000  H
  H1445    1.0000 0.55603  0.59103  0.46299  Biso   1.000  H
  H1446    1.0000 0.73506  0.82601  0.72802  Biso   1.000  H
  H1447    1.0000 0.79702  0.84900  0.65098  Biso   1.000  H
  O291     1.0000 0.86774  0.87400  0.76068  Biso   1.000  O
  H1448    1.0000 0.73505  0.82594  0.72802  Biso   1.000  H
  H1449    1.0000 0.79701  0.84894  0.65098  Biso   1.000  H
  O292     1.0000 0.86774  0.87395  0.76074  Biso   1.000  O
  O293     1.0000 0.86774  0.87393  0.76068  Biso   1.000  O
  O294     1.0000 0.86775  0.87401  0.76074  Biso   1.000  O
  H1450    1.0000 0.36301  0.61200  0.78799  Biso   1.000  H
  H1451    1.0000 0.46602  0.63200  0.85199  Biso   1.000  H
  C1548    1.0000 0.47416  0.66709  0.73683  Biso   1.000  C
  H1452    1.0000 0.36308  0.61193  0.78799  Biso   1.000  H
  H1453    1.0000 0.46608  0.63193  0.85199  Biso   1.000  H
  C1549    1.0000 0.47415  0.66703  0.73683  Biso   1.000  C
  H1454    1.0000 0.36301  0.61193  0.78799  Biso   1.000  H
  H1455    1.0000 0.36308  0.61200  0.78799  Biso   1.000  H
  H1456    1.0000 0.46609  0.63200  0.85199  Biso   1.000  H
  C1550    1.0000 0.97803  0.79011  0.69911  Biso   1.000  C
  C1551    1.0000 0.97802  0.79004  0.69911  Biso   1.000  C
  C1552    1.0000 0.01537  0.65160  0.74111  Biso   1.000  C
  C1553    1.0000 0.01537  0.65154  0.74111  Biso   1.000  C
  H1457    1.0000 0.13707  0.58500  0.64801  Biso   1.000  H
  H1458    1.0000 0.05103  0.59104  0.57002  Biso   1.000  H
  C1554    1.0000 0.18656  0.62421  0.54420  Biso   1.000  C
  H1459    1.0000 0.13707  0.58494  0.64801  Biso   1.000  H
  H1460    1.0000 0.05103  0.59098  0.57002  Biso   1.000  H
  C1555    1.0000 0.18655  0.62414  0.54420  Biso   1.000  C
  O295     1.0000 0.96490  0.77363  0.10529  Biso   1.000  O
  H1461    1.0000 0.96604  0.68501  0.18602  Biso   1.000  H
  H1462    1.0000 0.85703  0.70401  0.14497  Biso   1.000  H
  H1463    1.0000 0.85704  0.70402  0.14503  Biso   1.000  H
  H1464    1.0000 0.96597  0.68501  0.18602  Biso   1.000  H
  H1465    1.0000 0.85696  0.70401  0.14497  Biso   1.000  H
  C1556    1.0000 0.08470  0.68681  0.07162  Biso   1.000  C
  C1557    1.0000 0.07443  0.59122  0.94289  Biso   1.000  C
  C1558    1.0000 0.07449  0.59116  0.94289  Biso   1.000  C
  C1559    1.0000 0.07442  0.59116  0.94289  Biso   1.000  C
  H1466    1.0000 0.23609  0.50503  0.93700  Biso   1.000  H
  H1467    1.0000 0.23608  0.50497  0.93700  Biso   1.000  H
  H1468    1.0000 0.19003  0.46602  0.01701  Biso   1.000  H
  C1560    1.0000 0.33442  0.49788  0.03551  Biso   1.000  C
  C1561    1.0000 0.33442  0.49794  0.03551  Biso   1.000  C
  H1469    1.0000 0.45003  0.67001  0.38501  Biso   1.000  H
  H1470    1.0000 0.45002  0.66994  0.38501  Biso   1.000  H
  C1562    1.0000 0.91175  0.79672  0.75039  Biso   1.000  C
  C1563    1.0000 0.91174  0.79665  0.75039  Biso   1.000  C
  H1471    1.0000 0.43201  0.69200  0.69197  Biso   1.000  H
  H1472    1.0000 0.53602  0.71200  0.75598  Biso   1.000  H
  C1564    1.0000 0.49687  0.56884  0.70393  Biso   1.000  C
  H1473    1.0000 0.43208  0.69195  0.69203  Biso   1.000  H
  H1474    1.0000 0.53608  0.71193  0.75598  Biso   1.000  H
  C1565    1.0000 0.49686  0.56877  0.70393  Biso   1.000  C
  H1475    1.0000 0.43200  0.69194  0.69197  Biso   1.000  H
  H1476    1.0000 0.53602  0.71193  0.75598  Biso   1.000  H
  H1477    1.0000 0.43209  0.69202  0.69203  Biso   1.000  H
  C1566    1.0000 0.94903  0.65833  0.79233  Biso   1.000  C
  C1567    1.0000 0.94909  0.65826  0.79233  Biso   1.000  C
  C1568    1.0000 0.94902  0.65826  0.79233  Biso   1.000  C
  H1478    1.0000 0.05504  0.59499  0.73700  Biso   1.000  H
  H1479    1.0000 0.05503  0.59492  0.73700  Biso   1.000  H
  H1480    1.0000 0.25106  0.65302  0.57799  Biso   1.000  H
  H1481    1.0000 0.16603  0.66603  0.50203  Biso   1.000  H
  C1569    1.0000 0.19931  0.53250  0.49953  Biso   1.000  C
  H1482    1.0000 0.25105  0.65295  0.57799  Biso   1.000  H
  H1483    1.0000 0.16603  0.66596  0.50203  Biso   1.000  H
  C1570    1.0000 0.19937  0.53243  0.49953  Biso   1.000  C
  C1571    1.0000 0.19937  0.53250  0.49953  Biso   1.000  C
  C1572    1.0000 0.99753  0.70971  0.05199  Biso   1.000  C
  C1573    1.0000 0.98727  0.61420  0.92332  Biso   1.000  C
  C1574    1.0000 0.98726  0.61413  0.92332  Biso   1.000  C
  H1484    1.0000 0.10406  0.54500  0.90101  Biso   1.000  H
  H1485    1.0000 0.10405  0.54493  0.90101  Biso   1.000  H
  H1486    1.0000 0.33398  0.50100  0.09899  Biso   1.000  H
  H1487    1.0000 0.38100  0.55198  0.02600  Biso   1.000  H
  C1575    1.0000 0.36997  0.41152  0.00410  Biso   1.000  C
  H1488    1.0000 0.38100  0.55205  0.02600  Biso   1.000  H
  C1576    1.0000 0.89723  0.73081  0.79691  Biso   1.000  C
  C1577    1.0000 0.89723  0.73074  0.79691  Biso   1.000  C
  C1578    1.0000 0.55674  0.52410  0.74771  Biso   1.000  C
  C1579    1.0000 0.45611  0.52741  0.62802  Biso   1.000  C
  C1580    1.0000 0.55674  0.52403  0.74771  Biso   1.000  C
  C1581    1.0000 0.45617  0.52734  0.62802  Biso   1.000  C
  C1582    1.0000 0.45618  0.52741  0.62802  Biso   1.000  C
  C1583    1.0000 0.92426  0.58573  0.84569  Biso   1.000  C
  C1584    1.0000 0.92426  0.58566  0.84569  Biso   1.000  C
  C1585    1.0000 0.13980  0.45511  0.49590  Biso   1.000  C
  C1586    1.0000 0.27790  0.52740  0.46282  Biso   1.000  C
  C1587    1.0000 0.13986  0.45504  0.49590  Biso   1.000  C
  C1588    1.0000 0.27796  0.52734  0.46282  Biso   1.000  C
  C1589    1.0000 0.13987  0.45511  0.49590  Biso   1.000  C
  C1590    1.0000 0.27796  0.52740  0.46282  Biso   1.000  C
  C1591    1.0000 0.94888  0.67353  0.97781  Biso   1.000  C
  C1592    1.0000 0.94888  0.67346  0.97781  Biso   1.000  C
  C1593    1.0000 0.41105  0.41283  0.93510  Biso   1.000  C
  C1594    1.0000 0.41104  0.41276  0.93510  Biso   1.000  C
  C1595    1.0000 0.36339  0.33320  0.03688  Biso   1.000  C
  O296     1.0000 0.82286  0.73951  0.84319  Biso   1.000  O
  O297     1.0000 0.82286  0.73944  0.84319  Biso   1.000  O
  C1596    1.0000 0.57583  0.43809  0.71571  Biso   1.000  C
  H1489    1.0000 0.58804  0.55598  0.80601  Biso   1.000  H
  C1597    1.0000 0.57583  0.43802  0.71571  Biso   1.000  C
  H1490    1.0000 0.58803  0.55592  0.80601  Biso   1.000  H
  C1598    1.0000 0.47534  0.44139  0.59602  Biso   1.000  C
  H1491    1.0000 0.41004  0.56201  0.59400  Biso   1.000  H
  C1599    1.0000 0.47533  0.44133  0.59602  Biso   1.000  C
  H1492    1.0000 0.41004  0.56194  0.59400  Biso   1.000  H
  H1493    1.0000 0.85404  0.58100  0.85598  Biso   1.000  H
  C1600    1.0000 0.94947  0.49138  0.80072  Biso   1.000  C
  H1494    1.0000 0.85405  0.58095  0.85604  Biso   1.000  H
  H1495    1.0000 0.85404  0.58094  0.85598  Biso   1.000  H
  C1601    1.0000 0.15903  0.37264  0.45563  Biso   1.000  C
  H1496    1.0000 0.07904  0.45904  0.52398  Biso   1.000  H
  C1602    1.0000 0.15902  0.37258  0.45563  Biso   1.000  C
  H1497    1.0000 0.07905  0.45899  0.52404  Biso   1.000  H
  H1498    1.0000 0.07904  0.45898  0.52398  Biso   1.000  H
  C1603    1.0000 0.29711  0.44492  0.42249  Biso   1.000  C
  H1499    1.0000 0.32403  0.58700  0.46598  Biso   1.000  H
  C1604    1.0000 0.29711  0.44486  0.42249  Biso   1.000  C
  H1500    1.0000 0.32403  0.58695  0.46604  Biso   1.000  H
  H1501    1.0000 0.32404  0.58702  0.46604  Biso   1.000  H
  O298     1.0000 0.86263  0.69627  0.96978  Biso   1.000  O
  O299     1.0000 0.86264  0.69622  0.96984  Biso   1.000  O
  O300     1.0000 0.86264  0.69628  0.96984  Biso   1.000  O
  C1605    1.0000 0.44536  0.33589  0.89887  Biso   1.000  C
  H1502    1.0000 0.41605  0.47303  0.90999  Biso   1.000  H
  C1606    1.0000 0.44536  0.33584  0.89893  Biso   1.000  C
  H1503    1.0000 0.41604  0.47297  0.90999  Biso   1.000  H
  C1607    1.0000 0.44536  0.33590  0.89893  Biso   1.000  C
  C1608    1.0000 0.39778  0.25622  0.00077  Biso   1.000  C
  H1504    1.0000 0.33197  0.33197  0.09001  Biso   1.000  H
  C1609    1.0000 0.39779  0.25623  0.00083  Biso   1.000  C
  H1505    1.0000 0.33204  0.33204  0.09001  Biso   1.000  H
  H1506    1.0000 0.33197  0.33204  0.09001  Biso   1.000  H
  C1610    1.0000 0.84787  0.77003  0.92731  Biso   1.000  C
  C1611    1.0000 0.84786  0.76996  0.92731  Biso   1.000  C
  C1612    1.0000 0.53511  0.39681  0.63992  Biso   1.000  C
  H1507    1.0000 0.62205  0.40399  0.74997  Biso   1.000  H
  C1613    1.0000 0.53517  0.39674  0.63992  Biso   1.000  C
  H1508    1.0000 0.62205  0.40394  0.75003  Biso   1.000  H
  C1614    1.0000 0.53518  0.39681  0.63992  Biso   1.000  C
  H1509    1.0000 0.62206  0.40401  0.75003  Biso   1.000  H
  H1510    1.0000 0.44404  0.40903  0.53701  Biso   1.000  H
  H1511    1.0000 0.44404  0.40897  0.53701  Biso   1.000  H
  H1512    1.0000 0.94805  0.44201  0.83998  Biso   1.000  H
  C1615    1.0000 0.87374  0.45938  0.72558  Biso   1.000  C
  H1513    1.0000 0.94805  0.44195  0.84004  Biso   1.000  H
  H1514    1.0000 0.94804  0.44194  0.83998  Biso   1.000  H
  H1515    1.0000 0.01607  0.49902  0.78198  Biso   1.000  H
  H1516    1.0000 0.01607  0.49896  0.78204  Biso   1.000  H
  H1517    1.0000 0.01606  0.49895  0.78198  Biso   1.000  H
  C1616    1.0000 0.23775  0.36755  0.41892  Biso   1.000  C
  H1518    1.0000 0.11303  0.31302  0.45301  Biso   1.000  H
  C1617    1.0000 0.23774  0.36749  0.41892  Biso   1.000  C
  H1519    1.0000 0.11302  0.31295  0.45301  Biso   1.000  H
  H1520    1.0000 0.35802  0.44104  0.39400  Biso   1.000  H
  H1521    1.0000 0.35802  0.44097  0.39400  Biso   1.000  H
  C1618    1.0000 0.43874  0.25761  0.93183  Biso   1.000  C
  H1522    1.0000 0.47701  0.33697  0.84497  Biso   1.000  H
  C1619    1.0000 0.43873  0.25754  0.93183  Biso   1.000  C
  H1523    1.0000 0.47708  0.33698  0.84503  Biso   1.000  H
  H1524    1.0000 0.39300  0.19598  0.02600  Biso   1.000  H
  H1525    1.0000 0.39300  0.19604  0.02600  Biso   1.000  H
  H1526    1.0000 0.91008  0.81499  0.93700  Biso   1.000  H
  H1527    1.0000 0.79408  0.80499  0.95098  Biso   1.000  H
  H1528    1.0000 0.91007  0.81493  0.93700  Biso   1.000  H
  H1529    1.0000 0.79407  0.80492  0.95098  Biso   1.000  H
  H1530    1.0000 0.55004  0.32999  0.61499  Biso   1.000  H
  H1531    1.0000 0.55003  0.32992  0.61499  Biso   1.000  H
  H1532    1.0000 0.87204  0.51201  0.69001  Biso   1.000  H
  H1533    1.0000 0.80803  0.44803  0.74599  Biso   1.000  H
  C1620    1.0000 0.89375  0.37264  0.67442  Biso   1.000  C
  H1534    1.0000 0.87203  0.51195  0.69001  Biso   1.000  H
  H1535    1.0000 0.80802  0.44796  0.74599  Biso   1.000  H
  C1621    1.0000 0.89374  0.37257  0.67442  Biso   1.000  C
  H1536    1.0000 0.25301  0.30401  0.38799  Biso   1.000  H
  H1537    1.0000 0.25301  0.30395  0.38799  Biso   1.000  H
  H1538    1.0000 0.46507  0.19802  0.90399  Biso   1.000  H
  H1539    1.0000 0.46506  0.19795  0.90399  Biso   1.000  H
  C1622    1.0000 0.82972  0.29721  0.66282  Biso   1.000  C
  C1623    1.0000 0.97343  0.36781  0.63933  Biso   1.000  C
  C1624    1.0000 0.82978  0.29714  0.66282  Biso   1.000  C
  C1625    1.0000 0.97343  0.36774  0.63933  Biso   1.000  C
  C1626    1.0000 0.84545  0.21701  0.61613  Biso   1.000  C
  H1540    1.0000 0.76803  0.30102  0.69001  Biso   1.000  H
  C1627    1.0000 0.84544  0.21694  0.61613  Biso   1.000  C
  H1541    1.0000 0.76803  0.30096  0.69001  Biso   1.000  H
  C1628    1.0000 0.98915  0.28758  0.59251  Biso   1.000  C
  H1542    1.0000 0.02303  0.42602  0.64801  Biso   1.000  H
  H1543    1.0000 0.02302  0.42595  0.64801  Biso   1.000  H
  C1629    1.0000 0.92512  0.21222  0.58091  Biso   1.000  C
  H1544    1.0000 0.79602  0.15904  0.60702  Biso   1.000  H
  C1630    1.0000 0.92512  0.21215  0.58091  Biso   1.000  C
  H1545    1.0000 0.79602  0.15898  0.60702  Biso   1.000  H
  H1546    1.0000 0.05102  0.28404  0.56503  Biso   1.000  H
  H1547    1.0000 0.05101  0.28397  0.56503  Biso   1.000  H
  H1548    1.0000 0.93705  0.14998  0.54498  Biso   1.000  H
  H1549    1.0000 0.93706  0.14999  0.54504  Biso   1.000  H
  H1550    1.0000 0.93699  0.14998  0.54498  Biso   1.000  H
  C1631    1.0000 0.15220  0.22997  0.07269  Biso   1.000  C
  O301     1.0000 0.13743  0.30373  0.03022  Biso   1.000  O
  O302     1.0000 0.13743  0.30366  0.03022  Biso   1.000  O
  O303     1.0000 0.17720  0.26049  0.15681  Biso   1.000  O
  H1551    1.0000 0.08999  0.18501  0.06300  Biso   1.000  H
  H1552    1.0000 0.20599  0.19501  0.04902  Biso   1.000  H
  H1553    1.0000 0.20605  0.19501  0.04902  Biso   1.000  H
  H1554    1.0000 0.08998  0.18494  0.06300  Biso   1.000  H
  H1555    1.0000 0.20598  0.19494  0.04902  Biso   1.000  H
  C1632    1.0000 0.05118  0.32647  0.02219  Biso   1.000  C
  C1633    1.0000 0.05119  0.32654  0.02219  Biso   1.000  C
  C1634    1.0000 0.15221  0.23004  0.07269  Biso   1.000  C
  C1635    1.0000 0.10283  0.26919  0.20309  Biso   1.000  C
  C1636    1.0000 0.10283  0.26913  0.20309  Biso   1.000  C
  C1637    1.0000 0.01280  0.38580  0.07668  Biso   1.000  C
  C1638    1.0000 0.01281  0.38581  0.07674  Biso   1.000  C
  C1639    1.0000 0.01280  0.38575  0.07674  Biso   1.000  C
  C1640    1.0000 0.00253  0.29023  0.94801  Biso   1.000  C
  C1641    1.0000 0.00260  0.29023  0.94801  Biso   1.000  C
  C1642    1.0000 0.00254  0.29029  0.94801  Biso   1.000  C
  C1643    1.0000 0.00261  0.29029  0.94801  Biso   1.000  C
  C1644    1.0000 0.05104  0.34167  0.20767  Biso   1.000  C
  C1645    1.0000 0.05105  0.34168  0.20773  Biso   1.000  C
  C1646    1.0000 0.05105  0.34174  0.20767  Biso   1.000  C
  C1647    1.0000 0.08832  0.20328  0.24961  Biso   1.000  C
  C1648    1.0000 0.08833  0.20335  0.24961  Biso   1.000  C
  C1649    1.0000 0.92564  0.40878  0.05711  Biso   1.000  C
  C1650    1.0000 0.92565  0.40884  0.05711  Biso   1.000  C
  C1651    1.0000 0.07580  0.41427  0.15431  Biso   1.000  C
  C1652    1.0000 0.07581  0.41434  0.15431  Biso   1.000  C
  C1653    1.0000 0.91536  0.31312  0.92838  Biso   1.000  C
  C1654    1.0000 0.91537  0.31314  0.92844  Biso   1.000  C
  C1655    1.0000 0.91537  0.31319  0.92838  Biso   1.000  C
  C1656    1.0000 0.91537  0.31320  0.92844  Biso   1.000  C
  O304     1.0000 0.03516  0.22631  0.89471  Biso   1.000  O
  O305     1.0000 0.03517  0.22637  0.89471  Biso   1.000  O
  C1657    1.0000 0.98469  0.34840  0.25889  Biso   1.000  C
  C1658    1.0000 0.98476  0.34840  0.25889  Biso   1.000  C
  C1659    1.0000 0.98475  0.34833  0.25889  Biso   1.000  C
  C1660    1.0000 0.02204  0.20989  0.30089  Biso   1.000  C
  O306     1.0000 0.13233  0.12600  0.23932  Biso   1.000  O
  O307     1.0000 0.13232  0.12593  0.23932  Biso   1.000  O
  C1661    1.0000 0.87699  0.37246  0.98293  Biso   1.000  C
  H1556    1.0000 0.89601  0.45500  0.09899  Biso   1.000  H
  H1557    1.0000 0.89601  0.45494  0.09899  Biso   1.000  H
  H1558    1.0000 0.14602  0.41900  0.14402  Biso   1.000  H
  C1662    1.0000 0.05059  0.50862  0.19928  Biso   1.000  C
  C1663    1.0000 0.05066  0.50862  0.19928  Biso   1.000  C
  C1664    1.0000 0.05066  0.50856  0.19928  Biso   1.000  C
  O308     1.0000 0.86795  0.28404  0.85360  Biso   1.000  O
  C1665    1.0000 0.07483  0.26483  0.83278  Biso   1.000  C
  C1666    1.0000 0.07484  0.26484  0.83284  Biso   1.000  C
  C1667    1.0000 0.07484  0.26490  0.83278  Biso   1.000  C
  C1668    1.0000 0.07485  0.26491  0.83284  Biso   1.000  C
  C1669    1.0000 0.97020  0.28251  0.30553  Biso   1.000  C
  C1670    1.0000 0.97026  0.28251  0.30553  Biso   1.000  C
  C1671    1.0000 0.97026  0.28245  0.30553  Biso   1.000  C
  H1559    1.0000 0.94503  0.40501  0.26300  Biso   1.000  H
  H1560    1.0000 0.94502  0.40495  0.26300  Biso   1.000  H
  O309     1.0000 0.01421  0.14315  0.34628  Biso   1.000  O
  O310     1.0000 0.01422  0.14323  0.34634  Biso   1.000  O
  O311     1.0000 0.01422  0.14322  0.34628  Biso   1.000  O
  O312     1.0000 0.01422  0.14317  0.34634  Biso   1.000  O
  C1672    1.0000 0.21434  0.12747  0.28881  Biso   1.000  C
  C1673    1.0000 0.21435  0.12754  0.28881  Biso   1.000  C
  C1674    1.0000 0.77869  0.38697  0.96502  Biso   1.000  C
  H1561    1.0000 0.98400  0.50098  0.21802  Biso   1.000  H
  H1562    1.0000 0.98407  0.50098  0.21802  Biso   1.000  H
  H1563    1.0000 0.98401  0.50105  0.21802  Biso   1.000  H
  H1564    1.0000 0.05202  0.55799  0.16002  Biso   1.000  H
  C1675    1.0000 0.12633  0.54062  0.27442  Biso   1.000  C
  H1565    1.0000 0.05203  0.55806  0.16002  Biso   1.000  H
  C1676    1.0000 0.12632  0.54056  0.27442  Biso   1.000  C
  C1677    1.0000 0.80556  0.20565  0.84438  Biso   1.000  C
  C1678    1.0000 0.80557  0.20566  0.84444  Biso   1.000  C
  C1679    1.0000 0.07908  0.18777  0.76050  Biso   1.000  C
  H1566    1.0000 0.03402  0.31492  0.81398  Biso   1.000  H
  H1567    1.0000 0.14303  0.29593  0.85503  Biso   1.000  H
  H1568    1.0000 0.03409  0.31492  0.81398  Biso   1.000  H
  H1569    1.0000 0.14310  0.29593  0.85503  Biso   1.000  H
  H1570    1.0000 0.03403  0.31499  0.81398  Biso   1.000  H
  H1571    1.0000 0.14304  0.29599  0.85503  Biso   1.000  H
  H1572    1.0000 0.03409  0.31499  0.81398  Biso   1.000  H
  H1573    1.0000 0.14310  0.29599  0.85503  Biso   1.000  H
  C1680    1.0000 0.89631  0.28260  0.35800  Biso   1.000  C
  C1681    1.0000 0.89631  0.28254  0.35800  Biso   1.000  C
  C1682    1.0000 0.94100  0.07307  0.32778  Biso   1.000  C
  C1683    1.0000 0.94101  0.07308  0.32784  Biso   1.000  C
  C1684    1.0000 0.94101  0.07314  0.32778  Biso   1.000  C
  C1685    1.0000 0.24700  0.04259  0.28578  Biso   1.000  C
  H1574    1.0000 0.26501  0.17399  0.27198  Biso   1.000  H
  H1575    1.0000 0.20305  0.15100  0.34902  Biso   1.000  H
  C1686    1.0000 0.24701  0.04260  0.28584  Biso   1.000  C
  H1576    1.0000 0.26502  0.17400  0.27204  Biso   1.000  H
  C1687    1.0000 0.24700  0.04253  0.28584  Biso   1.000  C
  H1577    1.0000 0.26501  0.17394  0.27204  Biso   1.000  H
  H1578    1.0000 0.20304  0.15093  0.34902  Biso   1.000  H
  C1688    1.0000 0.71964  0.31085  0.98519  Biso   1.000  C
  C1689    1.0000 0.71971  0.31085  0.98519  Biso   1.000  C
  H1579    1.0000 0.76103  0.38394  0.90202  Biso   1.000  H
  C1690    1.0000 0.76026  0.48616  0.99929  Biso   1.000  C
  H1580    1.0000 0.76110  0.38394  0.90202  Biso   1.000  H
  H1581    1.0000 0.76104  0.38400  0.90202  Biso   1.000  H
  H1582    1.0000 0.76111  0.38400  0.90202  Biso   1.000  H
  H1583    1.0000 0.12803  0.48799  0.30999  Biso   1.000  H
  H1584    1.0000 0.19204  0.55197  0.25401  Biso   1.000  H
  C1691    1.0000 0.10632  0.62736  0.32558  Biso   1.000  C
  C1692    1.0000 0.10633  0.62737  0.32564  Biso   1.000  C
  H1585    1.0000 0.19204  0.55204  0.25401  Biso   1.000  H
  C1693    1.0000 0.10633  0.62743  0.32558  Biso   1.000  C
  O313     1.0000 0.71604  0.22832  0.85128  Biso   1.000  O
  O314     1.0000 0.71605  0.22833  0.85134  Biso   1.000  O
  O315     1.0000 0.71605  0.22839  0.85128  Biso   1.000  O
  O316     1.0000 0.71605  0.22840  0.85134  Biso   1.000  O
  H1586    1.0000 0.82508  0.16791  0.89001  Biso   1.000  H
  H1587    1.0000 0.80703  0.16494  0.78697  Biso   1.000  H
  H1588    1.0000 0.80704  0.16495  0.78703  Biso   1.000  H
  H1589    1.0000 0.82509  0.16798  0.89001  Biso   1.000  H
  O317     1.0000 0.13836  0.12613  0.78668  Biso   1.000  O
  H1590    1.0000 0.10403  0.21492  0.71202  Biso   1.000  H
  H1591    1.0000 0.01204  0.15292  0.74099  Biso   1.000  H
  O318     1.0000 0.13837  0.12614  0.78674  Biso   1.000  O
  O319     1.0000 0.13837  0.12619  0.78668  Biso   1.000  O
  H1592    1.0000 0.10403  0.21499  0.71202  Biso   1.000  H
  H1593    1.0000 0.01204  0.15299  0.74099  Biso   1.000  H
  O320     1.0000 0.13838  0.12621  0.78674  Biso   1.000  O
  C1694    1.0000 0.80903  0.22468  0.31041  Biso   1.000  C
  C1695    1.0000 0.80904  0.22475  0.31041  Biso   1.000  C
  H1594    1.0000 0.91404  0.25000  0.40803  Biso   1.000  H
  C1696    1.0000 0.88494  0.37756  0.39750  Biso   1.000  C
  C1697    1.0000 0.88495  0.37763  0.39750  Biso   1.000  C
  H1595    1.0000 0.91403  0.24993  0.40803  Biso   1.000  H
  O321     1.0000 0.86003  0.09396  0.35419  Biso   1.000  O
  O322     1.0000 0.86004  0.09402  0.35419  Biso   1.000  O
  H1596    1.0000 0.96205  0.01701  0.35401  Biso   1.000  H
  H1597    1.0000 0.92898  0.05399  0.26401  Biso   1.000  H
  H1598    1.0000 0.92905  0.05399  0.26401  Biso   1.000  H
  H1599    1.0000 0.92899  0.05405  0.26401  Biso   1.000  H
  H1600    1.0000 0.96204  0.01694  0.35401  Biso   1.000  H
  H1601    1.0000 0.19903  0.99597  0.30601  Biso   1.000  H
  H1602    1.0000 0.19904  0.99603  0.30601  Biso   1.000  H
  O323     1.0000 0.26472  0.00780  0.20279  Biso   1.000  O
  H1603    1.0000 0.31104  0.05097  0.32397  Biso   1.000  H
  H1604    1.0000 0.31105  0.05098  0.32403  Biso   1.000  H
  H1605    1.0000 0.31104  0.05103  0.32397  Biso   1.000  H
  O324     1.0000 0.26471  0.00773  0.20279  Biso   1.000  O
  C1698    1.0000 0.69060  0.31719  0.06020  Biso   1.000  C
  C1699    1.0000 0.69060  0.31726  0.06020  Biso   1.000  C
  C1700    1.0000 0.69435  0.23286  0.92850  Biso   1.000  C
  H1606    1.0000 0.81004  0.53392  0.98299  Biso   1.000  H
  C1701    1.0000 0.66564  0.50206  0.96449  Biso   1.000  C
  H1607    1.0000 0.81010  0.53392  0.98299  Biso   1.000  H
  C1702    1.0000 0.66571  0.50206  0.96449  Biso   1.000  C
  H1608    1.0000 0.81004  0.53398  0.98299  Biso   1.000  H
  H1609    1.0000 0.81011  0.53398  0.98299  Biso   1.000  H
  H1610    1.0000 0.76398  0.49497  0.06300  Biso   1.000  H
  H1611    1.0000 0.76405  0.49503  0.06300  Biso   1.000  H
  H1612    1.0000 0.76399  0.49503  0.06300  Biso   1.000  H
  H1613    1.0000 0.76405  0.49497  0.06300  Biso   1.000  H
  C1703    1.0000 0.17035  0.70279  0.33718  Biso   1.000  C
  C1704    1.0000 0.02663  0.63219  0.36067  Biso   1.000  C
  C1705    1.0000 0.17036  0.70281  0.33724  Biso   1.000  C
  C1706    1.0000 0.02664  0.63221  0.36073  Biso   1.000  C
  C1707    1.0000 0.17035  0.70274  0.33724  Biso   1.000  C
  C1708    1.0000 0.02663  0.63214  0.36073  Biso   1.000  C
  C1709    1.0000 0.22955  0.15442  0.79453  Biso   1.000  C
  C1710    1.0000 0.22955  0.15449  0.79453  Biso   1.000  C
  C1711    1.0000 0.74704  0.26380  0.26341  Biso   1.000  C
  C1712    1.0000 0.74703  0.26373  0.26341  Biso   1.000  C
  C1713    1.0000 0.79993  0.13157  0.30731  Biso   1.000  C
  C1714    1.0000 0.79994  0.13164  0.30731  Biso   1.000  C
  H1614    1.0000 0.86300  0.41500  0.35199  Biso   1.000  H
  H1615    1.0000 0.94904  0.40896  0.42998  Biso   1.000  H
  C1715    1.0000 0.81351  0.37579  0.45580  Biso   1.000  C
  H1616    1.0000 0.86306  0.41500  0.35199  Biso   1.000  H
  H1617    1.0000 0.94904  0.40897  0.43004  Biso   1.000  H
  C1716    1.0000 0.81358  0.37579  0.45580  Biso   1.000  C
  H1618    1.0000 0.94904  0.40902  0.42998  Biso   1.000  H
  H1619    1.0000 0.86306  0.41493  0.35199  Biso   1.000  H
  C1717    1.0000 0.81357  0.37573  0.45580  Biso   1.000  C
  C1718    1.0000 0.34242  0.05550  0.18168  Biso   1.000  C
  C1719    1.0000 0.34243  0.05551  0.18174  Biso   1.000  C
  C1720    1.0000 0.34243  0.05544  0.18174  Biso   1.000  C
  C1721    1.0000 0.63633  0.24547  0.07852  Biso   1.000  C
  C1722    1.0000 0.63633  0.24554  0.07852  Biso   1.000  C
  H1620    1.0000 0.71003  0.37798  0.10398  Biso   1.000  H
  H1621    1.0000 0.71003  0.37805  0.10398  Biso   1.000  H
  C1723    1.0000 0.64008  0.16114  0.94682  Biso   1.000  C
  C1724    1.0000 0.64009  0.16120  0.94682  Biso   1.000  C
  H1622    1.0000 0.66608  0.49893  0.90101  Biso   1.000  H
  H1623    1.0000 0.61907  0.44795  0.97400  Biso   1.000  H
  C1725    1.0000 0.63009  0.58842  0.99590  Biso   1.000  C
  H1624    1.0000 0.66609  0.49900  0.90101  Biso   1.000  H
  C1726    1.0000 0.63010  0.58848  0.99590  Biso   1.000  C
  C1727    1.0000 0.15462  0.78299  0.38387  Biso   1.000  C
  H1625    1.0000 0.23204  0.69898  0.30999  Biso   1.000  H
  C1728    1.0000 0.15463  0.78300  0.38393  Biso   1.000  C
  H1626    1.0000 0.23204  0.69904  0.30999  Biso   1.000  H
  C1729    1.0000 0.15462  0.78294  0.38393  Biso   1.000  C
  H1627    1.0000 0.97704  0.57398  0.35199  Biso   1.000  H
  C1730    1.0000 0.01092  0.71242  0.40749  Biso   1.000  C
  C1731    1.0000 0.01091  0.71235  0.40749  Biso   1.000  C
  C1732    1.0000 0.27923  0.07664  0.81398  Biso   1.000  C
  H1628    1.0000 0.24801  0.17392  0.73998  Biso   1.000  H
  H1629    1.0000 0.24605  0.21093  0.84200  Biso   1.000  H
  H1630    1.0000 0.24809  0.17393  0.74004  Biso   1.000  H
  H1631    1.0000 0.24802  0.17398  0.73998  Biso   1.000  H
  H1632    1.0000 0.24605  0.21100  0.84200  Biso   1.000  H
  H1633    1.0000 0.24809  0.17399  0.74004  Biso   1.000  H
  C1733    1.0000 0.67581  0.20987  0.21332  Biso   1.000  C
  C1734    1.0000 0.67582  0.20994  0.21332  Biso   1.000  C
  H1634    1.0000 0.75401  0.33601  0.26603  Biso   1.000  H
  H1635    1.0000 0.75401  0.33594  0.26603  Biso   1.000  H
  C1735    1.0000 0.72871  0.07771  0.25723  Biso   1.000  C
  C1736    1.0000 0.72870  0.07764  0.25723  Biso   1.000  C
  H1636    1.0000 0.74901  0.34698  0.42201  Biso   1.000  H
  H1637    1.0000 0.83403  0.33397  0.49797  Biso   1.000  H
  C1737    1.0000 0.80076  0.46750  0.50047  Biso   1.000  C
  H1638    1.0000 0.74907  0.34698  0.42201  Biso   1.000  H
  H1639    1.0000 0.83404  0.33399  0.49803  Biso   1.000  H
  C1738    1.0000 0.80077  0.46752  0.50053  Biso   1.000  C
  H1640    1.0000 0.74901  0.34705  0.42201  Biso   1.000  H
  H1641    1.0000 0.83404  0.33404  0.49797  Biso   1.000  H
  C1739    1.0000 0.80076  0.46745  0.50053  Biso   1.000  C
  C1740    1.0000 0.35432  0.99850  0.10220  Biso   1.000  C
  C1741    1.0000 0.35432  0.99856  0.10220  Biso   1.000  C
  H1642    1.0000 0.40102  0.05796  0.22498  Biso   1.000  H
  H1643    1.0000 0.33004  0.12297  0.17501  Biso   1.000  H
  H1644    1.0000 0.40103  0.05803  0.22498  Biso   1.000  H
  H1645    1.0000 0.33004  0.12303  0.17501  Biso   1.000  H
  C1742    1.0000 0.60071  0.24677  0.16068  Biso   1.000  C
  C1743    1.0000 0.60071  0.24679  0.16074  Biso   1.000  C
  C1744    1.0000 0.60071  0.24684  0.16068  Biso   1.000  C
  C1745    1.0000 0.61098  0.16760  0.02177  Biso   1.000  C
  C1746    1.0000 0.61105  0.16761  0.02183  Biso   1.000  C
  C1747    1.0000 0.61098  0.16754  0.02183  Biso   1.000  C
  O325     1.0000 0.61492  0.08721  0.88668  Biso   1.000  O
  O326     1.0000 0.61500  0.08722  0.88674  Biso   1.000  O
  O327     1.0000 0.61493  0.08728  0.88668  Biso   1.000  O
  O328     1.0000 0.61500  0.08729  0.88674  Biso   1.000  O
  C1748    1.0000 0.58902  0.58717  0.06490  Biso   1.000  C
  C1749    1.0000 0.63667  0.66673  0.96312  Biso   1.000  C
  C1750    1.0000 0.63667  0.66680  0.96312  Biso   1.000  C
  C1751    1.0000 0.58902  0.58724  0.06490  Biso   1.000  C
  C1752    1.0000 0.07494  0.78778  0.41909  Biso   1.000  C
  H1646    1.0000 0.20404  0.84096  0.39298  Biso   1.000  H
  H1647    1.0000 0.20406  0.84103  0.39304  Biso   1.000  H
  H1648    1.0000 0.20405  0.84102  0.39298  Biso   1.000  H
  H1649    1.0000 0.20405  0.84097  0.39304  Biso   1.000  H
  H1650    1.0000 0.94905  0.71596  0.43497  Biso   1.000  H
  H1651    1.0000 0.94906  0.71597  0.43503  Biso   1.000  H
  H1652    1.0000 0.94905  0.71603  0.43497  Biso   1.000  H
  O329     1.0000 0.27705  0.01131  0.73718  Biso   1.000  O
  H1653    1.0000 0.24606  0.04393  0.85598  Biso   1.000  H
  H1654    1.0000 0.34904  0.09995  0.83801  Biso   1.000  H
  O330     1.0000 0.27705  0.01138  0.73718  Biso   1.000  O
  H1655    1.0000 0.24607  0.04394  0.85604  Biso   1.000  H
  H1656    1.0000 0.24607  0.04399  0.85598  Biso   1.000  H
  H1657    1.0000 0.24607  0.04400  0.85604  Biso   1.000  H
  C1753    1.0000 0.66673  0.11691  0.21029  Biso   1.000  C
  C1754    1.0000 0.66672  0.11684  0.21029  Biso   1.000  C
  O331     1.0000 0.72301  0.98862  0.26282  Biso   1.000  O
  C1755    1.0000 0.86027  0.54489  0.50410  Biso   1.000  C
  C1756    1.0000 0.72217  0.47260  0.53718  Biso   1.000  C
  C1757    1.0000 0.72218  0.47261  0.53723  Biso   1.000  C
  C1758    1.0000 0.72210  0.47260  0.53718  Biso   1.000  C
  C1759    1.0000 0.86026  0.54482  0.50410  Biso   1.000  C
  C1760    1.0000 0.72217  0.47254  0.53723  Biso   1.000  C
  O332     1.0000 0.38514  0.91272  0.11332  Biso   1.000  O
  H1658    1.0000 0.29004  0.98602  0.06502  Biso   1.000  H
  H1659    1.0000 0.40303  0.03402  0.07299  Biso   1.000  H
  H1660    1.0000 0.40303  0.03395  0.07299  Biso   1.000  H
  C1761    1.0000 0.57609  0.34282  0.19280  Biso   1.000  C
  C1762    1.0000 0.57616  0.34282  0.19280  Biso   1.000  C
  C1763    1.0000 0.57615  0.34275  0.19280  Biso   1.000  C
  H1661    1.0000 0.53800  0.20502  0.15800  Biso   1.000  H
  H1662    1.0000 0.53799  0.20496  0.15800  Biso   1.000  H
  O333     1.0000 0.55848  0.09418  0.03992  Biso   1.000  O
  O334     1.0000 0.55855  0.09418  0.03992  Biso   1.000  O
  O335     1.0000 0.55848  0.09425  0.03992  Biso   1.000  O
  C1764    1.0000 0.64575  0.00144  0.89780  Biso   1.000  C
  C1765    1.0000 0.64575  0.00150  0.89780  Biso   1.000  C
  C1766    1.0000 0.55471  0.66411  0.10113  Biso   1.000  C
  H1663    1.0000 0.58402  0.52697  0.09001  Biso   1.000  H
  H1664    1.0000 0.58403  0.52703  0.09001  Biso   1.000  H
  C1767    1.0000 0.55470  0.66404  0.10113  Biso   1.000  C
  C1768    1.0000 0.60228  0.74371  0.99923  Biso   1.000  C
  H1665    1.0000 0.66809  0.66796  0.90999  Biso   1.000  H
  C1769    1.0000 0.60229  0.74378  0.99923  Biso   1.000  C
  H1666    1.0000 0.06301  0.85002  0.45502  Biso   1.000  H
  H1667    1.0000 0.06308  0.85002  0.45502  Biso   1.000  H
  H1668    1.0000 0.06307  0.84995  0.45502  Biso   1.000  H
  C1770    1.0000 0.27136  0.92229  0.74277  Biso   1.000  C
  C1771    1.0000 0.27136  0.92223  0.74283  Biso   1.000  C
  C1772    1.0000 0.27137  0.92230  0.74283  Biso   1.000  C
  O336     1.0000 0.59290  0.06090  0.16591  Biso   1.000  O
  C1773    1.0000 0.72083  0.92329  0.18602  Biso   1.000  C
  C1774    1.0000 0.72084  0.92336  0.18602  Biso   1.000  C
  C1775    1.0000 0.84104  0.62736  0.54437  Biso   1.000  C
  H1669    1.0000 0.92102  0.54096  0.47602  Biso   1.000  H
  C1776    1.0000 0.84105  0.62737  0.54443  Biso   1.000  C
  H1670    1.0000 0.92103  0.54102  0.47602  Biso   1.000  H
  C1777    1.0000 0.84105  0.62742  0.54437  Biso   1.000  C
  H1671    1.0000 0.67604  0.41300  0.53402  Biso   1.000  H
  C1778    1.0000 0.70295  0.55508  0.57751  Biso   1.000  C
  C1779    1.0000 0.70296  0.55514  0.57751  Biso   1.000  C
  H1672    1.0000 0.67603  0.41293  0.53402  Biso   1.000  H
  C1780    1.0000 0.35998  0.83880  0.05318  Biso   1.000  C
  C1781    1.0000 0.52591  0.33291  0.26317  Biso   1.000  C
  C1782    1.0000 0.52592  0.33292  0.26323  Biso   1.000  C
  C1783    1.0000 0.52591  0.33285  0.26323  Biso   1.000  C
  H1673    1.0000 0.53405  0.36800  0.14801  Biso   1.000  H
  H1674    1.0000 0.63705  0.38800  0.21201  Biso   1.000  H
  H1675    1.0000 0.63699  0.38800  0.21201  Biso   1.000  H
  H1676    1.0000 0.63705  0.38794  0.21201  Biso   1.000  H
  H1677    1.0000 0.53404  0.36794  0.14801  Biso   1.000  H
  C1784    1.0000 0.60178  0.03287  0.08459  Biso   1.000  C
  C1785    1.0000 0.60185  0.03293  0.08459  Biso   1.000  C
  C1786    1.0000 0.60178  0.03293  0.08459  Biso   1.000  C
  C1787    1.0000 0.60184  0.03287  0.08459  Biso   1.000  C
  H1678    1.0000 0.59703  0.96598  0.92701  Biso   1.000  H
  C1788    1.0000 0.65764  0.94450  0.81832  Biso   1.000  C
  H1679    1.0000 0.59710  0.96592  0.92701  Biso   1.000  H
  C1789    1.0000 0.65764  0.94444  0.81832  Biso   1.000  C
  H1680    1.0000 0.59710  0.96598  0.92701  Biso   1.000  H
  H1681    1.0000 0.71002  0.01391  0.93498  Biso   1.000  H
  H1682    1.0000 0.71010  0.01393  0.93504  Biso   1.000  H
  H1683    1.0000 0.71003  0.01398  0.93498  Biso   1.000  H
  H1684    1.0000 0.71011  0.01399  0.93504  Biso   1.000  H
  C1790    1.0000 0.56133  0.74239  0.06817  Biso   1.000  C
  H1685    1.0000 0.52306  0.66303  0.15503  Biso   1.000  H
  C1791    1.0000 0.56134  0.74240  0.06823  Biso   1.000  C
  C1792    1.0000 0.56133  0.74246  0.06817  Biso   1.000  C
  H1686    1.0000 0.52299  0.66303  0.15503  Biso   1.000  H
  H1687    1.0000 0.52305  0.66297  0.15503  Biso   1.000  H
  H1688    1.0000 0.60707  0.80396  0.97400  Biso   1.000  H
  C1793    1.0000 0.33334  0.88309  0.78971  Biso   1.000  C
  C1794    1.0000 0.20014  0.86843  0.69269  Biso   1.000  C
  C1795    1.0000 0.33333  0.88303  0.78971  Biso   1.000  C
  C1796    1.0000 0.20013  0.86836  0.69269  Biso   1.000  C
  C1797    1.0000 0.77051  0.84551  0.20547  Biso   1.000  C
  H1689    1.0000 0.75400  0.95601  0.14402  Biso   1.000  H
  H1690    1.0000 0.65102  0.89998  0.16199  Biso   1.000  H
  C1798    1.0000 0.77052  0.84552  0.20553  Biso   1.000  C
  H1691    1.0000 0.65103  0.90005  0.16199  Biso   1.000  H
  H1692    1.0000 0.88704  0.68698  0.54699  Biso   1.000  H
  C1799    1.0000 0.76232  0.63245  0.58108  Biso   1.000  C
  C1800    1.0000 0.76233  0.63253  0.58114  Biso   1.000  C
  C1801    1.0000 0.76232  0.63251  0.58108  Biso   1.000  C
  C1802    1.0000 0.76233  0.63246  0.58114  Biso   1.000  C
  H1693    1.0000 0.64204  0.55896  0.60600  Biso   1.000  H
  H1694    1.0000 0.64205  0.55903  0.60600  Biso   1.000  H
  C1803    1.0000 0.30571  0.76708  0.07150  Biso   1.000  C
  C1804    1.0000 0.30571  0.76714  0.07150  Biso   1.000  C
  C1805    1.0000 0.38909  0.83240  0.97823  Biso   1.000  C
  C1806    1.0000 0.38908  0.83234  0.97823  Biso   1.000  C
  C1807    1.0000 0.50320  0.43116  0.29607  Biso   1.000  C
  C1808    1.0000 0.50321  0.43117  0.29613  Biso   1.000  C
  C1809    1.0000 0.50321  0.43123  0.29607  Biso   1.000  C
  H1695    1.0000 0.56806  0.30800  0.30803  Biso   1.000  H
  H1696    1.0000 0.46404  0.28800  0.24402  Biso   1.000  H
  H1697    1.0000 0.46404  0.28793  0.24402  Biso   1.000  H
  H1698    1.0000 0.56898  0.96501  0.06401  Biso   1.000  H
  H1699    1.0000 0.56905  0.96501  0.06401  Biso   1.000  H
  H1700    1.0000 0.67298  0.03496  0.07698  Biso   1.000  H
  H1701    1.0000 0.67306  0.03504  0.07704  Biso   1.000  H
  H1702    1.0000 0.67298  0.03503  0.07698  Biso   1.000  H
  H1703    1.0000 0.67298  0.03497  0.07704  Biso   1.000  H
  H1704    1.0000 0.59904  0.94204  0.77502  Biso   1.000  H
  H1705    1.0000 0.67003  0.87703  0.82499  Biso   1.000  H
  O337     1.0000 0.73535  0.99220  0.79721  Biso   1.000  O
  H1706    1.0000 0.59904  0.94197  0.77502  Biso   1.000  H
  H1707    1.0000 0.67009  0.87697  0.82499  Biso   1.000  H
  O338     1.0000 0.73535  0.99214  0.79721  Biso   1.000  O
  H1708    1.0000 0.67002  0.87697  0.82499  Biso   1.000  H
  H1709    1.0000 0.53500  0.80198  0.09601  Biso   1.000  H
  H1710    1.0000 0.53506  0.80198  0.09601  Biso   1.000  H
  H1711    1.0000 0.53500  0.80205  0.09601  Biso   1.000  H
  C1810    1.0000 0.32425  0.79013  0.78668  Biso   1.000  C
  O339     1.0000 0.40717  0.93910  0.83409  Biso   1.000  O
  C1811    1.0000 0.32426  0.79008  0.78674  Biso   1.000  C
  O340     1.0000 0.40717  0.93904  0.83409  Biso   1.000  O
  C1812    1.0000 0.32425  0.79006  0.78668  Biso   1.000  C
  O341     1.0000 0.14004  0.90604  0.64581  Biso   1.000  O
  O342     1.0000 0.14003  0.90598  0.64581  Biso   1.000  O
  C1813    1.0000 0.19104  0.77532  0.68959  Biso   1.000  C
  C1814    1.0000 0.19103  0.77525  0.68959  Biso   1.000  C
  O343     1.0000 0.86170  0.87381  0.21332  Biso   1.000  O
  H1712    1.0000 0.75205  0.82602  0.26002  Biso   1.000  H
  H1713    1.0000 0.75401  0.78900  0.15800  Biso   1.000  H
  H1714    1.0000 0.74705  0.69599  0.61201  Biso   1.000  H
  H1715    1.0000 0.74705  0.69592  0.61201  Biso   1.000  H
  C1815    1.0000 0.28042  0.68908  0.01481  Biso   1.000  C
  C1816    1.0000 0.28043  0.68915  0.01481  Biso   1.000  C
  O344     1.0000 0.28402  0.77161  0.14872  Biso   1.000  O
  C1817    1.0000 0.36374  0.75453  0.92148  Biso   1.000  C
  C1818    1.0000 0.36374  0.75447  0.92154  Biso   1.000  C
  C1819    1.0000 0.36373  0.75446  0.92148  Biso   1.000  C
  O345     1.0000 0.44159  0.90582  0.96008  Biso   1.000  O
  O346     1.0000 0.44158  0.90575  0.96008  Biso   1.000  O
  C1820    1.0000 0.44332  0.47590  0.25229  Biso   1.000  C
  C1821    1.0000 0.44332  0.47583  0.25229  Biso   1.000  C
  C1822    1.0000 0.54395  0.47259  0.37198  Biso   1.000  C
  C1823    1.0000 0.54396  0.47261  0.37204  Biso   1.000  C
  C1824    1.0000 0.54396  0.47254  0.37204  Biso   1.000  C
  C1825    1.0000 0.75307  0.95741  0.71422  Biso   1.000  C
  C1826    1.0000 0.75306  0.95734  0.71422  Biso   1.000  C
  C1827    1.0000 0.25303  0.73620  0.73659  Biso   1.000  C
  C1828    1.0000 0.25302  0.73614  0.73659  Biso   1.000  C
  C1829    1.0000 0.39936  0.75323  0.83932  Biso   1.000  C
  C1830    1.0000 0.39936  0.75316  0.83932  Biso   1.000  C
  C1831    1.0000 0.39829  0.96713  0.91541  Biso   1.000  C
  C1832    1.0000 0.39828  0.96707  0.91541  Biso   1.000  C
  C1833    1.0000 0.05907  0.92693  0.67222  Biso   1.000  C
  C1834    1.0000 0.05906  0.92686  0.67222  Biso   1.000  C
  C1835    1.0000 0.10375  0.71740  0.64200  Biso   1.000  C
  C1836    1.0000 0.10375  0.71733  0.64200  Biso   1.000  C
  C1837    1.0000 0.92098  0.81217  0.23950  Biso   1.000  C
  C1838    1.0000 0.92105  0.81217  0.23950  Biso   1.000  C
  C1839    1.0000 0.92099  0.81223  0.23950  Biso   1.000  C
  C1840    1.0000 0.92105  0.81223  0.23950  Biso   1.000  C
  C1841    1.0000 0.22137  0.61297  0.03498  Biso   1.000  C
  C1842    1.0000 0.22138  0.61298  0.03504  Biso   1.000  C
  C1843    1.0000 0.22138  0.61303  0.03498  Biso   1.000  C
  C1844    1.0000 0.22138  0.61305  0.03504  Biso   1.000  C
  C1845    1.0000 0.30947  0.68281  0.93980  Biso   1.000  C
  C1846    1.0000 0.30946  0.68274  0.93980  Biso   1.000  C
  C1847    1.0000 0.19450  0.79428  0.15562  Biso   1.000  C
  C1848    1.0000 0.19451  0.79435  0.15562  Biso   1.000  C
  C1849    1.0000 0.42424  0.56191  0.28429  Biso   1.000  C
  H1716    1.0000 0.41203  0.44402  0.19399  Biso   1.000  H
  C1850    1.0000 0.42423  0.56185  0.28429  Biso   1.000  C
  H1717    1.0000 0.41202  0.44395  0.19399  Biso   1.000  H
  C1851    1.0000 0.52473  0.55861  0.40398  Biso   1.000  C
  C1852    1.0000 0.52473  0.55854  0.40398  Biso   1.000  C
  H1718    1.0000 0.59003  0.43799  0.40600  Biso   1.000  H
  H1719    1.0000 0.59002  0.43792  0.40600  Biso   1.000  H
  H1720    1.0000 0.68903  0.94903  0.67603  Biso   1.000  H
  C1853    1.0000 0.78572  0.87253  0.71119  Biso   1.000  C
  H1721    1.0000 0.68909  0.94897  0.67603  Biso   1.000  H
  C1854    1.0000 0.78579  0.87246  0.71119  Biso   1.000  C
  H1722    1.0000 0.68902  0.94897  0.67603  Biso   1.000  H
  C1855    1.0000 0.78572  0.87246  0.71119  Biso   1.000  C
  H1723    1.0000 0.80103  0.00397  0.69399  Biso   1.000  H
  H1724    1.0000 0.24605  0.66399  0.73397  Biso   1.000  H
  H1725    1.0000 0.24606  0.66394  0.73403  Biso   1.000  H
  H1726    1.0000 0.24606  0.66401  0.73403  Biso   1.000  H
  H1727    1.0000 0.46207  0.79498  0.84200  Biso   1.000  H
  C1856    1.0000 0.42397  0.65718  0.80720  Biso   1.000  C
  C1857    1.0000 0.42397  0.65712  0.80720  Biso   1.000  C
  H1728    1.0000 0.32709  0.96504  0.92302  Biso   1.000  H
  H1729    1.0000 0.32709  0.96497  0.92302  Biso   1.000  H
  H1730    1.0000 0.43108  0.03492  0.93599  Biso   1.000  H
  H1731    1.0000 0.43109  0.03499  0.93599  Biso   1.000  H
  O347     1.0000 0.98586  0.85685  0.65372  Biso   1.000  O
  O348     1.0000 0.98585  0.85678  0.65372  Biso   1.000  O
  H1732    1.0000 0.07108  0.94601  0.73599  Biso   1.000  H
  H1733    1.0000 0.03802  0.98299  0.64599  Biso   1.000  H
  H1734    1.0000 0.07108  0.94595  0.73599  Biso   1.000  H
  H1735    1.0000 0.03808  0.98293  0.64599  Biso   1.000  H
  H1736    1.0000 0.07101  0.94595  0.73599  Biso   1.000  H
  H1737    1.0000 0.03808  0.98299  0.64599  Biso   1.000  H
  C1858    1.0000 0.02987  0.71749  0.69447  Biso   1.000  C
  C1859    1.0000 0.02987  0.71743  0.69453  Biso   1.000  C
  C1860    1.0000 0.02980  0.71749  0.69447  Biso   1.000  C
  C1861    1.0000 0.02988  0.71750  0.69453  Biso   1.000  C
  H1738    1.0000 0.08603  0.75000  0.59197  Biso   1.000  H
  C1862    1.0000 0.11513  0.62244  0.60250  Biso   1.000  C
  H1739    1.0000 0.08603  0.74995  0.59203  Biso   1.000  H
  C1863    1.0000 0.11512  0.62237  0.60250  Biso   1.000  C
  H1740    1.0000 0.08604  0.75001  0.59203  Biso   1.000  H
  C1864    1.0000 0.92523  0.73510  0.16722  Biso   1.000  C
  H1741    1.0000 0.89603  0.78501  0.28798  Biso   1.000  H
  H1742    1.0000 0.98803  0.84701  0.25901  Biso   1.000  H
  H1743    1.0000 0.89604  0.78502  0.28804  Biso   1.000  H
  C1865    1.0000 0.12308  0.62747  0.01707  Biso   1.000  C
  C1866    1.0000 0.12308  0.62748  0.01713  Biso   1.000  C
  C1867    1.0000 0.12308  0.62754  0.01707  Biso   1.000  C
  C1868    1.0000 0.12309  0.62755  0.01713  Biso   1.000  C
  H1744    1.0000 0.23903  0.61600  0.09798  Biso   1.000  H
  C1869    1.0000 0.23980  0.51377  0.00071  Biso   1.000  C
  H1745    1.0000 0.23904  0.61601  0.09804  Biso   1.000  H
  C1870    1.0000 0.23980  0.51384  0.00071  Biso   1.000  C
  H1746    1.0000 0.29004  0.62202  0.89602  Biso   1.000  H
  H1747    1.0000 0.29003  0.62195  0.89602  Biso   1.000  H
  O349     1.0000 0.13212  0.71589  0.14640  Biso   1.000  O
  O350     1.0000 0.13212  0.71596  0.14640  Biso   1.000  O
  H1748    1.0000 0.17498  0.83202  0.10999  Biso   1.000  H
  H1749    1.0000 0.19303  0.83499  0.21303  Biso   1.000  H
  H1750    1.0000 0.17505  0.83202  0.10999  Biso   1.000  H
  H1751    1.0000 0.19303  0.83506  0.21303  Biso   1.000  H
  H1752    1.0000 0.37802  0.59601  0.25003  Biso   1.000  H
  C1871    1.0000 0.46496  0.60319  0.36008  Biso   1.000  C
  C1872    1.0000 0.46497  0.60320  0.36014  Biso   1.000  C
  C1873    1.0000 0.46496  0.60314  0.36014  Biso   1.000  C
  H1753    1.0000 0.37801  0.59594  0.25003  Biso   1.000  H
  H1754    1.0000 0.55603  0.59097  0.46299  Biso   1.000  H
  H1755    1.0000 0.55603  0.59103  0.46299  Biso   1.000  H
  H1756    1.0000 0.73506  0.82601  0.72802  Biso   1.000  H
  H1757    1.0000 0.79702  0.84900  0.65098  Biso   1.000  H
  O351     1.0000 0.86774  0.87400  0.76068  Biso   1.000  O
  H1758    1.0000 0.73505  0.82594  0.72802  Biso   1.000  H
  H1759    1.0000 0.79701  0.84894  0.65098  Biso   1.000  H
  O352     1.0000 0.86774  0.87395  0.76074  Biso   1.000  O
  O353     1.0000 0.86774  0.87393  0.76068  Biso   1.000  O
  O354     1.0000 0.86775  0.87401  0.76074  Biso   1.000  O
  H1760    1.0000 0.36301  0.61200  0.78799  Biso   1.000  H
  H1761    1.0000 0.46602  0.63200  0.85199  Biso   1.000  H
  C1874    1.0000 0.47416  0.66709  0.73683  Biso   1.000  C
  H1762    1.0000 0.36308  0.61193  0.78799  Biso   1.000  H
  H1763    1.0000 0.46608  0.63193  0.85199  Biso   1.000  H
  C1875    1.0000 0.47415  0.66703  0.73683  Biso   1.000  C
  H1764    1.0000 0.36301  0.61193  0.78799  Biso   1.000  H
  H1765    1.0000 0.36308  0.61200  0.78799  Biso   1.000  H
  H1766    1.0000 0.46609  0.63200  0.85199  Biso   1.000  H
  C1876    1.0000 0.97803  0.79011  0.69911  Biso   1.000  C
  C1877    1.0000 0.97802  0.79004  0.69911  Biso   1.000  C
  C1878    1.0000 0.01537  0.65160  0.74111  Biso   1.000  C
  C1879    1.0000 0.01537  0.65154  0.74111  Biso   1.000  C
  H1767    1.0000 0.13707  0.58500  0.64801  Biso   1.000  H
  H1768    1.0000 0.05103  0.59104  0.57002  Biso   1.000  H
  C1880    1.0000 0.18656  0.62421  0.54420  Biso   1.000  C
  H1769    1.0000 0.13707  0.58494  0.64801  Biso   1.000  H
  H1770    1.0000 0.05103  0.59098  0.57002  Biso   1.000  H
  C1881    1.0000 0.18655  0.62414  0.54420  Biso   1.000  C
  O355     1.0000 0.96490  0.77363  0.10529  Biso   1.000  O
  H1771    1.0000 0.96604  0.68501  0.18602  Biso   1.000  H
  H1772    1.0000 0.85703  0.70401  0.14497  Biso   1.000  H
  H1773    1.0000 0.85704  0.70402  0.14503  Biso   1.000  H
  H1774    1.0000 0.96597  0.68501  0.18602  Biso   1.000  H
  H1775    1.0000 0.85696  0.70401  0.14497  Biso   1.000  H
  C1882    1.0000 0.08470  0.68681  0.07162  Biso   1.000  C
  C1883    1.0000 0.07443  0.59122  0.94289  Biso   1.000  C
  C1884    1.0000 0.07449  0.59116  0.94289  Biso   1.000  C
  C1885    1.0000 0.07442  0.59116  0.94289  Biso   1.000  C
  H1776    1.0000 0.23609  0.50503  0.93700  Biso   1.000  H
  H1777    1.0000 0.23608  0.50497  0.93700  Biso   1.000  H
  H1778    1.0000 0.19003  0.46602  0.01701  Biso   1.000  H
  C1886    1.0000 0.33442  0.49788  0.03551  Biso   1.000  C
  C1887    1.0000 0.33442  0.49794  0.03551  Biso   1.000  C
  H1779    1.0000 0.45003  0.67001  0.38501  Biso   1.000  H
  H1780    1.0000 0.45002  0.66994  0.38501  Biso   1.000  H
  C1888    1.0000 0.91175  0.79672  0.75039  Biso   1.000  C
  C1889    1.0000 0.91174  0.79665  0.75039  Biso   1.000  C
  H1781    1.0000 0.43201  0.69200  0.69197  Biso   1.000  H
  H1782    1.0000 0.53602  0.71200  0.75598  Biso   1.000  H
  C1890    1.0000 0.49687  0.56884  0.70393  Biso   1.000  C
  H1783    1.0000 0.43208  0.69195  0.69203  Biso   1.000  H
  H1784    1.0000 0.53608  0.71193  0.75598  Biso   1.000  H
  C1891    1.0000 0.49686  0.56877  0.70393  Biso   1.000  C
  H1785    1.0000 0.43200  0.69194  0.69197  Biso   1.000  H
  H1786    1.0000 0.53602  0.71193  0.75598  Biso   1.000  H
  H1787    1.0000 0.43209  0.69202  0.69203  Biso   1.000  H
  C1892    1.0000 0.94903  0.65833  0.79233  Biso   1.000  C
  C1893    1.0000 0.94909  0.65826  0.79233  Biso   1.000  C
  C1894    1.0000 0.94902  0.65826  0.79233  Biso   1.000  C
  H1788    1.0000 0.05504  0.59499  0.73700  Biso   1.000  H
  H1789    1.0000 0.05503  0.59492  0.73700  Biso   1.000  H
  H1790    1.0000 0.25106  0.65302  0.57799  Biso   1.000  H
  H1791    1.0000 0.16603  0.66603  0.50203  Biso   1.000  H
  C1895    1.0000 0.19931  0.53250  0.49953  Biso   1.000  C
  H1792    1.0000 0.25105  0.65295  0.57799  Biso   1.000  H
  H1793    1.0000 0.16603  0.66596  0.50203  Biso   1.000  H
  C1896    1.0000 0.19937  0.53243  0.49953  Biso   1.000  C
  C1897    1.0000 0.19937  0.53250  0.49953  Biso   1.000  C
  C1898    1.0000 0.99753  0.70971  0.05199  Biso   1.000  C
  C1899    1.0000 0.98727  0.61420  0.92332  Biso   1.000  C
  C1900    1.0000 0.98726  0.61413  0.92332  Biso   1.000  C
  H1794    1.0000 0.10406  0.54500  0.90101  Biso   1.000  H
  H1795    1.0000 0.10405  0.54493  0.90101  Biso   1.000  H
  H1796    1.0000 0.33398  0.50100  0.09899  Biso   1.000  H
  H1797    1.0000 0.38100  0.55198  0.02600  Biso   1.000  H
  C1901    1.0000 0.36997  0.41152  0.00410  Biso   1.000  C
  H1798    1.0000 0.38100  0.55205  0.02600  Biso   1.000  H
  C1902    1.0000 0.89723  0.73081  0.79691  Biso   1.000  C
  C1903    1.0000 0.89723  0.73074  0.79691  Biso   1.000  C
  C1904    1.0000 0.55674  0.52410  0.74771  Biso   1.000  C
  C1905    1.0000 0.45611  0.52741  0.62802  Biso   1.000  C
  C1906    1.0000 0.55674  0.52403  0.74771  Biso   1.000  C
  C1907    1.0000 0.45617  0.52734  0.62802  Biso   1.000  C
  C1908    1.0000 0.45618  0.52741  0.62802  Biso   1.000  C
  C1909    1.0000 0.92426  0.58573  0.84569  Biso   1.000  C
  C1910    1.0000 0.92426  0.58566  0.84569  Biso   1.000  C
  C1911    1.0000 0.13980  0.45511  0.49590  Biso   1.000  C
  C1912    1.0000 0.27790  0.52740  0.46282  Biso   1.000  C
  C1913    1.0000 0.13986  0.45504  0.49590  Biso   1.000  C
  C1914    1.0000 0.27796  0.52734  0.46282  Biso   1.000  C
  C1915    1.0000 0.13987  0.45511  0.49590  Biso   1.000  C
  C1916    1.0000 0.27796  0.52740  0.46282  Biso   1.000  C
  C1917    1.0000 0.94888  0.67353  0.97781  Biso   1.000  C
  C1918    1.0000 0.94888  0.67346  0.97781  Biso   1.000  C
  C1919    1.0000 0.41105  0.41283  0.93510  Biso   1.000  C
  C1920    1.0000 0.41104  0.41276  0.93510  Biso   1.000  C
  C1921    1.0000 0.36339  0.33320  0.03688  Biso   1.000  C
  O356     1.0000 0.82286  0.73951  0.84319  Biso   1.000  O
  O357     1.0000 0.82286  0.73944  0.84319  Biso   1.000  O
  C1922    1.0000 0.57583  0.43809  0.71571  Biso   1.000  C
  H1799    1.0000 0.58804  0.55598  0.80601  Biso   1.000  H
  C1923    1.0000 0.57583  0.43802  0.71571  Biso   1.000  C
  H1800    1.0000 0.58803  0.55592  0.80601  Biso   1.000  H
  C1924    1.0000 0.47534  0.44139  0.59602  Biso   1.000  C
  H1801    1.0000 0.41004  0.56201  0.59400  Biso   1.000  H
  C1925    1.0000 0.47533  0.44133  0.59602  Biso   1.000  C
  H1802    1.0000 0.41004  0.56194  0.59400  Biso   1.000  H
  H1803    1.0000 0.85404  0.58100  0.85598  Biso   1.000  H
  C1926    1.0000 0.94947  0.49138  0.80072  Biso   1.000  C
  H1804    1.0000 0.85405  0.58095  0.85604  Biso   1.000  H
  H1805    1.0000 0.85404  0.58094  0.85598  Biso   1.000  H
  C1927    1.0000 0.15903  0.37264  0.45563  Biso   1.000  C
  H1806    1.0000 0.07904  0.45904  0.52398  Biso   1.000  H
  C1928    1.0000 0.15902  0.37258  0.45563  Biso   1.000  C
  H1807    1.0000 0.07905  0.45899  0.52404  Biso   1.000  H
  H1808    1.0000 0.07904  0.45898  0.52398  Biso   1.000  H
  C1929    1.0000 0.29711  0.44492  0.42249  Biso   1.000  C
  H1809    1.0000 0.32403  0.58700  0.46598  Biso   1.000  H
  C1930    1.0000 0.29711  0.44486  0.42249  Biso   1.000  C
  H1810    1.0000 0.32403  0.58695  0.46604  Biso   1.000  H
  H1811    1.0000 0.32404  0.58702  0.46604  Biso   1.000  H
  O358     1.0000 0.86263  0.69627  0.96978  Biso   1.000  O
  O359     1.0000 0.86264  0.69622  0.96984  Biso   1.000  O
  O360     1.0000 0.86264  0.69628  0.96984  Biso   1.000  O
  C1931    1.0000 0.44536  0.33589  0.89887  Biso   1.000  C
  H1812    1.0000 0.41605  0.47303  0.90999  Biso   1.000  H
  C1932    1.0000 0.44536  0.33584  0.89893  Biso   1.000  C
  H1813    1.0000 0.41604  0.47297  0.90999  Biso   1.000  H
  C1933    1.0000 0.44536  0.33590  0.89893  Biso   1.000  C
  C1934    1.0000 0.39778  0.25622  0.00077  Biso   1.000  C
  H1814    1.0000 0.33197  0.33197  0.09001  Biso   1.000  H
  C1935    1.0000 0.39779  0.25623  0.00083  Biso   1.000  C
  H1815    1.0000 0.33204  0.33204  0.09001  Biso   1.000  H
  H1816    1.0000 0.33197  0.33204  0.09001  Biso   1.000  H
  C1936    1.0000 0.84787  0.77003  0.92731  Biso   1.000  C
  C1937    1.0000 0.84786  0.76996  0.92731  Biso   1.000  C
  C1938    1.0000 0.53511  0.39681  0.63992  Biso   1.000  C
  H1817    1.0000 0.62205  0.40399  0.74997  Biso   1.000  H
  C1939    1.0000 0.53517  0.39674  0.63992  Biso   1.000  C
  H1818    1.0000 0.62205  0.40394  0.75003  Biso   1.000  H
  C1940    1.0000 0.53518  0.39681  0.63992  Biso   1.000  C
  H1819    1.0000 0.62206  0.40401  0.75003  Biso   1.000  H
  H1820    1.0000 0.44404  0.40903  0.53701  Biso   1.000  H
  H1821    1.0000 0.44404  0.40897  0.53701  Biso   1.000  H
  H1822    1.0000 0.94805  0.44201  0.83998  Biso   1.000  H
  C1941    1.0000 0.87374  0.45938  0.72558  Biso   1.000  C
  H1823    1.0000 0.94805  0.44195  0.84004  Biso   1.000  H
  H1824    1.0000 0.94804  0.44194  0.83998  Biso   1.000  H
  H1825    1.0000 0.01607  0.49902  0.78198  Biso   1.000  H
  H1826    1.0000 0.01607  0.49896  0.78204  Biso   1.000  H
  H1827    1.0000 0.01606  0.49895  0.78198  Biso   1.000  H
  C1942    1.0000 0.23775  0.36755  0.41892  Biso   1.000  C
  H1828    1.0000 0.11303  0.31302  0.45301  Biso   1.000  H
  C1943    1.0000 0.23774  0.36749  0.41892  Biso   1.000  C
  H1829    1.0000 0.11302  0.31295  0.45301  Biso   1.000  H
  H1830    1.0000 0.35802  0.44104  0.39400  Biso   1.000  H
  H1831    1.0000 0.35802  0.44097  0.39400  Biso   1.000  H
  C1944    1.0000 0.43874  0.25761  0.93183  Biso   1.000  C
  H1832    1.0000 0.47701  0.33697  0.84497  Biso   1.000  H
  C1945    1.0000 0.43873  0.25754  0.93183  Biso   1.000  C
  H1833    1.0000 0.47708  0.33698  0.84503  Biso   1.000  H
  H1834    1.0000 0.39300  0.19598  0.02600  Biso   1.000  H
  H1835    1.0000 0.39300  0.19604  0.02600  Biso   1.000  H
  H1836    1.0000 0.91008  0.81499  0.93700  Biso   1.000  H
  H1837    1.0000 0.79408  0.80499  0.95098  Biso   1.000  H
  H1838    1.0000 0.91007  0.81493  0.93700  Biso   1.000  H
  H1839    1.0000 0.79407  0.80492  0.95098  Biso   1.000  H
  H1840    1.0000 0.55004  0.32999  0.61499  Biso   1.000  H
  H1841    1.0000 0.55003  0.32992  0.61499  Biso   1.000  H
  H1842    1.0000 0.87204  0.51201  0.69001  Biso   1.000  H
  H1843    1.0000 0.80803  0.44803  0.74599  Biso   1.000  H
  C1946    1.0000 0.89375  0.37264  0.67442  Biso   1.000  C
  H1844    1.0000 0.87203  0.51195  0.69001  Biso   1.000  H
  H1845    1.0000 0.80802  0.44796  0.74599  Biso   1.000  H
  C1947    1.0000 0.89374  0.37257  0.67442  Biso   1.000  C
  H1846    1.0000 0.25301  0.30401  0.38799  Biso   1.000  H
  H1847    1.0000 0.25301  0.30395  0.38799  Biso   1.000  H
  H1848    1.0000 0.46507  0.19802  0.90399  Biso   1.000  H
  H1849    1.0000 0.46506  0.19795  0.90399  Biso   1.000  H
  C1948    1.0000 0.82972  0.29721  0.66282  Biso   1.000  C
  C1949    1.0000 0.97343  0.36781  0.63933  Biso   1.000  C
  C1950    1.0000 0.82978  0.29714  0.66282  Biso   1.000  C
  C1951    1.0000 0.97343  0.36774  0.63933  Biso   1.000  C
  C1952    1.0000 0.84545  0.21701  0.61613  Biso   1.000  C
  H1850    1.0000 0.76803  0.30102  0.69001  Biso   1.000  H
  C1953    1.0000 0.84544  0.21694  0.61613  Biso   1.000  C
  H1851    1.0000 0.76803  0.30096  0.69001  Biso   1.000  H
  C1954    1.0000 0.98915  0.28758  0.59251  Biso   1.000  C
  H1852    1.0000 0.02303  0.42602  0.64801  Biso   1.000  H
  H1853    1.0000 0.02302  0.42595  0.64801  Biso   1.000  H
  C1955    1.0000 0.92512  0.21222  0.58091  Biso   1.000  C
  H1854    1.0000 0.79602  0.15904  0.60702  Biso   1.000  H
  C1956    1.0000 0.92512  0.21215  0.58091  Biso   1.000  C
  H1855    1.0000 0.79602  0.15898  0.60702  Biso   1.000  H
  H1856    1.0000 0.05102  0.28404  0.56503  Biso   1.000  H
  H1857    1.0000 0.05101  0.28397  0.56503  Biso   1.000  H
  H1858    1.0000 0.93705  0.14998  0.54498  Biso   1.000  H
  H1859    1.0000 0.93706  0.14999  0.54504  Biso   1.000  H
  H1860    1.0000 0.93699  0.14998  0.54498  Biso   1.000  H
  C1957    1.0000 0.15220  0.22997  0.07269  Biso   1.000  C
  O361     1.0000 0.17720  0.26049  0.15681  Biso   1.000  O
  O362     1.0000 0.13743  0.30373  0.03022  Biso   1.000  O
  O363     1.0000 0.13743  0.30366  0.03022  Biso   1.000  O
  H1861    1.0000 0.08999  0.18501  0.06300  Biso   1.000  H
  H1862    1.0000 0.20599  0.19501  0.04902  Biso   1.000  H
  H1863    1.0000 0.20605  0.19501  0.04902  Biso   1.000  H
  H1864    1.0000 0.08998  0.18494  0.06300  Biso   1.000  H
  H1865    1.0000 0.20598  0.19494  0.04902  Biso   1.000  H
  C1958    1.0000 0.10283  0.26919  0.20309  Biso   1.000  C
  C1959    1.0000 0.10283  0.26913  0.20309  Biso   1.000  C
  C1960    1.0000 0.15221  0.23004  0.07269  Biso   1.000  C
  C1961    1.0000 0.05118  0.32647  0.02219  Biso   1.000  C
  C1962    1.0000 0.05119  0.32654  0.02219  Biso   1.000  C
  C1963    1.0000 0.05104  0.34167  0.20767  Biso   1.000  C
  C1964    1.0000 0.05105  0.34168  0.20773  Biso   1.000  C
  C1965    1.0000 0.05105  0.34174  0.20767  Biso   1.000  C
  C1966    1.0000 0.08832  0.20328  0.24961  Biso   1.000  C
  C1967    1.0000 0.08833  0.20335  0.24961  Biso   1.000  C
  C1968    1.0000 0.00253  0.29023  0.94801  Biso   1.000  C
  C1969    1.0000 0.00260  0.29023  0.94801  Biso   1.000  C
  C1970    1.0000 0.00254  0.29029  0.94801  Biso   1.000  C
  C1971    1.0000 0.00261  0.29029  0.94801  Biso   1.000  C
  C1972    1.0000 0.01280  0.38580  0.07668  Biso   1.000  C
  C1973    1.0000 0.01281  0.38581  0.07674  Biso   1.000  C
  C1974    1.0000 0.01280  0.38575  0.07674  Biso   1.000  C
  C1975    1.0000 0.98469  0.34840  0.25889  Biso   1.000  C
  C1976    1.0000 0.98476  0.34840  0.25889  Biso   1.000  C
  C1977    1.0000 0.98475  0.34833  0.25889  Biso   1.000  C
  C1978    1.0000 0.07580  0.41427  0.15431  Biso   1.000  C
  C1979    1.0000 0.07581  0.41434  0.15431  Biso   1.000  C
  C1980    1.0000 0.02204  0.20989  0.30089  Biso   1.000  C
  O364     1.0000 0.13233  0.12600  0.23932  Biso   1.000  O
  O365     1.0000 0.13232  0.12593  0.23932  Biso   1.000  O
  C1981    1.0000 0.91536  0.31312  0.92838  Biso   1.000  C
  C1982    1.0000 0.91537  0.31314  0.92844  Biso   1.000  C
  C1983    1.0000 0.91537  0.31319  0.92838  Biso   1.000  C
  C1984    1.0000 0.91537  0.31320  0.92844  Biso   1.000  C
  O366     1.0000 0.03516  0.22631  0.89471  Biso   1.000  O
  O367     1.0000 0.03517  0.22637  0.89471  Biso   1.000  O
  C1985    1.0000 0.92564  0.40878  0.05711  Biso   1.000  C
  C1986    1.0000 0.92565  0.40884  0.05711  Biso   1.000  C
  C1987    1.0000 0.97020  0.28251  0.30553  Biso   1.000  C
  C1988    1.0000 0.97026  0.28251  0.30553  Biso   1.000  C
  C1989    1.0000 0.97026  0.28245  0.30553  Biso   1.000  C
  H1866    1.0000 0.94503  0.40501  0.26300  Biso   1.000  H
  H1867    1.0000 0.94502  0.40495  0.26300  Biso   1.000  H
  H1868    1.0000 0.14602  0.41900  0.14402  Biso   1.000  H
  C1990    1.0000 0.05059  0.50862  0.19928  Biso   1.000  C
  C1991    1.0000 0.05066  0.50862  0.19928  Biso   1.000  C
  C1992    1.0000 0.05066  0.50856  0.19928  Biso   1.000  C
  O368     1.0000 0.01421  0.14315  0.34628  Biso   1.000  O
  O369     1.0000 0.01422  0.14323  0.34634  Biso   1.000  O
  O370     1.0000 0.01422  0.14322  0.34628  Biso   1.000  O
  O371     1.0000 0.01422  0.14317  0.34634  Biso   1.000  O
  C1993    1.0000 0.21434  0.12747  0.28881  Biso   1.000  C
  C1994    1.0000 0.21435  0.12754  0.28881  Biso   1.000  C
  O372     1.0000 0.86795  0.28404  0.85360  Biso   1.000  O
  C1995    1.0000 0.87699  0.37246  0.98293  Biso   1.000  C
  C1996    1.0000 0.07483  0.26483  0.83278  Biso   1.000  C
  C1997    1.0000 0.07484  0.26484  0.83284  Biso   1.000  C
  C1998    1.0000 0.07484  0.26490  0.83278  Biso   1.000  C
  C1999    1.0000 0.07485  0.26491  0.83284  Biso   1.000  C
  H1869    1.0000 0.89601  0.45500  0.09899  Biso   1.000  H
  H1870    1.0000 0.89601  0.45494  0.09899  Biso   1.000  H
  C2000    1.0000 0.89631  0.28260  0.35800  Biso   1.000  C
  C2001    1.0000 0.89631  0.28254  0.35800  Biso   1.000  C
  H1871    1.0000 0.98400  0.50098  0.21802  Biso   1.000  H
  H1872    1.0000 0.98407  0.50098  0.21802  Biso   1.000  H
  H1873    1.0000 0.98401  0.50105  0.21802  Biso   1.000  H
  H1874    1.0000 0.05202  0.55799  0.16002  Biso   1.000  H
  C2002    1.0000 0.12633  0.54062  0.27442  Biso   1.000  C
  H1875    1.0000 0.05203  0.55806  0.16002  Biso   1.000  H
  C2003    1.0000 0.12632  0.54056  0.27442  Biso   1.000  C
  C2004    1.0000 0.94100  0.07307  0.32778  Biso   1.000  C
  C2005    1.0000 0.94101  0.07308  0.32784  Biso   1.000  C
  C2006    1.0000 0.94101  0.07314  0.32778  Biso   1.000  C
  C2007    1.0000 0.24700  0.04259  0.28578  Biso   1.000  C
  H1876    1.0000 0.26501  0.17399  0.27198  Biso   1.000  H
  H1877    1.0000 0.20305  0.15100  0.34902  Biso   1.000  H
  C2008    1.0000 0.24701  0.04260  0.28584  Biso   1.000  C
  H1878    1.0000 0.26502  0.17400  0.27204  Biso   1.000  H
  C2009    1.0000 0.24700  0.04253  0.28584  Biso   1.000  C
  H1879    1.0000 0.26501  0.17394  0.27204  Biso   1.000  H
  H1880    1.0000 0.20304  0.15093  0.34902  Biso   1.000  H
  C2010    1.0000 0.80556  0.20565  0.84438  Biso   1.000  C
  C2011    1.0000 0.80557  0.20566  0.84444  Biso   1.000  C
  C2012    1.0000 0.77869  0.38697  0.96502  Biso   1.000  C
  C2013    1.0000 0.07908  0.18777  0.76050  Biso   1.000  C
  H1881    1.0000 0.03402  0.31492  0.81398  Biso   1.000  H
  H1882    1.0000 0.14303  0.29593  0.85503  Biso   1.000  H
  H1883    1.0000 0.03409  0.31492  0.81398  Biso   1.000  H
  H1884    1.0000 0.14310  0.29593  0.85503  Biso   1.000  H
  H1885    1.0000 0.03403  0.31499  0.81398  Biso   1.000  H
  H1886    1.0000 0.14304  0.29599  0.85503  Biso   1.000  H
  H1887    1.0000 0.03409  0.31499  0.81398  Biso   1.000  H
  H1888    1.0000 0.14310  0.29599  0.85503  Biso   1.000  H
  C2014    1.0000 0.80903  0.22468  0.31041  Biso   1.000  C
  C2015    1.0000 0.80904  0.22475  0.31041  Biso   1.000  C
  H1889    1.0000 0.91404  0.25000  0.40803  Biso   1.000  H
  C2016    1.0000 0.88494  0.37756  0.39750  Biso   1.000  C
  C2017    1.0000 0.88495  0.37763  0.39750  Biso   1.000  C
  H1890    1.0000 0.91403  0.24993  0.40803  Biso   1.000  H
  H1891    1.0000 0.12803  0.48799  0.30999  Biso   1.000  H
  H1892    1.0000 0.19204  0.55197  0.25401  Biso   1.000  H
  C2018    1.0000 0.10632  0.62736  0.32558  Biso   1.000  C
  C2019    1.0000 0.10633  0.62737  0.32564  Biso   1.000  C
  H1893    1.0000 0.19204  0.55204  0.25401  Biso   1.000  H
  C2020    1.0000 0.10633  0.62743  0.32558  Biso   1.000  C
  O373     1.0000 0.86003  0.09396  0.35419  Biso   1.000  O
  O374     1.0000 0.86004  0.09402  0.35419  Biso   1.000  O
  H1894    1.0000 0.92898  0.05399  0.26401  Biso   1.000  H
  H1895    1.0000 0.96205  0.01701  0.35401  Biso   1.000  H
  H1896    1.0000 0.92905  0.05399  0.26401  Biso   1.000  H
  H1897    1.0000 0.92899  0.05405  0.26401  Biso   1.000  H
  H1898    1.0000 0.96204  0.01694  0.35401  Biso   1.000  H
  H1899    1.0000 0.19903  0.99597  0.30601  Biso   1.000  H
  H1900    1.0000 0.19904  0.99603  0.30601  Biso   1.000  H
  O375     1.0000 0.26472  0.00780  0.20279  Biso   1.000  O
  H1901    1.0000 0.31104  0.05097  0.32397  Biso   1.000  H
  H1902    1.0000 0.31105  0.05098  0.32403  Biso   1.000  H
  H1903    1.0000 0.31104  0.05103  0.32397  Biso   1.000  H
  O376     1.0000 0.26471  0.00773  0.20279  Biso   1.000  O
  O377     1.0000 0.71604  0.22832  0.85128  Biso   1.000  O
  O378     1.0000 0.71605  0.22833  0.85134  Biso   1.000  O
  O379     1.0000 0.71605  0.22839  0.85128  Biso   1.000  O
  O380     1.0000 0.71605  0.22840  0.85134  Biso   1.000  O
  H1904    1.0000 0.82508  0.16791  0.89001  Biso   1.000  H
  H1905    1.0000 0.80703  0.16494  0.78697  Biso   1.000  H
  H1906    1.0000 0.80704  0.16495  0.78703  Biso   1.000  H
  H1907    1.0000 0.82509  0.16798  0.89001  Biso   1.000  H
  C2021    1.0000 0.71964  0.31085  0.98519  Biso   1.000  C
  C2022    1.0000 0.71971  0.31085  0.98519  Biso   1.000  C
  H1908    1.0000 0.76103  0.38394  0.90202  Biso   1.000  H
  C2023    1.0000 0.76026  0.48616  0.99929  Biso   1.000  C
  H1909    1.0000 0.76110  0.38394  0.90202  Biso   1.000  H
  H1910    1.0000 0.76104  0.38400  0.90202  Biso   1.000  H
  H1911    1.0000 0.76111  0.38400  0.90202  Biso   1.000  H
  O381     1.0000 0.13836  0.12613  0.78668  Biso   1.000  O
  H1912    1.0000 0.10403  0.21492  0.71202  Biso   1.000  H
  H1913    1.0000 0.01204  0.15292  0.74099  Biso   1.000  H
  O382     1.0000 0.13837  0.12614  0.78674  Biso   1.000  O
  O383     1.0000 0.13837  0.12619  0.78668  Biso   1.000  O
  H1914    1.0000 0.10403  0.21499  0.71202  Biso   1.000  H
  H1915    1.0000 0.01204  0.15299  0.74099  Biso   1.000  H
  O384     1.0000 0.13838  0.12621  0.78674  Biso   1.000  O
  C2024    1.0000 0.74704  0.26380  0.26341  Biso   1.000  C
  C2025    1.0000 0.74703  0.26373  0.26341  Biso   1.000  C
  C2026    1.0000 0.79993  0.13157  0.30731  Biso   1.000  C
  C2027    1.0000 0.79994  0.13164  0.30731  Biso   1.000  C
  H1916    1.0000 0.86300  0.41500  0.35199  Biso   1.000  H
  H1917    1.0000 0.94904  0.40896  0.42998  Biso   1.000  H
  C2028    1.0000 0.81351  0.37579  0.45580  Biso   1.000  C
  H1918    1.0000 0.86306  0.41500  0.35199  Biso   1.000  H
  H1919    1.0000 0.94904  0.40897  0.43004  Biso   1.000  H
  C2029    1.0000 0.81358  0.37579  0.45580  Biso   1.000  C
  H1920    1.0000 0.94904  0.40902  0.42998  Biso   1.000  H
  H1921    1.0000 0.86306  0.41493  0.35199  Biso   1.000  H
  C2030    1.0000 0.81357  0.37573  0.45580  Biso   1.000  C
  C2031    1.0000 0.17035  0.70279  0.33718  Biso   1.000  C
  C2032    1.0000 0.02663  0.63219  0.36067  Biso   1.000  C
  C2033    1.0000 0.17036  0.70281  0.33724  Biso   1.000  C
  C2034    1.0000 0.02664  0.63221  0.36073  Biso   1.000  C
  C2035    1.0000 0.17035  0.70274  0.33724  Biso   1.000  C
  C2036    1.0000 0.02663  0.63214  0.36073  Biso   1.000  C
  C2037    1.0000 0.34242  0.05550  0.18168  Biso   1.000  C
  C2038    1.0000 0.34243  0.05551  0.18174  Biso   1.000  C
  C2039    1.0000 0.34243  0.05544  0.18174  Biso   1.000  C
  C2040    1.0000 0.69435  0.23286  0.92850  Biso   1.000  C
  C2041    1.0000 0.69060  0.31719  0.06020  Biso   1.000  C
  C2042    1.0000 0.69060  0.31726  0.06020  Biso   1.000  C
  H1922    1.0000 0.81004  0.53392  0.98299  Biso   1.000  H
  C2043    1.0000 0.66564  0.50206  0.96449  Biso   1.000  C
  H1923    1.0000 0.81010  0.53392  0.98299  Biso   1.000  H
  C2044    1.0000 0.66571  0.50206  0.96449  Biso   1.000  C
  H1924    1.0000 0.81004  0.53398  0.98299  Biso   1.000  H
  H1925    1.0000 0.81011  0.53398  0.98299  Biso   1.000  H
  H1926    1.0000 0.76398  0.49497  0.06300  Biso   1.000  H
  H1927    1.0000 0.76405  0.49503  0.06300  Biso   1.000  H
  H1928    1.0000 0.76399  0.49503  0.06300  Biso   1.000  H
  H1929    1.0000 0.76405  0.49497  0.06300  Biso   1.000  H
  C2045    1.0000 0.22955  0.15442  0.79453  Biso   1.000  C
  C2046    1.0000 0.22955  0.15449  0.79453  Biso   1.000  C
  C2047    1.0000 0.67581  0.20987  0.21332  Biso   1.000  C
  C2048    1.0000 0.67582  0.20994  0.21332  Biso   1.000  C
  H1930    1.0000 0.75401  0.33601  0.26603  Biso   1.000  H
  H1931    1.0000 0.75401  0.33594  0.26603  Biso   1.000  H
  C2049    1.0000 0.72871  0.07771  0.25723  Biso   1.000  C
  C2050    1.0000 0.72870  0.07764  0.25723  Biso   1.000  C
  H1932    1.0000 0.74901  0.34698  0.42201  Biso   1.000  H
  H1933    1.0000 0.83403  0.33397  0.49797  Biso   1.000  H
  C2051    1.0000 0.80076  0.46750  0.50047  Biso   1.000  C
  H1934    1.0000 0.74907  0.34698  0.42201  Biso   1.000  H
  H1935    1.0000 0.83404  0.33399  0.49803  Biso   1.000  H
  C2052    1.0000 0.80077  0.46752  0.50053  Biso   1.000  C
  H1936    1.0000 0.74901  0.34705  0.42201  Biso   1.000  H
  H1937    1.0000 0.83404  0.33404  0.49797  Biso   1.000  H
  C2053    1.0000 0.80076  0.46745  0.50053  Biso   1.000  C
  C2054    1.0000 0.15462  0.78299  0.38387  Biso   1.000  C
  H1938    1.0000 0.23204  0.69898  0.30999  Biso   1.000  H
  C2055    1.0000 0.15463  0.78300  0.38393  Biso   1.000  C
  H1939    1.0000 0.23204  0.69904  0.30999  Biso   1.000  H
  C2056    1.0000 0.15462  0.78294  0.38393  Biso   1.000  C
  H1940    1.0000 0.97704  0.57398  0.35199  Biso   1.000  H
  C2057    1.0000 0.01092  0.71242  0.40749  Biso   1.000  C
  C2058    1.0000 0.01091  0.71235  0.40749  Biso   1.000  C
  C2059    1.0000 0.35432  0.99850  0.10220  Biso   1.000  C
  C2060    1.0000 0.35432  0.99856  0.10220  Biso   1.000  C
  H1941    1.0000 0.40102  0.05796  0.22498  Biso   1.000  H
  H1942    1.0000 0.33004  0.12297  0.17501  Biso   1.000  H
  H1943    1.0000 0.40103  0.05803  0.22498  Biso   1.000  H
  H1944    1.0000 0.33004  0.12303  0.17501  Biso   1.000  H
  C2061    1.0000 0.64008  0.16114  0.94682  Biso   1.000  C
  C2062    1.0000 0.64009  0.16120  0.94682  Biso   1.000  C
  C2063    1.0000 0.63633  0.24547  0.07852  Biso   1.000  C
  C2064    1.0000 0.63633  0.24554  0.07852  Biso   1.000  C
  H1945    1.0000 0.71003  0.37798  0.10398  Biso   1.000  H
  H1946    1.0000 0.71003  0.37805  0.10398  Biso   1.000  H
  H1947    1.0000 0.66608  0.49893  0.90101  Biso   1.000  H
  H1948    1.0000 0.61907  0.44795  0.97400  Biso   1.000  H
  C2065    1.0000 0.63009  0.58842  0.99590  Biso   1.000  C
  H1949    1.0000 0.66609  0.49900  0.90101  Biso   1.000  H
  C2066    1.0000 0.63010  0.58848  0.99590  Biso   1.000  C
  C2067    1.0000 0.27923  0.07664  0.81398  Biso   1.000  C
  H1950    1.0000 0.24801  0.17392  0.73998  Biso   1.000  H
  H1951    1.0000 0.24605  0.21093  0.84200  Biso   1.000  H
  H1952    1.0000 0.24809  0.17393  0.74004  Biso   1.000  H
  H1953    1.0000 0.24802  0.17398  0.73998  Biso   1.000  H
  H1954    1.0000 0.24605  0.21100  0.84200  Biso   1.000  H
  H1955    1.0000 0.24809  0.17399  0.74004  Biso   1.000  H
  C2068    1.0000 0.66673  0.11691  0.21029  Biso   1.000  C
  C2069    1.0000 0.66672  0.11684  0.21029  Biso   1.000  C
  C2070    1.0000 0.60071  0.24677  0.16068  Biso   1.000  C
  C2071    1.0000 0.60071  0.24679  0.16074  Biso   1.000  C
  C2072    1.0000 0.60071  0.24684  0.16068  Biso   1.000  C
  O385     1.0000 0.72301  0.98862  0.26282  Biso   1.000  O
  C2073    1.0000 0.86027  0.54489  0.50410  Biso   1.000  C
  C2074    1.0000 0.72217  0.47260  0.53718  Biso   1.000  C
  C2075    1.0000 0.72218  0.47261  0.53723  Biso   1.000  C
  C2076    1.0000 0.72210  0.47260  0.53718  Biso   1.000  C
  C2077    1.0000 0.86026  0.54482  0.50410  Biso   1.000  C
  C2078    1.0000 0.72217  0.47254  0.53723  Biso   1.000  C
  C2079    1.0000 0.07494  0.78778  0.41909  Biso   1.000  C
  H1956    1.0000 0.20404  0.84096  0.39298  Biso   1.000  H
  H1957    1.0000 0.20406  0.84103  0.39304  Biso   1.000  H
  H1958    1.0000 0.20405  0.84102  0.39298  Biso   1.000  H
  H1959    1.0000 0.20405  0.84097  0.39304  Biso   1.000  H
  H1960    1.0000 0.94905  0.71596  0.43497  Biso   1.000  H
  H1961    1.0000 0.94906  0.71597  0.43503  Biso   1.000  H
  H1962    1.0000 0.94905  0.71603  0.43497  Biso   1.000  H
  O386     1.0000 0.38514  0.91272  0.11332  Biso   1.000  O
  H1963    1.0000 0.29004  0.98602  0.06502  Biso   1.000  H
  H1964    1.0000 0.40303  0.03402  0.07299  Biso   1.000  H
  H1965    1.0000 0.40303  0.03395  0.07299  Biso   1.000  H
  C2080    1.0000 0.61098  0.16760  0.02177  Biso   1.000  C
  C2081    1.0000 0.61105  0.16761  0.02183  Biso   1.000  C
  C2082    1.0000 0.61098  0.16754  0.02183  Biso   1.000  C
  O387     1.0000 0.61492  0.08721  0.88668  Biso   1.000  O
  O388     1.0000 0.61500  0.08722  0.88674  Biso   1.000  O
  O389     1.0000 0.61493  0.08728  0.88668  Biso   1.000  O
  O390     1.0000 0.61500  0.08729  0.88674  Biso   1.000  O
  C2083    1.0000 0.63667  0.66673  0.96312  Biso   1.000  C
  C2084    1.0000 0.63667  0.66680  0.96312  Biso   1.000  C
  C2085    1.0000 0.58902  0.58717  0.06490  Biso   1.000  C
  C2086    1.0000 0.58902  0.58724  0.06490  Biso   1.000  C
  O391     1.0000 0.27705  0.01131  0.73718  Biso   1.000  O
  H1966    1.0000 0.24606  0.04393  0.85598  Biso   1.000  H
  H1967    1.0000 0.34904  0.09995  0.83801  Biso   1.000  H
  O392     1.0000 0.27705  0.01138  0.73718  Biso   1.000  O
  H1968    1.0000 0.24607  0.04394  0.85604  Biso   1.000  H
  H1969    1.0000 0.24607  0.04399  0.85598  Biso   1.000  H
  H1970    1.0000 0.24607  0.04400  0.85604  Biso   1.000  H
  O393     1.0000 0.59290  0.06090  0.16591  Biso   1.000  O
  H1971    1.0000 0.53800  0.20502  0.15800  Biso   1.000  H
  C2087    1.0000 0.57609  0.34282  0.19280  Biso   1.000  C
  C2088    1.0000 0.57616  0.34282  0.19280  Biso   1.000  C
  H1972    1.0000 0.53799  0.20496  0.15800  Biso   1.000  H
  C2089    1.0000 0.57615  0.34275  0.19280  Biso   1.000  C
  C2090    1.0000 0.72083  0.92329  0.18602  Biso   1.000  C
  C2091    1.0000 0.72084  0.92336  0.18602  Biso   1.000  C
  C2092    1.0000 0.84104  0.62736  0.54437  Biso   1.000  C
  H1973    1.0000 0.92102  0.54096  0.47602  Biso   1.000  H
  C2093    1.0000 0.84105  0.62737  0.54443  Biso   1.000  C
  H1974    1.0000 0.92103  0.54102  0.47602  Biso   1.000  H
  C2094    1.0000 0.84105  0.62742  0.54437  Biso   1.000  C
  C2095    1.0000 0.70295  0.55508  0.57751  Biso   1.000  C
  H1975    1.0000 0.67604  0.41300  0.53402  Biso   1.000  H
  C2096    1.0000 0.70296  0.55514  0.57751  Biso   1.000  C
  H1976    1.0000 0.67603  0.41293  0.53402  Biso   1.000  H
  H1977    1.0000 0.06301  0.85002  0.45502  Biso   1.000  H
  H1978    1.0000 0.06308  0.85002  0.45502  Biso   1.000  H
  H1979    1.0000 0.06307  0.84995  0.45502  Biso   1.000  H
  C2097    1.0000 0.35998  0.83880  0.05318  Biso   1.000  C
  O394     1.0000 0.55848  0.09418  0.03992  Biso   1.000  O
  O395     1.0000 0.55855  0.09418  0.03992  Biso   1.000  O
  O396     1.0000 0.55848  0.09425  0.03992  Biso   1.000  O
  C2098    1.0000 0.64575  0.00144  0.89780  Biso   1.000  C
  C2099    1.0000 0.64575  0.00150  0.89780  Biso   1.000  C
  C2100    1.0000 0.60228  0.74371  0.99923  Biso   1.000  C
  H1980    1.0000 0.66809  0.66796  0.90999  Biso   1.000  H
  C2101    1.0000 0.60229  0.74378  0.99923  Biso   1.000  C
  C2102    1.0000 0.55471  0.66411  0.10113  Biso   1.000  C
  H1981    1.0000 0.58402  0.52697  0.09001  Biso   1.000  H
  H1982    1.0000 0.58403  0.52703  0.09001  Biso   1.000  H
  C2103    1.0000 0.55470  0.66404  0.10113  Biso   1.000  C
  C2104    1.0000 0.27136  0.92229  0.74277  Biso   1.000  C
  C2105    1.0000 0.27136  0.92223  0.74283  Biso   1.000  C
  C2106    1.0000 0.27137  0.92230  0.74283  Biso   1.000  C
  C2107    1.0000 0.60178  0.03287  0.08459  Biso   1.000  C
  C2108    1.0000 0.60185  0.03293  0.08459  Biso   1.000  C
  C2109    1.0000 0.60178  0.03293  0.08459  Biso   1.000  C
  C2110    1.0000 0.60184  0.03287  0.08459  Biso   1.000  C
  H1983    1.0000 0.63705  0.38800  0.21201  Biso   1.000  H
  H1984    1.0000 0.53405  0.36800  0.14801  Biso   1.000  H
  C2111    1.0000 0.52591  0.33291  0.26317  Biso   1.000  C
  C2112    1.0000 0.52592  0.33292  0.26323  Biso   1.000  C
  H1985    1.0000 0.63699  0.38800  0.21201  Biso   1.000  H
  H1986    1.0000 0.63705  0.38794  0.21201  Biso   1.000  H
  H1987    1.0000 0.53404  0.36794  0.14801  Biso   1.000  H
  C2113    1.0000 0.52591  0.33285  0.26323  Biso   1.000  C
  C2114    1.0000 0.77051  0.84551  0.20547  Biso   1.000  C
  H1988    1.0000 0.75400  0.95601  0.14402  Biso   1.000  H
  H1989    1.0000 0.65102  0.89998  0.16199  Biso   1.000  H
  C2115    1.0000 0.77052  0.84552  0.20553  Biso   1.000  C
  H1990    1.0000 0.65103  0.90005  0.16199  Biso   1.000  H
  H1991    1.0000 0.88704  0.68698  0.54699  Biso   1.000  H
  C2116    1.0000 0.76232  0.63245  0.58108  Biso   1.000  C
  C2117    1.0000 0.76233  0.63253  0.58114  Biso   1.000  C
  C2118    1.0000 0.76232  0.63251  0.58108  Biso   1.000  C
  C2119    1.0000 0.76233  0.63246  0.58114  Biso   1.000  C
  H1992    1.0000 0.64204  0.55896  0.60600  Biso   1.000  H
  H1993    1.0000 0.64205  0.55903  0.60600  Biso   1.000  H
  C2120    1.0000 0.30571  0.76708  0.07150  Biso   1.000  C
  C2121    1.0000 0.30571  0.76714  0.07150  Biso   1.000  C
  C2122    1.0000 0.38909  0.83240  0.97823  Biso   1.000  C
  C2123    1.0000 0.38908  0.83234  0.97823  Biso   1.000  C
  H1994    1.0000 0.59703  0.96598  0.92701  Biso   1.000  H
  C2124    1.0000 0.65764  0.94450  0.81832  Biso   1.000  C
  H1995    1.0000 0.59710  0.96592  0.92701  Biso   1.000  H
  C2125    1.0000 0.65764  0.94444  0.81832  Biso   1.000  C
  H1996    1.0000 0.59710  0.96598  0.92701  Biso   1.000  H
  H1997    1.0000 0.71002  0.01391  0.93498  Biso   1.000  H
  H1998    1.0000 0.71010  0.01393  0.93504  Biso   1.000  H
  H1999    1.0000 0.71003  0.01398  0.93498  Biso   1.000  H
  H2000    1.0000 0.71011  0.01399  0.93504  Biso   1.000  H
  H2001    1.0000 0.60707  0.80396  0.97400  Biso   1.000  H
  C2126    1.0000 0.56133  0.74239  0.06817  Biso   1.000  C
  C2127    1.0000 0.56134  0.74240  0.06823  Biso   1.000  C
  C2128    1.0000 0.56133  0.74246  0.06817  Biso   1.000  C
  H2002    1.0000 0.52306  0.66303  0.15503  Biso   1.000  H
  H2003    1.0000 0.52299  0.66303  0.15503  Biso   1.000  H
  H2004    1.0000 0.52305  0.66297  0.15503  Biso   1.000  H
  C2129    1.0000 0.20014  0.86843  0.69269  Biso   1.000  C
  C2130    1.0000 0.20013  0.86836  0.69269  Biso   1.000  C
  C2131    1.0000 0.33334  0.88309  0.78971  Biso   1.000  C
  C2132    1.0000 0.33333  0.88303  0.78971  Biso   1.000  C
  H2005    1.0000 0.56898  0.96501  0.06401  Biso   1.000  H
  H2006    1.0000 0.56905  0.96501  0.06401  Biso   1.000  H
  H2007    1.0000 0.67298  0.03496  0.07698  Biso   1.000  H
  H2008    1.0000 0.67306  0.03504  0.07704  Biso   1.000  H
  H2009    1.0000 0.67298  0.03503  0.07698  Biso   1.000  H
  H2010    1.0000 0.67298  0.03497  0.07704  Biso   1.000  H
  H2011    1.0000 0.56806  0.30800  0.30803  Biso   1.000  H
  H2012    1.0000 0.46404  0.28800  0.24402  Biso   1.000  H
  C2133    1.0000 0.50320  0.43116  0.29607  Biso   1.000  C
  C2134    1.0000 0.50321  0.43117  0.29613  Biso   1.000  C
  C2135    1.0000 0.50321  0.43123  0.29607  Biso   1.000  C
  H2013    1.0000 0.46404  0.28793  0.24402  Biso   1.000  H
  O397     1.0000 0.86170  0.87381  0.21332  Biso   1.000  O
  H2014    1.0000 0.75205  0.82602  0.26002  Biso   1.000  H
  H2015    1.0000 0.75401  0.78900  0.15800  Biso   1.000  H
  H2016    1.0000 0.74705  0.69599  0.61201  Biso   1.000  H
  H2017    1.0000 0.74705  0.69592  0.61201  Biso   1.000  H
  C2136    1.0000 0.28042  0.68908  0.01481  Biso   1.000  C
  C2137    1.0000 0.28043  0.68915  0.01481  Biso   1.000  C
  O398     1.0000 0.28402  0.77161  0.14872  Biso   1.000  O
  C2138    1.0000 0.36374  0.75453  0.92148  Biso   1.000  C
  C2139    1.0000 0.36374  0.75447  0.92154  Biso   1.000  C
  C2140    1.0000 0.36373  0.75446  0.92148  Biso   1.000  C
  O399     1.0000 0.44159  0.90582  0.96008  Biso   1.000  O
  O400     1.0000 0.44158  0.90575  0.96008  Biso   1.000  O
  H2018    1.0000 0.59904  0.94204  0.77502  Biso   1.000  H
  H2019    1.0000 0.67003  0.87703  0.82499  Biso   1.000  H
  O401     1.0000 0.73535  0.99220  0.79721  Biso   1.000  O
  H2020    1.0000 0.59904  0.94197  0.77502  Biso   1.000  H
  H2021    1.0000 0.67009  0.87697  0.82499  Biso   1.000  H
  O402     1.0000 0.73535  0.99214  0.79721  Biso   1.000  O
  H2022    1.0000 0.67002  0.87697  0.82499  Biso   1.000  H
  H2023    1.0000 0.53500  0.80198  0.09601  Biso   1.000  H
  H2024    1.0000 0.53506  0.80198  0.09601  Biso   1.000  H
  H2025    1.0000 0.53500  0.80205  0.09601  Biso   1.000  H
  O403     1.0000 0.14004  0.90604  0.64581  Biso   1.000  O
  O404     1.0000 0.14003  0.90598  0.64581  Biso   1.000  O
  C2141    1.0000 0.19104  0.77532  0.68959  Biso   1.000  C
  C2142    1.0000 0.19103  0.77525  0.68959  Biso   1.000  C
  C2143    1.0000 0.32425  0.79013  0.78668  Biso   1.000  C
  C2144    1.0000 0.32426  0.79008  0.78674  Biso   1.000  C
  C2145    1.0000 0.32425  0.79006  0.78668  Biso   1.000  C
  O405     1.0000 0.40717  0.93910  0.83409  Biso   1.000  O
  O406     1.0000 0.40717  0.93904  0.83409  Biso   1.000  O
  C2146    1.0000 0.44332  0.47590  0.25229  Biso   1.000  C
  C2147    1.0000 0.54395  0.47259  0.37198  Biso   1.000  C
  C2148    1.0000 0.54396  0.47261  0.37204  Biso   1.000  C
  C2149    1.0000 0.44332  0.47583  0.25229  Biso   1.000  C
  C2150    1.0000 0.54396  0.47254  0.37204  Biso   1.000  C
  C2151    1.0000 0.92098  0.81217  0.23950  Biso   1.000  C
  C2152    1.0000 0.92105  0.81217  0.23950  Biso   1.000  C
  C2153    1.0000 0.92099  0.81223  0.23950  Biso   1.000  C
  C2154    1.0000 0.92105  0.81223  0.23950  Biso   1.000  C
  C2155    1.0000 0.22137  0.61297  0.03498  Biso   1.000  C
  C2156    1.0000 0.22138  0.61298  0.03504  Biso   1.000  C
  C2157    1.0000 0.22138  0.61303  0.03498  Biso   1.000  C
  C2158    1.0000 0.22138  0.61305  0.03504  Biso   1.000  C
  C2159    1.0000 0.30947  0.68281  0.93980  Biso   1.000  C
  C2160    1.0000 0.30946  0.68274  0.93980  Biso   1.000  C
  C2161    1.0000 0.19450  0.79428  0.15562  Biso   1.000  C
  C2162    1.0000 0.19451  0.79435  0.15562  Biso   1.000  C
  C2163    1.0000 0.39936  0.75323  0.83932  Biso   1.000  C
  C2164    1.0000 0.39936  0.75316  0.83932  Biso   1.000  C
  C2165    1.0000 0.39829  0.96713  0.91541  Biso   1.000  C
  C2166    1.0000 0.39828  0.96707  0.91541  Biso   1.000  C
  C2167    1.0000 0.75307  0.95741  0.71422  Biso   1.000  C
  C2168    1.0000 0.75306  0.95734  0.71422  Biso   1.000  C
  C2169    1.0000 0.05907  0.92693  0.67222  Biso   1.000  C
  C2170    1.0000 0.05906  0.92686  0.67222  Biso   1.000  C
  C2171    1.0000 0.10375  0.71740  0.64200  Biso   1.000  C
  C2172    1.0000 0.10375  0.71733  0.64200  Biso   1.000  C
  C2173    1.0000 0.25303  0.73620  0.73659  Biso   1.000  C
  C2174    1.0000 0.25302  0.73614  0.73659  Biso   1.000  C
  C2175    1.0000 0.42424  0.56191  0.28429  Biso   1.000  C
  H2026    1.0000 0.41203  0.44402  0.19399  Biso   1.000  H
  C2176    1.0000 0.42423  0.56185  0.28429  Biso   1.000  C
  H2027    1.0000 0.41202  0.44395  0.19399  Biso   1.000  H
  C2177    1.0000 0.52473  0.55861  0.40398  Biso   1.000  C
  H2028    1.0000 0.59003  0.43799  0.40600  Biso   1.000  H
  C2178    1.0000 0.52473  0.55854  0.40398  Biso   1.000  C
  H2029    1.0000 0.59002  0.43792  0.40600  Biso   1.000  H
  C2179    1.0000 0.92523  0.73510  0.16722  Biso   1.000  C
  H2030    1.0000 0.89603  0.78501  0.28798  Biso   1.000  H
  H2031    1.0000 0.98803  0.84701  0.25901  Biso   1.000  H
  H2032    1.0000 0.89604  0.78502  0.28804  Biso   1.000  H
  C2180    1.0000 0.12308  0.62747  0.01707  Biso   1.000  C
  C2181    1.0000 0.12308  0.62748  0.01713  Biso   1.000  C
  C2182    1.0000 0.12308  0.62754  0.01707  Biso   1.000  C
  C2183    1.0000 0.12309  0.62755  0.01713  Biso   1.000  C
  H2033    1.0000 0.23903  0.61600  0.09798  Biso   1.000  H
  C2184    1.0000 0.23980  0.51377  0.00071  Biso   1.000  C
  H2034    1.0000 0.23904  0.61601  0.09804  Biso   1.000  H
  C2185    1.0000 0.23980  0.51384  0.00071  Biso   1.000  C
  H2035    1.0000 0.29004  0.62202  0.89602  Biso   1.000  H
  H2036    1.0000 0.29003  0.62195  0.89602  Biso   1.000  H
  O407     1.0000 0.13212  0.71589  0.14640  Biso   1.000  O
  O408     1.0000 0.13212  0.71596  0.14640  Biso   1.000  O
  H2037    1.0000 0.17498  0.83202  0.10999  Biso   1.000  H
  H2038    1.0000 0.19303  0.83499  0.21303  Biso   1.000  H
  H2039    1.0000 0.17505  0.83202  0.10999  Biso   1.000  H
  H2040    1.0000 0.19303  0.83506  0.21303  Biso   1.000  H
  H2041    1.0000 0.46207  0.79498  0.84200  Biso   1.000  H
  C2186    1.0000 0.42397  0.65718  0.80720  Biso   1.000  C
  C2187    1.0000 0.42397  0.65712  0.80720  Biso   1.000  C
  H2042    1.0000 0.32709  0.96504  0.92302  Biso   1.000  H
  H2043    1.0000 0.32709  0.96497  0.92302  Biso   1.000  H
  H2044    1.0000 0.43108  0.03492  0.93599  Biso   1.000  H
  H2045    1.0000 0.43109  0.03499  0.93599  Biso   1.000  H
  H2046    1.0000 0.68903  0.94903  0.67603  Biso   1.000  H
  C2188    1.0000 0.78572  0.87253  0.71119  Biso   1.000  C
  H2047    1.0000 0.68909  0.94897  0.67603  Biso   1.000  H
  C2189    1.0000 0.78579  0.87246  0.71119  Biso   1.000  C
  H2048    1.0000 0.68902  0.94897  0.67603  Biso   1.000  H
  C2190    1.0000 0.78572  0.87246  0.71119  Biso   1.000  C
  H2049    1.0000 0.80103  0.00397  0.69399  Biso   1.000  H
  O409     1.0000 0.98586  0.85685  0.65372  Biso   1.000  O
  O410     1.0000 0.98585  0.85678  0.65372  Biso   1.000  O
  H2050    1.0000 0.07108  0.94601  0.73599  Biso   1.000  H
  H2051    1.0000 0.03802  0.98299  0.64599  Biso   1.000  H
  H2052    1.0000 0.07108  0.94595  0.73599  Biso   1.000  H
  H2053    1.0000 0.03808  0.98293  0.64599  Biso   1.000  H
  H2054    1.0000 0.07101  0.94595  0.73599  Biso   1.000  H
  H2055    1.0000 0.03808  0.98299  0.64599  Biso   1.000  H
  C2191    1.0000 0.02987  0.71749  0.69447  Biso   1.000  C
  C2192    1.0000 0.02987  0.71743  0.69453  Biso   1.000  C
  C2193    1.0000 0.02980  0.71749  0.69447  Biso   1.000  C
  C2194    1.0000 0.02988  0.71750  0.69453  Biso   1.000  C
  H2056    1.0000 0.08603  0.75000  0.59197  Biso   1.000  H
  C2195    1.0000 0.11513  0.62244  0.60250  Biso   1.000  C
  H2057    1.0000 0.08603  0.74995  0.59203  Biso   1.000  H
  C2196    1.0000 0.11512  0.62237  0.60250  Biso   1.000  C
  H2058    1.0000 0.08604  0.75001  0.59203  Biso   1.000  H
  H2059    1.0000 0.24605  0.66399  0.73397  Biso   1.000  H
  H2060    1.0000 0.24606  0.66394  0.73403  Biso   1.000  H
  H2061    1.0000 0.24606  0.66401  0.73403  Biso   1.000  H
  C2197    1.0000 0.46496  0.60319  0.36008  Biso   1.000  C
  H2062    1.0000 0.37802  0.59601  0.25003  Biso   1.000  H
  C2198    1.0000 0.46497  0.60320  0.36014  Biso   1.000  C
  C2199    1.0000 0.46496  0.60314  0.36014  Biso   1.000  C
  H2063    1.0000 0.37801  0.59594  0.25003  Biso   1.000  H
  H2064    1.0000 0.55603  0.59097  0.46299  Biso   1.000  H
  H2065    1.0000 0.55603  0.59103  0.46299  Biso   1.000  H
  O411     1.0000 0.96490  0.77363  0.10529  Biso   1.000  O
  H2066    1.0000 0.96604  0.68501  0.18602  Biso   1.000  H
  H2067    1.0000 0.85703  0.70401  0.14497  Biso   1.000  H
  H2068    1.0000 0.85704  0.70402  0.14503  Biso   1.000  H
  H2069    1.0000 0.96597  0.68501  0.18602  Biso   1.000  H
  H2070    1.0000 0.85696  0.70401  0.14497  Biso   1.000  H
  C2200    1.0000 0.08470  0.68681  0.07162  Biso   1.000  C
  C2201    1.0000 0.07443  0.59122  0.94289  Biso   1.000  C
  C2202    1.0000 0.07449  0.59116  0.94289  Biso   1.000  C
  C2203    1.0000 0.07442  0.59116  0.94289  Biso   1.000  C
  H2071    1.0000 0.23609  0.50503  0.93700  Biso   1.000  H
  H2072    1.0000 0.23608  0.50497  0.93700  Biso   1.000  H
  H2073    1.0000 0.19003  0.46602  0.01701  Biso   1.000  H
  C2204    1.0000 0.33442  0.49788  0.03551  Biso   1.000  C
  C2205    1.0000 0.33442  0.49794  0.03551  Biso   1.000  C
  H2074    1.0000 0.36301  0.61200  0.78799  Biso   1.000  H
  H2075    1.0000 0.46602  0.63200  0.85199  Biso   1.000  H
  C2206    1.0000 0.47416  0.66709  0.73683  Biso   1.000  C
  H2076    1.0000 0.36308  0.61193  0.78799  Biso   1.000  H
  H2077    1.0000 0.46608  0.63193  0.85199  Biso   1.000  H
  C2207    1.0000 0.47415  0.66703  0.73683  Biso   1.000  C
  H2078    1.0000 0.36301  0.61193  0.78799  Biso   1.000  H
  H2079    1.0000 0.36308  0.61200  0.78799  Biso   1.000  H
  H2080    1.0000 0.46609  0.63200  0.85199  Biso   1.000  H
  H2081    1.0000 0.73506  0.82601  0.72802  Biso   1.000  H
  H2082    1.0000 0.79702  0.84900  0.65098  Biso   1.000  H
  O412     1.0000 0.86774  0.87400  0.76068  Biso   1.000  O
  H2083    1.0000 0.73505  0.82594  0.72802  Biso   1.000  H
  H2084    1.0000 0.79701  0.84894  0.65098  Biso   1.000  H
  O413     1.0000 0.86774  0.87395  0.76074  Biso   1.000  O
  O414     1.0000 0.86774  0.87393  0.76068  Biso   1.000  O
  O415     1.0000 0.86775  0.87401  0.76074  Biso   1.000  O
  C2208    1.0000 0.97803  0.79011  0.69911  Biso   1.000  C
  C2209    1.0000 0.97802  0.79004  0.69911  Biso   1.000  C
  C2210    1.0000 0.01537  0.65160  0.74111  Biso   1.000  C
  C2211    1.0000 0.01537  0.65154  0.74111  Biso   1.000  C
  H2085    1.0000 0.13707  0.58500  0.64801  Biso   1.000  H
  H2086    1.0000 0.05103  0.59104  0.57002  Biso   1.000  H
  C2212    1.0000 0.18656  0.62421  0.54420  Biso   1.000  C
  H2087    1.0000 0.13707  0.58494  0.64801  Biso   1.000  H
  H2088    1.0000 0.05103  0.59098  0.57002  Biso   1.000  H
  C2213    1.0000 0.18655  0.62414  0.54420  Biso   1.000  C
  H2089    1.0000 0.45003  0.67001  0.38501  Biso   1.000  H
  H2090    1.0000 0.45002  0.66994  0.38501  Biso   1.000  H
  C2214    1.0000 0.99753  0.70971  0.05199  Biso   1.000  C
  C2215    1.0000 0.98727  0.61420  0.92332  Biso   1.000  C
  C2216    1.0000 0.98726  0.61413  0.92332  Biso   1.000  C
  H2091    1.0000 0.10406  0.54500  0.90101  Biso   1.000  H
  H2092    1.0000 0.10405  0.54493  0.90101  Biso   1.000  H
  H2093    1.0000 0.33398  0.50100  0.09899  Biso   1.000  H
  H2094    1.0000 0.38100  0.55198  0.02600  Biso   1.000  H
  C2217    1.0000 0.36997  0.41152  0.00410  Biso   1.000  C
  H2095    1.0000 0.38100  0.55205  0.02600  Biso   1.000  H
  H2096    1.0000 0.43201  0.69200  0.69197  Biso   1.000  H
  H2097    1.0000 0.53602  0.71200  0.75598  Biso   1.000  H
  C2218    1.0000 0.49687  0.56884  0.70393  Biso   1.000  C
  H2098    1.0000 0.43208  0.69195  0.69203  Biso   1.000  H
  H2099    1.0000 0.53608  0.71193  0.75598  Biso   1.000  H
  C2219    1.0000 0.49686  0.56877  0.70393  Biso   1.000  C
  H2100    1.0000 0.43200  0.69194  0.69197  Biso   1.000  H
  H2101    1.0000 0.53602  0.71193  0.75598  Biso   1.000  H
  H2102    1.0000 0.43209  0.69202  0.69203  Biso   1.000  H
  C2220    1.0000 0.91175  0.79672  0.75039  Biso   1.000  C
  C2221    1.0000 0.91174  0.79665  0.75039  Biso   1.000  C
  C2222    1.0000 0.94903  0.65833  0.79233  Biso   1.000  C
  C2223    1.0000 0.94909  0.65826  0.79233  Biso   1.000  C
  C2224    1.0000 0.94902  0.65826  0.79233  Biso   1.000  C
  H2103    1.0000 0.05504  0.59499  0.73700  Biso   1.000  H
  H2104    1.0000 0.05503  0.59492  0.73700  Biso   1.000  H
  H2105    1.0000 0.25106  0.65302  0.57799  Biso   1.000  H
  H2106    1.0000 0.16603  0.66603  0.50203  Biso   1.000  H
  C2225    1.0000 0.19931  0.53250  0.49953  Biso   1.000  C
  H2107    1.0000 0.25105  0.65295  0.57799  Biso   1.000  H
  H2108    1.0000 0.16603  0.66596  0.50203  Biso   1.000  H
  C2226    1.0000 0.19937  0.53243  0.49953  Biso   1.000  C
  C2227    1.0000 0.19937  0.53250  0.49953  Biso   1.000  C
  C2228    1.0000 0.94888  0.67353  0.97781  Biso   1.000  C
  C2229    1.0000 0.94888  0.67346  0.97781  Biso   1.000  C
  C2230    1.0000 0.92426  0.58573  0.84569  Biso   1.000  C
  C2231    1.0000 0.92426  0.58566  0.84569  Biso   1.000  C
  C2232    1.0000 0.41105  0.41283  0.93510  Biso   1.000  C
  C2233    1.0000 0.41104  0.41276  0.93510  Biso   1.000  C
  C2234    1.0000 0.36339  0.33320  0.03688  Biso   1.000  C
  C2235    1.0000 0.55674  0.52410  0.74771  Biso   1.000  C
  C2236    1.0000 0.45611  0.52741  0.62802  Biso   1.000  C
  C2237    1.0000 0.55674  0.52403  0.74771  Biso   1.000  C
  C2238    1.0000 0.45617  0.52734  0.62802  Biso   1.000  C
  C2239    1.0000 0.45618  0.52741  0.62802  Biso   1.000  C
  C2240    1.0000 0.89723  0.73081  0.79691  Biso   1.000  C
  C2241    1.0000 0.89723  0.73074  0.79691  Biso   1.000  C
  C2242    1.0000 0.13980  0.45511  0.49590  Biso   1.000  C
  C2243    1.0000 0.27790  0.52740  0.46282  Biso   1.000  C
  C2244    1.0000 0.13986  0.45504  0.49590  Biso   1.000  C
  C2245    1.0000 0.27796  0.52734  0.46282  Biso   1.000  C
  C2246    1.0000 0.13987  0.45511  0.49590  Biso   1.000  C
  C2247    1.0000 0.27796  0.52740  0.46282  Biso   1.000  C
  O416     1.0000 0.86263  0.69627  0.96978  Biso   1.000  O
  O417     1.0000 0.86264  0.69622  0.96984  Biso   1.000  O
  O418     1.0000 0.86264  0.69628  0.96984  Biso   1.000  O
  H2109    1.0000 0.85404  0.58100  0.85598  Biso   1.000  H
  C2248    1.0000 0.94947  0.49138  0.80072  Biso   1.000  C
  H2110    1.0000 0.85405  0.58095  0.85604  Biso   1.000  H
  H2111    1.0000 0.85404  0.58094  0.85598  Biso   1.000  H
  C2249    1.0000 0.44536  0.33589  0.89887  Biso   1.000  C
  H2112    1.0000 0.41605  0.47303  0.90999  Biso   1.000  H
  C2250    1.0000 0.44536  0.33584  0.89893  Biso   1.000  C
  H2113    1.0000 0.41604  0.47297  0.90999  Biso   1.000  H
  C2251    1.0000 0.44536  0.33590  0.89893  Biso   1.000  C
  C2252    1.0000 0.39778  0.25622  0.00077  Biso   1.000  C
  H2114    1.0000 0.33197  0.33197  0.09001  Biso   1.000  H
  C2253    1.0000 0.39779  0.25623  0.00083  Biso   1.000  C
  H2115    1.0000 0.33204  0.33204  0.09001  Biso   1.000  H
  H2116    1.0000 0.33197  0.33204  0.09001  Biso   1.000  H
  C2254    1.0000 0.57583  0.43809  0.71571  Biso   1.000  C
  H2117    1.0000 0.58804  0.55598  0.80601  Biso   1.000  H
  C2255    1.0000 0.57583  0.43802  0.71571  Biso   1.000  C
  H2118    1.0000 0.58803  0.55592  0.80601  Biso   1.000  H
  C2256    1.0000 0.47534  0.44139  0.59602  Biso   1.000  C
  H2119    1.0000 0.41004  0.56201  0.59400  Biso   1.000  H
  C2257    1.0000 0.47533  0.44133  0.59602  Biso   1.000  C
  H2120    1.0000 0.41004  0.56194  0.59400  Biso   1.000  H
  O419     1.0000 0.82286  0.73951  0.84319  Biso   1.000  O
  O420     1.0000 0.82286  0.73944  0.84319  Biso   1.000  O
  C2258    1.0000 0.15903  0.37264  0.45563  Biso   1.000  C
  H2121    1.0000 0.07904  0.45904  0.52398  Biso   1.000  H
  C2259    1.0000 0.15902  0.37258  0.45563  Biso   1.000  C
  H2122    1.0000 0.07905  0.45899  0.52404  Biso   1.000  H
  H2123    1.0000 0.07904  0.45898  0.52398  Biso   1.000  H
  C2260    1.0000 0.29711  0.44492  0.42249  Biso   1.000  C
  H2124    1.0000 0.32403  0.58700  0.46598  Biso   1.000  H
  C2261    1.0000 0.29711  0.44486  0.42249  Biso   1.000  C
  H2125    1.0000 0.32403  0.58695  0.46604  Biso   1.000  H
  H2126    1.0000 0.32404  0.58702  0.46604  Biso   1.000  H
  C2262    1.0000 0.84787  0.77003  0.92731  Biso   1.000  C
  C2263    1.0000 0.84786  0.76996  0.92731  Biso   1.000  C
  H2127    1.0000 0.94805  0.44201  0.83998  Biso   1.000  H
  C2264    1.0000 0.87374  0.45938  0.72558  Biso   1.000  C
  H2128    1.0000 0.94805  0.44195  0.84004  Biso   1.000  H
  H2129    1.0000 0.94804  0.44194  0.83998  Biso   1.000  H
  H2130    1.0000 0.01607  0.49902  0.78198  Biso   1.000  H
  H2131    1.0000 0.01607  0.49896  0.78204  Biso   1.000  H
  H2132    1.0000 0.01606  0.49895  0.78198  Biso   1.000  H
  C2265    1.0000 0.43874  0.25761  0.93183  Biso   1.000  C
  H2133    1.0000 0.47701  0.33697  0.84497  Biso   1.000  H
  C2266    1.0000 0.43873  0.25754  0.93183  Biso   1.000  C
  H2134    1.0000 0.47708  0.33698  0.84503  Biso   1.000  H
  H2135    1.0000 0.39300  0.19598  0.02600  Biso   1.000  H
  H2136    1.0000 0.39300  0.19604  0.02600  Biso   1.000  H
  C2267    1.0000 0.53511  0.39681  0.63992  Biso   1.000  C
  H2137    1.0000 0.62205  0.40399  0.74997  Biso   1.000  H
  C2268    1.0000 0.53517  0.39674  0.63992  Biso   1.000  C
  H2138    1.0000 0.62205  0.40394  0.75003  Biso   1.000  H
  C2269    1.0000 0.53518  0.39681  0.63992  Biso   1.000  C
  H2139    1.0000 0.62206  0.40401  0.75003  Biso   1.000  H
  H2140    1.0000 0.44404  0.40903  0.53701  Biso   1.000  H
  H2141    1.0000 0.44404  0.40897  0.53701  Biso   1.000  H
  C2270    1.0000 0.23775  0.36755  0.41892  Biso   1.000  C
  H2142    1.0000 0.11303  0.31302  0.45301  Biso   1.000  H
  C2271    1.0000 0.23774  0.36749  0.41892  Biso   1.000  C
  H2143    1.0000 0.11302  0.31295  0.45301  Biso   1.000  H
  H2144    1.0000 0.35802  0.44104  0.39400  Biso   1.000  H
  H2145    1.0000 0.35802  0.44097  0.39400  Biso   1.000  H
  H2146    1.0000 0.91008  0.81499  0.93700  Biso   1.000  H
  H2147    1.0000 0.79408  0.80499  0.95098  Biso   1.000  H
  H2148    1.0000 0.91007  0.81493  0.93700  Biso   1.000  H
  H2149    1.0000 0.79407  0.80492  0.95098  Biso   1.000  H
  H2150    1.0000 0.87204  0.51201  0.69001  Biso   1.000  H
  H2151    1.0000 0.80803  0.44803  0.74599  Biso   1.000  H
  C2272    1.0000 0.89375  0.37264  0.67442  Biso   1.000  C
  H2152    1.0000 0.87203  0.51195  0.69001  Biso   1.000  H
  H2153    1.0000 0.80802  0.44796  0.74599  Biso   1.000  H
  C2273    1.0000 0.89374  0.37257  0.67442  Biso   1.000  C
  H2154    1.0000 0.46507  0.19802  0.90399  Biso   1.000  H
  H2155    1.0000 0.46506  0.19795  0.90399  Biso   1.000  H
  H2156    1.0000 0.55004  0.32999  0.61499  Biso   1.000  H
  H2157    1.0000 0.55003  0.32992  0.61499  Biso   1.000  H
  H2158    1.0000 0.25301  0.30401  0.38799  Biso   1.000  H
  H2159    1.0000 0.25301  0.30395  0.38799  Biso   1.000  H
  C2274    1.0000 0.82972  0.29721  0.66282  Biso   1.000  C
  C2275    1.0000 0.97343  0.36781  0.63933  Biso   1.000  C
  C2276    1.0000 0.82978  0.29714  0.66282  Biso   1.000  C
  C2277    1.0000 0.97343  0.36774  0.63933  Biso   1.000  C
  C2278    1.0000 0.84545  0.21701  0.61613  Biso   1.000  C
  H2160    1.0000 0.76803  0.30102  0.69001  Biso   1.000  H
  C2279    1.0000 0.84544  0.21694  0.61613  Biso   1.000  C
  H2161    1.0000 0.76803  0.30096  0.69001  Biso   1.000  H
  C2280    1.0000 0.98915  0.28758  0.59251  Biso   1.000  C
  H2162    1.0000 0.02303  0.42602  0.64801  Biso   1.000  H
  H2163    1.0000 0.02302  0.42595  0.64801  Biso   1.000  H
  C2281    1.0000 0.92512  0.21222  0.58091  Biso   1.000  C
  H2164    1.0000 0.79602  0.15904  0.60702  Biso   1.000  H
  C2282    1.0000 0.92512  0.21215  0.58091  Biso   1.000  C
  H2165    1.0000 0.79602  0.15898  0.60702  Biso   1.000  H
  H2166    1.0000 0.05102  0.28404  0.56503  Biso   1.000  H
  H2167    1.0000 0.05101  0.28397  0.56503  Biso   1.000  H
  H2168    1.0000 0.93705  0.14998  0.54498  Biso   1.000  H
  H2169    1.0000 0.93706  0.14999  0.54504  Biso   1.000  H
  H2170    1.0000 0.93699  0.14998  0.54498  Biso   1.000  H
  C2283    1.0000 0.15220  0.22997  0.07269  Biso   1.000  C
  O421     1.0000 0.17720  0.26049  0.15681  Biso   1.000  O
  O422     1.0000 0.13743  0.30373  0.03022  Biso   1.000  O
  O423     1.0000 0.13743  0.30366  0.03022  Biso   1.000  O
  H2171    1.0000 0.08999  0.18501  0.06300  Biso   1.000  H
  H2172    1.0000 0.20599  0.19501  0.04902  Biso   1.000  H
  H2173    1.0000 0.20605  0.19501  0.04902  Biso   1.000  H
  H2174    1.0000 0.08998  0.18494  0.06300  Biso   1.000  H
  H2175    1.0000 0.20598  0.19494  0.04902  Biso   1.000  H
  C2284    1.0000 0.10283  0.26919  0.20309  Biso   1.000  C
  C2285    1.0000 0.10283  0.26913  0.20309  Biso   1.000  C
  C2286    1.0000 0.15221  0.23004  0.07269  Biso   1.000  C
  C2287    1.0000 0.05118  0.32647  0.02219  Biso   1.000  C
  C2288    1.0000 0.05119  0.32654  0.02219  Biso   1.000  C
  C2289    1.0000 0.05104  0.34167  0.20767  Biso   1.000  C
  C2290    1.0000 0.05105  0.34168  0.20773  Biso   1.000  C
  C2291    1.0000 0.05105  0.34174  0.20767  Biso   1.000  C
  C2292    1.0000 0.08832  0.20328  0.24961  Biso   1.000  C
  C2293    1.0000 0.08833  0.20335  0.24961  Biso   1.000  C
  C2294    1.0000 0.00253  0.29023  0.94801  Biso   1.000  C
  C2295    1.0000 0.00260  0.29023  0.94801  Biso   1.000  C
  C2296    1.0000 0.00254  0.29029  0.94801  Biso   1.000  C
  C2297    1.0000 0.00261  0.29029  0.94801  Biso   1.000  C
  C2298    1.0000 0.01280  0.38580  0.07668  Biso   1.000  C
  C2299    1.0000 0.01281  0.38581  0.07674  Biso   1.000  C
  C2300    1.0000 0.01280  0.38575  0.07674  Biso   1.000  C
  C2301    1.0000 0.98469  0.34840  0.25889  Biso   1.000  C
  C2302    1.0000 0.98476  0.34840  0.25889  Biso   1.000  C
  C2303    1.0000 0.98475  0.34833  0.25889  Biso   1.000  C
  C2304    1.0000 0.07580  0.41427  0.15431  Biso   1.000  C
  C2305    1.0000 0.07581  0.41434  0.15431  Biso   1.000  C
  C2306    1.0000 0.02204  0.20989  0.30089  Biso   1.000  C
  O424     1.0000 0.13233  0.12600  0.23932  Biso   1.000  O
  O425     1.0000 0.13232  0.12593  0.23932  Biso   1.000  O
  C2307    1.0000 0.91536  0.31312  0.92838  Biso   1.000  C
  C2308    1.0000 0.91537  0.31314  0.92844  Biso   1.000  C
  C2309    1.0000 0.91537  0.31319  0.92838  Biso   1.000  C
  C2310    1.0000 0.91537  0.31320  0.92844  Biso   1.000  C
  O426     1.0000 0.03516  0.22631  0.89471  Biso   1.000  O
  O427     1.0000 0.03517  0.22637  0.89471  Biso   1.000  O
  C2311    1.0000 0.92564  0.40878  0.05711  Biso   1.000  C
  C2312    1.0000 0.92565  0.40884  0.05711  Biso   1.000  C
  C2313    1.0000 0.97020  0.28251  0.30553  Biso   1.000  C
  C2314    1.0000 0.97026  0.28251  0.30553  Biso   1.000  C
  C2315    1.0000 0.97026  0.28245  0.30553  Biso   1.000  C
  H2176    1.0000 0.94503  0.40501  0.26300  Biso   1.000  H
  H2177    1.0000 0.94502  0.40495  0.26300  Biso   1.000  H
  H2178    1.0000 0.14602  0.41900  0.14402  Biso   1.000  H
  C2316    1.0000 0.05059  0.50862  0.19928  Biso   1.000  C
  C2317    1.0000 0.05066  0.50862  0.19928  Biso   1.000  C
  C2318    1.0000 0.05066  0.50856  0.19928  Biso   1.000  C
  O428     1.0000 0.01421  0.14315  0.34628  Biso   1.000  O
  O429     1.0000 0.01422  0.14323  0.34634  Biso   1.000  O
  O430     1.0000 0.01422  0.14322  0.34628  Biso   1.000  O
  O431     1.0000 0.01422  0.14317  0.34634  Biso   1.000  O
  C2319    1.0000 0.21434  0.12747  0.28881  Biso   1.000  C
  C2320    1.0000 0.21435  0.12754  0.28881  Biso   1.000  C
  O432     1.0000 0.86795  0.28404  0.85360  Biso   1.000  O
  C2321    1.0000 0.87699  0.37246  0.98293  Biso   1.000  C
  C2322    1.0000 0.07483  0.26483  0.83278  Biso   1.000  C
  C2323    1.0000 0.07484  0.26484  0.83284  Biso   1.000  C
  C2324    1.0000 0.07484  0.26490  0.83278  Biso   1.000  C
  C2325    1.0000 0.07485  0.26491  0.83284  Biso   1.000  C
  H2179    1.0000 0.89601  0.45500  0.09899  Biso   1.000  H
  H2180    1.0000 0.89601  0.45494  0.09899  Biso   1.000  H
  C2326    1.0000 0.89631  0.28260  0.35800  Biso   1.000  C
  C2327    1.0000 0.89631  0.28254  0.35800  Biso   1.000  C
  H2181    1.0000 0.98400  0.50098  0.21802  Biso   1.000  H
  H2182    1.0000 0.98407  0.50098  0.21802  Biso   1.000  H
  H2183    1.0000 0.98401  0.50105  0.21802  Biso   1.000  H
  H2184    1.0000 0.05202  0.55799  0.16002  Biso   1.000  H
  C2328    1.0000 0.12633  0.54062  0.27442  Biso   1.000  C
  H2185    1.0000 0.05203  0.55806  0.16002  Biso   1.000  H
  C2329    1.0000 0.12632  0.54056  0.27442  Biso   1.000  C
  C2330    1.0000 0.94100  0.07307  0.32778  Biso   1.000  C
  C2331    1.0000 0.94101  0.07308  0.32784  Biso   1.000  C
  C2332    1.0000 0.94101  0.07314  0.32778  Biso   1.000  C
  C2333    1.0000 0.24700  0.04259  0.28578  Biso   1.000  C
  H2186    1.0000 0.26501  0.17399  0.27198  Biso   1.000  H
  H2187    1.0000 0.20305  0.15100  0.34902  Biso   1.000  H
  C2334    1.0000 0.24701  0.04260  0.28584  Biso   1.000  C
  H2188    1.0000 0.26502  0.17400  0.27204  Biso   1.000  H
  C2335    1.0000 0.24700  0.04253  0.28584  Biso   1.000  C
  H2189    1.0000 0.26501  0.17394  0.27204  Biso   1.000  H
  H2190    1.0000 0.20304  0.15093  0.34902  Biso   1.000  H
  C2336    1.0000 0.80556  0.20565  0.84438  Biso   1.000  C
  C2337    1.0000 0.80557  0.20566  0.84444  Biso   1.000  C
  C2338    1.0000 0.77869  0.38697  0.96502  Biso   1.000  C
  C2339    1.0000 0.07908  0.18777  0.76050  Biso   1.000  C
  H2191    1.0000 0.03402  0.31492  0.81398  Biso   1.000  H
  H2192    1.0000 0.14303  0.29593  0.85503  Biso   1.000  H
  H2193    1.0000 0.03409  0.31492  0.81398  Biso   1.000  H
  H2194    1.0000 0.14310  0.29593  0.85503  Biso   1.000  H
  H2195    1.0000 0.03403  0.31499  0.81398  Biso   1.000  H
  H2196    1.0000 0.14304  0.29599  0.85503  Biso   1.000  H
  H2197    1.0000 0.03409  0.31499  0.81398  Biso   1.000  H
  H2198    1.0000 0.14310  0.29599  0.85503  Biso   1.000  H
  C2340    1.0000 0.80903  0.22468  0.31041  Biso   1.000  C
  C2341    1.0000 0.80904  0.22475  0.31041  Biso   1.000  C
  H2199    1.0000 0.91404  0.25000  0.40803  Biso   1.000  H
  C2342    1.0000 0.88494  0.37756  0.39750  Biso   1.000  C
  C2343    1.0000 0.88495  0.37763  0.39750  Biso   1.000  C
  H2200    1.0000 0.91403  0.24993  0.40803  Biso   1.000  H
  H2201    1.0000 0.12803  0.48799  0.30999  Biso   1.000  H
  H2202    1.0000 0.19204  0.55197  0.25401  Biso   1.000  H
  C2344    1.0000 0.10632  0.62736  0.32558  Biso   1.000  C
  C2345    1.0000 0.10633  0.62737  0.32564  Biso   1.000  C
  H2203    1.0000 0.19204  0.55204  0.25401  Biso   1.000  H
  C2346    1.0000 0.10633  0.62743  0.32558  Biso   1.000  C
  O433     1.0000 0.86003  0.09396  0.35419  Biso   1.000  O
  O434     1.0000 0.86004  0.09402  0.35419  Biso   1.000  O
  H2204    1.0000 0.92898  0.05399  0.26401  Biso   1.000  H
  H2205    1.0000 0.96205  0.01701  0.35401  Biso   1.000  H
  H2206    1.0000 0.92905  0.05399  0.26401  Biso   1.000  H
  H2207    1.0000 0.92899  0.05405  0.26401  Biso   1.000  H
  H2208    1.0000 0.96204  0.01694  0.35401  Biso   1.000  H
  H2209    1.0000 0.19903  0.99597  0.30601  Biso   1.000  H
  H2210    1.0000 0.19904  0.99603  0.30601  Biso   1.000  H
  O435     1.0000 0.26472  0.00780  0.20279  Biso   1.000  O
  H2211    1.0000 0.31104  0.05097  0.32397  Biso   1.000  H
  H2212    1.0000 0.31105  0.05098  0.32403  Biso   1.000  H
  H2213    1.0000 0.31104  0.05103  0.32397  Biso   1.000  H
  O436     1.0000 0.26471  0.00773  0.20279  Biso   1.000  O
  O437     1.0000 0.71604  0.22832  0.85128  Biso   1.000  O
  O438     1.0000 0.71605  0.22833  0.85134  Biso   1.000  O
  O439     1.0000 0.71605  0.22839  0.85128  Biso   1.000  O
  O440     1.0000 0.71605  0.22840  0.85134  Biso   1.000  O
  H2214    1.0000 0.82508  0.16791  0.89001  Biso   1.000  H
  H2215    1.0000 0.80703  0.16494  0.78697  Biso   1.000  H
  H2216    1.0000 0.80704  0.16495  0.78703  Biso   1.000  H
  H2217    1.0000 0.82509  0.16798  0.89001  Biso   1.000  H
  C2347    1.0000 0.71964  0.31085  0.98519  Biso   1.000  C
  C2348    1.0000 0.71971  0.31085  0.98519  Biso   1.000  C
  H2218    1.0000 0.76103  0.38394  0.90202  Biso   1.000  H
  C2349    1.0000 0.76026  0.48616  0.99929  Biso   1.000  C
  H2219    1.0000 0.76110  0.38394  0.90202  Biso   1.000  H
  H2220    1.0000 0.76104  0.38400  0.90202  Biso   1.000  H
  H2221    1.0000 0.76111  0.38400  0.90202  Biso   1.000  H
  O441     1.0000 0.13836  0.12613  0.78668  Biso   1.000  O
  H2222    1.0000 0.10403  0.21492  0.71202  Biso   1.000  H
  H2223    1.0000 0.01204  0.15292  0.74099  Biso   1.000  H
  O442     1.0000 0.13837  0.12614  0.78674  Biso   1.000  O
  O443     1.0000 0.13837  0.12619  0.78668  Biso   1.000  O
  H2224    1.0000 0.10403  0.21499  0.71202  Biso   1.000  H
  H2225    1.0000 0.01204  0.15299  0.74099  Biso   1.000  H
  O444     1.0000 0.13838  0.12621  0.78674  Biso   1.000  O
  C2350    1.0000 0.74704  0.26380  0.26341  Biso   1.000  C
  C2351    1.0000 0.74703  0.26373  0.26341  Biso   1.000  C
  C2352    1.0000 0.79993  0.13157  0.30731  Biso   1.000  C
  C2353    1.0000 0.79994  0.13164  0.30731  Biso   1.000  C
  H2226    1.0000 0.86300  0.41500  0.35199  Biso   1.000  H
  H2227    1.0000 0.94904  0.40896  0.42998  Biso   1.000  H
  C2354    1.0000 0.81351  0.37579  0.45580  Biso   1.000  C
  H2228    1.0000 0.86306  0.41500  0.35199  Biso   1.000  H
  H2229    1.0000 0.94904  0.40897  0.43004  Biso   1.000  H
  C2355    1.0000 0.81358  0.37579  0.45580  Biso   1.000  C
  H2230    1.0000 0.94904  0.40902  0.42998  Biso   1.000  H
  H2231    1.0000 0.86306  0.41493  0.35199  Biso   1.000  H
  C2356    1.0000 0.81357  0.37573  0.45580  Biso   1.000  C
  C2357    1.0000 0.17035  0.70279  0.33718  Biso   1.000  C
  C2358    1.0000 0.02663  0.63219  0.36067  Biso   1.000  C
  C2359    1.0000 0.17036  0.70281  0.33724  Biso   1.000  C
  C2360    1.0000 0.02664  0.63221  0.36073  Biso   1.000  C
  C2361    1.0000 0.17035  0.70274  0.33724  Biso   1.000  C
  C2362    1.0000 0.02663  0.63214  0.36073  Biso   1.000  C
  C2363    1.0000 0.34242  0.05550  0.18168  Biso   1.000  C
  C2364    1.0000 0.34243  0.05551  0.18174  Biso   1.000  C
  C2365    1.0000 0.34243  0.05544  0.18174  Biso   1.000  C
  C2366    1.0000 0.69435  0.23286  0.92850  Biso   1.000  C
  C2367    1.0000 0.69060  0.31719  0.06020  Biso   1.000  C
  C2368    1.0000 0.69060  0.31726  0.06020  Biso   1.000  C
  H2232    1.0000 0.81004  0.53392  0.98299  Biso   1.000  H
  C2369    1.0000 0.66564  0.50206  0.96449  Biso   1.000  C
  H2233    1.0000 0.81010  0.53392  0.98299  Biso   1.000  H
  C2370    1.0000 0.66571  0.50206  0.96449  Biso   1.000  C
  H2234    1.0000 0.81004  0.53398  0.98299  Biso   1.000  H
  H2235    1.0000 0.81011  0.53398  0.98299  Biso   1.000  H
  H2236    1.0000 0.76398  0.49497  0.06300  Biso   1.000  H
  H2237    1.0000 0.76405  0.49503  0.06300  Biso   1.000  H
  H2238    1.0000 0.76399  0.49503  0.06300  Biso   1.000  H
  H2239    1.0000 0.76405  0.49497  0.06300  Biso   1.000  H
  C2371    1.0000 0.22955  0.15442  0.79453  Biso   1.000  C
  C2372    1.0000 0.22955  0.15449  0.79453  Biso   1.000  C
  C2373    1.0000 0.67581  0.20987  0.21332  Biso   1.000  C
  C2374    1.0000 0.67582  0.20994  0.21332  Biso   1.000  C
  H2240    1.0000 0.75401  0.33601  0.26603  Biso   1.000  H
  H2241    1.0000 0.75401  0.33594  0.26603  Biso   1.000  H
  C2375    1.0000 0.72871  0.07771  0.25723  Biso   1.000  C
  C2376    1.0000 0.72870  0.07764  0.25723  Biso   1.000  C
  H2242    1.0000 0.74901  0.34698  0.42201  Biso   1.000  H
  H2243    1.0000 0.83403  0.33397  0.49797  Biso   1.000  H
  C2377    1.0000 0.80076  0.46750  0.50047  Biso   1.000  C
  H2244    1.0000 0.74907  0.34698  0.42201  Biso   1.000  H
  H2245    1.0000 0.83404  0.33399  0.49803  Biso   1.000  H
  C2378    1.0000 0.80077  0.46752  0.50053  Biso   1.000  C
  H2246    1.0000 0.74901  0.34705  0.42201  Biso   1.000  H
  H2247    1.0000 0.83404  0.33404  0.49797  Biso   1.000  H
  C2379    1.0000 0.80076  0.46745  0.50053  Biso   1.000  C
  C2380    1.0000 0.15462  0.78299  0.38387  Biso   1.000  C
  H2248    1.0000 0.23204  0.69898  0.30999  Biso   1.000  H
  C2381    1.0000 0.15463  0.78300  0.38393  Biso   1.000  C
  H2249    1.0000 0.23204  0.69904  0.30999  Biso   1.000  H
  C2382    1.0000 0.15462  0.78294  0.38393  Biso   1.000  C
  H2250    1.0000 0.97704  0.57398  0.35199  Biso   1.000  H
  C2383    1.0000 0.01092  0.71242  0.40749  Biso   1.000  C
  C2384    1.0000 0.01091  0.71235  0.40749  Biso   1.000  C
  C2385    1.0000 0.35432  0.99850  0.10220  Biso   1.000  C
  C2386    1.0000 0.35432  0.99856  0.10220  Biso   1.000  C
  H2251    1.0000 0.40102  0.05796  0.22498  Biso   1.000  H
  H2252    1.0000 0.33004  0.12297  0.17501  Biso   1.000  H
  H2253    1.0000 0.40103  0.05803  0.22498  Biso   1.000  H
  H2254    1.0000 0.33004  0.12303  0.17501  Biso   1.000  H
  C2387    1.0000 0.64008  0.16114  0.94682  Biso   1.000  C
  C2388    1.0000 0.64009  0.16120  0.94682  Biso   1.000  C
  C2389    1.0000 0.63633  0.24547  0.07852  Biso   1.000  C
  C2390    1.0000 0.63633  0.24554  0.07852  Biso   1.000  C
  H2255    1.0000 0.71003  0.37798  0.10398  Biso   1.000  H
  H2256    1.0000 0.71003  0.37805  0.10398  Biso   1.000  H
  H2257    1.0000 0.66608  0.49893  0.90101  Biso   1.000  H
  H2258    1.0000 0.61907  0.44795  0.97400  Biso   1.000  H
  C2391    1.0000 0.63009  0.58842  0.99590  Biso   1.000  C
  H2259    1.0000 0.66609  0.49900  0.90101  Biso   1.000  H
  C2392    1.0000 0.63010  0.58848  0.99590  Biso   1.000  C
  C2393    1.0000 0.27923  0.07664  0.81398  Biso   1.000  C
  H2260    1.0000 0.24801  0.17392  0.73998  Biso   1.000  H
  H2261    1.0000 0.24605  0.21093  0.84200  Biso   1.000  H
  H2262    1.0000 0.24809  0.17393  0.74004  Biso   1.000  H
  H2263    1.0000 0.24802  0.17398  0.73998  Biso   1.000  H
  H2264    1.0000 0.24605  0.21100  0.84200  Biso   1.000  H
  H2265    1.0000 0.24809  0.17399  0.74004  Biso   1.000  H
  C2394    1.0000 0.66673  0.11691  0.21029  Biso   1.000  C
  C2395    1.0000 0.66672  0.11684  0.21029  Biso   1.000  C
  C2396    1.0000 0.60071  0.24677  0.16068  Biso   1.000  C
  C2397    1.0000 0.60071  0.24679  0.16074  Biso   1.000  C
  C2398    1.0000 0.60071  0.24684  0.16068  Biso   1.000  C
  O445     1.0000 0.72301  0.98862  0.26282  Biso   1.000  O
  C2399    1.0000 0.86027  0.54489  0.50410  Biso   1.000  C
  C2400    1.0000 0.72217  0.47260  0.53718  Biso   1.000  C
  C2401    1.0000 0.72218  0.47261  0.53723  Biso   1.000  C
  C2402    1.0000 0.72210  0.47260  0.53718  Biso   1.000  C
  C2403    1.0000 0.86026  0.54482  0.50410  Biso   1.000  C
  C2404    1.0000 0.72217  0.47254  0.53723  Biso   1.000  C
  C2405    1.0000 0.07494  0.78778  0.41909  Biso   1.000  C
  H2266    1.0000 0.20404  0.84096  0.39298  Biso   1.000  H
  H2267    1.0000 0.20406  0.84103  0.39304  Biso   1.000  H
  H2268    1.0000 0.20405  0.84102  0.39298  Biso   1.000  H
  H2269    1.0000 0.20405  0.84097  0.39304  Biso   1.000  H
  H2270    1.0000 0.94905  0.71596  0.43497  Biso   1.000  H
  H2271    1.0000 0.94906  0.71597  0.43503  Biso   1.000  H
  H2272    1.0000 0.94905  0.71603  0.43497  Biso   1.000  H
  O446     1.0000 0.38514  0.91272  0.11332  Biso   1.000  O
  H2273    1.0000 0.29004  0.98602  0.06502  Biso   1.000  H
  H2274    1.0000 0.40303  0.03402  0.07299  Biso   1.000  H
  H2275    1.0000 0.40303  0.03395  0.07299  Biso   1.000  H
  C2406    1.0000 0.61098  0.16760  0.02177  Biso   1.000  C
  C2407    1.0000 0.61105  0.16761  0.02183  Biso   1.000  C
  C2408    1.0000 0.61098  0.16754  0.02183  Biso   1.000  C
  O447     1.0000 0.61492  0.08721  0.88668  Biso   1.000  O
  O448     1.0000 0.61500  0.08722  0.88674  Biso   1.000  O
  O449     1.0000 0.61493  0.08728  0.88668  Biso   1.000  O
  O450     1.0000 0.61500  0.08729  0.88674  Biso   1.000  O
  C2409    1.0000 0.63667  0.66673  0.96312  Biso   1.000  C
  C2410    1.0000 0.63667  0.66680  0.96312  Biso   1.000  C
  C2411    1.0000 0.58902  0.58717  0.06490  Biso   1.000  C
  C2412    1.0000 0.58902  0.58724  0.06490  Biso   1.000  C
  O451     1.0000 0.27705  0.01131  0.73718  Biso   1.000  O
  H2276    1.0000 0.24606  0.04393  0.85598  Biso   1.000  H
  H2277    1.0000 0.34904  0.09995  0.83801  Biso   1.000  H
  O452     1.0000 0.27705  0.01138  0.73718  Biso   1.000  O
  H2278    1.0000 0.24607  0.04394  0.85604  Biso   1.000  H
  H2279    1.0000 0.24607  0.04399  0.85598  Biso   1.000  H
  H2280    1.0000 0.24607  0.04400  0.85604  Biso   1.000  H
  O453     1.0000 0.59290  0.06090  0.16591  Biso   1.000  O
  H2281    1.0000 0.53800  0.20502  0.15800  Biso   1.000  H
  C2413    1.0000 0.57609  0.34282  0.19280  Biso   1.000  C
  C2414    1.0000 0.57616  0.34282  0.19280  Biso   1.000  C
  H2282    1.0000 0.53799  0.20496  0.15800  Biso   1.000  H
  C2415    1.0000 0.57615  0.34275  0.19280  Biso   1.000  C
  C2416    1.0000 0.72083  0.92329  0.18602  Biso   1.000  C
  C2417    1.0000 0.72084  0.92336  0.18602  Biso   1.000  C
  C2418    1.0000 0.84104  0.62736  0.54437  Biso   1.000  C
  H2283    1.0000 0.92102  0.54096  0.47602  Biso   1.000  H
  C2419    1.0000 0.84105  0.62737  0.54443  Biso   1.000  C
  H2284    1.0000 0.92103  0.54102  0.47602  Biso   1.000  H
  C2420    1.0000 0.84105  0.62742  0.54437  Biso   1.000  C
  C2421    1.0000 0.70295  0.55508  0.57751  Biso   1.000  C
  H2285    1.0000 0.67604  0.41300  0.53402  Biso   1.000  H
  C2422    1.0000 0.70296  0.55514  0.57751  Biso   1.000  C
  H2286    1.0000 0.67603  0.41293  0.53402  Biso   1.000  H
  H2287    1.0000 0.06301  0.85002  0.45502  Biso   1.000  H
  H2288    1.0000 0.06308  0.85002  0.45502  Biso   1.000  H
  H2289    1.0000 0.06307  0.84995  0.45502  Biso   1.000  H
  C2423    1.0000 0.35998  0.83880  0.05318  Biso   1.000  C
  O454     1.0000 0.55848  0.09418  0.03992  Biso   1.000  O
  O455     1.0000 0.55855  0.09418  0.03992  Biso   1.000  O
  O456     1.0000 0.55848  0.09425  0.03992  Biso   1.000  O
  C2424    1.0000 0.64575  0.00144  0.89780  Biso   1.000  C
  C2425    1.0000 0.64575  0.00150  0.89780  Biso   1.000  C
  C2426    1.0000 0.60228  0.74371  0.99923  Biso   1.000  C
  H2290    1.0000 0.66809  0.66796  0.90999  Biso   1.000  H
  C2427    1.0000 0.60229  0.74378  0.99923  Biso   1.000  C
  C2428    1.0000 0.55471  0.66411  0.10113  Biso   1.000  C
  H2291    1.0000 0.58402  0.52697  0.09001  Biso   1.000  H
  H2292    1.0000 0.58403  0.52703  0.09001  Biso   1.000  H
  C2429    1.0000 0.55470  0.66404  0.10113  Biso   1.000  C
  C2430    1.0000 0.27136  0.92229  0.74277  Biso   1.000  C
  C2431    1.0000 0.27136  0.92223  0.74283  Biso   1.000  C
  C2432    1.0000 0.27137  0.92230  0.74283  Biso   1.000  C
  C2433    1.0000 0.60178  0.03287  0.08459  Biso   1.000  C
  C2434    1.0000 0.60185  0.03293  0.08459  Biso   1.000  C
  C2435    1.0000 0.60178  0.03293  0.08459  Biso   1.000  C
  C2436    1.0000 0.60184  0.03287  0.08459  Biso   1.000  C
  H2293    1.0000 0.63705  0.38800  0.21201  Biso   1.000  H
  H2294    1.0000 0.53405  0.36800  0.14801  Biso   1.000  H
  C2437    1.0000 0.52591  0.33291  0.26317  Biso   1.000  C
  C2438    1.0000 0.52592  0.33292  0.26323  Biso   1.000  C
  H2295    1.0000 0.63699  0.38800  0.21201  Biso   1.000  H
  H2296    1.0000 0.63705  0.38794  0.21201  Biso   1.000  H
  H2297    1.0000 0.53404  0.36794  0.14801  Biso   1.000  H
  C2439    1.0000 0.52591  0.33285  0.26323  Biso   1.000  C
  C2440    1.0000 0.77051  0.84551  0.20547  Biso   1.000  C
  H2298    1.0000 0.75400  0.95601  0.14402  Biso   1.000  H
  H2299    1.0000 0.65102  0.89998  0.16199  Biso   1.000  H
  C2441    1.0000 0.77052  0.84552  0.20553  Biso   1.000  C
  H2300    1.0000 0.65103  0.90005  0.16199  Biso   1.000  H
  H2301    1.0000 0.88704  0.68698  0.54699  Biso   1.000  H
  C2442    1.0000 0.76232  0.63245  0.58108  Biso   1.000  C
  C2443    1.0000 0.76233  0.63253  0.58114  Biso   1.000  C
  C2444    1.0000 0.76232  0.63251  0.58108  Biso   1.000  C
  C2445    1.0000 0.76233  0.63246  0.58114  Biso   1.000  C
  H2302    1.0000 0.64204  0.55896  0.60600  Biso   1.000  H
  H2303    1.0000 0.64205  0.55903  0.60600  Biso   1.000  H
  C2446    1.0000 0.30571  0.76708  0.07150  Biso   1.000  C
  C2447    1.0000 0.30571  0.76714  0.07150  Biso   1.000  C
  C2448    1.0000 0.38909  0.83240  0.97823  Biso   1.000  C
  C2449    1.0000 0.38908  0.83234  0.97823  Biso   1.000  C
  H2304    1.0000 0.59703  0.96598  0.92701  Biso   1.000  H
  C2450    1.0000 0.65764  0.94450  0.81832  Biso   1.000  C
  H2305    1.0000 0.59710  0.96592  0.92701  Biso   1.000  H
  C2451    1.0000 0.65764  0.94444  0.81832  Biso   1.000  C
  H2306    1.0000 0.59710  0.96598  0.92701  Biso   1.000  H
  H2307    1.0000 0.71002  0.01391  0.93498  Biso   1.000  H
  H2308    1.0000 0.71010  0.01393  0.93504  Biso   1.000  H
  H2309    1.0000 0.71003  0.01398  0.93498  Biso   1.000  H
  H2310    1.0000 0.71011  0.01399  0.93504  Biso   1.000  H
  H2311    1.0000 0.60707  0.80396  0.97400  Biso   1.000  H
  C2452    1.0000 0.56133  0.74239  0.06817  Biso   1.000  C
  C2453    1.0000 0.56134  0.74240  0.06823  Biso   1.000  C
  C2454    1.0000 0.56133  0.74246  0.06817  Biso   1.000  C
  H2312    1.0000 0.52306  0.66303  0.15503  Biso   1.000  H
  H2313    1.0000 0.52299  0.66303  0.15503  Biso   1.000  H
  H2314    1.0000 0.52305  0.66297  0.15503  Biso   1.000  H
  C2455    1.0000 0.20014  0.86843  0.69269  Biso   1.000  C
  C2456    1.0000 0.20013  0.86836  0.69269  Biso   1.000  C
  C2457    1.0000 0.33334  0.88309  0.78971  Biso   1.000  C
  C2458    1.0000 0.33333  0.88303  0.78971  Biso   1.000  C
  H2315    1.0000 0.56898  0.96501  0.06401  Biso   1.000  H
  H2316    1.0000 0.56905  0.96501  0.06401  Biso   1.000  H
  H2317    1.0000 0.67298  0.03496  0.07698  Biso   1.000  H
  H2318    1.0000 0.67306  0.03504  0.07704  Biso   1.000  H
  H2319    1.0000 0.67298  0.03503  0.07698  Biso   1.000  H
  H2320    1.0000 0.67298  0.03497  0.07704  Biso   1.000  H
  H2321    1.0000 0.56806  0.30800  0.30803  Biso   1.000  H
  H2322    1.0000 0.46404  0.28800  0.24402  Biso   1.000  H
  C2459    1.0000 0.50320  0.43116  0.29607  Biso   1.000  C
  C2460    1.0000 0.50321  0.43117  0.29613  Biso   1.000  C
  C2461    1.0000 0.50321  0.43123  0.29607  Biso   1.000  C
  H2323    1.0000 0.46404  0.28793  0.24402  Biso   1.000  H
  O457     1.0000 0.86170  0.87381  0.21332  Biso   1.000  O
  H2324    1.0000 0.75205  0.82602  0.26002  Biso   1.000  H
  H2325    1.0000 0.75401  0.78900  0.15800  Biso   1.000  H
  H2326    1.0000 0.74705  0.69599  0.61201  Biso   1.000  H
  H2327    1.0000 0.74705  0.69592  0.61201  Biso   1.000  H
  C2462    1.0000 0.28042  0.68908  0.01481  Biso   1.000  C
  C2463    1.0000 0.28043  0.68915  0.01481  Biso   1.000  C
  O458     1.0000 0.28402  0.77161  0.14872  Biso   1.000  O
  C2464    1.0000 0.36374  0.75453  0.92148  Biso   1.000  C
  C2465    1.0000 0.36374  0.75447  0.92154  Biso   1.000  C
  C2466    1.0000 0.36373  0.75446  0.92148  Biso   1.000  C
  O459     1.0000 0.44159  0.90582  0.96008  Biso   1.000  O
  O460     1.0000 0.44158  0.90575  0.96008  Biso   1.000  O
  H2328    1.0000 0.59904  0.94204  0.77502  Biso   1.000  H
  H2329    1.0000 0.67003  0.87703  0.82499  Biso   1.000  H
  O461     1.0000 0.73535  0.99220  0.79721  Biso   1.000  O
  H2330    1.0000 0.59904  0.94197  0.77502  Biso   1.000  H
  H2331    1.0000 0.67009  0.87697  0.82499  Biso   1.000  H
  O462     1.0000 0.73535  0.99214  0.79721  Biso   1.000  O
  H2332    1.0000 0.67002  0.87697  0.82499  Biso   1.000  H
  H2333    1.0000 0.53500  0.80198  0.09601  Biso   1.000  H
  H2334    1.0000 0.53506  0.80198  0.09601  Biso   1.000  H
  H2335    1.0000 0.53500  0.80205  0.09601  Biso   1.000  H
  O463     1.0000 0.14004  0.90604  0.64581  Biso   1.000  O
  O464     1.0000 0.14003  0.90598  0.64581  Biso   1.000  O
  C2467    1.0000 0.19104  0.77532  0.68959  Biso   1.000  C
  C2468    1.0000 0.19103  0.77525  0.68959  Biso   1.000  C
  C2469    1.0000 0.32425  0.79013  0.78668  Biso   1.000  C
  C2470    1.0000 0.32426  0.79008  0.78674  Biso   1.000  C
  C2471    1.0000 0.32425  0.79006  0.78668  Biso   1.000  C
  O465     1.0000 0.40717  0.93910  0.83409  Biso   1.000  O
  O466     1.0000 0.40717  0.93904  0.83409  Biso   1.000  O
  C2472    1.0000 0.44332  0.47590  0.25229  Biso   1.000  C
  C2473    1.0000 0.54395  0.47259  0.37198  Biso   1.000  C
  C2474    1.0000 0.54396  0.47261  0.37204  Biso   1.000  C
  C2475    1.0000 0.44332  0.47583  0.25229  Biso   1.000  C
  C2476    1.0000 0.54396  0.47254  0.37204  Biso   1.000  C
  C2477    1.0000 0.92098  0.81217  0.23950  Biso   1.000  C
  C2478    1.0000 0.92105  0.81217  0.23950  Biso   1.000  C
  C2479    1.0000 0.92099  0.81223  0.23950  Biso   1.000  C
  C2480    1.0000 0.92105  0.81223  0.23950  Biso   1.000  C
  C2481    1.0000 0.22137  0.61297  0.03498  Biso   1.000  C
  C2482    1.0000 0.22138  0.61298  0.03504  Biso   1.000  C
  C2483    1.0000 0.22138  0.61303  0.03498  Biso   1.000  C
  C2484    1.0000 0.22138  0.61305  0.03504  Biso   1.000  C
  C2485    1.0000 0.30947  0.68281  0.93980  Biso   1.000  C
  C2486    1.0000 0.30946  0.68274  0.93980  Biso   1.000  C
  C2487    1.0000 0.19450  0.79428  0.15562  Biso   1.000  C
  C2488    1.0000 0.19451  0.79435  0.15562  Biso   1.000  C
  C2489    1.0000 0.39936  0.75323  0.83932  Biso   1.000  C
  C2490    1.0000 0.39936  0.75316  0.83932  Biso   1.000  C
  C2491    1.0000 0.39829  0.96713  0.91541  Biso   1.000  C
  C2492    1.0000 0.39828  0.96707  0.91541  Biso   1.000  C
  C2493    1.0000 0.75307  0.95741  0.71422  Biso   1.000  C
  C2494    1.0000 0.75306  0.95734  0.71422  Biso   1.000  C
  C2495    1.0000 0.05907  0.92693  0.67222  Biso   1.000  C
  C2496    1.0000 0.05906  0.92686  0.67222  Biso   1.000  C
  C2497    1.0000 0.10375  0.71740  0.64200  Biso   1.000  C
  C2498    1.0000 0.10375  0.71733  0.64200  Biso   1.000  C
  C2499    1.0000 0.25303  0.73620  0.73659  Biso   1.000  C
  C2500    1.0000 0.25302  0.73614  0.73659  Biso   1.000  C
  C2501    1.0000 0.42424  0.56191  0.28429  Biso   1.000  C
  H2336    1.0000 0.41203  0.44402  0.19399  Biso   1.000  H
  C2502    1.0000 0.42423  0.56185  0.28429  Biso   1.000  C
  H2337    1.0000 0.41202  0.44395  0.19399  Biso   1.000  H
  C2503    1.0000 0.52473  0.55861  0.40398  Biso   1.000  C
  H2338    1.0000 0.59003  0.43799  0.40600  Biso   1.000  H
  C2504    1.0000 0.52473  0.55854  0.40398  Biso   1.000  C
  H2339    1.0000 0.59002  0.43792  0.40600  Biso   1.000  H
  C2505    1.0000 0.92523  0.73510  0.16722  Biso   1.000  C
  H2340    1.0000 0.89603  0.78501  0.28798  Biso   1.000  H
  H2341    1.0000 0.98803  0.84701  0.25901  Biso   1.000  H
  H2342    1.0000 0.89604  0.78502  0.28804  Biso   1.000  H
  C2506    1.0000 0.12308  0.62747  0.01707  Biso   1.000  C
  C2507    1.0000 0.12308  0.62748  0.01713  Biso   1.000  C
  C2508    1.0000 0.12308  0.62754  0.01707  Biso   1.000  C
  C2509    1.0000 0.12309  0.62755  0.01713  Biso   1.000  C
  H2343    1.0000 0.23903  0.61600  0.09798  Biso   1.000  H
  C2510    1.0000 0.23980  0.51377  0.00071  Biso   1.000  C
  H2344    1.0000 0.23904  0.61601  0.09804  Biso   1.000  H
  C2511    1.0000 0.23980  0.51384  0.00071  Biso   1.000  C
  H2345    1.0000 0.29004  0.62202  0.89602  Biso   1.000  H
  H2346    1.0000 0.29003  0.62195  0.89602  Biso   1.000  H
  O467     1.0000 0.13212  0.71589  0.14640  Biso   1.000  O
  O468     1.0000 0.13212  0.71596  0.14640  Biso   1.000  O
  H2347    1.0000 0.17498  0.83202  0.10999  Biso   1.000  H
  H2348    1.0000 0.19303  0.83499  0.21303  Biso   1.000  H
  H2349    1.0000 0.17505  0.83202  0.10999  Biso   1.000  H
  H2350    1.0000 0.19303  0.83506  0.21303  Biso   1.000  H
  H2351    1.0000 0.46207  0.79498  0.84200  Biso   1.000  H
  C2512    1.0000 0.42397  0.65718  0.80720  Biso   1.000  C
  C2513    1.0000 0.42397  0.65712  0.80720  Biso   1.000  C
  H2352    1.0000 0.32709  0.96504  0.92302  Biso   1.000  H
  H2353    1.0000 0.32709  0.96497  0.92302  Biso   1.000  H
  H2354    1.0000 0.43108  0.03492  0.93599  Biso   1.000  H
  H2355    1.0000 0.43109  0.03499  0.93599  Biso   1.000  H
  H2356    1.0000 0.68903  0.94903  0.67603  Biso   1.000  H
  C2514    1.0000 0.78572  0.87253  0.71119  Biso   1.000  C
  H2357    1.0000 0.68909  0.94897  0.67603  Biso   1.000  H
  C2515    1.0000 0.78579  0.87246  0.71119  Biso   1.000  C
  H2358    1.0000 0.68902  0.94897  0.67603  Biso   1.000  H
  C2516    1.0000 0.78572  0.87246  0.71119  Biso   1.000  C
  H2359    1.0000 0.80103  0.00397  0.69399  Biso   1.000  H
  O469     1.0000 0.98586  0.85685  0.65372  Biso   1.000  O
  O470     1.0000 0.98585  0.85678  0.65372  Biso   1.000  O
  H2360    1.0000 0.07108  0.94601  0.73599  Biso   1.000  H
  H2361    1.0000 0.03802  0.98299  0.64599  Biso   1.000  H
  H2362    1.0000 0.07108  0.94595  0.73599  Biso   1.000  H
  H2363    1.0000 0.03808  0.98293  0.64599  Biso   1.000  H
  H2364    1.0000 0.07101  0.94595  0.73599  Biso   1.000  H
  H2365    1.0000 0.03808  0.98299  0.64599  Biso   1.000  H
  C2517    1.0000 0.02987  0.71749  0.69447  Biso   1.000  C
  C2518    1.0000 0.02987  0.71743  0.69453  Biso   1.000  C
  C2519    1.0000 0.02980  0.71749  0.69447  Biso   1.000  C
  C2520    1.0000 0.02988  0.71750  0.69453  Biso   1.000  C
  H2366    1.0000 0.08603  0.75000  0.59197  Biso   1.000  H
  C2521    1.0000 0.11513  0.62244  0.60250  Biso   1.000  C
  H2367    1.0000 0.08603  0.74995  0.59203  Biso   1.000  H
  C2522    1.0000 0.11512  0.62237  0.60250  Biso   1.000  C
  H2368    1.0000 0.08604  0.75001  0.59203  Biso   1.000  H
  H2369    1.0000 0.24605  0.66399  0.73397  Biso   1.000  H
  H2370    1.0000 0.24606  0.66394  0.73403  Biso   1.000  H
  H2371    1.0000 0.24606  0.66401  0.73403  Biso   1.000  H
  C2523    1.0000 0.46496  0.60319  0.36008  Biso   1.000  C
  H2372    1.0000 0.37802  0.59601  0.25003  Biso   1.000  H
  C2524    1.0000 0.46497  0.60320  0.36014  Biso   1.000  C
  C2525    1.0000 0.46496  0.60314  0.36014  Biso   1.000  C
  H2373    1.0000 0.37801  0.59594  0.25003  Biso   1.000  H
  H2374    1.0000 0.55603  0.59097  0.46299  Biso   1.000  H
  H2375    1.0000 0.55603  0.59103  0.46299  Biso   1.000  H
  O471     1.0000 0.96490  0.77363  0.10529  Biso   1.000  O
  H2376    1.0000 0.96604  0.68501  0.18602  Biso   1.000  H
  H2377    1.0000 0.85703  0.70401  0.14497  Biso   1.000  H
  H2378    1.0000 0.85704  0.70402  0.14503  Biso   1.000  H
  H2379    1.0000 0.96597  0.68501  0.18602  Biso   1.000  H
  H2380    1.0000 0.85696  0.70401  0.14497  Biso   1.000  H
  C2526    1.0000 0.08470  0.68681  0.07162  Biso   1.000  C
  C2527    1.0000 0.07443  0.59122  0.94289  Biso   1.000  C
  C2528    1.0000 0.07449  0.59116  0.94289  Biso   1.000  C
  C2529    1.0000 0.07442  0.59116  0.94289  Biso   1.000  C
  H2381    1.0000 0.23609  0.50503  0.93700  Biso   1.000  H
  H2382    1.0000 0.23608  0.50497  0.93700  Biso   1.000  H
  H2383    1.0000 0.19003  0.46602  0.01701  Biso   1.000  H
  C2530    1.0000 0.33442  0.49788  0.03551  Biso   1.000  C
  C2531    1.0000 0.33442  0.49794  0.03551  Biso   1.000  C
  H2384    1.0000 0.36301  0.61200  0.78799  Biso   1.000  H
  H2385    1.0000 0.46602  0.63200  0.85199  Biso   1.000  H
  C2532    1.0000 0.47416  0.66709  0.73683  Biso   1.000  C
  H2386    1.0000 0.36308  0.61193  0.78799  Biso   1.000  H
  H2387    1.0000 0.46608  0.63193  0.85199  Biso   1.000  H
  C2533    1.0000 0.47415  0.66703  0.73683  Biso   1.000  C
  H2388    1.0000 0.36301  0.61193  0.78799  Biso   1.000  H
  H2389    1.0000 0.36308  0.61200  0.78799  Biso   1.000  H
  H2390    1.0000 0.46609  0.63200  0.85199  Biso   1.000  H
  H2391    1.0000 0.73506  0.82601  0.72802  Biso   1.000  H
  H2392    1.0000 0.79702  0.84900  0.65098  Biso   1.000  H
  O472     1.0000 0.86774  0.87400  0.76068  Biso   1.000  O
  H2393    1.0000 0.73505  0.82594  0.72802  Biso   1.000  H
  H2394    1.0000 0.79701  0.84894  0.65098  Biso   1.000  H
  O473     1.0000 0.86774  0.87395  0.76074  Biso   1.000  O
  O474     1.0000 0.86774  0.87393  0.76068  Biso   1.000  O
  O475     1.0000 0.86775  0.87401  0.76074  Biso   1.000  O
  C2534    1.0000 0.97803  0.79011  0.69911  Biso   1.000  C
  C2535    1.0000 0.97802  0.79004  0.69911  Biso   1.000  C
  C2536    1.0000 0.01537  0.65160  0.74111  Biso   1.000  C
  C2537    1.0000 0.01537  0.65154  0.74111  Biso   1.000  C
  H2395    1.0000 0.13707  0.58500  0.64801  Biso   1.000  H
  H2396    1.0000 0.05103  0.59104  0.57002  Biso   1.000  H
  C2538    1.0000 0.18656  0.62421  0.54420  Biso   1.000  C
  H2397    1.0000 0.13707  0.58494  0.64801  Biso   1.000  H
  H2398    1.0000 0.05103  0.59098  0.57002  Biso   1.000  H
  C2539    1.0000 0.18655  0.62414  0.54420  Biso   1.000  C
  H2399    1.0000 0.45003  0.67001  0.38501  Biso   1.000  H
  H2400    1.0000 0.45002  0.66994  0.38501  Biso   1.000  H
  C2540    1.0000 0.99753  0.70971  0.05199  Biso   1.000  C
  C2541    1.0000 0.98727  0.61420  0.92332  Biso   1.000  C
  C2542    1.0000 0.98726  0.61413  0.92332  Biso   1.000  C
  H2401    1.0000 0.10406  0.54500  0.90101  Biso   1.000  H
  H2402    1.0000 0.10405  0.54493  0.90101  Biso   1.000  H
  H2403    1.0000 0.33398  0.50100  0.09899  Biso   1.000  H
  H2404    1.0000 0.38100  0.55198  0.02600  Biso   1.000  H
  C2543    1.0000 0.36997  0.41152  0.00410  Biso   1.000  C
  H2405    1.0000 0.38100  0.55205  0.02600  Biso   1.000  H
  H2406    1.0000 0.43201  0.69200  0.69197  Biso   1.000  H
  H2407    1.0000 0.53602  0.71200  0.75598  Biso   1.000  H
  C2544    1.0000 0.49687  0.56884  0.70393  Biso   1.000  C
  H2408    1.0000 0.43208  0.69195  0.69203  Biso   1.000  H
  H2409    1.0000 0.53608  0.71193  0.75598  Biso   1.000  H
  C2545    1.0000 0.49686  0.56877  0.70393  Biso   1.000  C
  H2410    1.0000 0.43200  0.69194  0.69197  Biso   1.000  H
  H2411    1.0000 0.53602  0.71193  0.75598  Biso   1.000  H
  H2412    1.0000 0.43209  0.69202  0.69203  Biso   1.000  H
  C2546    1.0000 0.91175  0.79672  0.75039  Biso   1.000  C
  C2547    1.0000 0.91174  0.79665  0.75039  Biso   1.000  C
  C2548    1.0000 0.94903  0.65833  0.79233  Biso   1.000  C
  C2549    1.0000 0.94909  0.65826  0.79233  Biso   1.000  C
  C2550    1.0000 0.94902  0.65826  0.79233  Biso   1.000  C
  H2413    1.0000 0.05504  0.59499  0.73700  Biso   1.000  H
  H2414    1.0000 0.05503  0.59492  0.73700  Biso   1.000  H
  H2415    1.0000 0.25106  0.65302  0.57799  Biso   1.000  H
  H2416    1.0000 0.16603  0.66603  0.50203  Biso   1.000  H
  C2551    1.0000 0.19931  0.53250  0.49953  Biso   1.000  C
  H2417    1.0000 0.25105  0.65295  0.57799  Biso   1.000  H
  H2418    1.0000 0.16603  0.66596  0.50203  Biso   1.000  H
  C2552    1.0000 0.19937  0.53243  0.49953  Biso   1.000  C
  C2553    1.0000 0.19937  0.53250  0.49953  Biso   1.000  C
  C2554    1.0000 0.94888  0.67353  0.97781  Biso   1.000  C
  C2555    1.0000 0.94888  0.67346  0.97781  Biso   1.000  C
  C2556    1.0000 0.92426  0.58573  0.84569  Biso   1.000  C
  C2557    1.0000 0.92426  0.58566  0.84569  Biso   1.000  C
  C2558    1.0000 0.41105  0.41283  0.93510  Biso   1.000  C
  C2559    1.0000 0.41104  0.41276  0.93510  Biso   1.000  C
  C2560    1.0000 0.36339  0.33320  0.03688  Biso   1.000  C
  C2561    1.0000 0.55674  0.52410  0.74771  Biso   1.000  C
  C2562    1.0000 0.45611  0.52741  0.62802  Biso   1.000  C
  C2563    1.0000 0.55674  0.52403  0.74771  Biso   1.000  C
  C2564    1.0000 0.45617  0.52734  0.62802  Biso   1.000  C
  C2565    1.0000 0.45618  0.52741  0.62802  Biso   1.000  C
  C2566    1.0000 0.89723  0.73081  0.79691  Biso   1.000  C
  C2567    1.0000 0.89723  0.73074  0.79691  Biso   1.000  C
  C2568    1.0000 0.13980  0.45511  0.49590  Biso   1.000  C
  C2569    1.0000 0.27790  0.52740  0.46282  Biso   1.000  C
  C2570    1.0000 0.13986  0.45504  0.49590  Biso   1.000  C
  C2571    1.0000 0.27796  0.52734  0.46282  Biso   1.000  C
  C2572    1.0000 0.13987  0.45511  0.49590  Biso   1.000  C
  C2573    1.0000 0.27796  0.52740  0.46282  Biso   1.000  C
  O476     1.0000 0.86263  0.69627  0.96978  Biso   1.000  O
  O477     1.0000 0.86264  0.69622  0.96984  Biso   1.000  O
  O478     1.0000 0.86264  0.69628  0.96984  Biso   1.000  O
  H2419    1.0000 0.85404  0.58100  0.85598  Biso   1.000  H
  C2574    1.0000 0.94947  0.49138  0.80072  Biso   1.000  C
  H2420    1.0000 0.85405  0.58095  0.85604  Biso   1.000  H
  H2421    1.0000 0.85404  0.58094  0.85598  Biso   1.000  H
  C2575    1.0000 0.44536  0.33589  0.89887  Biso   1.000  C
  H2422    1.0000 0.41605  0.47303  0.90999  Biso   1.000  H
  C2576    1.0000 0.44536  0.33584  0.89893  Biso   1.000  C
  H2423    1.0000 0.41604  0.47297  0.90999  Biso   1.000  H
  C2577    1.0000 0.44536  0.33590  0.89893  Biso   1.000  C
  C2578    1.0000 0.39778  0.25622  0.00077  Biso   1.000  C
  H2424    1.0000 0.33197  0.33197  0.09001  Biso   1.000  H
  C2579    1.0000 0.39779  0.25623  0.00083  Biso   1.000  C
  H2425    1.0000 0.33204  0.33204  0.09001  Biso   1.000  H
  H2426    1.0000 0.33197  0.33204  0.09001  Biso   1.000  H
  C2580    1.0000 0.57583  0.43809  0.71571  Biso   1.000  C
  H2427    1.0000 0.58804  0.55598  0.80601  Biso   1.000  H
  C2581    1.0000 0.57583  0.43802  0.71571  Biso   1.000  C
  H2428    1.0000 0.58803  0.55592  0.80601  Biso   1.000  H
  C2582    1.0000 0.47534  0.44139  0.59602  Biso   1.000  C
  H2429    1.0000 0.41004  0.56201  0.59400  Biso   1.000  H
  C2583    1.0000 0.47533  0.44133  0.59602  Biso   1.000  C
  H2430    1.0000 0.41004  0.56194  0.59400  Biso   1.000  H
  O479     1.0000 0.82286  0.73951  0.84319  Biso   1.000  O
  O480     1.0000 0.82286  0.73944  0.84319  Biso   1.000  O
  C2584    1.0000 0.15903  0.37264  0.45563  Biso   1.000  C
  H2431    1.0000 0.07904  0.45904  0.52398  Biso   1.000  H
  C2585    1.0000 0.15902  0.37258  0.45563  Biso   1.000  C
  H2432    1.0000 0.07905  0.45899  0.52404  Biso   1.000  H
  H2433    1.0000 0.07904  0.45898  0.52398  Biso   1.000  H
  C2586    1.0000 0.29711  0.44492  0.42249  Biso   1.000  C
  H2434    1.0000 0.32403  0.58700  0.46598  Biso   1.000  H
  C2587    1.0000 0.29711  0.44486  0.42249  Biso   1.000  C
  H2435    1.0000 0.32403  0.58695  0.46604  Biso   1.000  H
  H2436    1.0000 0.32404  0.58702  0.46604  Biso   1.000  H
  C2588    1.0000 0.84787  0.77003  0.92731  Biso   1.000  C
  C2589    1.0000 0.84786  0.76996  0.92731  Biso   1.000  C
  H2437    1.0000 0.94805  0.44201  0.83998  Biso   1.000  H
  C2590    1.0000 0.87374  0.45938  0.72558  Biso   1.000  C
  H2438    1.0000 0.94805  0.44195  0.84004  Biso   1.000  H
  H2439    1.0000 0.94804  0.44194  0.83998  Biso   1.000  H
  H2440    1.0000 0.01607  0.49902  0.78198  Biso   1.000  H
  H2441    1.0000 0.01607  0.49896  0.78204  Biso   1.000  H
  H2442    1.0000 0.01606  0.49895  0.78198  Biso   1.000  H
  C2591    1.0000 0.43874  0.25761  0.93183  Biso   1.000  C
  H2443    1.0000 0.47701  0.33697  0.84497  Biso   1.000  H
  C2592    1.0000 0.43873  0.25754  0.93183  Biso   1.000  C
  H2444    1.0000 0.47708  0.33698  0.84503  Biso   1.000  H
  H2445    1.0000 0.39300  0.19598  0.02600  Biso   1.000  H
  H2446    1.0000 0.39300  0.19604  0.02600  Biso   1.000  H
  C2593    1.0000 0.53511  0.39681  0.63992  Biso   1.000  C
  H2447    1.0000 0.62205  0.40399  0.74997  Biso   1.000  H
  C2594    1.0000 0.53517  0.39674  0.63992  Biso   1.000  C
  H2448    1.0000 0.62205  0.40394  0.75003  Biso   1.000  H
  C2595    1.0000 0.53518  0.39681  0.63992  Biso   1.000  C
  H2449    1.0000 0.62206  0.40401  0.75003  Biso   1.000  H
  H2450    1.0000 0.44404  0.40903  0.53701  Biso   1.000  H
  H2451    1.0000 0.44404  0.40897  0.53701  Biso   1.000  H
  C2596    1.0000 0.23775  0.36755  0.41892  Biso   1.000  C
  H2452    1.0000 0.11303  0.31302  0.45301  Biso   1.000  H
  C2597    1.0000 0.23774  0.36749  0.41892  Biso   1.000  C
  H2453    1.0000 0.11302  0.31295  0.45301  Biso   1.000  H
  H2454    1.0000 0.35802  0.44104  0.39400  Biso   1.000  H
  H2455    1.0000 0.35802  0.44097  0.39400  Biso   1.000  H
  H2456    1.0000 0.91008  0.81499  0.93700  Biso   1.000  H
  H2457    1.0000 0.79408  0.80499  0.95098  Biso   1.000  H
  H2458    1.0000 0.91007  0.81493  0.93700  Biso   1.000  H
  H2459    1.0000 0.79407  0.80492  0.95098  Biso   1.000  H
  H2460    1.0000 0.87204  0.51201  0.69001  Biso   1.000  H
  H2461    1.0000 0.80803  0.44803  0.74599  Biso   1.000  H
  C2598    1.0000 0.89375  0.37264  0.67442  Biso   1.000  C
  H2462    1.0000 0.87203  0.51195  0.69001  Biso   1.000  H
  H2463    1.0000 0.80802  0.44796  0.74599  Biso   1.000  H
  C2599    1.0000 0.89374  0.37257  0.67442  Biso   1.000  C
  H2464    1.0000 0.46507  0.19802  0.90399  Biso   1.000  H
  H2465    1.0000 0.46506  0.19795  0.90399  Biso   1.000  H
  H2466    1.0000 0.55004  0.32999  0.61499  Biso   1.000  H
  H2467    1.0000 0.55003  0.32992  0.61499  Biso   1.000  H
  H2468    1.0000 0.25301  0.30401  0.38799  Biso   1.000  H
  H2469    1.0000 0.25301  0.30395  0.38799  Biso   1.000  H
  C2600    1.0000 0.82972  0.29721  0.66282  Biso   1.000  C
  C2601    1.0000 0.97343  0.36781  0.63933  Biso   1.000  C
  C2602    1.0000 0.82978  0.29714  0.66282  Biso   1.000  C
  C2603    1.0000 0.97343  0.36774  0.63933  Biso   1.000  C
  C2604    1.0000 0.84545  0.21701  0.61613  Biso   1.000  C
  H2470    1.0000 0.76803  0.30102  0.69001  Biso   1.000  H
  C2605    1.0000 0.84544  0.21694  0.61613  Biso   1.000  C
  H2471    1.0000 0.76803  0.30096  0.69001  Biso   1.000  H
  C2606    1.0000 0.98915  0.28758  0.59251  Biso   1.000  C
  H2472    1.0000 0.02303  0.42602  0.64801  Biso   1.000  H
  H2473    1.0000 0.02302  0.42595  0.64801  Biso   1.000  H
  C2607    1.0000 0.92512  0.21222  0.58091  Biso   1.000  C
  H2474    1.0000 0.79602  0.15904  0.60702  Biso   1.000  H
  C2608    1.0000 0.92512  0.21215  0.58091  Biso   1.000  C
  H2475    1.0000 0.79602  0.15898  0.60702  Biso   1.000  H
  H2476    1.0000 0.05102  0.28404  0.56503  Biso   1.000  H
  H2477    1.0000 0.05101  0.28397  0.56503  Biso   1.000  H
  H2478    1.0000 0.93705  0.14998  0.54498  Biso   1.000  H
  H2479    1.0000 0.93706  0.14999  0.54504  Biso   1.000  H
  H2480    1.0000 0.93699  0.14998  0.54498  Biso   1.000  H
