data_image0
_cell_length_a       27.786
_cell_length_b       27.854
_cell_length_c       29.362
_cell_angle_alpha    111.47
_cell_angle_beta     101.32
_cell_angle_gamma    105.4

_symmetry_space_group_name_H-M    "P 1"
_symmetry_int_tables_number       1

loop_
  _symmetry_equiv_pos_as_xyz
  'x, y, z'

loop_
  _atom_site_label
  _atom_site_occupancy
  _atom_site_fract_x
  _atom_site_fract_y
  _atom_site_fract_z
  _atom_site_thermal_displace_type
  _atom_site_B_iso_or_equiv
  _atom_site_type_symbol
  C1       1.0000 0.98773  0.56000  0.70597  Biso   1.000  C
  C2       1.0000 0.93763  0.55064  0.67634  Biso   1.000  C
  C3       1.0000 0.93760  0.55064  0.67634  Biso   1.000  C
  C4       1.0000 0.93761  0.55068  0.67634  Biso   1.000  C
  C5       1.0000 0.93764  0.55068  0.67634  Biso   1.000  C
  C6       1.0000 0.99383  0.54497  0.74636  Biso   1.000  C
  C7       1.0000 0.99380  0.54497  0.74636  Biso   1.000  C
  H1       1.0000 0.01731  0.57629  0.69876  Biso   1.000  H
  H2       1.0000 0.01732  0.57623  0.69873  Biso   1.000  H
  H3       1.0000 0.01734  0.57629  0.69876  Biso   1.000  H
  H4       1.0000 0.01730  0.57627  0.69873  Biso   1.000  H
  H5       1.0000 0.01729  0.57623  0.69873  Biso   1.000  H
  H6       1.0000 0.01733  0.57627  0.69873  Biso   1.000  H
  C8       1.0000 0.89344  0.52628  0.68715  Biso   1.000  C
  C9       1.0000 0.89339  0.52624  0.68715  Biso   1.000  C
  C10      1.0000 0.89340  0.52628  0.68715  Biso   1.000  C
  C11      1.0000 0.89343  0.52624  0.68715  Biso   1.000  C
  C12      1.0000 0.98775  0.55997  0.70597  Biso   1.000  C
  B1       1.0000 0.93303  0.56687  0.63486  Biso   1.000  B
  C13      1.0000 0.98771  0.55995  0.70593  Biso   1.000  C
  B2       1.0000 0.93301  0.56685  0.63483  Biso   1.000  B
  B3       1.0000 0.93298  0.56685  0.63483  Biso   1.000  B
  C14      1.0000 0.98772  0.55997  0.70597  Biso   1.000  C
  C15      1.0000 0.98774  0.55995  0.70593  Biso   1.000  C
  C16      1.0000 0.98776  0.56000  0.70597  Biso   1.000  C
  C17      1.0000 0.94966  0.52068  0.75717  Biso   1.000  C
  C18      1.0000 0.94961  0.52066  0.75713  Biso   1.000  C
  C19      1.0000 0.94962  0.52068  0.75717  Biso   1.000  C
  C20      1.0000 0.94965  0.52066  0.75713  Biso   1.000  C
  B4       1.0000 0.05042  0.54867  0.77897  Biso   1.000  B
  B5       1.0000 0.05041  0.54865  0.77893  Biso   1.000  B
  B6       1.0000 0.05043  0.54871  0.77897  Biso   1.000  B
  C21      1.0000 0.89954  0.51125  0.72754  Biso   1.000  C
  C22      1.0000 0.89951  0.51125  0.72754  Biso   1.000  C
  C23      1.0000 0.89952  0.51128  0.72754  Biso   1.000  C
  C24      1.0000 0.89955  0.51128  0.72754  Biso   1.000  C
  H7       1.0000 0.85993  0.52006  0.66736  Biso   1.000  H
  H8       1.0000 0.85994  0.52009  0.66736  Biso   1.000  H
  H9       1.0000 0.85989  0.52006  0.66736  Biso   1.000  H
  O1       1.0000 0.97403  0.59215  0.61984  Biso   1.000  O
  O2       1.0000 0.88461  0.56424  0.60543  Biso   1.000  O
  O3       1.0000 0.97399  0.59215  0.61984  Biso   1.000  O
  O4       1.0000 0.97400  0.59218  0.61984  Biso   1.000  O
  O5       1.0000 0.88462  0.56427  0.60543  Biso   1.000  O
  O6       1.0000 0.88458  0.56424  0.60543  Biso   1.000  O
  O7       1.0000 0.97404  0.59218  0.61984  Biso   1.000  O
  H10      1.0000 0.95364  0.51069  0.78416  Biso   1.000  H
  H11      1.0000 0.95363  0.51065  0.78416  Biso   1.000  H
  H12      1.0000 0.95361  0.51069  0.78416  Biso   1.000  H
  O8       1.0000 0.05649  0.53578  0.81994  Biso   1.000  O
  O9       1.0000 0.09420  0.57256  0.76975  Biso   1.000  O
  O10      1.0000 0.05653  0.53578  0.81994  Biso   1.000  O
  O11      1.0000 0.09424  0.57256  0.76975  Biso   1.000  O
  O12      1.0000 0.09425  0.57260  0.76975  Biso   1.000  O
  O13      1.0000 0.09421  0.57260  0.76975  Biso   1.000  O
  B7       1.0000 0.84943  0.48535  0.73796  Biso   1.000  B
  B8       1.0000 0.84944  0.48539  0.73796  Biso   1.000  B
  B9       1.0000 0.84940  0.48539  0.73796  Biso   1.000  B
  B10      1.0000 0.84939  0.48535  0.73796  Biso   1.000  B
  C25      1.0000 0.95302  0.59925  0.57813  Biso   1.000  C
  C26      1.0000 0.95298  0.59925  0.57813  Biso   1.000  C
  C27      1.0000 0.89913  0.58057  0.57046  Biso   1.000  C
  C28      1.0000 0.89911  0.58055  0.57042  Biso   1.000  C
  C29      1.0000 0.89908  0.58055  0.57042  Biso   1.000  C
  C30      1.0000 0.89909  0.58057  0.57046  Biso   1.000  C
  C31      1.0000 0.11201  0.55158  0.83795  Biso   1.000  C
  C32      1.0000 0.11205  0.55158  0.83795  Biso   1.000  C
  C33      1.0000 0.13370  0.57159  0.80666  Biso   1.000  C
  C34      1.0000 0.13373  0.57156  0.80666  Biso   1.000  C
  C35      1.0000 0.13374  0.57159  0.80666  Biso   1.000  C
  C36      1.0000 0.13369  0.57156  0.80666  Biso   1.000  C
  O14      1.0000 0.79895  0.47786  0.71015  Biso   1.000  O
  O15      1.0000 0.79891  0.47786  0.71015  Biso   1.000  O
  O16      1.0000 0.84825  0.46727  0.77614  Biso   1.000  O
  O17      1.0000 0.84822  0.46727  0.77614  Biso   1.000  O
  C37      1.0000 0.97232  0.62015  0.54633  Biso   1.000  C
  C38      1.0000 0.97228  0.62015  0.54633  Biso   1.000  C
  C39      1.0000 0.86452  0.58297  0.53084  Biso   1.000  C
  C40      1.0000 0.86451  0.58293  0.53084  Biso   1.000  C
  C41      1.0000 0.86449  0.58297  0.53084  Biso   1.000  C
  C42      1.0000 0.14423  0.54670  0.87738  Biso   1.000  C
  C43      1.0000 0.14424  0.54665  0.87734  Biso   1.000  C
  C44      1.0000 0.14426  0.54670  0.87738  Biso   1.000  C
  C45      1.0000 0.14422  0.54668  0.87734  Biso   1.000  C
  C46      1.0000 0.14421  0.54665  0.87734  Biso   1.000  C
  C47      1.0000 0.14425  0.54668  0.87734  Biso   1.000  C
  C48      1.0000 0.18762  0.58668  0.81475  Biso   1.000  C
  C49      1.0000 0.76773  0.45338  0.73265  Biso   1.000  C
  C50      1.0000 0.76772  0.45334  0.73265  Biso   1.000  C
  C51      1.0000 0.76769  0.45338  0.73265  Biso   1.000  C
  C52      1.0000 0.79642  0.44666  0.77273  Biso   1.000  C
  C53      1.0000 0.79639  0.44666  0.77273  Biso   1.000  C
  C54      1.0000 0.93762  0.62257  0.50675  Biso   1.000  C
  C55      1.0000 0.93760  0.62255  0.50671  Biso   1.000  C
  C56      1.0000 0.93757  0.62255  0.50671  Biso   1.000  C
  H13      1.0000 0.00840  0.63266  0.55152  Biso   1.000  H
  H14      1.0000 0.00839  0.63262  0.55152  Biso   1.000  H
  C57      1.0000 0.88370  0.60394  0.49905  Biso   1.000  C
  H15      1.0000 0.82841  0.57046  0.52565  Biso   1.000  H
  H16      1.0000 0.82839  0.57044  0.52561  Biso   1.000  H
  C58      1.0000 0.88371  0.60398  0.49905  Biso   1.000  C
  H17      1.0000 0.12973  0.53329  0.89825  Biso   1.000  H
  C59      1.0000 0.19822  0.56179  0.88547  Biso   1.000  C
  H18      1.0000 0.12972  0.53325  0.89825  Biso   1.000  H
  C60      1.0000 0.19824  0.56177  0.88543  Biso   1.000  C
  C61      1.0000 0.19826  0.56179  0.88547  Biso   1.000  C
  C62      1.0000 0.19821  0.56177  0.88543  Biso   1.000  C
  C63      1.0000 0.21993  0.58167  0.85406  Biso   1.000  C
  H19      1.0000 0.20210  0.59996  0.79376  Biso   1.000  H
  H20      1.0000 0.20214  0.59996  0.79376  Biso   1.000  H
  C64      1.0000 0.21994  0.58171  0.85406  Biso   1.000  C
  H21      1.0000 0.20215  0.60000  0.79376  Biso   1.000  H
  H22      1.0000 0.20211  0.60000  0.79376  Biso   1.000  H
  C65      1.0000 0.71303  0.43667  0.71956  Biso   1.000  C
  C66      1.0000 0.71301  0.43665  0.71952  Biso   1.000  C
  C67      1.0000 0.71298  0.43665  0.71952  Biso   1.000  C
  C68      1.0000 0.77052  0.42328  0.79984  Biso   1.000  C
  C69      1.0000 0.77051  0.42324  0.79984  Biso   1.000  C
  C70      1.0000 0.77049  0.42328  0.79984  Biso   1.000  C
  C71      1.0000 0.96442  0.64574  0.47403  Biso   1.000  C
  C72      1.0000 0.96439  0.64574  0.47403  Biso   1.000  C
  C73      1.0000 0.96440  0.64577  0.47403  Biso   1.000  C
  C74      1.0000 0.96443  0.64577  0.47403  Biso   1.000  C
  C75      1.0000 0.85882  0.61274  0.45455  Biso   1.000  C
  C76      1.0000 0.85877  0.61272  0.45451  Biso   1.000  C
  C77      1.0000 0.85883  0.61278  0.45455  Biso   1.000  C
  C78      1.0000 0.85878  0.61274  0.45455  Biso   1.000  C
  C79      1.0000 0.85880  0.61272  0.45451  Biso   1.000  C
  C80      1.0000 0.23672  0.56017  0.92966  Biso   1.000  C
  C81      1.0000 0.23676  0.56017  0.92966  Biso   1.000  C
  C82      1.0000 0.23677  0.56021  0.92966  Biso   1.000  C
  C83      1.0000 0.23673  0.56021  0.92966  Biso   1.000  C
  C84      1.0000 0.27883  0.59876  0.86835  Biso   1.000  C
  C85      1.0000 0.27884  0.59880  0.86835  Biso   1.000  C
  C86      1.0000 0.68724  0.41318  0.74667  Biso   1.000  C
  C87      1.0000 0.68719  0.41316  0.74663  Biso   1.000  C
  C88      1.0000 0.68720  0.41318  0.74667  Biso   1.000  C
  C89      1.0000 0.68723  0.41316  0.74663  Biso   1.000  C
  H23      1.0000 0.69384  0.44106  0.69276  Biso   1.000  H
  H24      1.0000 0.69379  0.44104  0.69272  Biso   1.000  H
  H25      1.0000 0.69382  0.44109  0.69276  Biso   1.000  H
  H26      1.0000 0.69381  0.44106  0.69276  Biso   1.000  H
  H27      1.0000 0.69385  0.44109  0.69276  Biso   1.000  H
  C90      1.0000 0.71595  0.40659  0.78687  Biso   1.000  C
  C91      1.0000 0.71590  0.40653  0.78683  Biso   1.000  C
  C92      1.0000 0.71592  0.40659  0.78687  Biso   1.000  C
  C93      1.0000 0.71591  0.40657  0.78683  Biso   1.000  C
  C94      1.0000 0.71593  0.40653  0.78683  Biso   1.000  C
  H28      1.0000 0.78973  0.41877  0.82676  Biso   1.000  H
  H29      1.0000 0.78974  0.41880  0.82676  Biso   1.000  H
  H30      1.0000 0.78970  0.41877  0.82676  Biso   1.000  H
  C95      1.0000 0.93103  0.60156  0.41934  Biso   1.000  C
  C96      1.0000 0.93844  0.68926  0.47213  Biso   1.000  C
  C97      1.0000 0.93098  0.60154  0.41931  Biso   1.000  C
  C98      1.0000 0.93839  0.68923  0.47213  Biso   1.000  C
  C99      1.0000 0.93099  0.60156  0.41934  Biso   1.000  C
  C100     1.0000 0.93840  0.68926  0.47213  Biso   1.000  C
  C101     1.0000 0.93101  0.60154  0.41931  Biso   1.000  C
  H31      1.0000 0.00290  0.65776  0.48344  Biso   1.000  H
  C102     1.0000 0.87711  0.58264  0.41133  Biso   1.000  C
  H32      1.0000 0.82020  0.60014  0.44502  Biso   1.000  H
  C103     1.0000 0.88449  0.67243  0.46442  Biso   1.000  C
  C104     1.0000 0.87707  0.58264  0.41133  Biso   1.000  C
  C105     1.0000 0.88450  0.67246  0.46442  Biso   1.000  C
  H33      1.0000 0.82016  0.60014  0.44502  Biso   1.000  H
  C106     1.0000 0.26413  0.52708  0.89937  Biso   1.000  C
  H34      1.0000 0.22074  0.54547  0.95096  Biso   1.000  H
  C107     1.0000 0.27412  0.62008  0.95727  Biso   1.000  C
  C108     1.0000 0.26412  0.52706  0.89934  Biso   1.000  C
  C109     1.0000 0.27416  0.62008  0.95727  Biso   1.000  C
  H35      1.0000 0.22075  0.54551  0.95096  Biso   1.000  H
  C110     1.0000 0.27417  0.62012  0.95727  Biso   1.000  C
  H36      1.0000 0.22071  0.54547  0.95096  Biso   1.000  H
  C111     1.0000 0.27413  0.62012  0.95727  Biso   1.000  C
  C112     1.0000 0.28663  0.54637  0.86804  Biso   1.000  C
  H37      1.0000 0.29503  0.61367  0.84717  Biso   1.000  H
  C113     1.0000 0.29524  0.63796  0.92455  Biso   1.000  C
  H38      1.0000 0.29502  0.61365  0.84713  Biso   1.000  H
  H39      1.0000 0.29504  0.61371  0.84717  Biso   1.000  H
  C114     1.0000 0.29525  0.63800  0.92455  Biso   1.000  C
  C115     1.0000 0.62892  0.39846  0.74257  Biso   1.000  C
  C116     1.0000 0.62890  0.39845  0.74253  Biso   1.000  C
  C117     1.0000 0.62893  0.39850  0.74257  Biso   1.000  C
  C118     1.0000 0.62887  0.39845  0.74253  Biso   1.000  C
  C119     1.0000 0.68633  0.37955  0.81545  Biso   1.000  C
  C120     1.0000 0.68634  0.37959  0.81545  Biso   1.000  C
  C121     1.0000 0.68630  0.37959  0.81545  Biso   1.000  C
  C122     1.0000 0.68629  0.37955  0.81545  Biso   1.000  C
  C123     1.0000 0.95101  0.57352  0.38251  Biso   1.000  C
  C124     1.0000 0.95097  0.57352  0.38251  Biso   1.000  C
  C125     1.0000 0.95098  0.57355  0.38251  Biso   1.000  C
  C126     1.0000 0.95102  0.57355  0.38251  Biso   1.000  C
  C127     1.0000 0.96741  0.74414  0.48514  Biso   1.000  C
  C128     1.0000 0.96742  0.74418  0.48514  Biso   1.000  C
  C129     1.0000 0.84310  0.53562  0.36652  Biso   1.000  C
  C130     1.0000 0.84306  0.53562  0.36652  Biso   1.000  C
  C131     1.0000 0.84307  0.53566  0.36652  Biso   1.000  C
  C132     1.0000 0.84311  0.53566  0.36652  Biso   1.000  C
  C133     1.0000 0.85960  0.71045  0.46984  Biso   1.000  C
  C134     1.0000 0.26972  0.48058  0.90356  Biso   1.000  C
  C135     1.0000 0.26975  0.48058  0.90356  Biso   1.000  C
  C136     1.0000 0.28836  0.65629  0.00928  Biso   1.000  C
  C137     1.0000 0.28837  0.65632  0.00928  Biso   1.000  C
  C138     1.0000 0.28832  0.65629  0.00928  Biso   1.000  C
  C139     1.0000 0.31461  0.51907  0.84086  Biso   1.000  C
  C140     1.0000 0.31464  0.51907  0.84086  Biso   1.000  C
  C141     1.0000 0.31465  0.51911  0.84086  Biso   1.000  C
  C142     1.0000 0.31462  0.51911  0.84086  Biso   1.000  C
  C143     1.0000 0.33074  0.69207  0.94387  Biso   1.000  C
  C144     1.0000 0.33075  0.69211  0.94387  Biso   1.000  C
  C145     1.0000 0.61223  0.33759  0.73277  Biso   1.000  C
  C146     1.0000 0.61220  0.33753  0.73273  Biso   1.000  C
  C147     1.0000 0.61218  0.33757  0.73273  Biso   1.000  C
  C148     1.0000 0.61221  0.33757  0.73273  Biso   1.000  C
  H40      1.0000 0.60802  0.40417  0.71534  Biso   1.000  H
  C149     1.0000 0.62785  0.43097  0.79477  Biso   1.000  C
  H41      1.0000 0.60801  0.40413  0.71534  Biso   1.000  H
  C150     1.0000 0.62780  0.43095  0.79473  Biso   1.000  C
  C151     1.0000 0.62782  0.43100  0.79477  Biso   1.000  C
  H42      1.0000 0.60798  0.40417  0.71534  Biso   1.000  H
  C152     1.0000 0.62781  0.43097  0.79477  Biso   1.000  C
  C153     1.0000 0.62783  0.43095  0.79473  Biso   1.000  C
  C154     1.0000 0.62786  0.43100  0.79477  Biso   1.000  C
  C155     1.0000 0.64212  0.33027  0.77177  Biso   1.000  C
  C156     1.0000 0.64211  0.33026  0.77173  Biso   1.000  C
  C157     1.0000 0.64207  0.33026  0.77173  Biso   1.000  C
  H43      1.0000 0.70726  0.37327  0.84217  Biso   1.000  H
  C158     1.0000 0.65782  0.42438  0.83427  Biso   1.000  C
  H44      1.0000 0.70721  0.37325  0.84213  Biso   1.000  H
  C159     1.0000 0.65781  0.42436  0.83423  Biso   1.000  C
  H45      1.0000 0.70723  0.37331  0.84217  Biso   1.000  H
  H46      1.0000 0.70722  0.37327  0.84217  Biso   1.000  H
  H47      1.0000 0.70727  0.37331  0.84217  Biso   1.000  H
  C160     1.0000 0.65786  0.42438  0.83427  Biso   1.000  C
  C161     1.0000 0.91691  0.52655  0.33774  Biso   1.000  C
  C162     1.0000 0.91686  0.52650  0.33771  Biso   1.000  C
  C163     1.0000 0.91688  0.52655  0.33774  Biso   1.000  C
  C164     1.0000 0.91687  0.52654  0.33771  Biso   1.000  C
  C165     1.0000 0.91689  0.52650  0.33771  Biso   1.000  C
  C166     1.0000 0.00815  0.59743  0.38801  Biso   1.000  C
  C167     1.0000 0.00818  0.59743  0.38801  Biso   1.000  C
  C168     1.0000 0.00819  0.59746  0.38801  Biso   1.000  C
  C169     1.0000 0.00816  0.59746  0.38801  Biso   1.000  C
  C170     1.0000 0.94263  0.78215  0.49045  Biso   1.000  C
  C171     1.0000 0.94259  0.78213  0.49041  Biso   1.000  C
  C172     1.0000 0.94261  0.78218  0.49045  Biso   1.000  C
  C173     1.0000 0.94260  0.78215  0.49045  Biso   1.000  C
  C174     1.0000 0.94262  0.78213  0.49041  Biso   1.000  C
  C175     1.0000 0.94264  0.78218  0.49045  Biso   1.000  C
  H48      1.0000 0.00351  0.75547  0.49025  Biso   1.000  H
  H49      1.0000 0.00350  0.75545  0.49022  Biso   1.000  H
  C176     1.0000 0.86300  0.50763  0.32973  Biso   1.000  C
  C177     1.0000 0.78500  0.51102  0.35571  Biso   1.000  C
  C178     1.0000 0.86296  0.50763  0.32973  Biso   1.000  C
  C179     1.0000 0.78497  0.51102  0.35571  Biso   1.000  C
  C180     1.0000 0.78498  0.51106  0.35571  Biso   1.000  C
  C181     1.0000 0.78501  0.51106  0.35571  Biso   1.000  C
  H50      1.0000 0.82362  0.69916  0.46473  Biso   1.000  H
  C182     1.0000 0.88871  0.76535  0.48282  Biso   1.000  C
  H51      1.0000 0.82361  0.69912  0.46473  Biso   1.000  H
  H52      1.0000 0.82358  0.69916  0.46473  Biso   1.000  H
  C183     1.0000 0.88868  0.76535  0.48282  Biso   1.000  C
  C184     1.0000 0.29772  0.45339  0.87637  Biso   1.000  C
  C185     1.0000 0.25271  0.46350  0.94205  Biso   1.000  C
  C186     1.0000 0.29775  0.45337  0.87633  Biso   1.000  C
  C187     1.0000 0.25274  0.46346  0.94205  Biso   1.000  C
  C188     1.0000 0.29776  0.45339  0.87637  Biso   1.000  C
  C189     1.0000 0.25275  0.46350  0.94205  Biso   1.000  C
  C190     1.0000 0.29771  0.45337  0.87633  Biso   1.000  C
  C191     1.0000 0.25270  0.46346  0.94205  Biso   1.000  C
  H53      1.0000 0.27428  0.64430  0.03120  Biso   1.000  H
  C192     1.0000 0.32385  0.71038  0.02857  Biso   1.000  C
  H54      1.0000 0.27423  0.64428  0.03116  Biso   1.000  H
  C193     1.0000 0.32386  0.71042  0.02857  Biso   1.000  C
  H55      1.0000 0.27424  0.64430  0.03120  Biso   1.000  H
  C194     1.0000 0.32382  0.71038  0.02857  Biso   1.000  C
  H56      1.0000 0.27426  0.64428  0.03116  Biso   1.000  H
  C195     1.0000 0.32012  0.47257  0.84504  Biso   1.000  C
  C196     1.0000 0.33743  0.53979  0.80666  Biso   1.000  C
  C197     1.0000 0.33742  0.53975  0.80666  Biso   1.000  C
  C198     1.0000 0.34503  0.72839  0.99596  Biso   1.000  C
  H57      1.0000 0.34484  0.70410  0.92195  Biso   1.000  H
  C199     1.0000 0.34506  0.72839  0.99596  Biso   1.000  C
  H58      1.0000 0.34486  0.70406  0.92195  Biso   1.000  H
  H59      1.0000 0.34487  0.70410  0.92195  Biso   1.000  H
  H60      1.0000 0.34483  0.70406  0.92195  Biso   1.000  H
  C200     1.0000 0.57212  0.29206  0.69086  Biso   1.000  C
  C201     1.0000 0.57208  0.29204  0.69083  Biso   1.000  C
  C202     1.0000 0.57210  0.29210  0.69086  Biso   1.000  C
  C203     1.0000 0.57209  0.29206  0.69086  Biso   1.000  C
  C204     1.0000 0.57211  0.29204  0.69083  Biso   1.000  C
  C205     1.0000 0.57213  0.29210  0.69086  Biso   1.000  C
  C206     1.0000 0.60283  0.46887  0.80647  Biso   1.000  C
  C207     1.0000 0.60281  0.46885  0.80643  Biso   1.000  C
  C208     1.0000 0.60278  0.46885  0.80643  Biso   1.000  C
  C209     1.0000 0.63182  0.27736  0.76886  Biso   1.000  C
  C210     1.0000 0.63183  0.27740  0.76886  Biso   1.000  C
  C211     1.0000 0.63179  0.27736  0.76886  Biso   1.000  C
  C212     1.0000 0.66296  0.45569  0.88547  Biso   1.000  C
  C213     1.0000 0.66291  0.45568  0.88543  Biso   1.000  C
  C214     1.0000 0.66292  0.45569  0.88547  Biso   1.000  C
  C215     1.0000 0.66295  0.45568  0.88543  Biso   1.000  C
  H61      1.0000 0.93031  0.50784  0.31304  Biso   1.000  H
  H62      1.0000 0.93027  0.50784  0.31304  Biso   1.000  H
  H63      1.0000 0.01256  0.58676  0.35413  Biso   1.000  H
  H64      1.0000 0.02137  0.63766  0.40602  Biso   1.000  H
  C216     1.0000 0.03896  0.57424  0.41954  Biso   1.000  C
  H65      1.0000 0.01259  0.58672  0.35413  Biso   1.000  H
  H66      1.0000 0.02139  0.63762  0.40602  Biso   1.000  H
  C217     1.0000 0.03900  0.57424  0.41954  Biso   1.000  C
  H67      1.0000 0.01260  0.58676  0.35413  Biso   1.000  H
  H68      1.0000 0.02140  0.63766  0.40602  Biso   1.000  H
  H69      1.0000 0.01255  0.58672  0.35413  Biso   1.000  H
  H70      1.0000 0.02136  0.63762  0.40602  Biso   1.000  H
  O18      1.0000 0.96583  0.83816  0.50625  Biso   1.000  O
  O19      1.0000 0.96581  0.83814  0.50621  Biso   1.000  O
  O20      1.0000 0.96578  0.83814  0.50621  Biso   1.000  O
  H71      1.0000 0.84018  0.47612  0.29971  Biso   1.000  H
  H72      1.0000 0.84014  0.47612  0.29971  Biso   1.000  H
  H73      1.0000 0.77521  0.47413  0.35393  Biso   1.000  H
  H74      1.0000 0.77459  0.53393  0.38282  Biso   1.000  H
  C218     1.0000 0.75829  0.50805  0.30382  Biso   1.000  C
  H75      1.0000 0.77517  0.47413  0.35393  Biso   1.000  H
  C219     1.0000 0.75825  0.50801  0.30382  Biso   1.000  C
  H76      1.0000 0.77518  0.47417  0.35393  Biso   1.000  H
  H77      1.0000 0.77455  0.53393  0.38282  Biso   1.000  H
  C220     1.0000 0.75826  0.50805  0.30382  Biso   1.000  C
  C221     1.0000 0.75828  0.50801  0.30382  Biso   1.000  C
  H78      1.0000 0.77522  0.47417  0.35393  Biso   1.000  H
  O21      1.0000 0.87543  0.81255  0.49424  Biso   1.000  O
  O22      1.0000 0.87540  0.81255  0.49424  Biso   1.000  O
  O23      1.0000 0.87541  0.81258  0.49424  Biso   1.000  O
  O24      1.0000 0.87544  0.81258  0.49424  Biso   1.000  O
  H79      1.0000 0.30143  0.42228  0.87916  Biso   1.000  H
  H80      1.0000 0.25784  0.49590  0.97307  Biso   1.000  H
  H81      1.0000 0.27301  0.44318  0.95166  Biso   1.000  H
  C222     1.0000 0.19451  0.42678  0.91645  Biso   1.000  C
  H82      1.0000 0.27305  0.44318  0.95166  Biso   1.000  H
  C223     1.0000 0.19455  0.42678  0.91645  Biso   1.000  C
  O25      1.0000 0.33959  0.75128  0.07760  Biso   1.000  O
  O26      1.0000 0.33956  0.75132  0.07760  Biso   1.000  O
  O27      1.0000 0.33955  0.75128  0.07760  Biso   1.000  O
  O28      1.0000 0.33960  0.75132  0.07760  Biso   1.000  O
  H83      1.0000 0.33892  0.45437  0.82684  Biso   1.000  H
  H84      1.0000 0.31452  0.55508  0.79194  Biso   1.000  H
  H85      1.0000 0.33882  0.50887  0.77827  Biso   1.000  H
  C224     1.0000 0.39344  0.58467  0.83636  Biso   1.000  C
  H86      1.0000 0.31451  0.55504  0.79194  Biso   1.000  H
  H87      1.0000 0.33881  0.50885  0.77823  Biso   1.000  H
  H88      1.0000 0.31455  0.55508  0.79194  Biso   1.000  H
  H89      1.0000 0.33883  0.50890  0.77827  Biso   1.000  H
  O29      1.0000 0.37656  0.78478  0.02598  Biso   1.000  O
  O30      1.0000 0.37657  0.78482  0.02598  Biso   1.000  O
  O31      1.0000 0.37652  0.78478  0.02598  Biso   1.000  O
  C225     1.0000 0.53729  0.29857  0.64923  Biso   1.000  C
  C226     1.0000 0.53728  0.29853  0.64923  Biso   1.000  C
  C227     1.0000 0.56193  0.23925  0.68796  Biso   1.000  C
  C228     1.0000 0.56188  0.23924  0.68792  Biso   1.000  C
  C229     1.0000 0.56190  0.23929  0.68796  Biso   1.000  C
  C230     1.0000 0.56189  0.23925  0.68796  Biso   1.000  C
  C231     1.0000 0.56191  0.23924  0.68792  Biso   1.000  C
  C232     1.0000 0.56194  0.23929  0.68796  Biso   1.000  C
  H90      1.0000 0.58275  0.47337  0.78005  Biso   1.000  H
  C233     1.0000 0.60786  0.50019  0.85766  Biso   1.000  C
  H91      1.0000 0.58271  0.47337  0.78005  Biso   1.000  H
  C234     1.0000 0.60782  0.50019  0.85766  Biso   1.000  C
  C235     1.0000 0.59173  0.23187  0.72696  Biso   1.000  C
  C236     1.0000 0.59170  0.23187  0.72696  Biso   1.000  C
  C237     1.0000 0.65783  0.26927  0.81266  Biso   1.000  C
  C238     1.0000 0.65779  0.26927  0.81266  Biso   1.000  C
  C239     1.0000 0.63794  0.49360  0.89717  Biso   1.000  C
  H92      1.0000 0.68305  0.45126  0.91184  Biso   1.000  H
  C240     1.0000 0.63793  0.49356  0.89717  Biso   1.000  C
  H93      1.0000 0.68301  0.45126  0.91184  Biso   1.000  H
  H94      1.0000 0.68302  0.45129  0.91184  Biso   1.000  H
  H95      1.0000 0.68306  0.45129  0.91184  Biso   1.000  H
  H96      1.0000 0.05106  0.54866  0.39723  Biso   1.000  H
  H97      1.0000 0.06877  0.60433  0.44742  Biso   1.000  H
  H98      1.0000 0.01609  0.55546  0.43332  Biso   1.000  H
  H99      1.0000 0.05108  0.54862  0.39723  Biso   1.000  H
  H100     1.0000 0.06881  0.60433  0.44742  Biso   1.000  H
  H101     1.0000 0.01608  0.55542  0.43332  Biso   1.000  H
  H102     1.0000 0.05109  0.54866  0.39723  Biso   1.000  H
  H103     1.0000 0.05105  0.54862  0.39723  Biso   1.000  H
  B11      1.0000 0.92004  0.85337  0.50315  Biso   1.000  B
  B12      1.0000 0.92001  0.85332  0.50311  Biso   1.000  B
  B13      1.0000 0.91999  0.85336  0.50311  Biso   1.000  B
  B14      1.0000 0.92000  0.85337  0.50315  Biso   1.000  B
  B15      1.0000 0.92002  0.85336  0.50311  Biso   1.000  B
  H104     1.0000 0.76560  0.54543  0.30703  Biso   1.000  H
  H105     1.0000 0.77169  0.48876  0.27814  Biso   1.000  H
  H106     1.0000 0.72090  0.48942  0.29352  Biso   1.000  H
  H107     1.0000 0.76557  0.54543  0.30703  Biso   1.000  H
  H108     1.0000 0.77167  0.48870  0.27810  Biso   1.000  H
  H109     1.0000 0.72086  0.48942  0.29352  Biso   1.000  H
  H110     1.0000 0.72087  0.48946  0.29352  Biso   1.000  H
  H111     1.0000 0.77165  0.48874  0.27810  Biso   1.000  H
  H112     1.0000 0.77166  0.48876  0.27814  Biso   1.000  H
  H113     1.0000 0.72091  0.48946  0.29352  Biso   1.000  H
  H114     1.0000 0.77168  0.48874  0.27810  Biso   1.000  H
  H115     1.0000 0.17780  0.43939  0.89364  Biso   1.000  H
  H116     1.0000 0.17801  0.42869  0.94256  Biso   1.000  H
  H117     1.0000 0.19101  0.38920  0.89697  Biso   1.000  H
  H118     1.0000 0.17783  0.43935  0.89364  Biso   1.000  H
  H119     1.0000 0.17804  0.42866  0.94256  Biso   1.000  H
  H120     1.0000 0.19103  0.38915  0.89693  Biso   1.000  H
  H121     1.0000 0.17784  0.43939  0.89364  Biso   1.000  H
  H122     1.0000 0.17805  0.42869  0.94256  Biso   1.000  H
  H123     1.0000 0.19105  0.38920  0.89697  Biso   1.000  H
  H124     1.0000 0.19100  0.38919  0.89693  Biso   1.000  H
  H125     1.0000 0.17779  0.43935  0.89364  Biso   1.000  H
  H126     1.0000 0.17800  0.42866  0.94256  Biso   1.000  H
  H127     1.0000 0.19099  0.38915  0.89693  Biso   1.000  H
  H128     1.0000 0.19104  0.38919  0.89693  Biso   1.000  H
  B16      1.0000 0.37368  0.79408  0.07268  Biso   1.000  B
  B17      1.0000 0.37365  0.79412  0.07268  Biso   1.000  B
  B18      1.0000 0.37364  0.79408  0.07268  Biso   1.000  B
  B19      1.0000 0.37369  0.79412  0.07268  Biso   1.000  B
  H129     1.0000 0.40511  0.60007  0.81425  Biso   1.000  H
  H130     1.0000 0.41723  0.56839  0.84686  Biso   1.000  H
  H131     1.0000 0.39273  0.61356  0.86634  Biso   1.000  H
  H132     1.0000 0.40515  0.60007  0.81425  Biso   1.000  H
  H133     1.0000 0.41722  0.56835  0.84686  Biso   1.000  H
  H134     1.0000 0.41726  0.56839  0.84686  Biso   1.000  H
  H135     1.0000 0.39274  0.61360  0.86634  Biso   1.000  H
  H136     1.0000 0.39270  0.61356  0.86634  Biso   1.000  H
  C241     1.0000 0.56667  0.30536  0.61054  Biso   1.000  C
  H137     1.0000 0.50480  0.26614  0.63103  Biso   1.000  H
  H138     1.0000 0.52843  0.33087  0.66465  Biso   1.000  H
  C242     1.0000 0.56671  0.30536  0.61054  Biso   1.000  C
  H139     1.0000 0.50477  0.26614  0.63103  Biso   1.000  H
  H140     1.0000 0.52839  0.33087  0.66465  Biso   1.000  H
  H141     1.0000 0.53509  0.20875  0.65984  Biso   1.000  H
  H142     1.0000 0.53506  0.20875  0.65984  Biso   1.000  H
  O32      1.0000 0.58906  0.54039  0.87978  Biso   1.000  O
  O33      1.0000 0.58901  0.54037  0.87974  Biso   1.000  O
  O34      1.0000 0.58903  0.54039  0.87978  Biso   1.000  O
  O35      1.0000 0.58905  0.54037  0.87974  Biso   1.000  O
  H143     1.0000 0.58493  0.19656  0.72506  Biso   1.000  H
  H144     1.0000 0.58488  0.19654  0.72502  Biso   1.000  H
  H145     1.0000 0.58490  0.19660  0.72506  Biso   1.000  H
  H146     1.0000 0.58489  0.19656  0.72506  Biso   1.000  H
  H147     1.0000 0.58491  0.19654  0.72502  Biso   1.000  H
  H148     1.0000 0.58494  0.19660  0.72506  Biso   1.000  H
  H149     1.0000 0.66145  0.29907  0.84496  Biso   1.000  H
  H150     1.0000 0.63612  0.23456  0.81084  Biso   1.000  H
  C243     1.0000 0.71182  0.26818  0.81185  Biso   1.000  C
  H151     1.0000 0.66141  0.29907  0.84496  Biso   1.000  H
  C244     1.0000 0.71181  0.26814  0.81185  Biso   1.000  C
  H152     1.0000 0.63608  0.23456  0.81084  Biso   1.000  H
  C245     1.0000 0.71179  0.26818  0.81185  Biso   1.000  C
  O36      1.0000 0.63946  0.52788  0.94534  Biso   1.000  O
  O37      1.0000 0.63942  0.52788  0.94534  Biso   1.000  O
  C246     1.0000 0.92745  0.91625  0.52275  Biso   1.000  C
  C247     1.0000 0.92742  0.91625  0.52275  Biso   1.000  C
  C248     1.0000 0.39836  0.85500  0.11908  Biso   1.000  C
  H153     1.0000 0.59623  0.34006  0.62766  Biso   1.000  H
  H154     1.0000 0.57911  0.27546  0.59854  Biso   1.000  H
  H155     1.0000 0.54289  0.30465  0.58165  Biso   1.000  H
  H156     1.0000 0.59618  0.34005  0.62762  Biso   1.000  H
  H157     1.0000 0.57907  0.27546  0.59854  Biso   1.000  H
  H158     1.0000 0.59619  0.34006  0.62766  Biso   1.000  H
  H159     1.0000 0.59622  0.34005  0.62762  Biso   1.000  H
  B20      1.0000 0.60735  0.55660  0.93187  Biso   1.000  B
  B21      1.0000 0.60734  0.55657  0.93187  Biso   1.000  B
  B22      1.0000 0.60731  0.55660  0.93187  Biso   1.000  B
  H160     1.0000 0.73511  0.28346  0.84674  Biso   1.000  H
  H161     1.0000 0.70890  0.23056  0.79314  Biso   1.000  H
  H162     1.0000 0.72583  0.28987  0.79516  Biso   1.000  H
  H163     1.0000 0.72579  0.28987  0.79516  Biso   1.000  H
  H164     1.0000 0.73512  0.28350  0.84674  Biso   1.000  H
  C249     1.0000 0.88205  0.92847  0.52244  Biso   1.000  C
  C250     1.0000 0.97614  0.95876  0.53983  Biso   1.000  C
  C251     1.0000 0.88201  0.92843  0.52244  Biso   1.000  C
  C252     1.0000 0.88202  0.92847  0.52244  Biso   1.000  C
  C253     1.0000 0.97610  0.95876  0.53983  Biso   1.000  C
  C254     1.0000 0.88204  0.92843  0.52244  Biso   1.000  C
  C255     1.0000 0.42857  0.89848  0.11191  Biso   1.000  C
  C256     1.0000 0.39169  0.86479  0.16698  Biso   1.000  C
  C257     1.0000 0.42857  0.89850  0.11187  Biso   1.000  C
  C258     1.0000 0.39166  0.86483  0.16698  Biso   1.000  C
  C259     1.0000 0.42858  0.89852  0.11191  Biso   1.000  C
  C260     1.0000 0.39166  0.86479  0.16698  Biso   1.000  C
  C261     1.0000 0.42856  0.89847  0.11187  Biso   1.000  C
  C262     1.0000 0.39170  0.86483  0.16698  Biso   1.000  C
  C263     1.0000 0.60085  0.60627  0.97245  Biso   1.000  C
  C264     1.0000 0.60086  0.60631  0.97245  Biso   1.000  C
  C265     1.0000 0.60081  0.60627  0.97245  Biso   1.000  C
  H165     1.0000 0.84943  0.90004  0.51094  Biso   1.000  H
  C266     1.0000 0.88535  0.98317  0.53925  Biso   1.000  C
  C267     1.0000 0.88534  0.98314  0.53925  Biso   1.000  C
  H166     1.0000 0.84944  0.90008  0.51094  Biso   1.000  H
  H167     1.0000 0.84939  0.90004  0.51094  Biso   1.000  H
  C268     1.0000 0.88531  0.98317  0.53925  Biso   1.000  C
  C269     1.0000 0.97936  0.01347  0.55663  Biso   1.000  C
  C270     1.0000 0.97935  0.01343  0.55663  Biso   1.000  C
  C271     1.0000 0.97940  0.01347  0.55663  Biso   1.000  C
  H168     1.0000 0.00651  0.95066  0.53994  Biso   1.000  H
  H169     1.0000 0.00654  0.95066  0.53994  Biso   1.000  H
  C272     1.0000 0.45209  0.95169  0.15250  Biso   1.000  C
  H170     1.0000 0.43310  0.89190  0.07988  Biso   1.000  H
  C273     1.0000 0.45210  0.95173  0.15250  Biso   1.000  C
  H171     1.0000 0.43306  0.89190  0.07988  Biso   1.000  H
  C274     1.0000 0.45206  0.95169  0.15250  Biso   1.000  C
  C275     1.0000 0.41519  0.91802  0.20761  Biso   1.000  C
  H172     1.0000 0.37148  0.83568  0.17179  Biso   1.000  H
  H173     1.0000 0.37149  0.83572  0.17179  Biso   1.000  H
  H174     1.0000 0.37144  0.83568  0.17179  Biso   1.000  H
  C276     1.0000 0.57166  0.63359  0.95545  Biso   1.000  C
  C277     1.0000 0.57163  0.63359  0.95545  Biso   1.000  C
  C278     1.0000 0.62344  0.62379  0.02508  Biso   1.000  C
  C279     1.0000 0.62345  0.62382  0.02508  Biso   1.000  C
  C280     1.0000 0.62348  0.62379  0.02508  Biso   1.000  C
  B23      1.0000 0.83413  0.99626  0.53754  Biso   1.000  B
  B24      1.0000 0.83410  0.99626  0.53754  Biso   1.000  B
  C281     1.0000 0.93395  0.02565  0.55632  Biso   1.000  C
  C282     1.0000 0.93399  0.02565  0.55632  Biso   1.000  C
  B25      1.0000 0.03280  0.05828  0.57716  Biso   1.000  B
  B26      1.0000 0.03275  0.05826  0.57712  Biso   1.000  B
  B27      1.0000 0.03275  0.05824  0.57716  Biso   1.000  B
  B28      1.0000 0.03276  0.05828  0.57716  Biso   1.000  B
  B29      1.0000 0.03278  0.05826  0.57712  Biso   1.000  B
  B30      1.0000 0.03279  0.05824  0.57716  Biso   1.000  B
  C283     1.0000 0.44540  0.96151  0.20029  Biso   1.000  C
  B31      1.0000 0.48389  0.99870  0.14239  Biso   1.000  B
  B32      1.0000 0.48390  0.99874  0.14239  Biso   1.000  B
  C284     1.0000 0.44536  0.96151  0.20029  Biso   1.000  C
  B33      1.0000 0.48385  0.99870  0.14239  Biso   1.000  B
  B34      1.0000 0.40699  0.92641  0.25710  Biso   1.000  B
  B35      1.0000 0.40700  0.92645  0.25710  Biso   1.000  B
  B36      1.0000 0.40696  0.92641  0.25710  Biso   1.000  B
  H175     1.0000 0.55644  0.62189  0.92017  Biso   1.000  H
  C285     1.0000 0.56517  0.67851  0.99128  Biso   1.000  C
  C286     1.0000 0.56516  0.67847  0.99128  Biso   1.000  C
  C287     1.0000 0.56514  0.67851  0.99128  Biso   1.000  C
  C288     1.0000 0.61696  0.66868  0.06079  Biso   1.000  C
  H176     1.0000 0.64294  0.60546  0.03639  Biso   1.000  H
  C289     1.0000 0.61694  0.66872  0.06079  Biso   1.000  C
  H177     1.0000 0.64295  0.60550  0.03639  Biso   1.000  H
  C290     1.0000 0.61693  0.66868  0.06079  Biso   1.000  C
  H178     1.0000 0.64297  0.60546  0.03639  Biso   1.000  H
  C291     1.0000 0.61697  0.66872  0.06079  Biso   1.000  C
  O38      1.0000 0.78632  0.95465  0.52213  Biso   1.000  O
  O39      1.0000 0.83427  0.05045  0.55783  Biso   1.000  O
  O40      1.0000 0.83426  0.05042  0.55783  Biso   1.000  O
  H179     1.0000 0.93617  0.06225  0.56756  Biso   1.000  H
  H180     1.0000 0.93615  0.06223  0.56752  Biso   1.000  H
  H181     1.0000 0.93616  0.06227  0.56752  Biso   1.000  H
  H182     1.0000 0.93620  0.06225  0.56756  Biso   1.000  H
  O41      1.0000 0.04538  0.11488  0.59695  Biso   1.000  O
  O42      1.0000 0.08139  0.04827  0.57913  Biso   1.000  O
  O43      1.0000 0.04537  0.11484  0.59695  Biso   1.000  O
  O44      1.0000 0.08136  0.04827  0.57913  Biso   1.000  O
  O45      1.0000 0.08135  0.04823  0.57913  Biso   1.000  O
  O46      1.0000 0.04535  0.11488  0.59695  Biso   1.000  O
  O47      1.0000 0.08138  0.04823  0.57913  Biso   1.000  O
  H183     1.0000 0.46110  0.99710  0.22751  Biso   1.000  H
  H184     1.0000 0.46109  0.99712  0.22748  Biso   1.000  H
  H185     1.0000 0.46111  0.99713  0.22751  Biso   1.000  H
  H186     1.0000 0.46105  0.99708  0.22748  Biso   1.000  H
  H187     1.0000 0.46108  0.99708  0.22748  Biso   1.000  H
  O48      1.0000 0.49490  0.99639  0.09921  Biso   1.000  O
  O49      1.0000 0.49486  0.99641  0.09917  Biso   1.000  O
  O50      1.0000 0.49487  0.99639  0.09921  Biso   1.000  O
  O51      1.0000 0.49485  0.99637  0.09917  Biso   1.000  O
  O52      1.0000 0.49490  0.99641  0.09917  Biso   1.000  O
  O53      1.0000 0.50624  0.05530  0.18220  Biso   1.000  O
  O54      1.0000 0.50620  0.05530  0.18220  Biso   1.000  O
  O55      1.0000 0.37889  0.88680  0.26961  Biso   1.000  O
  O56      1.0000 0.42309  0.97909  0.30199  Biso   1.000  O
  O57      1.0000 0.37890  0.88684  0.26961  Biso   1.000  O
  O58      1.0000 0.42310  0.97913  0.30199  Biso   1.000  O
  O59      1.0000 0.37885  0.88680  0.26961  Biso   1.000  O
  O60      1.0000 0.42306  0.97909  0.30199  Biso   1.000  O
  B37      1.0000 0.53146  0.70728  0.97036  Biso   1.000  B
  B38      1.0000 0.53147  0.70732  0.97036  Biso   1.000  B
  B39      1.0000 0.53143  0.70728  0.97036  Biso   1.000  B
  C292     1.0000 0.58776  0.69598  0.04391  Biso   1.000  C
  C293     1.0000 0.58772  0.69600  0.04387  Biso   1.000  C
  C294     1.0000 0.58777  0.69602  0.04391  Biso   1.000  C
  C295     1.0000 0.58775  0.69596  0.04387  Biso   1.000  C
  C296     1.0000 0.58776  0.69600  0.04387  Biso   1.000  C
  C297     1.0000 0.58771  0.69596  0.04387  Biso   1.000  C
  B40      1.0000 0.64397  0.68959  0.11609  Biso   1.000  B
  B41      1.0000 0.64394  0.68962  0.11609  Biso   1.000  B
  B42      1.0000 0.64393  0.68959  0.11609  Biso   1.000  B
  B43      1.0000 0.64398  0.68962  0.11609  Biso   1.000  B
  C298     1.0000 0.75215  0.98295  0.53154  Biso   1.000  C
  C299     1.0000 0.75211  0.98295  0.53154  Biso   1.000  C
  C300     1.0000 0.75212  0.98298  0.53154  Biso   1.000  C
  C301     1.0000 0.75216  0.98298  0.53154  Biso   1.000  C
  C302     1.0000 0.78135  0.03934  0.55152  Biso   1.000  C
  C303     1.0000 0.78138  0.03934  0.55152  Biso   1.000  C
  C304     1.0000 0.09849  0.14076  0.61155  Biso   1.000  C
  C305     1.0000 0.09845  0.14076  0.61155  Biso   1.000  C
  C306     1.0000 0.11999  0.09976  0.60024  Biso   1.000  C
  C307     1.0000 0.11996  0.09976  0.60024  Biso   1.000  C
  C308     1.0000 0.11995  0.09972  0.60024  Biso   1.000  C
  C309     1.0000 0.11998  0.09972  0.60024  Biso   1.000  C
  C310     1.0000 0.52290  0.04798  0.10568  Biso   1.000  C
  C311     1.0000 0.52291  0.04802  0.10568  Biso   1.000  C
  C312     1.0000 0.52293  0.04798  0.10568  Biso   1.000  C
  C313     1.0000 0.52965  0.08291  0.15641  Biso   1.000  C
  C314     1.0000 0.52960  0.08286  0.15637  Biso   1.000  C
  C315     1.0000 0.52962  0.08291  0.15641  Biso   1.000  C
  C316     1.0000 0.52964  0.08290  0.15637  Biso   1.000  C
  C317     1.0000 0.52961  0.08290  0.15637  Biso   1.000  C
  C318     1.0000 0.37742  0.91020  0.31872  Biso   1.000  C
  C319     1.0000 0.37739  0.91024  0.31872  Biso   1.000  C
  C320     1.0000 0.37738  0.91020  0.31872  Biso   1.000  C
  C321     1.0000 0.37743  0.91024  0.31872  Biso   1.000  C
  C322     1.0000 0.40522  0.96690  0.33800  Biso   1.000  C
  C323     1.0000 0.40519  0.96694  0.33800  Biso   1.000  C
  C324     1.0000 0.40518  0.96690  0.33800  Biso   1.000  C
  C325     1.0000 0.40523  0.96694  0.33800  Biso   1.000  C
  O61      1.0000 0.50995  0.69060  0.91808  Biso   1.000  O
  O62      1.0000 0.50993  0.69055  0.91804  Biso   1.000  O
  O63      1.0000 0.50994  0.69059  0.91804  Biso   1.000  O
  O64      1.0000 0.52055  0.75149  0.00328  Biso   1.000  O
  O65      1.0000 0.52058  0.75149  0.00328  Biso   1.000  O
  H188     1.0000 0.58347  0.72600  0.06780  Biso   1.000  H
  H189     1.0000 0.58343  0.72600  0.06780  Biso   1.000  H
  O66      1.0000 0.64086  0.73370  0.15730  Biso   1.000  O
  O67      1.0000 0.67657  0.66609  0.13809  Biso   1.000  O
  O68      1.0000 0.64087  0.73374  0.15730  Biso   1.000  O
  O69      1.0000 0.67655  0.66613  0.13809  Biso   1.000  O
  O70      1.0000 0.67654  0.66609  0.13809  Biso   1.000  O
  O71      1.0000 0.64090  0.73370  0.15730  Biso   1.000  O
  O72      1.0000 0.67658  0.66613  0.13809  Biso   1.000  O
  C326     1.0000 0.69824  0.96466  0.52344  Biso   1.000  C
  C327     1.0000 0.69820  0.96466  0.52344  Biso   1.000  C
  C328     1.0000 0.75658  0.07745  0.56364  Biso   1.000  C
  C329     1.0000 0.75654  0.07745  0.56364  Biso   1.000  C
  C330     1.0000 0.13129  0.19638  0.63343  Biso   1.000  C
  C331     1.0000 0.13128  0.19634  0.63343  Biso   1.000  C
  C332     1.0000 0.13126  0.19638  0.63343  Biso   1.000  C
  C333     1.0000 0.17419  0.11425  0.61093  Biso   1.000  C
  C334     1.0000 0.17415  0.11425  0.61093  Biso   1.000  C
  C335     1.0000 0.54172  0.07008  0.07438  Biso   1.000  C
  C336     1.0000 0.54167  0.07006  0.07435  Biso   1.000  C
  C337     1.0000 0.54173  0.07012  0.07438  Biso   1.000  C
  C338     1.0000 0.54171  0.07006  0.07435  Biso   1.000  C
  C339     1.0000 0.55522  0.13989  0.17581  Biso   1.000  C
  C340     1.0000 0.55525  0.13989  0.17581  Biso   1.000  C
  C341     1.0000 0.35389  0.88976  0.34881  Biso   1.000  C
  C342     1.0000 0.35390  0.88980  0.34881  Biso   1.000  C
  C343     1.0000 0.35393  0.88980  0.34881  Biso   1.000  C
  C344     1.0000 0.40947  0.00303  0.38742  Biso   1.000  C
  C345     1.0000 0.40941  0.00298  0.38738  Biso   1.000  C
  C346     1.0000 0.40943  0.00303  0.38742  Biso   1.000  C
  C347     1.0000 0.40946  0.00301  0.38738  Biso   1.000  C
  C348     1.0000 0.40945  0.00298  0.38738  Biso   1.000  C
  C349     1.0000 0.40942  0.00301  0.38738  Biso   1.000  C
  C350     1.0000 0.48396  0.72558  0.91638  Biso   1.000  C
  C351     1.0000 0.48392  0.72556  0.91634  Biso   1.000  C
  C352     1.0000 0.48397  0.72562  0.91638  Biso   1.000  C
  C353     1.0000 0.48393  0.72558  0.91638  Biso   1.000  C
  C354     1.0000 0.48395  0.72556  0.91634  Biso   1.000  C
  C355     1.0000 0.49069  0.76111  0.96688  Biso   1.000  C
  C356     1.0000 0.49063  0.76106  0.96684  Biso   1.000  C
  C357     1.0000 0.49065  0.76111  0.96688  Biso   1.000  C
  C358     1.0000 0.49064  0.76109  0.96684  Biso   1.000  C
  C359     1.0000 0.49067  0.76106  0.96684  Biso   1.000  C
  C360     1.0000 0.67148  0.73821  0.20230  Biso   1.000  C
  C361     1.0000 0.67145  0.73821  0.20230  Biso   1.000  C
  C362     1.0000 0.69308  0.69731  0.19080  Biso   1.000  C
  C363     1.0000 0.69304  0.69731  0.19080  Biso   1.000  C
  H190     1.0000 0.67862  0.92695  0.51004  Biso   1.000  H
  H191     1.0000 0.67863  0.92699  0.51004  Biso   1.000  H
  C364     1.0000 0.67335  0.00275  0.53553  Biso   1.000  C
  C365     1.0000 0.67334  0.00271  0.53553  Biso   1.000  C
  C366     1.0000 0.67338  0.00275  0.53553  Biso   1.000  C
  C367     1.0000 0.70256  0.05917  0.55555  Biso   1.000  C
  H192     1.0000 0.77608  0.11527  0.57704  Biso   1.000  H
  C368     1.0000 0.70255  0.05913  0.55555  Biso   1.000  C
  H193     1.0000 0.77607  0.11524  0.57704  Biso   1.000  H
  C369     1.0000 0.70259  0.05917  0.55555  Biso   1.000  C
  H194     1.0000 0.11700  0.22378  0.64094  Biso   1.000  H
  C370     1.0000 0.18561  0.21089  0.64416  Biso   1.000  C
  H195     1.0000 0.11697  0.22378  0.64094  Biso   1.000  H
  C371     1.0000 0.18555  0.21083  0.64412  Biso   1.000  C
  H196     1.0000 0.11696  0.22374  0.64094  Biso   1.000  H
  C372     1.0000 0.18560  0.21085  0.64416  Biso   1.000  C
  C373     1.0000 0.18556  0.21087  0.64412  Biso   1.000  C
  C374     1.0000 0.18557  0.21089  0.64416  Biso   1.000  C
  C375     1.0000 0.18558  0.21083  0.64412  Biso   1.000  C
  H197     1.0000 0.11699  0.22374  0.64094  Biso   1.000  H
  C376     1.0000 0.20700  0.16989  0.63285  Biso   1.000  C
  H198     1.0000 0.18860  0.08687  0.60346  Biso   1.000  H
  C377     1.0000 0.20696  0.16985  0.63285  Biso   1.000  C
  H199     1.0000 0.18855  0.08685  0.60342  Biso   1.000  H
  H200     1.0000 0.18855  0.08684  0.60346  Biso   1.000  H
  C378     1.0000 0.20697  0.16989  0.63285  Biso   1.000  C
  H201     1.0000 0.18856  0.08687  0.60346  Biso   1.000  H
  C379     1.0000 0.20699  0.16985  0.63285  Biso   1.000  C
  H202     1.0000 0.18858  0.08685  0.60342  Biso   1.000  H
  H203     1.0000 0.18859  0.08684  0.60346  Biso   1.000  H
  C380     1.0000 0.56732  0.12717  0.09379  Biso   1.000  C
  H204     1.0000 0.53721  0.04677  0.04038  Biso   1.000  H
  C381     1.0000 0.56733  0.12721  0.09379  Biso   1.000  C
  H205     1.0000 0.53722  0.04681  0.04038  Biso   1.000  H
  C382     1.0000 0.56735  0.12717  0.09379  Biso   1.000  C
  H206     1.0000 0.55976  0.16332  0.20982  Biso   1.000  H
  C383     1.0000 0.57401  0.16205  0.14448  Biso   1.000  C
  H207     1.0000 0.55971  0.16330  0.20978  Biso   1.000  H
  H208     1.0000 0.55972  0.16332  0.20982  Biso   1.000  H
  C384     1.0000 0.57402  0.16209  0.14448  Biso   1.000  C
  H209     1.0000 0.55975  0.16330  0.20978  Biso   1.000  H
  C385     1.0000 0.57405  0.16205  0.14448  Biso   1.000  C
  H210     1.0000 0.33531  0.85192  0.33591  Biso   1.000  H
  C386     1.0000 0.35823  0.92590  0.39830  Biso   1.000  C
  H211     1.0000 0.33532  0.85196  0.33591  Biso   1.000  H
  C387     1.0000 0.35820  0.92593  0.39830  Biso   1.000  C
  H212     1.0000 0.33527  0.85192  0.33591  Biso   1.000  H
  C388     1.0000 0.35819  0.92590  0.39830  Biso   1.000  C
  C389     1.0000 0.35824  0.92593  0.39830  Biso   1.000  C
  C390     1.0000 0.38601  0.98252  0.41759  Biso   1.000  C
  C391     1.0000 0.38602  0.98256  0.41759  Biso   1.000  C
  H213     1.0000 0.42804  0.04091  0.40040  Biso   1.000  H
  H214     1.0000 0.42807  0.04091  0.40040  Biso   1.000  H
  C392     1.0000 0.45446  0.73001  0.87498  Biso   1.000  C
  C393     1.0000 0.45443  0.72995  0.87494  Biso   1.000  C
  C394     1.0000 0.45441  0.72999  0.87494  Biso   1.000  C
  C395     1.0000 0.45444  0.72999  0.87494  Biso   1.000  C
  C396     1.0000 0.46789  0.80099  0.97598  Biso   1.000  C
  C397     1.0000 0.46784  0.80097  0.97594  Biso   1.000  C
  C398     1.0000 0.46785  0.80099  0.97598  Biso   1.000  C
  C399     1.0000 0.46788  0.80097  0.97594  Biso   1.000  C
  C400     1.0000 0.68299  0.77539  0.25362  Biso   1.000  C
  C401     1.0000 0.68295  0.77541  0.25358  Biso   1.000  C
  C402     1.0000 0.68296  0.77543  0.25362  Biso   1.000  C
  C403     1.0000 0.68298  0.77538  0.25358  Biso   1.000  C
  C404     1.0000 0.68299  0.77541  0.25358  Biso   1.000  C
  C405     1.0000 0.68300  0.77543  0.25362  Biso   1.000  C
  C406     1.0000 0.68294  0.77538  0.25358  Biso   1.000  C
  C407     1.0000 0.72608  0.69360  0.23042  Biso   1.000  C
  C408     1.0000 0.72608  0.69362  0.23038  Biso   1.000  C
  C409     1.0000 0.72607  0.69358  0.23038  Biso   1.000  C
  C410     1.0000 0.61302  0.98337  0.52724  Biso   1.000  C
  C411     1.0000 0.66659  0.09399  0.56945  Biso   1.000  C
  C412     1.0000 0.66654  0.09393  0.56941  Biso   1.000  C
  C413     1.0000 0.66655  0.09395  0.56945  Biso   1.000  C
  C414     1.0000 0.66658  0.09397  0.56941  Biso   1.000  C
  C415     1.0000 0.66657  0.09393  0.56941  Biso   1.000  C
  C416     1.0000 0.66658  0.09395  0.56945  Biso   1.000  C
  C417     1.0000 0.66655  0.09397  0.56941  Biso   1.000  C
  C418     1.0000 0.22571  0.27005  0.67084  Biso   1.000  C
  C419     1.0000 0.22568  0.27005  0.67084  Biso   1.000  C
  C420     1.0000 0.22569  0.27009  0.67084  Biso   1.000  C
  C421     1.0000 0.27000  0.19315  0.64993  Biso   1.000  C
  C422     1.0000 0.26997  0.19315  0.64993  Biso   1.000  C
  C423     1.0000 0.26998  0.19318  0.64993  Biso   1.000  C
  C424     1.0000 0.58860  0.15088  0.06188  Biso   1.000  C
  C425     1.0000 0.58864  0.15088  0.06188  Biso   1.000  C
  C426     1.0000 0.60214  0.22310  0.15889  Biso   1.000  C
  C427     1.0000 0.60211  0.22310  0.15889  Biso   1.000  C
  C428     1.0000 0.33360  0.90610  0.43060  Biso   1.000  C
  C429     1.0000 0.33361  0.90613  0.43060  Biso   1.000  C
  C430     1.0000 0.33357  0.90613  0.43060  Biso   1.000  C
  C431     1.0000 0.38717  0.01672  0.47282  Biso   1.000  C
  C432     1.0000 0.38713  0.01672  0.47282  Biso   1.000  C
  H215     1.0000 0.44994  0.70619  0.84124  Biso   1.000  H
  C433     1.0000 0.43167  0.76988  0.88415  Biso   1.000  C
  H216     1.0000 0.44993  0.70615  0.84124  Biso   1.000  H
  C434     1.0000 0.43164  0.76988  0.88415  Biso   1.000  C
  H217     1.0000 0.44990  0.70619  0.84124  Biso   1.000  H
  C435     1.0000 0.43835  0.80538  0.93466  Biso   1.000  C
  C436     1.0000 0.43836  0.80541  0.93466  Biso   1.000  C
  C437     1.0000 0.43831  0.80538  0.93466  Biso   1.000  C
  H218     1.0000 0.47226  0.82468  0.00967  Biso   1.000  H
  H219     1.0000 0.47223  0.82471  0.00967  Biso   1.000  H
  H220     1.0000 0.47222  0.82468  0.00967  Biso   1.000  H
  H221     1.0000 0.47227  0.82471  0.00967  Biso   1.000  H
  H222     1.0000 0.66859  0.80279  0.26129  Biso   1.000  H
  C438     1.0000 0.71610  0.77160  0.29320  Biso   1.000  C
  H223     1.0000 0.66856  0.80283  0.26129  Biso   1.000  H
  C439     1.0000 0.71608  0.77163  0.29320  Biso   1.000  C
  H224     1.0000 0.66855  0.80279  0.26129  Biso   1.000  H
  C440     1.0000 0.71607  0.77160  0.29320  Biso   1.000  C
  H225     1.0000 0.66860  0.80283  0.26129  Biso   1.000  H
  C441     1.0000 0.73759  0.73069  0.28169  Biso   1.000  C
  H226     1.0000 0.74047  0.66619  0.22271  Biso   1.000  H
  C442     1.0000 0.73757  0.73073  0.28169  Biso   1.000  C
  H227     1.0000 0.74047  0.66621  0.22267  Biso   1.000  H
  C443     1.0000 0.73756  0.73069  0.28169  Biso   1.000  C
  H228     1.0000 0.74048  0.66623  0.22271  Biso   1.000  H
  H229     1.0000 0.74046  0.66617  0.22267  Biso   1.000  H
  H230     1.0000 0.74051  0.66619  0.22271  Biso   1.000  H
  C444     1.0000 0.73760  0.73073  0.28169  Biso   1.000  C
  C445     1.0000 0.61418  0.01756  0.58247  Biso   1.000  C
  C446     1.0000 0.61415  0.01756  0.58247  Biso   1.000  C
  C447     1.0000 0.61414  0.01752  0.58247  Biso   1.000  C
  C448     1.0000 0.61417  0.01752  0.58247  Biso   1.000  C
  H231     1.0000 0.59363  0.94327  0.51194  Biso   1.000  H
  H232     1.0000 0.59360  0.94327  0.51194  Biso   1.000  H
  C449     1.0000 0.59506  0.01296  0.49792  Biso   1.000  C
  C450     1.0000 0.59503  0.01296  0.49792  Biso   1.000  C
  C451     1.0000 0.59505  0.01292  0.49792  Biso   1.000  C
  C452     1.0000 0.64197  0.07419  0.60175  Biso   1.000  C
  C453     1.0000 0.64196  0.07415  0.60175  Biso   1.000  C
  C454     1.0000 0.64200  0.07419  0.60175  Biso   1.000  C
  C455     1.0000 0.62257  0.06983  0.51853  Biso   1.000  C
  H233     1.0000 0.68506  0.13425  0.58494  Biso   1.000  H
  C456     1.0000 0.62254  0.06983  0.51853  Biso   1.000  C
  C457     1.0000 0.62258  0.06987  0.51853  Biso   1.000  C
  H234     1.0000 0.68510  0.13425  0.58494  Biso   1.000  H
  C458     1.0000 0.62255  0.06987  0.51853  Biso   1.000  C
  C459     1.0000 0.26121  0.27335  0.63924  Biso   1.000  C
  H235     1.0000 0.21082  0.29927  0.67936  Biso   1.000  H
  C460     1.0000 0.26260  0.26939  0.71836  Biso   1.000  C
  C461     1.0000 0.26117  0.27335  0.63924  Biso   1.000  C
  H236     1.0000 0.21077  0.29925  0.67932  Biso   1.000  H
  C462     1.0000 0.26259  0.26937  0.71832  Biso   1.000  C
  H237     1.0000 0.21079  0.29927  0.67936  Biso   1.000  H
  C463     1.0000 0.26259  0.26935  0.71836  Biso   1.000  C
  C464     1.0000 0.26255  0.26937  0.71832  Biso   1.000  C
  H238     1.0000 0.21081  0.29925  0.67932  Biso   1.000  H
  C465     1.0000 0.28188  0.23196  0.62545  Biso   1.000  C
  H239     1.0000 0.28550  0.16457  0.64125  Biso   1.000  H
  C466     1.0000 0.28409  0.22848  0.70686  Biso   1.000  C
  H240     1.0000 0.28546  0.16457  0.64125  Biso   1.000  H
  C467     1.0000 0.28408  0.22845  0.70686  Biso   1.000  C
  C468     1.0000 0.64602  0.18790  0.09549  Biso   1.000  C
  H241     1.0000 0.58350  0.12419  0.02679  Biso   1.000  H
  C469     1.0000 0.56184  0.19470  0.06540  Biso   1.000  C
  C470     1.0000 0.56181  0.19470  0.06540  Biso   1.000  C
  H242     1.0000 0.58354  0.12419  0.02679  Biso   1.000  H
  C471     1.0000 0.64606  0.18790  0.09549  Biso   1.000  C
  C472     1.0000 0.65144  0.22511  0.14499  Biso   1.000  C
  H243     1.0000 0.60733  0.24920  0.19429  Biso   1.000  H
  C473     1.0000 0.56852  0.23020  0.11590  Biso   1.000  C
  C474     1.0000 0.65139  0.22507  0.14499  Biso   1.000  C
  C475     1.0000 0.56856  0.23020  0.11590  Biso   1.000  C
  H244     1.0000 0.60736  0.24920  0.19429  Biso   1.000  H
  C476     1.0000 0.65143  0.22507  0.14499  Biso   1.000  C
  C477     1.0000 0.65140  0.22511  0.14499  Biso   1.000  C
  C478     1.0000 0.29763  0.94092  0.44451  Biso   1.000  C
  C479     1.0000 0.29761  0.94095  0.44451  Biso   1.000  C
  C480     1.0000 0.29760  0.94092  0.44451  Biso   1.000  C
  C481     1.0000 0.37762  0.93025  0.48153  Biso   1.000  C
  H245     1.0000 0.31513  0.86583  0.41511  Biso   1.000  H
  C482     1.0000 0.37761  0.93023  0.48149  Biso   1.000  C
  H246     1.0000 0.31510  0.86583  0.41511  Biso   1.000  H
  C483     1.0000 0.32685  0.99733  0.46453  Biso   1.000  C
  C484     1.0000 0.32681  0.99735  0.46449  Biso   1.000  C
  C485     1.0000 0.32681  0.99733  0.46453  Biso   1.000  C
  C486     1.0000 0.32680  0.99731  0.46449  Biso   1.000  C
  C487     1.0000 0.32684  0.99735  0.46449  Biso   1.000  C
  C488     1.0000 0.40513  0.98712  0.50213  Biso   1.000  C
  C489     1.0000 0.40513  0.98714  0.50209  Biso   1.000  C
  C490     1.0000 0.40514  0.98716  0.50213  Biso   1.000  C
  C491     1.0000 0.40508  0.98711  0.50209  Biso   1.000  C
  C492     1.0000 0.40510  0.98712  0.50213  Biso   1.000  C
  C493     1.0000 0.40512  0.98711  0.50209  Biso   1.000  C
  H247     1.0000 0.40656  0.05681  0.48811  Biso   1.000  H
  H248     1.0000 0.40652  0.05681  0.48811  Biso   1.000  H
  H249     1.0000 0.40657  0.05685  0.48811  Biso   1.000  H
  C494     1.0000 0.39805  0.77698  0.84117  Biso   1.000  C
  C495     1.0000 0.39801  0.77698  0.84117  Biso   1.000  C
  C496     1.0000 0.41159  0.84920  0.93818  Biso   1.000  C
  C497     1.0000 0.41154  0.84918  0.93814  Biso   1.000  C
  C498     1.0000 0.41156  0.84920  0.93818  Biso   1.000  C
  C499     1.0000 0.73019  0.80694  0.35013  Biso   1.000  C
  C500     1.0000 0.73018  0.80692  0.35009  Biso   1.000  C
  C501     1.0000 0.73021  0.80692  0.35009  Biso   1.000  C
  C502     1.0000 0.73023  0.80694  0.35013  Biso   1.000  C
  C503     1.0000 0.77448  0.73003  0.32921  Biso   1.000  C
  C504     1.0000 0.77452  0.73003  0.32921  Biso   1.000  C
  C505     1.0000 0.59072  0.99705  0.61263  Biso   1.000  C
  C506     1.0000 0.59073  0.99709  0.61263  Biso   1.000  C
  C507     1.0000 0.55522  0.98536  0.45025  Biso   1.000  C
  C508     1.0000 0.55521  0.98534  0.45021  Biso   1.000  C
  C509     1.0000 0.55518  0.98534  0.45021  Biso   1.000  C
  C510     1.0000 0.64630  0.11032  0.65125  Biso   1.000  C
  C511     1.0000 0.64627  0.11032  0.65125  Biso   1.000  C
  C512     1.0000 0.64626  0.11028  0.65125  Biso   1.000  C
  C513     1.0000 0.64629  0.11028  0.65125  Biso   1.000  C
  C514     1.0000 0.61007  0.09904  0.49153  Biso   1.000  C
  C515     1.0000 0.61003  0.09904  0.49153  Biso   1.000  C
  C516     1.0000 0.27110  0.31317  0.62073  Biso   1.000  C
  C517     1.0000 0.27106  0.31317  0.62073  Biso   1.000  C
  C518     1.0000 0.27109  0.31313  0.62073  Biso   1.000  C
  C519     1.0000 0.27411  0.30648  0.76964  Biso   1.000  C
  C520     1.0000 0.27408  0.30648  0.76964  Biso   1.000  C
  C521     1.0000 0.27410  0.30644  0.76964  Biso   1.000  C
  C522     1.0000 0.31259  0.23027  0.59315  Biso   1.000  C
  C523     1.0000 0.31258  0.23025  0.59312  Biso   1.000  C
  C524     1.0000 0.31258  0.23023  0.59315  Biso   1.000  C
  C525     1.0000 0.31254  0.23025  0.59312  Biso   1.000  C
  C526     1.0000 0.31720  0.22469  0.74644  Biso   1.000  C
  C527     1.0000 0.31719  0.22465  0.74644  Biso   1.000  C
  C528     1.0000 0.31717  0.22469  0.74644  Biso   1.000  C
  C529     1.0000 0.69033  0.18777  0.08039  Biso   1.000  C
  C530     1.0000 0.69029  0.18777  0.08039  Biso   1.000  C
  C531     1.0000 0.69030  0.18781  0.08039  Biso   1.000  C
  C532     1.0000 0.69034  0.18781  0.08039  Biso   1.000  C
  C533     1.0000 0.53230  0.19909  0.02408  Biso   1.000  C
  C534     1.0000 0.53234  0.19909  0.02408  Biso   1.000  C
  C535     1.0000 0.70133  0.26220  0.17930  Biso   1.000  C
  C536     1.0000 0.70136  0.26220  0.17930  Biso   1.000  C
  C537     1.0000 0.54574  0.27008  0.12508  Biso   1.000  C
  C538     1.0000 0.54570  0.27008  0.12508  Biso   1.000  C
  C539     1.0000 0.54571  0.27011  0.12508  Biso   1.000  C
  C540     1.0000 0.54575  0.27011  0.12508  Biso   1.000  C
  C541     1.0000 0.24362  0.92263  0.43641  Biso   1.000  C
  C542     1.0000 0.24358  0.92263  0.43641  Biso   1.000  C
  C543     1.0000 0.39013  0.90104  0.50852  Biso   1.000  C
  C544     1.0000 0.39009  0.90104  0.50852  Biso   1.000  C
  C545     1.0000 0.30196  0.03542  0.47661  Biso   1.000  C
  C546     1.0000 0.44497  0.01472  0.54981  Biso   1.000  C
  C547     1.0000 0.44493  0.01472  0.54981  Biso   1.000  C
  C548     1.0000 0.34875  0.77497  0.85507  Biso   1.000  C
  H250     1.0000 0.39286  0.75088  0.80577  Biso   1.000  H
  C549     1.0000 0.42618  0.83803  0.85557  Biso   1.000  C
  C550     1.0000 0.34874  0.77495  0.85503  Biso   1.000  C
  H251     1.0000 0.39282  0.75087  0.80573  Biso   1.000  H
  C551     1.0000 0.42612  0.83798  0.85553  Biso   1.000  C
  C552     1.0000 0.34876  0.77501  0.85507  Biso   1.000  C
  H252     1.0000 0.39283  0.75088  0.80577  Biso   1.000  H
  C553     1.0000 0.42614  0.83803  0.85557  Biso   1.000  C
  C554     1.0000 0.34870  0.77495  0.85503  Biso   1.000  C
  C555     1.0000 0.42613  0.83801  0.85553  Biso   1.000  C
  C556     1.0000 0.34872  0.77497  0.85507  Biso   1.000  C
  H253     1.0000 0.39285  0.75087  0.80573  Biso   1.000  H
  C557     1.0000 0.42616  0.83798  0.85553  Biso   1.000  C
  C558     1.0000 0.35417  0.81218  0.90456  Biso   1.000  C
  H254     1.0000 0.41669  0.87590  0.97327  Biso   1.000  H
  C559     1.0000 0.43288  0.87291  0.90627  Biso   1.000  C
  C560     1.0000 0.35413  0.81218  0.90456  Biso   1.000  C
  H255     1.0000 0.41665  0.87590  0.97327  Biso   1.000  H
  C561     1.0000 0.43283  0.87287  0.90627  Biso   1.000  C
  C562     1.0000 0.43284  0.87291  0.90627  Biso   1.000  C
  C563     1.0000 0.43287  0.87287  0.90627  Biso   1.000  C
  C564     1.0000 0.71831  0.76812  0.37460  Biso   1.000  C
  H256     1.0000 0.71469  0.83552  0.35880  Biso   1.000  H
  C565     1.0000 0.79319  0.83019  0.36721  Biso   1.000  C
  C566     1.0000 0.71828  0.76812  0.37460  Biso   1.000  C
  H257     1.0000 0.71470  0.83555  0.35880  Biso   1.000  H
  C567     1.0000 0.79320  0.83023  0.36721  Biso   1.000  C
  C568     1.0000 0.79322  0.83019  0.36721  Biso   1.000  C
  C569     1.0000 0.73898  0.72673  0.36082  Biso   1.000  C
  H258     1.0000 0.78937  0.70081  0.32069  Biso   1.000  H
  C570     1.0000 0.81459  0.78919  0.35590  Biso   1.000  C
  C571     1.0000 0.81460  0.78923  0.35590  Biso   1.000  C
  C572     1.0000 0.73902  0.72673  0.36082  Biso   1.000  C
  H259     1.0000 0.78941  0.70081  0.32069  Biso   1.000  H
  C573     1.0000 0.59497  0.03318  0.66205  Biso   1.000  C
  C574     1.0000 0.59496  0.03314  0.66205  Biso   1.000  C
  C575     1.0000 0.59501  0.03318  0.66205  Biso   1.000  C
  H260     1.0000 0.57215  0.95917  0.59966  Biso   1.000  H
  H261     1.0000 0.57211  0.95915  0.59962  Biso   1.000  H
  H262     1.0000 0.57212  0.95917  0.59966  Biso   1.000  H
  H263     1.0000 0.57214  0.95915  0.59962  Biso   1.000  H
  C576     1.0000 0.53012  0.92406  0.42244  Biso   1.000  C
  C577     1.0000 0.53008  0.92406  0.42244  Biso   1.000  C
  C578     1.0000 0.54265  0.01466  0.42314  Biso   1.000  C
  C579     1.0000 0.54264  0.01462  0.42314  Biso   1.000  C
  C580     1.0000 0.54268  0.01466  0.42314  Biso   1.000  C
  C581     1.0000 0.62278  0.08988  0.68134  Biso   1.000  C
  C582     1.0000 0.62277  0.08984  0.68134  Biso   1.000  C
  C583     1.0000 0.62281  0.08988  0.68134  Biso   1.000  C
  H264     1.0000 0.66488  0.14816  0.66414  Biso   1.000  H
  C584     1.0000 0.57005  0.07146  0.44382  Biso   1.000  C
  C585     1.0000 0.64147  0.15967  0.50993  Biso   1.000  C
  C586     1.0000 0.57004  0.07142  0.44382  Biso   1.000  C
  C587     1.0000 0.64146  0.15964  0.50993  Biso   1.000  C
  C588     1.0000 0.57008  0.07146  0.44382  Biso   1.000  C
  C589     1.0000 0.64150  0.15967  0.50993  Biso   1.000  C
  C590     1.0000 0.30171  0.31137  0.58843  Biso   1.000  C
  C591     1.0000 0.25150  0.35958  0.63583  Biso   1.000  C
  C592     1.0000 0.30167  0.31137  0.58843  Biso   1.000  C
  C593     1.0000 0.25149  0.35954  0.63583  Biso   1.000  C
  C594     1.0000 0.30166  0.31133  0.58843  Biso   1.000  C
  C595     1.0000 0.25146  0.35958  0.63583  Biso   1.000  C
  C596     1.0000 0.30170  0.31133  0.58843  Biso   1.000  C
  H265     1.0000 0.25972  0.33389  0.77734  Biso   1.000  H
  C597     1.0000 0.30711  0.30277  0.80925  Biso   1.000  C
  H266     1.0000 0.25968  0.33385  0.77734  Biso   1.000  H
  H267     1.0000 0.25969  0.33389  0.77734  Biso   1.000  H
  C598     1.0000 0.30708  0.30277  0.80925  Biso   1.000  C
  H268     1.0000 0.25971  0.33385  0.77734  Biso   1.000  H
  C599     1.0000 0.32238  0.26998  0.57464  Biso   1.000  C
  C600     1.0000 0.33411  0.18457  0.57735  Biso   1.000  C
  C601     1.0000 0.32237  0.26994  0.57464  Biso   1.000  C
  C602     1.0000 0.33406  0.18455  0.57731  Biso   1.000  C
  C603     1.0000 0.33406  0.18453  0.57735  Biso   1.000  C
  C604     1.0000 0.33407  0.18457  0.57735  Biso   1.000  C
  C605     1.0000 0.33410  0.18455  0.57731  Biso   1.000  C
  C606     1.0000 0.33410  0.18453  0.57735  Biso   1.000  C
  C607     1.0000 0.32871  0.26187  0.79775  Biso   1.000  C
  H269     1.0000 0.33160  0.19729  0.73877  Biso   1.000  H
  H270     1.0000 0.33159  0.19727  0.73873  Biso   1.000  H
  H271     1.0000 0.33160  0.19725  0.73877  Biso   1.000  H
  C608     1.0000 0.32868  0.26187  0.79775  Biso   1.000  C
  H272     1.0000 0.33156  0.19727  0.73873  Biso   1.000  H
  C609     1.0000 0.74024  0.22490  0.11478  Biso   1.000  C
  C610     1.0000 0.68491  0.14699  0.02698  Biso   1.000  C
  C611     1.0000 0.74020  0.22490  0.11478  Biso   1.000  C
  C612     1.0000 0.68495  0.14699  0.02698  Biso   1.000  C
  H273     1.0000 0.52794  0.17540  0.99038  Biso   1.000  H
  H274     1.0000 0.52792  0.17539  0.99035  Biso   1.000  H
  H275     1.0000 0.52793  0.17537  0.99038  Biso   1.000  H
  H276     1.0000 0.52789  0.17539  0.99035  Biso   1.000  H
  C613     1.0000 0.50950  0.23897  0.03318  Biso   1.000  C
  C614     1.0000 0.50951  0.23901  0.03318  Biso   1.000  C
  C615     1.0000 0.50954  0.23897  0.03318  Biso   1.000  C
  C616     1.0000 0.74575  0.26211  0.16419  Biso   1.000  C
  C617     1.0000 0.70876  0.29642  0.23561  Biso   1.000  C
  C618     1.0000 0.74570  0.26207  0.16419  Biso   1.000  C
  C619     1.0000 0.70872  0.29639  0.23561  Biso   1.000  C
  C620     1.0000 0.70873  0.29642  0.23561  Biso   1.000  C
  C621     1.0000 0.74574  0.26207  0.16419  Biso   1.000  C
  C622     1.0000 0.70875  0.29639  0.23561  Biso   1.000  C
  C623     1.0000 0.74571  0.26211  0.16419  Biso   1.000  C
  C624     1.0000 0.51623  0.27450  0.08368  Biso   1.000  C
  H277     1.0000 0.55025  0.29389  0.15881  Biso   1.000  H
  C625     1.0000 0.51622  0.27446  0.08368  Biso   1.000  C
  H278     1.0000 0.55021  0.29387  0.15877  Biso   1.000  H
  H279     1.0000 0.55023  0.29393  0.15881  Biso   1.000  H
  H280     1.0000 0.55024  0.29387  0.15877  Biso   1.000  H
  H281     1.0000 0.55026  0.29393  0.15881  Biso   1.000  H
  C626     1.0000 0.21885  0.96074  0.44853  Biso   1.000  C
  C627     1.0000 0.21881  0.96076  0.44849  Biso   1.000  C
  C628     1.0000 0.21881  0.96074  0.44853  Biso   1.000  C
  C629     1.0000 0.21880  0.96072  0.44849  Biso   1.000  C
  H282     1.0000 0.22411  0.88481  0.42301  Biso   1.000  H
  H283     1.0000 0.22412  0.88485  0.42301  Biso   1.000  H
  H284     1.0000 0.22408  0.88481  0.42301  Biso   1.000  H
  C630     1.0000 0.43015  0.92862  0.55624  Biso   1.000  C
  C631     1.0000 0.35873  0.84041  0.49013  Biso   1.000  C
  C632     1.0000 0.43011  0.92864  0.55620  Biso   1.000  C
  C633     1.0000 0.35869  0.84043  0.49009  Biso   1.000  C
  C634     1.0000 0.43012  0.92866  0.55624  Biso   1.000  C
  C635     1.0000 0.35870  0.84045  0.49013  Biso   1.000  C
  C636     1.0000 0.43010  0.92860  0.55620  Biso   1.000  C
  C637     1.0000 0.43011  0.92862  0.55624  Biso   1.000  C
  C638     1.0000 0.35869  0.84041  0.49013  Biso   1.000  C
  C639     1.0000 0.43014  0.92864  0.55620  Biso   1.000  C
  C640     1.0000 0.35872  0.84043  0.49009  Biso   1.000  C
  C641     1.0000 0.43016  0.92866  0.55624  Biso   1.000  C
  C642     1.0000 0.35874  0.84045  0.49013  Biso   1.000  C
  C643     1.0000 0.24805  0.01713  0.46852  Biso   1.000  C
  C644     1.0000 0.24804  0.01710  0.46852  Biso   1.000  C
  C645     1.0000 0.24808  0.01713  0.46852  Biso   1.000  C
  H285     1.0000 0.32158  0.07313  0.49001  Biso   1.000  H
  H286     1.0000 0.32154  0.07313  0.49001  Biso   1.000  H
  C646     1.0000 0.45755  0.98542  0.57692  Biso   1.000  C
  C647     1.0000 0.45752  0.98546  0.57692  Biso   1.000  C
  C648     1.0000 0.45751  0.98542  0.57692  Biso   1.000  C
  C649     1.0000 0.45756  0.98546  0.57692  Biso   1.000  C
  C650     1.0000 0.47008  0.07602  0.57761  Biso   1.000  C
  C651     1.0000 0.47004  0.07602  0.57761  Biso   1.000  C
  C652     1.0000 0.47005  0.07606  0.57761  Biso   1.000  C
  C653     1.0000 0.47009  0.07606  0.57761  Biso   1.000  C
  C654     1.0000 0.29887  0.73788  0.82076  Biso   1.000  C
  C655     1.0000 0.29883  0.73788  0.82076  Biso   1.000  C
  C656     1.0000 0.44498  0.86019  0.82424  Biso   1.000  C
  C657     1.0000 0.44494  0.86019  0.82424  Biso   1.000  C
  C658     1.0000 0.30987  0.81231  0.91967  Biso   1.000  C
  C659     1.0000 0.30986  0.81227  0.91967  Biso   1.000  C
  C660     1.0000 0.30983  0.81231  0.91967  Biso   1.000  C
  C661     1.0000 0.45847  0.93000  0.92567  Biso   1.000  C
  C662     1.0000 0.45846  0.92996  0.92567  Biso   1.000  C
  C663     1.0000 0.45843  0.93000  0.92567  Biso   1.000  C
  C664     1.0000 0.68760  0.76981  0.40690  Biso   1.000  C
  C665     1.0000 0.68758  0.76985  0.40690  Biso   1.000  C
  C666     1.0000 0.68757  0.76981  0.40690  Biso   1.000  C
  C667     1.0000 0.68761  0.76985  0.40690  Biso   1.000  C
  C668     1.0000 0.82601  0.88583  0.38913  Biso   1.000  C
  C669     1.0000 0.82599  0.88581  0.38909  Biso   1.000  C
  C670     1.0000 0.82604  0.88583  0.38913  Biso   1.000  C
  C671     1.0000 0.72909  0.68691  0.37933  Biso   1.000  C
  C672     1.0000 0.72909  0.68693  0.37929  Biso   1.000  C
  C673     1.0000 0.72908  0.68689  0.37929  Biso   1.000  C
  C674     1.0000 0.86890  0.80370  0.36662  Biso   1.000  C
  C675     1.0000 0.86890  0.80372  0.36659  Biso   1.000  C
  C676     1.0000 0.86891  0.80374  0.36662  Biso   1.000  C
  O73      1.0000 0.57710  0.02099  0.69807  Biso   1.000  O
  O74      1.0000 0.57704  0.02094  0.69803  Biso   1.000  O
  O75      1.0000 0.57706  0.02096  0.69807  Biso   1.000  O
  O76      1.0000 0.57709  0.02097  0.69803  Biso   1.000  O
  O77      1.0000 0.57708  0.02094  0.69803  Biso   1.000  O
  O78      1.0000 0.57709  0.02096  0.69807  Biso   1.000  O
  O79      1.0000 0.57705  0.02097  0.69803  Biso   1.000  O
  H287     1.0000 0.51452  0.91246  0.38573  Biso   1.000  H
  H288     1.0000 0.55630  0.90763  0.42682  Biso   1.000  H
  C677     1.0000 0.48783  0.90517  0.44425  Biso   1.000  C
  H289     1.0000 0.51451  0.91242  0.38573  Biso   1.000  H
  C678     1.0000 0.48780  0.90511  0.44421  Biso   1.000  C
  H290     1.0000 0.55631  0.90767  0.42682  Biso   1.000  H
  H291     1.0000 0.51448  0.91246  0.38573  Biso   1.000  H
  H292     1.0000 0.55627  0.90763  0.42682  Biso   1.000  H
  C679     1.0000 0.48778  0.90515  0.44421  Biso   1.000  C
  C680     1.0000 0.48779  0.90517  0.44425  Biso   1.000  C
  C681     1.0000 0.48781  0.90515  0.44421  Biso   1.000  C
  H293     1.0000 0.51602  0.99614  0.39123  Biso   1.000  H
  H294     1.0000 0.51603  0.99617  0.39123  Biso   1.000  H
  H295     1.0000 0.51598  0.99614  0.39123  Biso   1.000  H
  O80      1.0000 0.62130  0.11328  0.73044  Biso   1.000  O
  O81      1.0000 0.62127  0.11328  0.73044  Biso   1.000  O
  O82      1.0000 0.62126  0.11324  0.73044  Biso   1.000  O
  O83      1.0000 0.62129  0.11324  0.73044  Biso   1.000  O
  H296     1.0000 0.56175  0.09104  0.42573  Biso   1.000  H
  H297     1.0000 0.56176  0.09107  0.42573  Biso   1.000  H
  H298     1.0000 0.67897  0.16665  0.52143  Biso   1.000  H
  H299     1.0000 0.63427  0.16976  0.48173  Biso   1.000  H
  C682     1.0000 0.62619  0.19525  0.55543  Biso   1.000  C
  H300     1.0000 0.63424  0.16976  0.48173  Biso   1.000  H
  C683     1.0000 0.62615  0.19525  0.55543  Biso   1.000  C
  H301     1.0000 0.67896  0.16662  0.52143  Biso   1.000  H
  H302     1.0000 0.63426  0.16973  0.48173  Biso   1.000  H
  C684     1.0000 0.62614  0.19522  0.55543  Biso   1.000  C
  H303     1.0000 0.67900  0.16665  0.52143  Biso   1.000  H
  C685     1.0000 0.62618  0.19522  0.55543  Biso   1.000  C
  H304     1.0000 0.30831  0.33797  0.57604  Biso   1.000  H
  H305     1.0000 0.30827  0.33797  0.57604  Biso   1.000  H
  H306     1.0000 0.30826  0.33793  0.57604  Biso   1.000  H
  H307     1.0000 0.30830  0.33793  0.57604  Biso   1.000  H
  H308     1.0000 0.21511  0.34576  0.63463  Biso   1.000  H
  H309     1.0000 0.25280  0.37599  0.61186  Biso   1.000  H
  C686     1.0000 0.28653  0.40377  0.69125  Biso   1.000  C
  H310     1.0000 0.21507  0.34576  0.63463  Biso   1.000  H
  H311     1.0000 0.25278  0.37594  0.61182  Biso   1.000  H
  C687     1.0000 0.28649  0.40377  0.69125  Biso   1.000  C
  H312     1.0000 0.25279  0.37596  0.61186  Biso   1.000  H
  C688     1.0000 0.28648  0.40374  0.69125  Biso   1.000  C
  H313     1.0000 0.25275  0.37598  0.61182  Biso   1.000  H
  C689     1.0000 0.28652  0.40374  0.69125  Biso   1.000  C
  H314     1.0000 0.25279  0.37598  0.61182  Biso   1.000  H
  O84      1.0000 0.32362  0.33399  0.86196  Biso   1.000  O
  O85      1.0000 0.32361  0.33395  0.86196  Biso   1.000  O
  O86      1.0000 0.32358  0.33399  0.86196  Biso   1.000  O
  H315     1.0000 0.34288  0.26878  0.55303  Biso   1.000  H
  H316     1.0000 0.34287  0.26874  0.55303  Biso   1.000  H
  H317     1.0000 0.34400  0.18198  0.54684  Biso   1.000  H
  H318     1.0000 0.30648  0.14948  0.56814  Biso   1.000  H
  C690     1.0000 0.38230  0.19408  0.62034  Biso   1.000  C
  H319     1.0000 0.34396  0.18194  0.54684  Biso   1.000  H
  H320     1.0000 0.30647  0.14944  0.56814  Biso   1.000  H
  C691     1.0000 0.38226  0.19405  0.62034  Biso   1.000  C
  H321     1.0000 0.34397  0.18198  0.54684  Biso   1.000  H
  H322     1.0000 0.30644  0.14948  0.56814  Biso   1.000  H
  C692     1.0000 0.38227  0.19408  0.62034  Biso   1.000  C
  H323     1.0000 0.34399  0.18194  0.54684  Biso   1.000  H
  C693     1.0000 0.38229  0.19405  0.62034  Biso   1.000  C
  O87      1.0000 0.35933  0.26638  0.84275  Biso   1.000  O
  O88      1.0000 0.35929  0.26638  0.84275  Biso   1.000  O
  H324     1.0000 0.76994  0.22482  0.10471  Biso   1.000  H
  H325     1.0000 0.76992  0.22476  0.10467  Biso   1.000  H
  H326     1.0000 0.76993  0.22480  0.10467  Biso   1.000  H
  H327     1.0000 0.71702  0.15928  0.01920  Biso   1.000  H
  H328     1.0000 0.65593  0.14578  0.00158  Biso   1.000  H
  C694     1.0000 0.67451  0.08788  0.02319  Biso   1.000  C
  H329     1.0000 0.65589  0.14578  0.00158  Biso   1.000  H
  H330     1.0000 0.71703  0.15931  0.01920  Biso   1.000  H
  H331     1.0000 0.71705  0.15928  0.01920  Biso   1.000  H
  C695     1.0000 0.67455  0.08788  0.02319  Biso   1.000  C
  O89      1.0000 0.47964  0.24859  0.99677  Biso   1.000  O
  O90      1.0000 0.47961  0.24859  0.99677  Biso   1.000  O
  H332     1.0000 0.77904  0.28691  0.18720  Biso   1.000  H
  H333     1.0000 0.77907  0.28691  0.18720  Biso   1.000  H
  H334     1.0000 0.74557  0.31010  0.25652  Biso   1.000  H
  H335     1.0000 0.68746  0.27411  0.24831  Biso   1.000  H
  C696     1.0000 0.69145  0.34471  0.23801  Biso   1.000  C
  H336     1.0000 0.74552  0.31008  0.25648  Biso   1.000  H
  H337     1.0000 0.68743  0.27411  0.24831  Biso   1.000  H
  H338     1.0000 0.74554  0.31014  0.25652  Biso   1.000  H
  H339     1.0000 0.74556  0.31008  0.25648  Biso   1.000  H
  H340     1.0000 0.74558  0.31014  0.25652  Biso   1.000  H
  O91      1.0000 0.49024  0.30948  0.08198  Biso   1.000  O
  O92      1.0000 0.49020  0.30948  0.08198  Biso   1.000  O
  O93      1.0000 0.49021  0.30951  0.08198  Biso   1.000  O
  O94      1.0000 0.49025  0.30951  0.08198  Biso   1.000  O
  O95      1.0000 0.16592  0.94963  0.44222  Biso   1.000  O
  O96      1.0000 0.16593  0.94966  0.44222  Biso   1.000  O
  O97      1.0000 0.16589  0.94963  0.44222  Biso   1.000  O
  H341     1.0000 0.43844  0.90905  0.57432  Biso   1.000  H
  H342     1.0000 0.43840  0.90905  0.57432  Biso   1.000  H
  H343     1.0000 0.32123  0.83343  0.47863  Biso   1.000  H
  H344     1.0000 0.36592  0.83032  0.51832  Biso   1.000  H
  C697     1.0000 0.37401  0.80483  0.44462  Biso   1.000  C
  H345     1.0000 0.32120  0.83346  0.47863  Biso   1.000  H
  H346     1.0000 0.36593  0.83036  0.51832  Biso   1.000  H
  C698     1.0000 0.37402  0.80486  0.44462  Biso   1.000  C
  H347     1.0000 0.32119  0.83343  0.47863  Biso   1.000  H
  H348     1.0000 0.36588  0.83032  0.51832  Biso   1.000  H
  H349     1.0000 0.32124  0.83346  0.47863  Biso   1.000  H
  O98      1.0000 0.21388  0.04543  0.47793  Biso   1.000  O
  O99      1.0000 0.21383  0.04541  0.47789  Biso   1.000  O
  O100     1.0000 0.21384  0.04543  0.47793  Biso   1.000  O
  O101     1.0000 0.21386  0.04541  0.47789  Biso   1.000  O
  H350     1.0000 0.48418  0.00395  0.60883  Biso   1.000  H
  H351     1.0000 0.48417  0.00391  0.60883  Biso   1.000  H
  H352     1.0000 0.48567  0.08762  0.61433  Biso   1.000  H
  H353     1.0000 0.44389  0.09245  0.57324  Biso   1.000  H
  C699     1.0000 0.51237  0.09491  0.55581  Biso   1.000  C
  H354     1.0000 0.48564  0.08762  0.61433  Biso   1.000  H
  H355     1.0000 0.44383  0.09240  0.57320  Biso   1.000  H
  C700     1.0000 0.51233  0.09491  0.55581  Biso   1.000  C
  H356     1.0000 0.48568  0.08766  0.61433  Biso   1.000  H
  H357     1.0000 0.44385  0.09245  0.57324  Biso   1.000  H
  C701     1.0000 0.51238  0.09495  0.55581  Biso   1.000  C
  H358     1.0000 0.44388  0.09243  0.57320  Biso   1.000  H
  H359     1.0000 0.44387  0.09240  0.57320  Biso   1.000  H
  H360     1.0000 0.44384  0.09243  0.57320  Biso   1.000  H
  C702     1.0000 0.25445  0.73797  0.83586  Biso   1.000  C
  C703     1.0000 0.29143  0.70366  0.76445  Biso   1.000  C
  C704     1.0000 0.25446  0.73801  0.83586  Biso   1.000  C
  C705     1.0000 0.29144  0.70369  0.76445  Biso   1.000  C
  C706     1.0000 0.25441  0.73797  0.83586  Biso   1.000  C
  C707     1.0000 0.29139  0.70366  0.76445  Biso   1.000  C
  C708     1.0000 0.47054  0.91717  0.84365  Biso   1.000  C
  H361     1.0000 0.44043  0.83677  0.79024  Biso   1.000  H
  C709     1.0000 0.47055  0.91720  0.84365  Biso   1.000  C
  C710     1.0000 0.47058  0.91720  0.84365  Biso   1.000  C
  C711     1.0000 0.25995  0.77518  0.88528  Biso   1.000  C
  C712     1.0000 0.31528  0.85309  0.97307  Biso   1.000  C
  C713     1.0000 0.25994  0.77516  0.88524  Biso   1.000  C
  C714     1.0000 0.31524  0.85309  0.97307  Biso   1.000  C
  C715     1.0000 0.25996  0.77522  0.88528  Biso   1.000  C
  C716     1.0000 0.31525  0.85312  0.97307  Biso   1.000  C
  C717     1.0000 0.25991  0.77516  0.88524  Biso   1.000  C
  C718     1.0000 0.31529  0.85312  0.97307  Biso   1.000  C
  H362     1.0000 0.46298  0.95331  0.95967  Biso   1.000  H
  C719     1.0000 0.47730  0.95210  0.89438  Biso   1.000  C
  H363     1.0000 0.46297  0.95327  0.95967  Biso   1.000  H
  C720     1.0000 0.47724  0.95204  0.89434  Biso   1.000  C
  C721     1.0000 0.47726  0.95210  0.89438  Biso   1.000  C
  H364     1.0000 0.46295  0.95331  0.95967  Biso   1.000  H
  C722     1.0000 0.47725  0.95208  0.89434  Biso   1.000  C
  C723     1.0000 0.67781  0.73010  0.42541  Biso   1.000  C
  C724     1.0000 0.66608  0.81551  0.42270  Biso   1.000  C
  C725     1.0000 0.67779  0.73014  0.42541  Biso   1.000  C
  C726     1.0000 0.66609  0.81555  0.42270  Biso   1.000  C
  C727     1.0000 0.66612  0.81551  0.42270  Biso   1.000  C
  C728     1.0000 0.67782  0.73014  0.42541  Biso   1.000  C
  C729     1.0000 0.67778  0.73010  0.42541  Biso   1.000  C
  H365     1.0000 0.81160  0.91321  0.39660  Biso   1.000  H
  C730     1.0000 0.88020  0.90032  0.39981  Biso   1.000  C
  H366     1.0000 0.81161  0.91325  0.39660  Biso   1.000  H
  C731     1.0000 0.88021  0.90036  0.39981  Biso   1.000  C
  H367     1.0000 0.81163  0.91321  0.39660  Biso   1.000  H
  C732     1.0000 0.88024  0.90032  0.39981  Biso   1.000  C
  C733     1.0000 0.69848  0.68871  0.41163  Biso   1.000  C
  C734     1.0000 0.74869  0.64050  0.36422  Biso   1.000  C
  C735     1.0000 0.69848  0.68873  0.41159  Biso   1.000  C
  C736     1.0000 0.74866  0.64052  0.36418  Biso   1.000  C
  C737     1.0000 0.69849  0.68875  0.41163  Biso   1.000  C
  C738     1.0000 0.74867  0.64054  0.36422  Biso   1.000  C
  C739     1.0000 0.69851  0.68869  0.41159  Biso   1.000  C
  C740     1.0000 0.74868  0.64048  0.36418  Biso   1.000  C
  C741     1.0000 0.69852  0.68871  0.41163  Biso   1.000  C
  C742     1.0000 0.74869  0.64052  0.36418  Biso   1.000  C
  C743     1.0000 0.74870  0.64054  0.36422  Biso   1.000  C
  C744     1.0000 0.69847  0.68869  0.41159  Biso   1.000  C
  C745     1.0000 0.74865  0.64048  0.36418  Biso   1.000  C
  C746     1.0000 0.90170  0.85932  0.38851  Biso   1.000  C
  H368     1.0000 0.88319  0.77630  0.35911  Biso   1.000  H
  H369     1.0000 0.88320  0.77634  0.35911  Biso   1.000  H
  H370     1.0000 0.88323  0.77630  0.35911  Biso   1.000  H
  B44      1.0000 0.59320  0.07367  0.74295  Biso   1.000  B
  B45      1.0000 0.59316  0.07367  0.74295  Biso   1.000  B
  B46      1.0000 0.59315  0.07363  0.74295  Biso   1.000  B
  B47      1.0000 0.59319  0.07363  0.74295  Biso   1.000  B
  H371     1.0000 0.50393  0.91354  0.47972  Biso   1.000  H
  H372     1.0000 0.46382  0.92415  0.44243  Biso   1.000  H
  H373     1.0000 0.46892  0.86583  0.42442  Biso   1.000  H
  H374     1.0000 0.50389  0.91354  0.47972  Biso   1.000  H
  H375     1.0000 0.46888  0.86583  0.42442  Biso   1.000  H
  H376     1.0000 0.50390  0.91358  0.47972  Biso   1.000  H
  H377     1.0000 0.46889  0.86586  0.42442  Biso   1.000  H
  H378     1.0000 0.46378  0.92415  0.44243  Biso   1.000  H
  H379     1.0000 0.50394  0.91358  0.47972  Biso   1.000  H
  H380     1.0000 0.46893  0.86586  0.42442  Biso   1.000  H
  H381     1.0000 0.64988  0.20236  0.58785  Biso   1.000  H
  H382     1.0000 0.62846  0.22986  0.55443  Biso   1.000  H
  H383     1.0000 0.59068  0.17546  0.55226  Biso   1.000  H
  H384     1.0000 0.59066  0.17545  0.55222  Biso   1.000  H
  H385     1.0000 0.62845  0.22982  0.55443  Biso   1.000  H
  H386     1.0000 0.59067  0.17543  0.55226  Biso   1.000  H
  H387     1.0000 0.62850  0.22986  0.55443  Biso   1.000  H
  H388     1.0000 0.32101  0.42187  0.69094  Biso   1.000  H
  H389     1.0000 0.28961  0.38607  0.71375  Biso   1.000  H
  H390     1.0000 0.27084  0.43069  0.70357  Biso   1.000  H
  H391     1.0000 0.27079  0.43067  0.70353  Biso   1.000  H
  H392     1.0000 0.32100  0.42184  0.69094  Biso   1.000  H
  H393     1.0000 0.27079  0.43065  0.70357  Biso   1.000  H
  H394     1.0000 0.32097  0.42187  0.69094  Biso   1.000  H
  H395     1.0000 0.28958  0.38607  0.71375  Biso   1.000  H
  H396     1.0000 0.27080  0.43069  0.70357  Biso   1.000  H
  H397     1.0000 0.27082  0.43067  0.70353  Biso   1.000  H
  H398     1.0000 0.27083  0.43065  0.70357  Biso   1.000  H
  B48      1.0000 0.35623  0.31050  0.88396  Biso   1.000  B
  B49      1.0000 0.35622  0.31046  0.88396  Biso   1.000  B
  B50      1.0000 0.35619  0.31050  0.88396  Biso   1.000  B
  H399     1.0000 0.41028  0.18985  0.60655  Biso   1.000  H
  H400     1.0000 0.37281  0.16737  0.63366  Biso   1.000  H
  H401     1.0000 0.39399  0.23077  0.64784  Biso   1.000  H
  H402     1.0000 0.37276  0.16735  0.63362  Biso   1.000  H
  H403     1.0000 0.37276  0.16733  0.63366  Biso   1.000  H
  H404     1.0000 0.39398  0.23073  0.64784  Biso   1.000  H
  H405     1.0000 0.41029  0.18989  0.60655  Biso   1.000  H
  H406     1.0000 0.39396  0.23077  0.64784  Biso   1.000  H
  H407     1.0000 0.37277  0.16737  0.63366  Biso   1.000  H
  H408     1.0000 0.37280  0.16735  0.63362  Biso   1.000  H
  H409     1.0000 0.37280  0.16733  0.63366  Biso   1.000  H
  H410     1.0000 0.66694  0.06229  0.98798  Biso   1.000  H
  H411     1.0000 0.66690  0.06227  0.98794  Biso   1.000  H
  H412     1.0000 0.66691  0.06229  0.98798  Biso   1.000  H
  H413     1.0000 0.66693  0.06227  0.98794  Biso   1.000  H
  H414     1.0000 0.64511  0.07727  0.03457  Biso   1.000  H
  H415     1.0000 0.70531  0.08780  0.04460  Biso   1.000  H
  H416     1.0000 0.70530  0.08778  0.04456  Biso   1.000  H
  H417     1.0000 0.64512  0.07731  0.03457  Biso   1.000  H
  H418     1.0000 0.70533  0.08778  0.04456  Biso   1.000  H
  H419     1.0000 0.70535  0.08780  0.04460  Biso   1.000  H
  B51      1.0000 0.46873  0.29280  0.02969  Biso   1.000  B
  H420     1.0000 0.70486  0.35961  0.21621  Biso   1.000  H
  H421     1.0000 0.70508  0.37322  0.27302  Biso   1.000  H
  H422     1.0000 0.65354  0.33181  0.22620  Biso   1.000  H
  H423     1.0000 0.70483  0.35961  0.21621  Biso   1.000  H
  H424     1.0000 0.70503  0.37321  0.27298  Biso   1.000  H
  H425     1.0000 0.70505  0.37322  0.27302  Biso   1.000  H
  H426     1.0000 0.70507  0.37321  0.27298  Biso   1.000  H
  H427     1.0000 0.65357  0.33181  0.22620  Biso   1.000  H
  B52      1.0000 0.16606  0.00382  0.46251  Biso   1.000  B
  B53      1.0000 0.16603  0.00382  0.46251  Biso   1.000  B
  H428     1.0000 0.35031  0.79772  0.41221  Biso   1.000  H
  H429     1.0000 0.37173  0.77023  0.44563  Biso   1.000  H
  H430     1.0000 0.40952  0.82462  0.44780  Biso   1.000  H
  H431     1.0000 0.37169  0.77024  0.44559  Biso   1.000  H
  H432     1.0000 0.40949  0.82465  0.44780  Biso   1.000  H
  H433     1.0000 0.37170  0.77023  0.44563  Biso   1.000  H
  H434     1.0000 0.35027  0.79772  0.41221  Biso   1.000  H
  H435     1.0000 0.37168  0.77021  0.44559  Biso   1.000  H
  H436     1.0000 0.40948  0.82462  0.44780  Biso   1.000  H
  H437     1.0000 0.37173  0.77024  0.44559  Biso   1.000  H
  H438     1.0000 0.40953  0.82465  0.44780  Biso   1.000  H
  H439     1.0000 0.49627  0.08654  0.52033  Biso   1.000  H
  H440     1.0000 0.53637  0.07593  0.55763  Biso   1.000  H
  H441     1.0000 0.53127  0.13426  0.57564  Biso   1.000  H
  H442     1.0000 0.49625  0.08652  0.52030  Biso   1.000  H
  H443     1.0000 0.53634  0.07593  0.55763  Biso   1.000  H
  H444     1.0000 0.53125  0.13420  0.57560  Biso   1.000  H
  H445     1.0000 0.53130  0.13424  0.57560  Biso   1.000  H
  H446     1.0000 0.49630  0.08654  0.52033  Biso   1.000  H
  H447     1.0000 0.53131  0.13426  0.57564  Biso   1.000  H
  H448     1.0000 0.53126  0.13424  0.57560  Biso   1.000  H
  H449     1.0000 0.22116  0.71317  0.81286  Biso   1.000  H
  H450     1.0000 0.22112  0.71317  0.81286  Biso   1.000  H
  H451     1.0000 0.25462  0.68998  0.74353  Biso   1.000  H
  H452     1.0000 0.31273  0.72597  0.75174  Biso   1.000  H
  C747     1.0000 0.30874  0.65538  0.76205  Biso   1.000  C
  H453     1.0000 0.25461  0.68994  0.74353  Biso   1.000  H
  C748     1.0000 0.30870  0.65538  0.76205  Biso   1.000  C
  H454     1.0000 0.31269  0.72597  0.75174  Biso   1.000  H
  O102     1.0000 0.49395  0.94478  0.81785  Biso   1.000  O
  O103     1.0000 0.49392  0.94478  0.81785  Biso   1.000  O
  H455     1.0000 0.23025  0.77527  0.89535  Biso   1.000  H
  H456     1.0000 0.23021  0.77527  0.89535  Biso   1.000  H
  H457     1.0000 0.23026  0.77530  0.89535  Biso   1.000  H
  H458     1.0000 0.28318  0.84080  0.98086  Biso   1.000  H
  H459     1.0000 0.34426  0.85430  0.99848  Biso   1.000  H
  C749     1.0000 0.32568  0.91220  0.97687  Biso   1.000  C
  H460     1.0000 0.28313  0.84077  0.98086  Biso   1.000  H
  H461     1.0000 0.34425  0.85428  0.99844  Biso   1.000  H
  C750     1.0000 0.32565  0.91220  0.97687  Biso   1.000  C
  H462     1.0000 0.28314  0.84080  0.98086  Biso   1.000  H
  H463     1.0000 0.28317  0.84077  0.98086  Biso   1.000  H
  O104     1.0000 0.50529  0.00369  0.90085  Biso   1.000  O
  O105     1.0000 0.50528  0.00365  0.90085  Biso   1.000  O
  O106     1.0000 0.50533  0.00369  0.90085  Biso   1.000  O
  H464     1.0000 0.65731  0.73130  0.44702  Biso   1.000  H
  H465     1.0000 0.65729  0.73134  0.44702  Biso   1.000  H
  H466     1.0000 0.65732  0.73134  0.44702  Biso   1.000  H
  H467     1.0000 0.65619  0.81810  0.45322  Biso   1.000  H
  H468     1.0000 0.69371  0.85060  0.43192  Biso   1.000  H
  C751     1.0000 0.61789  0.80600  0.37971  Biso   1.000  C
  H469     1.0000 0.65620  0.81814  0.45322  Biso   1.000  H
  H470     1.0000 0.69369  0.85064  0.43192  Biso   1.000  H
  C752     1.0000 0.61790  0.80603  0.37971  Biso   1.000  C
  H471     1.0000 0.65623  0.81814  0.45322  Biso   1.000  H
  H472     1.0000 0.69372  0.85064  0.43192  Biso   1.000  H
  H473     1.0000 0.65622  0.81810  0.45322  Biso   1.000  H
  C753     1.0000 0.61793  0.80600  0.37971  Biso   1.000  C
  O107     1.0000 0.91880  0.95181  0.42092  Biso   1.000  O
  O108     1.0000 0.91881  0.95185  0.42092  Biso   1.000  O
  O109     1.0000 0.91883  0.95181  0.42092  Biso   1.000  O
  H474     1.0000 0.69189  0.66212  0.42402  Biso   1.000  H
  H475     1.0000 0.69190  0.66215  0.42402  Biso   1.000  H
  H476     1.0000 0.69192  0.66212  0.42402  Biso   1.000  H
  H477     1.0000 0.78509  0.65433  0.36542  Biso   1.000  H
  H478     1.0000 0.74739  0.62409  0.38820  Biso   1.000  H
  C754     1.0000 0.71367  0.59631  0.30880  Biso   1.000  C
  H479     1.0000 0.78507  0.65431  0.36539  Biso   1.000  H
  H480     1.0000 0.74736  0.62412  0.38820  Biso   1.000  H
  C755     1.0000 0.71368  0.59634  0.30880  Biso   1.000  C
  H481     1.0000 0.78512  0.65433  0.36542  Biso   1.000  H
  C756     1.0000 0.71370  0.59631  0.30880  Biso   1.000  C
  H482     1.0000 0.74740  0.62412  0.38820  Biso   1.000  H
  H483     1.0000 0.74735  0.62409  0.38820  Biso   1.000  H
  O110     1.0000 0.95481  0.88520  0.40311  Biso   1.000  O
  O111     1.0000 0.95478  0.88524  0.40311  Biso   1.000  O
  O112     1.0000 0.95482  0.88524  0.40311  Biso   1.000  O
  O113     1.0000 0.95477  0.88520  0.40311  Biso   1.000  O
  C757     1.0000 0.58501  0.08206  0.79245  Biso   1.000  C
  C758     1.0000 0.58497  0.08206  0.79245  Biso   1.000  C
  C759     1.0000 0.58502  0.08210  0.79245  Biso   1.000  C
  C760     1.0000 0.58498  0.08210  0.79245  Biso   1.000  C
  C761     1.0000 0.38323  0.33140  0.93926  Biso   1.000  C
  C762     1.0000 0.38322  0.33136  0.93926  Biso   1.000  C
  C763     1.0000 0.38319  0.33140  0.93926  Biso   1.000  C
  C764     1.0000 0.43502  0.32157  0.00878  Biso   1.000  C
  C765     1.0000 0.43503  0.32161  0.00878  Biso   1.000  C
  C766     1.0000 0.11485  0.01691  0.46081  Biso   1.000  C
  C767     1.0000 0.11486  0.01694  0.46081  Biso   1.000  C
  H484     1.0000 0.29533  0.64047  0.78385  Biso   1.000  H
  H485     1.0000 0.29511  0.62686  0.72704  Biso   1.000  H
  H486     1.0000 0.34666  0.66828  0.77386  Biso   1.000  H
  H487     1.0000 0.34662  0.66828  0.77386  Biso   1.000  H
  H488     1.0000 0.29529  0.64047  0.78385  Biso   1.000  H
  B54      1.0000 0.51631  0.00138  0.85766  Biso   1.000  B
  B55      1.0000 0.51627  0.00138  0.85766  Biso   1.000  B
  B56      1.0000 0.51626  0.00135  0.85766  Biso   1.000  B
  B57      1.0000 0.51630  0.00135  0.85766  Biso   1.000  B
  H489     1.0000 0.35508  0.92281  0.96548  Biso   1.000  H
  H490     1.0000 0.29488  0.91228  0.95545  Biso   1.000  H
  H491     1.0000 0.35506  0.92276  0.96544  Biso   1.000  H
  H492     1.0000 0.29485  0.91228  0.95545  Biso   1.000  H
  H493     1.0000 0.35503  0.92279  0.96544  Biso   1.000  H
  H494     1.0000 0.35505  0.92281  0.96548  Biso   1.000  H
  H495     1.0000 0.35507  0.92279  0.96544  Biso   1.000  H
  H496     1.0000 0.33325  0.93779  0.01207  Biso   1.000  H
  H497     1.0000 0.33328  0.93779  0.01207  Biso   1.000  H
  H498     1.0000 0.58992  0.81023  0.39350  Biso   1.000  H
  H499     1.0000 0.62738  0.83271  0.36639  Biso   1.000  H
  H500     1.0000 0.60620  0.76931  0.35222  Biso   1.000  H
  H501     1.0000 0.58988  0.81023  0.39350  Biso   1.000  H
  H502     1.0000 0.62739  0.83275  0.36639  Biso   1.000  H
  H503     1.0000 0.60617  0.76935  0.35222  Biso   1.000  H
  H504     1.0000 0.60616  0.76931  0.35222  Biso   1.000  H
  H505     1.0000 0.62742  0.83271  0.36639  Biso   1.000  H
  H506     1.0000 0.60621  0.76935  0.35222  Biso   1.000  H
  B58      1.0000 0.96740  0.94180  0.42290  Biso   1.000  B
  B59      1.0000 0.96741  0.94184  0.42290  Biso   1.000  B
  B60      1.0000 0.96743  0.94180  0.42290  Biso   1.000  B
  H507     1.0000 0.67919  0.57821  0.30911  Biso   1.000  H
  H508     1.0000 0.71058  0.61401  0.28630  Biso   1.000  H
  H509     1.0000 0.72936  0.56939  0.29649  Biso   1.000  H
  H510     1.0000 0.67916  0.57824  0.30911  Biso   1.000  H
  H511     1.0000 0.71055  0.61401  0.28630  Biso   1.000  H
  H512     1.0000 0.72937  0.56943  0.29649  Biso   1.000  H
  H513     1.0000 0.67915  0.57821  0.30911  Biso   1.000  H
  H514     1.0000 0.72939  0.56939  0.29649  Biso   1.000  H
  H515     1.0000 0.67920  0.57824  0.30911  Biso   1.000  H
  C768     1.0000 0.55479  0.03857  0.79977  Biso   1.000  C
  C769     1.0000 0.55478  0.03855  0.79973  Biso   1.000  C
  C770     1.0000 0.60850  0.13529  0.83307  Biso   1.000  C
  C771     1.0000 0.60849  0.13527  0.83303  Biso   1.000  C
  C772     1.0000 0.60849  0.13525  0.83307  Biso   1.000  C
  C773     1.0000 0.60854  0.13529  0.83307  Biso   1.000  C
  C774     1.0000 0.41243  0.30410  0.95615  Biso   1.000  C
  C775     1.0000 0.37675  0.37630  0.97497  Biso   1.000  C
  C776     1.0000 0.41242  0.30406  0.95615  Biso   1.000  C
  C777     1.0000 0.37671  0.37630  0.97497  Biso   1.000  C
  C778     1.0000 0.37670  0.37626  0.97497  Biso   1.000  C
  C779     1.0000 0.41240  0.30410  0.95615  Biso   1.000  C
  C780     1.0000 0.37674  0.37626  0.97497  Biso   1.000  C
  C781     1.0000 0.42853  0.36649  0.04460  Biso   1.000  C
  C782     1.0000 0.42852  0.36647  0.04456  Biso   1.000  C
  C783     1.0000 0.06624  0.97444  0.44373  Biso   1.000  C
  C784     1.0000 0.06620  0.97445  0.44369  Biso   1.000  C
  C785     1.0000 0.06620  0.97444  0.44373  Biso   1.000  C
  C786     1.0000 0.06619  0.97442  0.44369  Biso   1.000  C
  C787     1.0000 0.06624  0.97445  0.44369  Biso   1.000  C
  C788     1.0000 0.11814  0.07161  0.47762  Biso   1.000  C
  C789     1.0000 0.11815  0.07165  0.47762  Biso   1.000  C
  C790     1.0000 0.11818  0.07161  0.47762  Biso   1.000  C
  C791     1.0000 0.54810  0.04839  0.84756  Biso   1.000  C
  C792     1.0000 0.54809  0.04835  0.84756  Biso   1.000  C
  C793     1.0000 0.02083  0.98661  0.44342  Biso   1.000  C
  C794     1.0000 0.02081  0.98665  0.44342  Biso   1.000  C
  C795     1.0000 0.02080  0.98661  0.44342  Biso   1.000  C
  C796     1.0000 0.02084  0.98665  0.44342  Biso   1.000  C
  H516     1.0000 0.53910  0.00298  0.77254  Biso   1.000  H
  H517     1.0000 0.53905  0.00295  0.77254  Biso   1.000  H
  H518     1.0000 0.53909  0.00295  0.77254  Biso   1.000  H
  H519     1.0000 0.53906  0.00298  0.77254  Biso   1.000  H
  C797     1.0000 0.60183  0.14508  0.88098  Biso   1.000  C
  C798     1.0000 0.60178  0.14506  0.88094  Biso   1.000  C
  C799     1.0000 0.60179  0.14508  0.88098  Biso   1.000  C
  C800     1.0000 0.60182  0.14506  0.88094  Biso   1.000  C
  H520     1.0000 0.62872  0.16440  0.82827  Biso   1.000  H
  H521     1.0000 0.62866  0.16435  0.82823  Biso   1.000  H
  H522     1.0000 0.62867  0.16436  0.82827  Biso   1.000  H
  H523     1.0000 0.62870  0.16438  0.82823  Biso   1.000  H
  H524     1.0000 0.62869  0.16435  0.82823  Biso   1.000  H
  H525     1.0000 0.62871  0.16436  0.82827  Biso   1.000  H
  H526     1.0000 0.62867  0.16438  0.82823  Biso   1.000  H
  H527     1.0000 0.41672  0.27408  0.93225  Biso   1.000  H
  H528     1.0000 0.41669  0.27408  0.93225  Biso   1.000  H
  H529     1.0000 0.35726  0.39462  0.96366  Biso   1.000  H
  H530     1.0000 0.35721  0.39458  0.96366  Biso   1.000  H
  H531     1.0000 0.35722  0.39462  0.96366  Biso   1.000  H
  H532     1.0000 0.35725  0.39458  0.96366  Biso   1.000  H
  C801     1.0000 0.39935  0.39381  0.02760  Biso   1.000  C
  C802     1.0000 0.39930  0.39379  0.02756  Biso   1.000  C
  C803     1.0000 0.39931  0.39381  0.02760  Biso   1.000  C
  C804     1.0000 0.39933  0.39379  0.02756  Biso   1.000  C
  H533     1.0000 0.44375  0.37820  0.07988  Biso   1.000  H
  H534     1.0000 0.44372  0.37820  0.07988  Biso   1.000  H
  H535     1.0000 0.06403  0.93783  0.43250  Biso   1.000  H
  H536     1.0000 0.06399  0.93783  0.43250  Biso   1.000  H
  C805     1.0000 0.07274  0.08383  0.47731  Biso   1.000  C
  C806     1.0000 0.07278  0.08383  0.47731  Biso   1.000  C
  H537     1.0000 0.15077  0.10004  0.48912  Biso   1.000  H
  H538     1.0000 0.15072  0.10000  0.48912  Biso   1.000  H
  H539     1.0000 0.15076  0.10000  0.48912  Biso   1.000  H
  H540     1.0000 0.15073  0.10004  0.48912  Biso   1.000  H
  C807     1.0000 0.57162  0.10160  0.88814  Biso   1.000  C
  C808     1.0000 0.57157  0.10156  0.88814  Biso   1.000  C
  C809     1.0000 0.57161  0.10156  0.88814  Biso   1.000  C
  C810     1.0000 0.57158  0.10160  0.88814  Biso   1.000  C
  C811     1.0000 0.02405  0.04132  0.46023  Biso   1.000  C
  C812     1.0000 0.02404  0.04130  0.46019  Biso   1.000  C
  C813     1.0000 0.02406  0.04136  0.46023  Biso   1.000  C
  B61      1.0000 0.62652  0.20600  0.92737  Biso   1.000  B
  B62      1.0000 0.62650  0.20598  0.92734  Biso   1.000  B
  B63      1.0000 0.62651  0.20596  0.92737  Biso   1.000  B
  B64      1.0000 0.62655  0.20600  0.92737  Biso   1.000  B
  B65      1.0000 0.39284  0.44348  0.06819  Biso   1.000  B
  B66      1.0000 0.39281  0.44348  0.06819  Biso   1.000  B
  B67      1.0000 0.39282  0.44351  0.06819  Biso   1.000  B
  B68      1.0000 0.39285  0.44351  0.06819  Biso   1.000  B
  B69      1.0000 0.08016  0.14671  0.49690  Biso   1.000  B
  B70      1.0000 0.08012  0.14671  0.49690  Biso   1.000  B
  B71      1.0000 0.08017  0.14674  0.49690  Biso   1.000  B
  H541     1.0000 0.56710  0.10818  0.92017  Biso   1.000  H
  H542     1.0000 0.56713  0.10818  0.92017  Biso   1.000  H
  H543     1.0000 0.99365  0.04942  0.46011  Biso   1.000  H
  H544     1.0000 0.99369  0.04942  0.46011  Biso   1.000  H
  O114     1.0000 0.62364  0.21530  0.97408  Biso   1.000  O
  O115     1.0000 0.66061  0.24880  0.92246  Biso   1.000  O
  O116     1.0000 0.62359  0.21528  0.97404  Biso   1.000  O
  O117     1.0000 0.62359  0.21526  0.97408  Biso   1.000  O
  O118     1.0000 0.66060  0.24876  0.92246  Biso   1.000  O
  O119     1.0000 0.62362  0.21528  0.97404  Biso   1.000  O
  O120     1.0000 0.66064  0.24880  0.92246  Biso   1.000  O
  O121     1.0000 0.62363  0.21526  0.97408  Biso   1.000  O
  O122     1.0000 0.36073  0.47220  0.05471  Biso   1.000  O
  O123     1.0000 0.41113  0.45969  0.12028  Biso   1.000  O
  O124     1.0000 0.36072  0.47218  0.05467  Biso   1.000  O
  O125     1.0000 0.36077  0.47220  0.05471  Biso   1.000  O
  O126     1.0000 0.41117  0.45969  0.12028  Biso   1.000  O
  O127     1.0000 0.03437  0.16192  0.49381  Biso   1.000  O
  O128     1.0000 0.12476  0.18754  0.50581  Biso   1.000  O
  O129     1.0000 0.03433  0.16192  0.49381  Biso   1.000  O
  O130     1.0000 0.12475  0.18750  0.50581  Biso   1.000  O
  O131     1.0000 0.12480  0.18754  0.50581  Biso   1.000  O
  C814     1.0000 0.65513  0.27169  0.00409  Biso   1.000  C
  C815     1.0000 0.65509  0.27169  0.00409  Biso   1.000  C
  C816     1.0000 0.67634  0.28970  0.97149  Biso   1.000  C
  C817     1.0000 0.67629  0.28968  0.97145  Biso   1.000  C
  C818     1.0000 0.67629  0.28966  0.97149  Biso   1.000  C
  C819     1.0000 0.67633  0.28968  0.97145  Biso   1.000  C
  C820     1.0000 0.67633  0.28966  0.97149  Biso   1.000  C
  C821     1.0000 0.36225  0.50648  0.10289  Biso   1.000  C
  C822     1.0000 0.36222  0.50648  0.10289  Biso   1.000  C
  C823     1.0000 0.36223  0.50652  0.10289  Biso   1.000  C
  C824     1.0000 0.36226  0.50652  0.10289  Biso   1.000  C
  C825     1.0000 0.39234  0.49989  0.14239  Biso   1.000  C
  C826     1.0000 0.39235  0.49993  0.14239  Biso   1.000  C
  C827     1.0000 0.39237  0.49989  0.14239  Biso   1.000  C
  C828     1.0000 0.05756  0.21793  0.50961  Biso   1.000  C
  C829     1.0000 0.05755  0.21790  0.50961  Biso   1.000  C
  C830     1.0000 0.05759  0.21793  0.50961  Biso   1.000  C
  C831     1.0000 0.11148  0.23474  0.51724  Biso   1.000  C
  C832     1.0000 0.11143  0.23472  0.51720  Biso   1.000  C
  C833     1.0000 0.11144  0.23474  0.51724  Biso   1.000  C
  C834     1.0000 0.11147  0.23472  0.51720  Biso   1.000  C
  C835     1.0000 0.66941  0.30801  0.05618  Biso   1.000  C
  C836     1.0000 0.66944  0.30797  0.05618  Biso   1.000  C
  C837     1.0000 0.66945  0.30801  0.05618  Biso   1.000  C
  C838     1.0000 0.66940  0.30797  0.05618  Biso   1.000  C
  C839     1.0000 0.71183  0.34379  0.99077  Biso   1.000  C
  C840     1.0000 0.71180  0.34379  0.99077  Biso   1.000  C
  C841     1.0000 0.33723  0.54439  0.11458  Biso   1.000  C
  C842     1.0000 0.33724  0.54442  0.11458  Biso   1.000  C
  C843     1.0000 0.33727  0.54439  0.11458  Biso   1.000  C
  C844     1.0000 0.39737  0.53121  0.19359  Biso   1.000  C
  C845     1.0000 0.39733  0.53121  0.19359  Biso   1.000  C
  C846     1.0000 0.03279  0.25594  0.51491  Biso   1.000  C
  C847     1.0000 0.03274  0.25590  0.51491  Biso   1.000  C
  C848     1.0000 0.03275  0.25594  0.51491  Biso   1.000  C
  C849     1.0000 0.14059  0.28963  0.53021  Biso   1.000  C
  C850     1.0000 0.14055  0.28963  0.53021  Biso   1.000  C
  H545     1.0000 0.65532  0.29598  0.07810  Biso   1.000  H
  C851     1.0000 0.70492  0.36212  0.07551  Biso   1.000  C
  H546     1.0000 0.65536  0.29598  0.07810  Biso   1.000  H
  C852     1.0000 0.70493  0.36206  0.07547  Biso   1.000  C
  H547     1.0000 0.65537  0.29602  0.07810  Biso   1.000  H
  C853     1.0000 0.70496  0.36212  0.07551  Biso   1.000  C
  C854     1.0000 0.70494  0.36210  0.07547  Biso   1.000  C
  C855     1.0000 0.70490  0.36206  0.07547  Biso   1.000  C
  H548     1.0000 0.65533  0.29602  0.07810  Biso   1.000  H
  H549     1.0000 0.72592  0.35578  0.96885  Biso   1.000  H
  H550     1.0000 0.72595  0.35578  0.96885  Biso   1.000  H
  C856     1.0000 0.72603  0.38000  0.04278  Biso   1.000  C
  C857     1.0000 0.72602  0.37997  0.04278  Biso   1.000  C
  H551     1.0000 0.31714  0.54882  0.08821  Biso   1.000  H
  C858     1.0000 0.34237  0.57570  0.16578  Biso   1.000  C
  H552     1.0000 0.31712  0.54877  0.08817  Biso   1.000  H
  C859     1.0000 0.34233  0.57570  0.16578  Biso   1.000  C
  H553     1.0000 0.31713  0.54881  0.08817  Biso   1.000  H
  H554     1.0000 0.31718  0.54882  0.08821  Biso   1.000  H
  C860     1.0000 0.37235  0.56911  0.20528  Biso   1.000  C
  H555     1.0000 0.41745  0.52672  0.22000  Biso   1.000  H
  C861     1.0000 0.37234  0.56908  0.20528  Biso   1.000  C
  H556     1.0000 0.41748  0.52672  0.22000  Biso   1.000  H
  C862     1.0000 0.37238  0.56911  0.20528  Biso   1.000  C
  H557     1.0000 0.99665  0.24461  0.50980  Biso   1.000  H
  H558     1.0000 0.99668  0.24461  0.50980  Biso   1.000  H
  C863     1.0000 0.06176  0.31082  0.52793  Biso   1.000  C
  C864     1.0000 0.06177  0.31086  0.52793  Biso   1.000  C
  C865     1.0000 0.06179  0.31082  0.52793  Biso   1.000  C
  C866     1.0000 0.11570  0.32766  0.53563  Biso   1.000  C
  H559     1.0000 0.17658  0.30092  0.53532  Biso   1.000  H
  C867     1.0000 0.11564  0.32760  0.53559  Biso   1.000  C
  H560     1.0000 0.17654  0.30092  0.53532  Biso   1.000  H
  C868     1.0000 0.11567  0.32766  0.53563  Biso   1.000  C
  H561     1.0000 0.17659  0.30096  0.53532  Biso   1.000  H
  C869     1.0000 0.11569  0.32764  0.53559  Biso   1.000  C
  C870     1.0000 0.11565  0.32764  0.53559  Biso   1.000  C
  C871     1.0000 0.72132  0.40132  0.13170  Biso   1.000  C
  C872     1.0000 0.72135  0.40128  0.13170  Biso   1.000  C
  C873     1.0000 0.72136  0.40132  0.13170  Biso   1.000  C
  C874     1.0000 0.72131  0.40128  0.13170  Biso   1.000  C
  C875     1.0000 0.76344  0.43991  0.07040  Biso   1.000  C
  C876     1.0000 0.76347  0.43991  0.07040  Biso   1.000  C
  C877     1.0000 0.31387  0.62053  0.18460  Biso   1.000  C
  C878     1.0000 0.31382  0.62049  0.18460  Biso   1.000  C
  C879     1.0000 0.31386  0.62049  0.18460  Biso   1.000  C
  C880     1.0000 0.31383  0.62053  0.18460  Biso   1.000  C
  C881     1.0000 0.37128  0.60162  0.25749  Biso   1.000  C
  C882     1.0000 0.37123  0.60158  0.25749  Biso   1.000  C
  C883     1.0000 0.37124  0.60162  0.25749  Biso   1.000  C
  C884     1.0000 0.37127  0.60158  0.25749  Biso   1.000  C
  C885     1.0000 0.03577  0.35434  0.52603  Biso   1.000  C
  C886     1.0000 0.03581  0.35434  0.52603  Biso   1.000  C
  C887     1.0000 0.14138  0.38734  0.54551  Biso   1.000  C
  C888     1.0000 0.14137  0.38730  0.54551  Biso   1.000  C
  C889     1.0000 0.14141  0.38734  0.54551  Biso   1.000  C
  C890     1.0000 0.71353  0.45371  0.13201  Biso   1.000  C
  H562     1.0000 0.70512  0.38641  0.15289  Biso   1.000  H
  C891     1.0000 0.78023  0.41841  0.14599  Biso   1.000  C
  C892     1.0000 0.71355  0.45369  0.13197  Biso   1.000  C
  H563     1.0000 0.70515  0.38638  0.15289  Biso   1.000  H
  C893     1.0000 0.78027  0.41841  0.14599  Biso   1.000  C
  C894     1.0000 0.71356  0.45371  0.13201  Biso   1.000  C
  H564     1.0000 0.70516  0.38641  0.15289  Biso   1.000  H
  C895     1.0000 0.71351  0.45369  0.13197  Biso   1.000  C
  H565     1.0000 0.70511  0.38638  0.15289  Biso   1.000  H
  C896     1.0000 0.73602  0.47300  0.10068  Biso   1.000  C
  H566     1.0000 0.77941  0.45461  0.04910  Biso   1.000  H
  C897     1.0000 0.80194  0.43829  0.11458  Biso   1.000  C
  C898     1.0000 0.73606  0.47300  0.10068  Biso   1.000  C
  H567     1.0000 0.77945  0.45461  0.04910  Biso   1.000  H
  C899     1.0000 0.28424  0.59349  0.21319  Biso   1.000  C
  C900     1.0000 0.28425  0.59353  0.21319  Biso   1.000  C
  C901     1.0000 0.28427  0.59349  0.21319  Biso   1.000  C
  C902     1.0000 0.35807  0.66981  0.22829  Biso   1.000  C
  H568     1.0000 0.29294  0.62681  0.15788  Biso   1.000  H
  C903     1.0000 0.35804  0.66981  0.22829  Biso   1.000  C
  H569     1.0000 0.29293  0.62677  0.15788  Biso   1.000  H
  H570     1.0000 0.29297  0.62681  0.15788  Biso   1.000  H
  C904     1.0000 0.31295  0.58690  0.25338  Biso   1.000  C
  C905     1.0000 0.38797  0.66249  0.26729  Biso   1.000  C
  H571     1.0000 0.39217  0.59591  0.28472  Biso   1.000  H
  C906     1.0000 0.38793  0.66249  0.26729  Biso   1.000  C
  H572     1.0000 0.39213  0.59589  0.28468  Biso   1.000  H
  C907     1.0000 0.38794  0.66253  0.26729  Biso   1.000  C
  H573     1.0000 0.39215  0.59595  0.28472  Biso   1.000  H
  H574     1.0000 0.39216  0.59589  0.28468  Biso   1.000  H
  C908     1.0000 0.38798  0.66253  0.26729  Biso   1.000  C
  H575     1.0000 0.39218  0.59595  0.28472  Biso   1.000  H
  H576     1.0000 0.99726  0.34232  0.51662  Biso   1.000  H
  H577     1.0000 0.99729  0.34232  0.51662  Biso   1.000  H
  H578     1.0000 0.99730  0.34236  0.51662  Biso   1.000  H
  H579     1.0000 0.99727  0.34236  0.51662  Biso   1.000  H
  C909     1.0000 0.06917  0.39852  0.58071  Biso   1.000  C
  C910     1.0000 0.06258  0.37752  0.49330  Biso   1.000  C
  C911     1.0000 0.06254  0.37752  0.49330  Biso   1.000  C
  C912     1.0000 0.06918  0.39856  0.58071  Biso   1.000  C
  C913     1.0000 0.06920  0.39852  0.58071  Biso   1.000  C
  C914     1.0000 0.12309  0.41744  0.58873  Biso   1.000  C
  H580     1.0000 0.18000  0.39994  0.55503  Biso   1.000  H
  C915     1.0000 0.11649  0.39614  0.50101  Biso   1.000  C
  H581     1.0000 0.17995  0.39992  0.55500  Biso   1.000  H
  C916     1.0000 0.11645  0.39610  0.50101  Biso   1.000  C
  H582     1.0000 0.17996  0.39994  0.55503  Biso   1.000  H
  C917     1.0000 0.11646  0.39614  0.50101  Biso   1.000  C
  H583     1.0000 0.17998  0.39992  0.55500  Biso   1.000  H
  C918     1.0000 0.12312  0.41744  0.58873  Biso   1.000  C
  C919     1.0000 0.68555  0.48101  0.15920  Biso   1.000  C
  C920     1.0000 0.81253  0.41340  0.18530  Biso   1.000  C
  C921     1.0000 0.81257  0.41340  0.18530  Biso   1.000  C
  C922     1.0000 0.73044  0.51950  0.09650  Biso   1.000  C
  C923     1.0000 0.73048  0.51950  0.09650  Biso   1.000  C
  C924     1.0000 0.85593  0.45338  0.12268  Biso   1.000  C
  C925     1.0000 0.85596  0.45338  0.12268  Biso   1.000  C
  C926     1.0000 0.85597  0.45342  0.12268  Biso   1.000  C
  C927     1.0000 0.85594  0.45342  0.12268  Biso   1.000  C
  C928     1.0000 0.22967  0.57680  0.20021  Biso   1.000  C
  C929     1.0000 0.22962  0.57678  0.20017  Biso   1.000  C
  C930     1.0000 0.22964  0.57684  0.20021  Biso   1.000  C
  C931     1.0000 0.22966  0.57678  0.20017  Biso   1.000  C
  C932     1.0000 0.22968  0.57684  0.20021  Biso   1.000  C
  C933     1.0000 0.36837  0.72272  0.23119  Biso   1.000  C
  C934     1.0000 0.36836  0.72268  0.23119  Biso   1.000  C
  C935     1.0000 0.28717  0.56341  0.28049  Biso   1.000  C
  C936     1.0000 0.28713  0.56341  0.28049  Biso   1.000  C
  C937     1.0000 0.42807  0.70802  0.30919  Biso   1.000  C
  C938     1.0000 0.42806  0.70799  0.30919  Biso   1.000  C
  C939     1.0000 0.42810  0.70802  0.30919  Biso   1.000  C
  C940     1.0000 0.04918  0.42656  0.61754  Biso   1.000  C
  C941     1.0000 0.04916  0.42651  0.61750  Biso   1.000  C
  C942     1.0000 0.04921  0.42655  0.61750  Biso   1.000  C
  C943     1.0000 0.04922  0.42656  0.61754  Biso   1.000  C
  C944     1.0000 0.04917  0.42655  0.61750  Biso   1.000  C
  C945     1.0000 0.02787  0.37993  0.45372  Biso   1.000  C
  C946     1.0000 0.15710  0.46446  0.63354  Biso   1.000  C
  C947     1.0000 0.15707  0.46441  0.63350  Biso   1.000  C
  C948     1.0000 0.15708  0.46444  0.63350  Biso   1.000  C
  C949     1.0000 0.15713  0.46446  0.63354  Biso   1.000  C
  C950     1.0000 0.13567  0.41711  0.46921  Biso   1.000  C
  C951     1.0000 0.13564  0.41711  0.46921  Biso   1.000  C
  C952     1.0000 0.13568  0.41715  0.46921  Biso   1.000  C
  C953     1.0000 0.13565  0.41715  0.46921  Biso   1.000  C
  C954     1.0000 0.68004  0.52751  0.15502  Biso   1.000  C
  C955     1.0000 0.66273  0.46029  0.19340  Biso   1.000  C
  C956     1.0000 0.68006  0.52750  0.15498  Biso   1.000  C
  C957     1.0000 0.66276  0.46029  0.19340  Biso   1.000  C
  C958     1.0000 0.68007  0.52751  0.15502  Biso   1.000  C
  C959     1.0000 0.66277  0.46033  0.19340  Biso   1.000  C
  C960     1.0000 0.68003  0.52750  0.15498  Biso   1.000  C
  C961     1.0000 0.66274  0.46033  0.19340  Biso   1.000  C
  H584     1.0000 0.79806  0.40012  0.20629  Biso   1.000  H
  C962     1.0000 0.86645  0.42849  0.19340  Biso   1.000  C
  H585     1.0000 0.79805  0.40008  0.20629  Biso   1.000  H
  C963     1.0000 0.86646  0.42852  0.19340  Biso   1.000  C
  C964     1.0000 0.86642  0.42849  0.19340  Biso   1.000  C
  C965     1.0000 0.70243  0.54669  0.12369  Biso   1.000  C
  C966     1.0000 0.74745  0.53658  0.05800  Biso   1.000  C
  C967     1.0000 0.70247  0.54669  0.12369  Biso   1.000  C
  C968     1.0000 0.74743  0.53657  0.05796  Biso   1.000  C
  C969     1.0000 0.74746  0.53662  0.05800  Biso   1.000  C
  C970     1.0000 0.74744  0.53660  0.05796  Biso   1.000  C
  C971     1.0000 0.88814  0.44850  0.16210  Biso   1.000  C
  H586     1.0000 0.87043  0.46679  0.10180  Biso   1.000  H
  H587     1.0000 0.87046  0.46679  0.10180  Biso   1.000  H
  C972     1.0000 0.88818  0.44850  0.16210  Biso   1.000  C
  H588     1.0000 0.87047  0.46683  0.10180  Biso   1.000  H
  H589     1.0000 0.87044  0.46683  0.10180  Biso   1.000  H
  C973     1.0000 0.20377  0.55342  0.22732  Biso   1.000  C
  C974     1.0000 0.20372  0.55341  0.22728  Biso   1.000  C
  C975     1.0000 0.20376  0.55341  0.22728  Biso   1.000  C
  H590     1.0000 0.21046  0.58132  0.17330  Biso   1.000  H
  H591     1.0000 0.21042  0.58128  0.17330  Biso   1.000  H
  H592     1.0000 0.21043  0.58132  0.17330  Biso   1.000  H
  H593     1.0000 0.21045  0.58128  0.17330  Biso   1.000  H
  C976     1.0000 0.40846  0.76821  0.27310  Biso   1.000  C
  C977     1.0000 0.34236  0.73081  0.18739  Biso   1.000  C
  C978     1.0000 0.40850  0.76821  0.27310  Biso   1.000  C
  C979     1.0000 0.23246  0.54670  0.26740  Biso   1.000  C
  C980     1.0000 0.23243  0.54670  0.26740  Biso   1.000  C
  C981     1.0000 0.23244  0.54674  0.26740  Biso   1.000  C
  C982     1.0000 0.23247  0.54674  0.26740  Biso   1.000  C
  H594     1.0000 0.30635  0.55903  0.30729  Biso   1.000  H
  H595     1.0000 0.30634  0.55899  0.30729  Biso   1.000  H
  H596     1.0000 0.30639  0.55903  0.30729  Biso   1.000  H
  C983     1.0000 0.43827  0.76083  0.31210  Biso   1.000  C
  C984     1.0000 0.46290  0.70151  0.35082  Biso   1.000  C
  C985     1.0000 0.43826  0.76079  0.31210  Biso   1.000  C
  C986     1.0000 0.46285  0.70149  0.35078  Biso   1.000  C
  C987     1.0000 0.46287  0.70155  0.35082  Biso   1.000  C
  C988     1.0000 0.43830  0.76083  0.31210  Biso   1.000  C
  C989     1.0000 0.46290  0.70153  0.35078  Biso   1.000  C
  C990     1.0000 0.46291  0.70155  0.35082  Biso   1.000  C
  C991     1.0000 0.46286  0.70153  0.35078  Biso   1.000  C
  C992     1.0000 0.99201  0.40266  0.61204  Biso   1.000  C
  C993     1.0000 0.99200  0.40264  0.61200  Biso   1.000  C
  C994     1.0000 0.99196  0.40264  0.61200  Biso   1.000  C
  C995     1.0000 0.08328  0.47353  0.66231  Biso   1.000  C
  C996     1.0000 0.08329  0.47356  0.66231  Biso   1.000  C
  C997     1.0000 0.08331  0.47353  0.66231  Biso   1.000  C
  H597     1.0000 0.99176  0.36742  0.44853  Biso   1.000  H
  H598     1.0000 0.99178  0.36740  0.44849  Biso   1.000  H
  H599     1.0000 0.99181  0.36746  0.44853  Biso   1.000  H
  H600     1.0000 0.99175  0.36740  0.44849  Biso   1.000  H
  H601     1.0000 0.99180  0.36742  0.44853  Biso   1.000  H
  H602     1.0000 0.99177  0.36746  0.44853  Biso   1.000  H
  C998     1.0000 0.04718  0.40083  0.42193  Biso   1.000  C
  C999     1.0000 0.04713  0.40081  0.42189  Biso   1.000  C
  C1000    1.0000 0.04716  0.40081  0.42189  Biso   1.000  C
  C1001    1.0000 0.13720  0.49245  0.67033  Biso   1.000  C
  C1002    1.0000 0.21519  0.48906  0.64434  Biso   1.000  C
  C1003    1.0000 0.21517  0.48900  0.64430  Biso   1.000  C
  C1004    1.0000 0.21521  0.48904  0.64430  Biso   1.000  C
  C1005    1.0000 0.13723  0.49245  0.67033  Biso   1.000  C
  C1006    1.0000 0.21523  0.48906  0.64434  Biso   1.000  C
  C1007    1.0000 0.21518  0.48904  0.64430  Biso   1.000  C
  H603     1.0000 0.17179  0.42962  0.47440  Biso   1.000  H
  C1008    1.0000 0.10107  0.41951  0.42960  Biso   1.000  C
  H604     1.0000 0.17175  0.42962  0.47440  Biso   1.000  H
  C1009    1.0000 0.10103  0.41951  0.42960  Biso   1.000  C
  H605     1.0000 0.66124  0.54572  0.17322  Biso   1.000  H
  H606     1.0000 0.66126  0.54570  0.17318  Biso   1.000  H
  H607     1.0000 0.66127  0.54572  0.17322  Biso   1.000  H
  H608     1.0000 0.66122  0.54570  0.17318  Biso   1.000  H
  H609     1.0000 0.68564  0.44500  0.20811  Biso   1.000  H
  H610     1.0000 0.66134  0.49122  0.22178  Biso   1.000  H
  C1010    1.0000 0.60672  0.41541  0.16369  Biso   1.000  C
  H611     1.0000 0.68566  0.44498  0.20807  Biso   1.000  H
  H612     1.0000 0.66136  0.49118  0.22178  Biso   1.000  H
  C1011    1.0000 0.60676  0.41541  0.16369  Biso   1.000  C
  H613     1.0000 0.68569  0.44504  0.20811  Biso   1.000  H
  H614     1.0000 0.66137  0.49122  0.22178  Biso   1.000  H
  H615     1.0000 0.68563  0.44498  0.20807  Biso   1.000  H
  H616     1.0000 0.66133  0.49118  0.22178  Biso   1.000  H
  H617     1.0000 0.68565  0.44504  0.20811  Biso   1.000  H
  O132     1.0000 0.90595  0.42752  0.23030  Biso   1.000  O
  O133     1.0000 0.90599  0.42752  0.23030  Biso   1.000  O
  H618     1.0000 0.69873  0.57780  0.12090  Biso   1.000  H
  H619     1.0000 0.69877  0.57780  0.12090  Biso   1.000  H
  H620     1.0000 0.74232  0.50419  0.02698  Biso   1.000  H
  H621     1.0000 0.72715  0.55690  0.04840  Biso   1.000  H
  C1012    1.0000 0.80564  0.57330  0.08360  Biso   1.000  C
  H622     1.0000 0.74236  0.50419  0.02698  Biso   1.000  H
  O134     1.0000 0.94366  0.46430  0.18011  Biso   1.000  O
  O135     1.0000 0.94365  0.46429  0.18007  Biso   1.000  O
  O136     1.0000 0.94362  0.46429  0.18007  Biso   1.000  O
  O137     1.0000 0.15194  0.53282  0.22391  Biso   1.000  O
  O138     1.0000 0.15193  0.53280  0.22387  Biso   1.000  O
  O139     1.0000 0.15196  0.53280  0.22387  Biso   1.000  O
  O140     1.0000 0.15198  0.53282  0.22391  Biso   1.000  O
  H623     1.0000 0.41527  0.80352  0.27499  Biso   1.000  H
  H624     1.0000 0.41530  0.80352  0.27499  Biso   1.000  H
  H625     1.0000 0.33874  0.70101  0.15509  Biso   1.000  H
  H626     1.0000 0.36407  0.76552  0.18921  Biso   1.000  H
  C1013    1.0000 0.28837  0.73190  0.18821  Biso   1.000  C
  H627     1.0000 0.36406  0.76550  0.18917  Biso   1.000  H
  C1014    1.0000 0.28833  0.73190  0.18821  Biso   1.000  C
  C1015    1.0000 0.28834  0.73194  0.18821  Biso   1.000  C
  H628     1.0000 0.33878  0.70101  0.15509  Biso   1.000  H
  C1016    1.0000 0.28838  0.73194  0.18821  Biso   1.000  C
  O141     1.0000 0.20125  0.52222  0.28990  Biso   1.000  O
  O142     1.0000 0.20128  0.52222  0.28990  Biso   1.000  O
  H629     1.0000 0.46510  0.79133  0.34021  Biso   1.000  H
  H630     1.0000 0.46506  0.79133  0.34021  Biso   1.000  H
  H631     1.0000 0.49539  0.73394  0.36903  Biso   1.000  H
  H632     1.0000 0.47176  0.66922  0.33541  Biso   1.000  H
  C1017    1.0000 0.43349  0.69472  0.38951  Biso   1.000  C
  H633     1.0000 0.49538  0.73392  0.36899  Biso   1.000  H
  C1018    1.0000 0.43345  0.69472  0.38951  Biso   1.000  C
  H634     1.0000 0.47180  0.66922  0.33541  Biso   1.000  H
  H635     1.0000 0.49542  0.73394  0.36903  Biso   1.000  H
  H636     1.0000 0.98759  0.41333  0.64593  Biso   1.000  H
  H637     1.0000 0.97879  0.36243  0.59403  Biso   1.000  H
  C1019    1.0000 0.96120  0.42584  0.58052  Biso   1.000  C
  H638     1.0000 0.97878  0.36241  0.59400  Biso   1.000  H
  H639     1.0000 0.98760  0.41336  0.64593  Biso   1.000  H
  H640     1.0000 0.97880  0.36246  0.59403  Biso   1.000  H
  H641     1.0000 0.97879  0.36244  0.59400  Biso   1.000  H
  H642     1.0000 0.06989  0.49224  0.68702  Biso   1.000  H
  H643     1.0000 0.06992  0.49224  0.68702  Biso   1.000  H
  O143     1.0000 0.02616  0.40794  0.38022  Biso   1.000  O
  O144     1.0000 0.02615  0.40790  0.38022  Biso   1.000  O
  O145     1.0000 0.02620  0.40794  0.38022  Biso   1.000  O
  H644     1.0000 0.16002  0.52396  0.70034  Biso   1.000  H
  H645     1.0000 0.15997  0.52394  0.70030  Biso   1.000  H
  H646     1.0000 0.15998  0.52396  0.70034  Biso   1.000  H
  H647     1.0000 0.16000  0.52394  0.70030  Biso   1.000  H
  H648     1.0000 0.22499  0.52595  0.64612  Biso   1.000  H
  H649     1.0000 0.22560  0.46615  0.61723  Biso   1.000  H
  C1020    1.0000 0.24190  0.49203  0.69624  Biso   1.000  C
  H650     1.0000 0.22498  0.52592  0.64612  Biso   1.000  H
  H651     1.0000 0.22557  0.46615  0.61723  Biso   1.000  H
  C1021    1.0000 0.24191  0.49207  0.69624  Biso   1.000  C
  H652     1.0000 0.22502  0.52595  0.64612  Biso   1.000  H
  O146     1.0000 0.11558  0.43584  0.39462  Biso   1.000  O
  O147     1.0000 0.11552  0.43579  0.39459  Biso   1.000  O
  O148     1.0000 0.11557  0.43583  0.39459  Biso   1.000  O
  O149     1.0000 0.11556  0.43579  0.39459  Biso   1.000  O
  O150     1.0000 0.11553  0.43583  0.39459  Biso   1.000  O
  H653     1.0000 0.59504  0.40001  0.18580  Biso   1.000  H
  H654     1.0000 0.58293  0.43169  0.15320  Biso   1.000  H
  H655     1.0000 0.60742  0.38652  0.13372  Biso   1.000  H
  H656     1.0000 0.58297  0.43169  0.15320  Biso   1.000  H
  H657     1.0000 0.60745  0.38650  0.13368  Biso   1.000  H
  H658     1.0000 0.58298  0.43173  0.15320  Biso   1.000  H
  H659     1.0000 0.60746  0.38652  0.13372  Biso   1.000  H
  H660     1.0000 0.60741  0.38650  0.13368  Biso   1.000  H
  H661     1.0000 0.58294  0.43173  0.15320  Biso   1.000  H
  B72      1.0000 0.94974  0.45141  0.22109  Biso   1.000  B
  B73      1.0000 0.94976  0.45137  0.22109  Biso   1.000  B
  B74      1.0000 0.94977  0.45141  0.22109  Biso   1.000  B
  B75      1.0000 0.94973  0.45137  0.22109  Biso   1.000  B
  H662     1.0000 0.82235  0.56070  0.10641  Biso   1.000  H
  H663     1.0000 0.82214  0.57139  0.05750  Biso   1.000  H
  H664     1.0000 0.80914  0.61088  0.10308  Biso   1.000  H
  H665     1.0000 0.82234  0.56068  0.10637  Biso   1.000  H
  H666     1.0000 0.82236  0.56073  0.10641  Biso   1.000  H
  H667     1.0000 0.82215  0.57142  0.05750  Biso   1.000  H
  H668     1.0000 0.80915  0.61091  0.10308  Biso   1.000  H
  B76      1.0000 0.15076  0.51473  0.26210  Biso   1.000  B
  B77      1.0000 0.15072  0.51469  0.26210  Biso   1.000  B
  B78      1.0000 0.15075  0.51469  0.26210  Biso   1.000  B
  B79      1.0000 0.15073  0.51473  0.26210  Biso   1.000  B
  H669     1.0000 0.26508  0.71662  0.15331  Biso   1.000  H
  H670     1.0000 0.29129  0.76952  0.20691  Biso   1.000  H
  H671     1.0000 0.27436  0.71021  0.20490  Biso   1.000  H
  H672     1.0000 0.26503  0.71660  0.15327  Biso   1.000  H
  H673     1.0000 0.29124  0.76950  0.20687  Biso   1.000  H
  H674     1.0000 0.26504  0.71662  0.15331  Biso   1.000  H
  H675     1.0000 0.29125  0.76952  0.20691  Biso   1.000  H
  H676     1.0000 0.26507  0.71660  0.15327  Biso   1.000  H
  H677     1.0000 0.29128  0.76950  0.20687  Biso   1.000  H
  H678     1.0000 0.40396  0.66002  0.37239  Biso   1.000  H
  H679     1.0000 0.42108  0.72462  0.40152  Biso   1.000  H
  H680     1.0000 0.45730  0.69543  0.41840  Biso   1.000  H
  H681     1.0000 0.45727  0.69543  0.41840  Biso   1.000  H
  H682     1.0000 0.42109  0.72466  0.40152  Biso   1.000  H
  H683     1.0000 0.40400  0.66002  0.37239  Biso   1.000  H
  H684     1.0000 0.42112  0.72462  0.40152  Biso   1.000  H
  H685     1.0000 0.94910  0.45142  0.60282  Biso   1.000  H
  H686     1.0000 0.93139  0.39575  0.55263  Biso   1.000  H
  H687     1.0000 0.98407  0.44462  0.56673  Biso   1.000  H
  H688     1.0000 0.93137  0.39573  0.55260  Biso   1.000  H
  H689     1.0000 0.98410  0.44462  0.56673  Biso   1.000  H
  H690     1.0000 0.94911  0.45146  0.60282  Biso   1.000  H
  H691     1.0000 0.93142  0.39575  0.55263  Biso   1.000  H
  H692     1.0000 0.98411  0.44466  0.56673  Biso   1.000  H
  H693     1.0000 0.98408  0.44466  0.56673  Biso   1.000  H
  B80      1.0000 0.06717  0.43321  0.36519  Biso   1.000  B
  B81      1.0000 0.06713  0.43321  0.36519  Biso   1.000  B
  H694     1.0000 0.23459  0.45465  0.69302  Biso   1.000  H
  H695     1.0000 0.22850  0.51132  0.72191  Biso   1.000  H
  H696     1.0000 0.27930  0.51066  0.70654  Biso   1.000  H
  H697     1.0000 0.22846  0.51132  0.72191  Biso   1.000  H
  H698     1.0000 0.22851  0.51136  0.72191  Biso   1.000  H
  H699     1.0000 0.27933  0.51066  0.70654  Biso   1.000  H
  H700     1.0000 0.23463  0.45465  0.69302  Biso   1.000  H
  H701     1.0000 0.22847  0.51136  0.72191  Biso   1.000  H
  C1022    1.0000 0.00636  0.45511  0.25369  Biso   1.000  C
  C1023    1.0000 0.00632  0.45511  0.25369  Biso   1.000  C
  C1024    1.0000 0.10065  0.48883  0.27252  Biso   1.000  C
  C1025    1.0000 0.10063  0.48878  0.27248  Biso   1.000  C
  C1026    1.0000 0.10067  0.48882  0.27248  Biso   1.000  C
  C1027    1.0000 0.10069  0.48883  0.27252  Biso   1.000  C
  C1028    1.0000 0.10064  0.48882  0.27248  Biso   1.000  C
  C1029    1.0000 0.06256  0.44944  0.32371  Biso   1.000  C
  C1030    1.0000 0.06255  0.44940  0.32371  Biso   1.000  C
  C1031    1.0000 0.06260  0.44944  0.32371  Biso   1.000  C
  C1032    1.0000 0.01244  0.44012  0.29409  Biso   1.000  C
  C1033    1.0000 0.05053  0.47940  0.24289  Biso   1.000  C
  C1034    1.0000 0.01243  0.44008  0.29409  Biso   1.000  C
  C1035    1.0000 0.01247  0.44012  0.29409  Biso   1.000  C
  C1036    1.0000 0.05057  0.47940  0.24289  Biso   1.000  C
  C1037    1.0000 0.10675  0.47381  0.31291  Biso   1.000  C
  C1038    1.0000 0.10676  0.47384  0.31291  Biso   1.000  C
  C1039    1.0000 0.10679  0.47381  0.31291  Biso   1.000  C
  H702     1.0000 0.98285  0.42380  0.30129  Biso   1.000  H
  H703     1.0000 0.98288  0.42380  0.30129  Biso   1.000  H
  H704     1.0000 0.98289  0.42383  0.30129  Biso   1.000  H
  H705     1.0000 0.98286  0.42383  0.30129  Biso   1.000  H
  H706     1.0000 0.04655  0.48939  0.21590  Biso   1.000  H
  H707     1.0000 0.04651  0.48939  0.21590  Biso   1.000  H
  H708     1.0000 0.04652  0.48943  0.21590  Biso   1.000  H
  H709     1.0000 0.04656  0.48943  0.21590  Biso   1.000  H
  H710     1.0000 0.14026  0.48002  0.33270  Biso   1.000  H
  H711     1.0000 0.14025  0.47999  0.33270  Biso   1.000  H
  C1040    1.0000 0.98773  0.56000  0.70597  Biso   1.000  C
  C1041    1.0000 0.93760  0.55064  0.67634  Biso   1.000  C
  C1042    1.0000 0.93763  0.55064  0.67634  Biso   1.000  C
  C1043    1.0000 0.93761  0.55068  0.67634  Biso   1.000  C
  C1044    1.0000 0.93764  0.55068  0.67634  Biso   1.000  C
  C1045    1.0000 0.99383  0.54497  0.74636  Biso   1.000  C
  C1046    1.0000 0.99380  0.54497  0.74636  Biso   1.000  C
  H712     1.0000 0.01731  0.57629  0.69876  Biso   1.000  H
  H713     1.0000 0.01732  0.57623  0.69873  Biso   1.000  H
  H714     1.0000 0.01734  0.57629  0.69876  Biso   1.000  H
  H715     1.0000 0.01730  0.57627  0.69873  Biso   1.000  H
  H716     1.0000 0.01729  0.57623  0.69873  Biso   1.000  H
  H717     1.0000 0.01733  0.57627  0.69873  Biso   1.000  H
  C1047    1.0000 0.89340  0.52628  0.68715  Biso   1.000  C
  C1048    1.0000 0.89344  0.52628  0.68715  Biso   1.000  C
  C1049    1.0000 0.89339  0.52624  0.68715  Biso   1.000  C
  C1050    1.0000 0.89343  0.52624  0.68715  Biso   1.000  C
  B82      1.0000 0.93303  0.56687  0.63486  Biso   1.000  B
  C1051    1.0000 0.98771  0.55995  0.70593  Biso   1.000  C
  B83      1.0000 0.93301  0.56685  0.63483  Biso   1.000  B
  C1052    1.0000 0.98775  0.55997  0.70597  Biso   1.000  C
  B84      1.0000 0.93298  0.56685  0.63483  Biso   1.000  B
  C1053    1.0000 0.98772  0.55997  0.70597  Biso   1.000  C
  C1054    1.0000 0.98774  0.55995  0.70593  Biso   1.000  C
  C1055    1.0000 0.98776  0.56000  0.70597  Biso   1.000  C
  C1056    1.0000 0.94961  0.52066  0.75713  Biso   1.000  C
  C1057    1.0000 0.94962  0.52068  0.75717  Biso   1.000  C
  C1058    1.0000 0.94966  0.52068  0.75717  Biso   1.000  C
  C1059    1.0000 0.94965  0.52066  0.75713  Biso   1.000  C
  B85      1.0000 0.05042  0.54867  0.77897  Biso   1.000  B
  B86      1.0000 0.05041  0.54865  0.77893  Biso   1.000  B
  B87      1.0000 0.05043  0.54871  0.77897  Biso   1.000  B
  C1060    1.0000 0.89951  0.51125  0.72754  Biso   1.000  C
  C1061    1.0000 0.89954  0.51125  0.72754  Biso   1.000  C
  C1062    1.0000 0.89952  0.51128  0.72754  Biso   1.000  C
  C1063    1.0000 0.89955  0.51128  0.72754  Biso   1.000  C
  H718     1.0000 0.85993  0.52006  0.66736  Biso   1.000  H
  H719     1.0000 0.85989  0.52006  0.66736  Biso   1.000  H
  H720     1.0000 0.85994  0.52009  0.66736  Biso   1.000  H
  O151     1.0000 0.88461  0.56424  0.60543  Biso   1.000  O
  O152     1.0000 0.97399  0.59215  0.61984  Biso   1.000  O
  O153     1.0000 0.88458  0.56424  0.60543  Biso   1.000  O
  O154     1.0000 0.97403  0.59215  0.61984  Biso   1.000  O
  O155     1.0000 0.88462  0.56427  0.60543  Biso   1.000  O
  O156     1.0000 0.97400  0.59218  0.61984  Biso   1.000  O
  O157     1.0000 0.97404  0.59218  0.61984  Biso   1.000  O
  H721     1.0000 0.95364  0.51069  0.78416  Biso   1.000  H
  H722     1.0000 0.95363  0.51065  0.78416  Biso   1.000  H
  H723     1.0000 0.95361  0.51069  0.78416  Biso   1.000  H
  O158     1.0000 0.05649  0.53578  0.81994  Biso   1.000  O
  O159     1.0000 0.09420  0.57256  0.76975  Biso   1.000  O
  O160     1.0000 0.05653  0.53578  0.81994  Biso   1.000  O
  O161     1.0000 0.09424  0.57256  0.76975  Biso   1.000  O
  O162     1.0000 0.09425  0.57260  0.76975  Biso   1.000  O
  O163     1.0000 0.09421  0.57260  0.76975  Biso   1.000  O
  B88      1.0000 0.84943  0.48535  0.73796  Biso   1.000  B
  B89      1.0000 0.84944  0.48539  0.73796  Biso   1.000  B
  B90      1.0000 0.84940  0.48539  0.73796  Biso   1.000  B
  B91      1.0000 0.84939  0.48535  0.73796  Biso   1.000  B
  C1064    1.0000 0.89913  0.58057  0.57046  Biso   1.000  C
  C1065    1.0000 0.89911  0.58055  0.57042  Biso   1.000  C
  C1066    1.0000 0.89908  0.58055  0.57042  Biso   1.000  C
  C1067    1.0000 0.89909  0.58057  0.57046  Biso   1.000  C
  C1068    1.0000 0.95302  0.59925  0.57813  Biso   1.000  C
  C1069    1.0000 0.95298  0.59925  0.57813  Biso   1.000  C
  C1070    1.0000 0.11201  0.55158  0.83795  Biso   1.000  C
  C1071    1.0000 0.11205  0.55158  0.83795  Biso   1.000  C
  C1072    1.0000 0.13370  0.57159  0.80666  Biso   1.000  C
  C1073    1.0000 0.13373  0.57156  0.80666  Biso   1.000  C
  C1074    1.0000 0.13374  0.57159  0.80666  Biso   1.000  C
  C1075    1.0000 0.13369  0.57156  0.80666  Biso   1.000  C
  O164     1.0000 0.79891  0.47786  0.71015  Biso   1.000  O
  O165     1.0000 0.79895  0.47786  0.71015  Biso   1.000  O
  O166     1.0000 0.84822  0.46727  0.77614  Biso   1.000  O
  O167     1.0000 0.84825  0.46727  0.77614  Biso   1.000  O
  C1076    1.0000 0.86452  0.58297  0.53084  Biso   1.000  C
  C1077    1.0000 0.86449  0.58297  0.53084  Biso   1.000  C
  C1078    1.0000 0.86451  0.58293  0.53084  Biso   1.000  C
  C1079    1.0000 0.97232  0.62015  0.54633  Biso   1.000  C
  C1080    1.0000 0.97228  0.62015  0.54633  Biso   1.000  C
  C1081    1.0000 0.14423  0.54670  0.87738  Biso   1.000  C
  C1082    1.0000 0.14424  0.54665  0.87734  Biso   1.000  C
  C1083    1.0000 0.14426  0.54670  0.87738  Biso   1.000  C
  C1084    1.0000 0.14422  0.54668  0.87734  Biso   1.000  C
  C1085    1.0000 0.14421  0.54665  0.87734  Biso   1.000  C
  C1086    1.0000 0.14425  0.54668  0.87734  Biso   1.000  C
  C1087    1.0000 0.18762  0.58668  0.81475  Biso   1.000  C
  C1088    1.0000 0.76773  0.45338  0.73265  Biso   1.000  C
  C1089    1.0000 0.76772  0.45334  0.73265  Biso   1.000  C
  C1090    1.0000 0.76769  0.45338  0.73265  Biso   1.000  C
  C1091    1.0000 0.79642  0.44666  0.77273  Biso   1.000  C
  C1092    1.0000 0.79639  0.44666  0.77273  Biso   1.000  C
  C1093    1.0000 0.88370  0.60394  0.49905  Biso   1.000  C
  H724     1.0000 0.82841  0.57046  0.52565  Biso   1.000  H
  H725     1.0000 0.82839  0.57044  0.52561  Biso   1.000  H
  C1094    1.0000 0.88371  0.60398  0.49905  Biso   1.000  C
  C1095    1.0000 0.93762  0.62257  0.50675  Biso   1.000  C
  C1096    1.0000 0.93760  0.62255  0.50671  Biso   1.000  C
  C1097    1.0000 0.93757  0.62255  0.50671  Biso   1.000  C
  H726     1.0000 0.00840  0.63266  0.55152  Biso   1.000  H
  H727     1.0000 0.00839  0.63262  0.55152  Biso   1.000  H
  H728     1.0000 0.12973  0.53329  0.89825  Biso   1.000  H
  C1098    1.0000 0.19822  0.56179  0.88547  Biso   1.000  C
  H729     1.0000 0.12972  0.53325  0.89825  Biso   1.000  H
  C1099    1.0000 0.19824  0.56177  0.88543  Biso   1.000  C
  C1100    1.0000 0.19826  0.56179  0.88547  Biso   1.000  C
  C1101    1.0000 0.19821  0.56177  0.88543  Biso   1.000  C
  C1102    1.0000 0.21993  0.58167  0.85406  Biso   1.000  C
  H730     1.0000 0.20210  0.59996  0.79376  Biso   1.000  H
  H731     1.0000 0.20214  0.59996  0.79376  Biso   1.000  H
  C1103    1.0000 0.21994  0.58171  0.85406  Biso   1.000  C
  H732     1.0000 0.20215  0.60000  0.79376  Biso   1.000  H
  H733     1.0000 0.20211  0.60000  0.79376  Biso   1.000  H
  C1104    1.0000 0.71303  0.43667  0.71956  Biso   1.000  C
  C1105    1.0000 0.71301  0.43665  0.71952  Biso   1.000  C
  C1106    1.0000 0.71298  0.43665  0.71952  Biso   1.000  C
  C1107    1.0000 0.77052  0.42328  0.79984  Biso   1.000  C
  C1108    1.0000 0.77051  0.42324  0.79984  Biso   1.000  C
  C1109    1.0000 0.77049  0.42328  0.79984  Biso   1.000  C
  C1110    1.0000 0.85877  0.61272  0.45451  Biso   1.000  C
  C1111    1.0000 0.85883  0.61278  0.45455  Biso   1.000  C
  C1112    1.0000 0.85882  0.61274  0.45455  Biso   1.000  C
  C1113    1.0000 0.85878  0.61274  0.45455  Biso   1.000  C
  C1114    1.0000 0.85880  0.61272  0.45451  Biso   1.000  C
  C1115    1.0000 0.96439  0.64574  0.47403  Biso   1.000  C
  C1116    1.0000 0.96442  0.64574  0.47403  Biso   1.000  C
  C1117    1.0000 0.96440  0.64577  0.47403  Biso   1.000  C
  C1118    1.0000 0.96443  0.64577  0.47403  Biso   1.000  C
  C1119    1.0000 0.23672  0.56017  0.92966  Biso   1.000  C
  C1120    1.0000 0.23676  0.56017  0.92966  Biso   1.000  C
  C1121    1.0000 0.23677  0.56021  0.92966  Biso   1.000  C
  C1122    1.0000 0.23673  0.56021  0.92966  Biso   1.000  C
  C1123    1.0000 0.27883  0.59876  0.86835  Biso   1.000  C
  C1124    1.0000 0.27884  0.59880  0.86835  Biso   1.000  C
  C1125    1.0000 0.68724  0.41318  0.74667  Biso   1.000  C
  C1126    1.0000 0.68719  0.41316  0.74663  Biso   1.000  C
  C1127    1.0000 0.68720  0.41318  0.74667  Biso   1.000  C
  C1128    1.0000 0.68723  0.41316  0.74663  Biso   1.000  C
  H734     1.0000 0.69379  0.44104  0.69272  Biso   1.000  H
  H735     1.0000 0.69384  0.44106  0.69276  Biso   1.000  H
  H736     1.0000 0.69382  0.44109  0.69276  Biso   1.000  H
  H737     1.0000 0.69381  0.44106  0.69276  Biso   1.000  H
  H738     1.0000 0.69385  0.44109  0.69276  Biso   1.000  H
  C1129    1.0000 0.71592  0.40659  0.78687  Biso   1.000  C
  C1130    1.0000 0.71595  0.40659  0.78687  Biso   1.000  C
  C1131    1.0000 0.71591  0.40657  0.78683  Biso   1.000  C
  C1132    1.0000 0.71590  0.40653  0.78683  Biso   1.000  C
  C1133    1.0000 0.71593  0.40653  0.78683  Biso   1.000  C
  H739     1.0000 0.78973  0.41877  0.82676  Biso   1.000  H
  H740     1.0000 0.78974  0.41880  0.82676  Biso   1.000  H
  H741     1.0000 0.78970  0.41877  0.82676  Biso   1.000  H
  H742     1.0000 0.82020  0.60014  0.44502  Biso   1.000  H
  C1134    1.0000 0.88449  0.67243  0.46442  Biso   1.000  C
  C1135    1.0000 0.87707  0.58264  0.41133  Biso   1.000  C
  C1136    1.0000 0.88450  0.67246  0.46442  Biso   1.000  C
  C1137    1.0000 0.87711  0.58264  0.41133  Biso   1.000  C
  H743     1.0000 0.82016  0.60014  0.44502  Biso   1.000  H
  C1138    1.0000 0.93098  0.60154  0.41931  Biso   1.000  C
  C1139    1.0000 0.93840  0.68926  0.47213  Biso   1.000  C
  C1140    1.0000 0.93099  0.60156  0.41934  Biso   1.000  C
  C1141    1.0000 0.93839  0.68923  0.47213  Biso   1.000  C
  C1142    1.0000 0.93103  0.60156  0.41934  Biso   1.000  C
  C1143    1.0000 0.93844  0.68926  0.47213  Biso   1.000  C
  C1144    1.0000 0.93101  0.60154  0.41931  Biso   1.000  C
  H744     1.0000 0.00290  0.65776  0.48344  Biso   1.000  H
  C1145    1.0000 0.26413  0.52708  0.89937  Biso   1.000  C
  H745     1.0000 0.22074  0.54547  0.95096  Biso   1.000  H
  C1146    1.0000 0.27412  0.62008  0.95727  Biso   1.000  C
  C1147    1.0000 0.26412  0.52706  0.89934  Biso   1.000  C
  C1148    1.0000 0.27416  0.62008  0.95727  Biso   1.000  C
  H746     1.0000 0.22075  0.54551  0.95096  Biso   1.000  H
  C1149    1.0000 0.27417  0.62012  0.95727  Biso   1.000  C
  H747     1.0000 0.22071  0.54547  0.95096  Biso   1.000  H
  C1150    1.0000 0.27413  0.62012  0.95727  Biso   1.000  C
  C1151    1.0000 0.28663  0.54637  0.86804  Biso   1.000  C
  H748     1.0000 0.29503  0.61367  0.84717  Biso   1.000  H
  C1152    1.0000 0.29524  0.63796  0.92455  Biso   1.000  C
  H749     1.0000 0.29502  0.61365  0.84713  Biso   1.000  H
  H750     1.0000 0.29504  0.61371  0.84717  Biso   1.000  H
  C1153    1.0000 0.29525  0.63800  0.92455  Biso   1.000  C
  C1154    1.0000 0.62892  0.39846  0.74257  Biso   1.000  C
  C1155    1.0000 0.62890  0.39845  0.74253  Biso   1.000  C
  C1156    1.0000 0.62893  0.39850  0.74257  Biso   1.000  C
  C1157    1.0000 0.62887  0.39845  0.74253  Biso   1.000  C
  C1158    1.0000 0.68633  0.37955  0.81545  Biso   1.000  C
  C1159    1.0000 0.68634  0.37959  0.81545  Biso   1.000  C
  C1160    1.0000 0.68630  0.37959  0.81545  Biso   1.000  C
  C1161    1.0000 0.68629  0.37955  0.81545  Biso   1.000  C
  C1162    1.0000 0.85960  0.71045  0.46984  Biso   1.000  C
  C1163    1.0000 0.84306  0.53562  0.36652  Biso   1.000  C
  C1164    1.0000 0.84310  0.53562  0.36652  Biso   1.000  C
  C1165    1.0000 0.84307  0.53566  0.36652  Biso   1.000  C
  C1166    1.0000 0.84311  0.53566  0.36652  Biso   1.000  C
  C1167    1.0000 0.95097  0.57352  0.38251  Biso   1.000  C
  C1168    1.0000 0.95101  0.57352  0.38251  Biso   1.000  C
  C1169    1.0000 0.95098  0.57355  0.38251  Biso   1.000  C
  C1170    1.0000 0.95102  0.57355  0.38251  Biso   1.000  C
  C1171    1.0000 0.96741  0.74414  0.48514  Biso   1.000  C
  C1172    1.0000 0.96742  0.74418  0.48514  Biso   1.000  C
  C1173    1.0000 0.26972  0.48058  0.90356  Biso   1.000  C
  C1174    1.0000 0.26975  0.48058  0.90356  Biso   1.000  C
  C1175    1.0000 0.28836  0.65629  0.00928  Biso   1.000  C
  C1176    1.0000 0.28837  0.65632  0.00928  Biso   1.000  C
  C1177    1.0000 0.28832  0.65629  0.00928  Biso   1.000  C
  C1178    1.0000 0.31461  0.51907  0.84086  Biso   1.000  C
  C1179    1.0000 0.31464  0.51907  0.84086  Biso   1.000  C
  C1180    1.0000 0.31465  0.51911  0.84086  Biso   1.000  C
  C1181    1.0000 0.31462  0.51911  0.84086  Biso   1.000  C
  C1182    1.0000 0.33074  0.69207  0.94387  Biso   1.000  C
  C1183    1.0000 0.33075  0.69211  0.94387  Biso   1.000  C
  C1184    1.0000 0.61223  0.33759  0.73277  Biso   1.000  C
  C1185    1.0000 0.61220  0.33753  0.73273  Biso   1.000  C
  C1186    1.0000 0.61218  0.33757  0.73273  Biso   1.000  C
  C1187    1.0000 0.61221  0.33757  0.73273  Biso   1.000  C
  H751     1.0000 0.60802  0.40417  0.71534  Biso   1.000  H
  C1188    1.0000 0.62780  0.43095  0.79473  Biso   1.000  C
  H752     1.0000 0.60801  0.40413  0.71534  Biso   1.000  H
  C1189    1.0000 0.62785  0.43097  0.79477  Biso   1.000  C
  C1190    1.0000 0.62782  0.43100  0.79477  Biso   1.000  C
  H753     1.0000 0.60798  0.40417  0.71534  Biso   1.000  H
  C1191    1.0000 0.62781  0.43097  0.79477  Biso   1.000  C
  C1192    1.0000 0.62783  0.43095  0.79473  Biso   1.000  C
  C1193    1.0000 0.62786  0.43100  0.79477  Biso   1.000  C
  C1194    1.0000 0.64212  0.33027  0.77177  Biso   1.000  C
  C1195    1.0000 0.64211  0.33026  0.77173  Biso   1.000  C
  C1196    1.0000 0.64207  0.33026  0.77173  Biso   1.000  C
  C1197    1.0000 0.65782  0.42438  0.83427  Biso   1.000  C
  H754     1.0000 0.70721  0.37325  0.84213  Biso   1.000  H
  C1198    1.0000 0.65781  0.42436  0.83423  Biso   1.000  C
  H755     1.0000 0.70726  0.37327  0.84217  Biso   1.000  H
  H756     1.0000 0.70723  0.37331  0.84217  Biso   1.000  H
  H757     1.0000 0.70722  0.37327  0.84217  Biso   1.000  H
  H758     1.0000 0.70727  0.37331  0.84217  Biso   1.000  H
  C1199    1.0000 0.65786  0.42438  0.83427  Biso   1.000  C
  C1200    1.0000 0.88871  0.76535  0.48282  Biso   1.000  C
  H759     1.0000 0.82362  0.69916  0.46473  Biso   1.000  H
  H760     1.0000 0.82358  0.69916  0.46473  Biso   1.000  H
  H761     1.0000 0.82361  0.69912  0.46473  Biso   1.000  H
  C1201    1.0000 0.88868  0.76535  0.48282  Biso   1.000  C
  C1202    1.0000 0.86296  0.50763  0.32973  Biso   1.000  C
  C1203    1.0000 0.78497  0.51102  0.35571  Biso   1.000  C
  C1204    1.0000 0.86300  0.50763  0.32973  Biso   1.000  C
  C1205    1.0000 0.78500  0.51102  0.35571  Biso   1.000  C
  C1206    1.0000 0.78498  0.51106  0.35571  Biso   1.000  C
  C1207    1.0000 0.78501  0.51106  0.35571  Biso   1.000  C
  C1208    1.0000 0.91688  0.52655  0.33774  Biso   1.000  C
  C1209    1.0000 0.91691  0.52655  0.33774  Biso   1.000  C
  C1210    1.0000 0.91687  0.52654  0.33771  Biso   1.000  C
  C1211    1.0000 0.91686  0.52650  0.33771  Biso   1.000  C
  C1212    1.0000 0.91689  0.52650  0.33771  Biso   1.000  C
  C1213    1.0000 0.00815  0.59743  0.38801  Biso   1.000  C
  C1214    1.0000 0.00818  0.59743  0.38801  Biso   1.000  C
  C1215    1.0000 0.00819  0.59746  0.38801  Biso   1.000  C
  C1216    1.0000 0.00816  0.59746  0.38801  Biso   1.000  C
  C1217    1.0000 0.94259  0.78213  0.49041  Biso   1.000  C
  C1218    1.0000 0.94263  0.78215  0.49045  Biso   1.000  C
  C1219    1.0000 0.94261  0.78218  0.49045  Biso   1.000  C
  C1220    1.0000 0.94260  0.78215  0.49045  Biso   1.000  C
  C1221    1.0000 0.94262  0.78213  0.49041  Biso   1.000  C
  C1222    1.0000 0.94264  0.78218  0.49045  Biso   1.000  C
  H762     1.0000 0.00351  0.75547  0.49025  Biso   1.000  H
  H763     1.0000 0.00350  0.75545  0.49022  Biso   1.000  H
  C1223    1.0000 0.29772  0.45339  0.87637  Biso   1.000  C
  C1224    1.0000 0.25271  0.46350  0.94205  Biso   1.000  C
  C1225    1.0000 0.29775  0.45337  0.87633  Biso   1.000  C
  C1226    1.0000 0.25274  0.46346  0.94205  Biso   1.000  C
  C1227    1.0000 0.29776  0.45339  0.87637  Biso   1.000  C
  C1228    1.0000 0.25275  0.46350  0.94205  Biso   1.000  C
  C1229    1.0000 0.29771  0.45337  0.87633  Biso   1.000  C
  C1230    1.0000 0.25270  0.46346  0.94205  Biso   1.000  C
  H764     1.0000 0.27428  0.64430  0.03120  Biso   1.000  H
  C1231    1.0000 0.32385  0.71038  0.02857  Biso   1.000  C
  H765     1.0000 0.27423  0.64428  0.03116  Biso   1.000  H
  C1232    1.0000 0.32386  0.71042  0.02857  Biso   1.000  C
  H766     1.0000 0.27424  0.64430  0.03120  Biso   1.000  H
  C1233    1.0000 0.32382  0.71038  0.02857  Biso   1.000  C
  H767     1.0000 0.27426  0.64428  0.03116  Biso   1.000  H
  C1234    1.0000 0.32012  0.47257  0.84504  Biso   1.000  C
  C1235    1.0000 0.33743  0.53979  0.80666  Biso   1.000  C
  C1236    1.0000 0.33742  0.53975  0.80666  Biso   1.000  C
  C1237    1.0000 0.34503  0.72839  0.99596  Biso   1.000  C
  H768     1.0000 0.34484  0.70410  0.92195  Biso   1.000  H
  C1238    1.0000 0.34506  0.72839  0.99596  Biso   1.000  C
  H769     1.0000 0.34486  0.70406  0.92195  Biso   1.000  H
  H770     1.0000 0.34487  0.70410  0.92195  Biso   1.000  H
  H771     1.0000 0.34483  0.70406  0.92195  Biso   1.000  H
  C1239    1.0000 0.57208  0.29204  0.69083  Biso   1.000  C
  C1240    1.0000 0.57212  0.29206  0.69086  Biso   1.000  C
  C1241    1.0000 0.57210  0.29210  0.69086  Biso   1.000  C
  C1242    1.0000 0.57209  0.29206  0.69086  Biso   1.000  C
  C1243    1.0000 0.57211  0.29204  0.69083  Biso   1.000  C
  C1244    1.0000 0.57213  0.29210  0.69086  Biso   1.000  C
  C1245    1.0000 0.60283  0.46887  0.80647  Biso   1.000  C
  C1246    1.0000 0.60281  0.46885  0.80643  Biso   1.000  C
  C1247    1.0000 0.60278  0.46885  0.80643  Biso   1.000  C
  C1248    1.0000 0.63182  0.27736  0.76886  Biso   1.000  C
  C1249    1.0000 0.63179  0.27736  0.76886  Biso   1.000  C
  C1250    1.0000 0.63183  0.27740  0.76886  Biso   1.000  C
  C1251    1.0000 0.66291  0.45568  0.88543  Biso   1.000  C
  C1252    1.0000 0.66292  0.45569  0.88547  Biso   1.000  C
  C1253    1.0000 0.66296  0.45569  0.88547  Biso   1.000  C
  C1254    1.0000 0.66295  0.45568  0.88543  Biso   1.000  C
  O168     1.0000 0.87540  0.81255  0.49424  Biso   1.000  O
  O169     1.0000 0.87543  0.81255  0.49424  Biso   1.000  O
  O170     1.0000 0.87541  0.81258  0.49424  Biso   1.000  O
  O171     1.0000 0.87544  0.81258  0.49424  Biso   1.000  O
  H772     1.0000 0.84018  0.47612  0.29971  Biso   1.000  H
  H773     1.0000 0.84014  0.47612  0.29971  Biso   1.000  H
  H774     1.0000 0.77459  0.53393  0.38282  Biso   1.000  H
  C1255    1.0000 0.75829  0.50805  0.30382  Biso   1.000  C
  H775     1.0000 0.77517  0.47413  0.35393  Biso   1.000  H
  C1256    1.0000 0.75826  0.50805  0.30382  Biso   1.000  C
  H776     1.0000 0.77521  0.47413  0.35393  Biso   1.000  H
  C1257    1.0000 0.75825  0.50801  0.30382  Biso   1.000  C
  H777     1.0000 0.77518  0.47417  0.35393  Biso   1.000  H
  H778     1.0000 0.77455  0.53393  0.38282  Biso   1.000  H
  C1258    1.0000 0.75828  0.50801  0.30382  Biso   1.000  C
  H779     1.0000 0.77522  0.47417  0.35393  Biso   1.000  H
  H780     1.0000 0.93027  0.50784  0.31304  Biso   1.000  H
  H781     1.0000 0.93031  0.50784  0.31304  Biso   1.000  H
  H782     1.0000 0.01256  0.58676  0.35413  Biso   1.000  H
  H783     1.0000 0.02137  0.63766  0.40602  Biso   1.000  H
  C1259    1.0000 0.03896  0.57424  0.41954  Biso   1.000  C
  H784     1.0000 0.01259  0.58672  0.35413  Biso   1.000  H
  H785     1.0000 0.02139  0.63762  0.40602  Biso   1.000  H
  C1260    1.0000 0.03900  0.57424  0.41954  Biso   1.000  C
  H786     1.0000 0.01260  0.58676  0.35413  Biso   1.000  H
  H787     1.0000 0.02140  0.63766  0.40602  Biso   1.000  H
  H788     1.0000 0.01255  0.58672  0.35413  Biso   1.000  H
  H789     1.0000 0.02136  0.63762  0.40602  Biso   1.000  H
  O172     1.0000 0.96583  0.83816  0.50625  Biso   1.000  O
  O173     1.0000 0.96581  0.83814  0.50621  Biso   1.000  O
  O174     1.0000 0.96578  0.83814  0.50621  Biso   1.000  O
  H790     1.0000 0.30143  0.42228  0.87916  Biso   1.000  H
  H791     1.0000 0.25784  0.49590  0.97307  Biso   1.000  H
  H792     1.0000 0.27301  0.44318  0.95166  Biso   1.000  H
  C1261    1.0000 0.19451  0.42678  0.91645  Biso   1.000  C
  H793     1.0000 0.27305  0.44318  0.95166  Biso   1.000  H
  C1262    1.0000 0.19455  0.42678  0.91645  Biso   1.000  C
  O175     1.0000 0.33959  0.75128  0.07760  Biso   1.000  O
  O176     1.0000 0.33956  0.75132  0.07760  Biso   1.000  O
  O177     1.0000 0.33955  0.75128  0.07760  Biso   1.000  O
  O178     1.0000 0.33960  0.75132  0.07760  Biso   1.000  O
  H794     1.0000 0.33892  0.45437  0.82684  Biso   1.000  H
  H795     1.0000 0.31452  0.55508  0.79194  Biso   1.000  H
  H796     1.0000 0.33882  0.50887  0.77827  Biso   1.000  H
  C1263    1.0000 0.39344  0.58467  0.83636  Biso   1.000  C
  H797     1.0000 0.31451  0.55504  0.79194  Biso   1.000  H
  H798     1.0000 0.33881  0.50885  0.77823  Biso   1.000  H
  H799     1.0000 0.31455  0.55508  0.79194  Biso   1.000  H
  H800     1.0000 0.33883  0.50890  0.77827  Biso   1.000  H
  O179     1.0000 0.37656  0.78478  0.02598  Biso   1.000  O
  O180     1.0000 0.37657  0.78482  0.02598  Biso   1.000  O
  O181     1.0000 0.37652  0.78478  0.02598  Biso   1.000  O
  C1264    1.0000 0.53729  0.29857  0.64923  Biso   1.000  C
  C1265    1.0000 0.53728  0.29853  0.64923  Biso   1.000  C
  C1266    1.0000 0.56188  0.23924  0.68792  Biso   1.000  C
  C1267    1.0000 0.56193  0.23925  0.68796  Biso   1.000  C
  C1268    1.0000 0.56190  0.23929  0.68796  Biso   1.000  C
  C1269    1.0000 0.56189  0.23925  0.68796  Biso   1.000  C
  C1270    1.0000 0.56191  0.23924  0.68792  Biso   1.000  C
  C1271    1.0000 0.56194  0.23929  0.68796  Biso   1.000  C
  H801     1.0000 0.58271  0.47337  0.78005  Biso   1.000  H
  C1272    1.0000 0.60782  0.50019  0.85766  Biso   1.000  C
  H802     1.0000 0.58275  0.47337  0.78005  Biso   1.000  H
  C1273    1.0000 0.60786  0.50019  0.85766  Biso   1.000  C
  C1274    1.0000 0.59170  0.23187  0.72696  Biso   1.000  C
  C1275    1.0000 0.59173  0.23187  0.72696  Biso   1.000  C
  C1276    1.0000 0.65783  0.26927  0.81266  Biso   1.000  C
  C1277    1.0000 0.65779  0.26927  0.81266  Biso   1.000  C
  C1278    1.0000 0.63794  0.49360  0.89717  Biso   1.000  C
  H803     1.0000 0.68301  0.45126  0.91184  Biso   1.000  H
  C1279    1.0000 0.63793  0.49356  0.89717  Biso   1.000  C
  H804     1.0000 0.68305  0.45126  0.91184  Biso   1.000  H
  H805     1.0000 0.68302  0.45129  0.91184  Biso   1.000  H
  H806     1.0000 0.68306  0.45129  0.91184  Biso   1.000  H
  B92      1.0000 0.92004  0.85337  0.50315  Biso   1.000  B
  B93      1.0000 0.92001  0.85332  0.50311  Biso   1.000  B
  B94      1.0000 0.91999  0.85336  0.50311  Biso   1.000  B
  B95      1.0000 0.92000  0.85337  0.50315  Biso   1.000  B
  B96      1.0000 0.92002  0.85336  0.50311  Biso   1.000  B
  H807     1.0000 0.76557  0.54543  0.30703  Biso   1.000  H
  H808     1.0000 0.77169  0.48876  0.27814  Biso   1.000  H
  H809     1.0000 0.72086  0.48942  0.29352  Biso   1.000  H
  H810     1.0000 0.76560  0.54543  0.30703  Biso   1.000  H
  H811     1.0000 0.77167  0.48870  0.27810  Biso   1.000  H
  H812     1.0000 0.72090  0.48942  0.29352  Biso   1.000  H
  H813     1.0000 0.72087  0.48946  0.29352  Biso   1.000  H
  H814     1.0000 0.77165  0.48874  0.27810  Biso   1.000  H
  H815     1.0000 0.77166  0.48876  0.27814  Biso   1.000  H
  H816     1.0000 0.72091  0.48946  0.29352  Biso   1.000  H
  H817     1.0000 0.77168  0.48874  0.27810  Biso   1.000  H
  H818     1.0000 0.05106  0.54866  0.39723  Biso   1.000  H
  H819     1.0000 0.06877  0.60433  0.44742  Biso   1.000  H
  H820     1.0000 0.01609  0.55546  0.43332  Biso   1.000  H
  H821     1.0000 0.05108  0.54862  0.39723  Biso   1.000  H
  H822     1.0000 0.06881  0.60433  0.44742  Biso   1.000  H
  H823     1.0000 0.01608  0.55542  0.43332  Biso   1.000  H
  H824     1.0000 0.05109  0.54866  0.39723  Biso   1.000  H
  H825     1.0000 0.05105  0.54862  0.39723  Biso   1.000  H
  H826     1.0000 0.17780  0.43939  0.89364  Biso   1.000  H
  H827     1.0000 0.17801  0.42869  0.94256  Biso   1.000  H
  H828     1.0000 0.19101  0.38920  0.89697  Biso   1.000  H
  H829     1.0000 0.17783  0.43935  0.89364  Biso   1.000  H
  H830     1.0000 0.17804  0.42866  0.94256  Biso   1.000  H
  H831     1.0000 0.19103  0.38915  0.89693  Biso   1.000  H
  H832     1.0000 0.17784  0.43939  0.89364  Biso   1.000  H
  H833     1.0000 0.17805  0.42869  0.94256  Biso   1.000  H
  H834     1.0000 0.19105  0.38920  0.89697  Biso   1.000  H
  H835     1.0000 0.19100  0.38919  0.89693  Biso   1.000  H
  H836     1.0000 0.17779  0.43935  0.89364  Biso   1.000  H
  H837     1.0000 0.17800  0.42866  0.94256  Biso   1.000  H
  H838     1.0000 0.19099  0.38915  0.89693  Biso   1.000  H
  H839     1.0000 0.19104  0.38919  0.89693  Biso   1.000  H
  B97      1.0000 0.37368  0.79408  0.07268  Biso   1.000  B
  B98      1.0000 0.37365  0.79412  0.07268  Biso   1.000  B
  B99      1.0000 0.37364  0.79408  0.07268  Biso   1.000  B
  B100     1.0000 0.37369  0.79412  0.07268  Biso   1.000  B
  H840     1.0000 0.40511  0.60007  0.81425  Biso   1.000  H
  H841     1.0000 0.41723  0.56839  0.84686  Biso   1.000  H
  H842     1.0000 0.39273  0.61356  0.86634  Biso   1.000  H
  H843     1.0000 0.40515  0.60007  0.81425  Biso   1.000  H
  H844     1.0000 0.41722  0.56835  0.84686  Biso   1.000  H
  H845     1.0000 0.41726  0.56839  0.84686  Biso   1.000  H
  H846     1.0000 0.39274  0.61360  0.86634  Biso   1.000  H
  H847     1.0000 0.39270  0.61356  0.86634  Biso   1.000  H
  C1280    1.0000 0.56667  0.30536  0.61054  Biso   1.000  C
  C1281    1.0000 0.56671  0.30536  0.61054  Biso   1.000  C
  H848     1.0000 0.50477  0.26614  0.63103  Biso   1.000  H
  H849     1.0000 0.52839  0.33087  0.66465  Biso   1.000  H
  H850     1.0000 0.50480  0.26614  0.63103  Biso   1.000  H
  H851     1.0000 0.52843  0.33087  0.66465  Biso   1.000  H
  H852     1.0000 0.53509  0.20875  0.65984  Biso   1.000  H
  H853     1.0000 0.53506  0.20875  0.65984  Biso   1.000  H
  O182     1.0000 0.58901  0.54037  0.87974  Biso   1.000  O
  O183     1.0000 0.58903  0.54039  0.87978  Biso   1.000  O
  O184     1.0000 0.58906  0.54039  0.87978  Biso   1.000  O
  O185     1.0000 0.58905  0.54037  0.87974  Biso   1.000  O
  H854     1.0000 0.58488  0.19654  0.72502  Biso   1.000  H
  H855     1.0000 0.58493  0.19656  0.72506  Biso   1.000  H
  H856     1.0000 0.58490  0.19660  0.72506  Biso   1.000  H
  H857     1.0000 0.58489  0.19656  0.72506  Biso   1.000  H
  H858     1.0000 0.58491  0.19654  0.72502  Biso   1.000  H
  H859     1.0000 0.58494  0.19660  0.72506  Biso   1.000  H
  H860     1.0000 0.63612  0.23456  0.81084  Biso   1.000  H
  H861     1.0000 0.66141  0.29907  0.84496  Biso   1.000  H
  C1282    1.0000 0.71182  0.26818  0.81185  Biso   1.000  C
  H862     1.0000 0.63608  0.23456  0.81084  Biso   1.000  H
  C1283    1.0000 0.71181  0.26814  0.81185  Biso   1.000  C
  H863     1.0000 0.66145  0.29907  0.84496  Biso   1.000  H
  C1284    1.0000 0.71179  0.26818  0.81185  Biso   1.000  C
  O186     1.0000 0.63942  0.52788  0.94534  Biso   1.000  O
  O187     1.0000 0.63946  0.52788  0.94534  Biso   1.000  O
  C1285    1.0000 0.92742  0.91625  0.52275  Biso   1.000  C
  C1286    1.0000 0.92745  0.91625  0.52275  Biso   1.000  C
  C1287    1.0000 0.39836  0.85500  0.11908  Biso   1.000  C
  H864     1.0000 0.54289  0.30465  0.58165  Biso   1.000  H
  H865     1.0000 0.57907  0.27546  0.59854  Biso   1.000  H
  H866     1.0000 0.59618  0.34005  0.62762  Biso   1.000  H
  H867     1.0000 0.59619  0.34006  0.62766  Biso   1.000  H
  H868     1.0000 0.57911  0.27546  0.59854  Biso   1.000  H
  H869     1.0000 0.59623  0.34006  0.62766  Biso   1.000  H
  H870     1.0000 0.59622  0.34005  0.62762  Biso   1.000  H
  B101     1.0000 0.60735  0.55660  0.93187  Biso   1.000  B
  B102     1.0000 0.60734  0.55657  0.93187  Biso   1.000  B
  B103     1.0000 0.60731  0.55660  0.93187  Biso   1.000  B
  H871     1.0000 0.73511  0.28346  0.84674  Biso   1.000  H
  H872     1.0000 0.70890  0.23056  0.79314  Biso   1.000  H
  H873     1.0000 0.72583  0.28987  0.79516  Biso   1.000  H
  H874     1.0000 0.72579  0.28987  0.79516  Biso   1.000  H
  H875     1.0000 0.73512  0.28350  0.84674  Biso   1.000  H
  C1288    1.0000 0.97614  0.95876  0.53983  Biso   1.000  C
  C1289    1.0000 0.88202  0.92847  0.52244  Biso   1.000  C
  C1290    1.0000 0.97610  0.95876  0.53983  Biso   1.000  C
  C1291    1.0000 0.88205  0.92847  0.52244  Biso   1.000  C
  C1292    1.0000 0.88201  0.92843  0.52244  Biso   1.000  C
  C1293    1.0000 0.88204  0.92843  0.52244  Biso   1.000  C
  C1294    1.0000 0.42857  0.89848  0.11191  Biso   1.000  C
  C1295    1.0000 0.39169  0.86479  0.16698  Biso   1.000  C
  C1296    1.0000 0.42857  0.89850  0.11187  Biso   1.000  C
  C1297    1.0000 0.39166  0.86483  0.16698  Biso   1.000  C
  C1298    1.0000 0.42858  0.89852  0.11191  Biso   1.000  C
  C1299    1.0000 0.39166  0.86479  0.16698  Biso   1.000  C
  C1300    1.0000 0.42856  0.89847  0.11187  Biso   1.000  C
  C1301    1.0000 0.39170  0.86483  0.16698  Biso   1.000  C
  C1302    1.0000 0.60085  0.60627  0.97245  Biso   1.000  C
  C1303    1.0000 0.60086  0.60631  0.97245  Biso   1.000  C
  C1304    1.0000 0.60081  0.60627  0.97245  Biso   1.000  C
  C1305    1.0000 0.97936  0.01347  0.55663  Biso   1.000  C
  C1306    1.0000 0.97935  0.01343  0.55663  Biso   1.000  C
  C1307    1.0000 0.97940  0.01347  0.55663  Biso   1.000  C
  H876     1.0000 0.00651  0.95066  0.53994  Biso   1.000  H
  H877     1.0000 0.00654  0.95066  0.53994  Biso   1.000  H
  H878     1.0000 0.84943  0.90004  0.51094  Biso   1.000  H
  C1308    1.0000 0.88535  0.98317  0.53925  Biso   1.000  C
  H879     1.0000 0.84939  0.90004  0.51094  Biso   1.000  H
  C1309    1.0000 0.88531  0.98317  0.53925  Biso   1.000  C
  C1310    1.0000 0.88534  0.98314  0.53925  Biso   1.000  C
  H880     1.0000 0.84944  0.90008  0.51094  Biso   1.000  H
  C1311    1.0000 0.45209  0.95169  0.15250  Biso   1.000  C
  H881     1.0000 0.43310  0.89190  0.07988  Biso   1.000  H
  C1312    1.0000 0.45210  0.95173  0.15250  Biso   1.000  C
  H882     1.0000 0.43306  0.89190  0.07988  Biso   1.000  H
  C1313    1.0000 0.45206  0.95169  0.15250  Biso   1.000  C
  C1314    1.0000 0.41519  0.91802  0.20761  Biso   1.000  C
  H883     1.0000 0.37148  0.83568  0.17179  Biso   1.000  H
  H884     1.0000 0.37149  0.83572  0.17179  Biso   1.000  H
  H885     1.0000 0.37144  0.83568  0.17179  Biso   1.000  H
  C1315    1.0000 0.57166  0.63359  0.95545  Biso   1.000  C
  C1316    1.0000 0.57163  0.63359  0.95545  Biso   1.000  C
  C1317    1.0000 0.62344  0.62379  0.02508  Biso   1.000  C
  C1318    1.0000 0.62345  0.62382  0.02508  Biso   1.000  C
  C1319    1.0000 0.62348  0.62379  0.02508  Biso   1.000  C
  C1320    1.0000 0.93395  0.02565  0.55632  Biso   1.000  C
  C1321    1.0000 0.93399  0.02565  0.55632  Biso   1.000  C
  B104     1.0000 0.03280  0.05828  0.57716  Biso   1.000  B
  B105     1.0000 0.03275  0.05826  0.57712  Biso   1.000  B
  B106     1.0000 0.03275  0.05824  0.57716  Biso   1.000  B
  B107     1.0000 0.03276  0.05828  0.57716  Biso   1.000  B
  B108     1.0000 0.03278  0.05826  0.57712  Biso   1.000  B
  B109     1.0000 0.03279  0.05824  0.57716  Biso   1.000  B
  B110     1.0000 0.83413  0.99626  0.53754  Biso   1.000  B
  B111     1.0000 0.83410  0.99626  0.53754  Biso   1.000  B
  C1322    1.0000 0.44540  0.96151  0.20029  Biso   1.000  C
  B112     1.0000 0.48389  0.99870  0.14239  Biso   1.000  B
  B113     1.0000 0.48390  0.99874  0.14239  Biso   1.000  B
  C1323    1.0000 0.44536  0.96151  0.20029  Biso   1.000  C
  B114     1.0000 0.48385  0.99870  0.14239  Biso   1.000  B
  B115     1.0000 0.40699  0.92641  0.25710  Biso   1.000  B
  B116     1.0000 0.40700  0.92645  0.25710  Biso   1.000  B
  B117     1.0000 0.40696  0.92641  0.25710  Biso   1.000  B
  H886     1.0000 0.55644  0.62189  0.92017  Biso   1.000  H
  C1324    1.0000 0.56517  0.67851  0.99128  Biso   1.000  C
  C1325    1.0000 0.56514  0.67851  0.99128  Biso   1.000  C
  C1326    1.0000 0.56516  0.67847  0.99128  Biso   1.000  C
  C1327    1.0000 0.61696  0.66868  0.06079  Biso   1.000  C
  H887     1.0000 0.64294  0.60546  0.03639  Biso   1.000  H
  C1328    1.0000 0.61694  0.66872  0.06079  Biso   1.000  C
  H888     1.0000 0.64295  0.60550  0.03639  Biso   1.000  H
  C1329    1.0000 0.61693  0.66868  0.06079  Biso   1.000  C
  H889     1.0000 0.64297  0.60546  0.03639  Biso   1.000  H
  C1330    1.0000 0.61697  0.66872  0.06079  Biso   1.000  C
  H890     1.0000 0.93617  0.06225  0.56756  Biso   1.000  H
  H891     1.0000 0.93615  0.06223  0.56752  Biso   1.000  H
  H892     1.0000 0.93616  0.06227  0.56752  Biso   1.000  H
  H893     1.0000 0.93620  0.06225  0.56756  Biso   1.000  H
  O188     1.0000 0.04538  0.11488  0.59695  Biso   1.000  O
  O189     1.0000 0.08139  0.04827  0.57913  Biso   1.000  O
  O190     1.0000 0.04537  0.11484  0.59695  Biso   1.000  O
  O191     1.0000 0.08136  0.04827  0.57913  Biso   1.000  O
  O192     1.0000 0.08135  0.04823  0.57913  Biso   1.000  O
  O193     1.0000 0.04535  0.11488  0.59695  Biso   1.000  O
  O194     1.0000 0.08138  0.04823  0.57913  Biso   1.000  O
  O195     1.0000 0.78632  0.95465  0.52213  Biso   1.000  O
  O196     1.0000 0.83427  0.05045  0.55783  Biso   1.000  O
  O197     1.0000 0.83426  0.05042  0.55783  Biso   1.000  O
  H894     1.0000 0.46110  0.99710  0.22751  Biso   1.000  H
  H895     1.0000 0.46109  0.99712  0.22748  Biso   1.000  H
  H896     1.0000 0.46111  0.99713  0.22751  Biso   1.000  H
  H897     1.0000 0.46105  0.99708  0.22748  Biso   1.000  H
  H898     1.0000 0.46108  0.99708  0.22748  Biso   1.000  H
  O198     1.0000 0.49490  0.99639  0.09921  Biso   1.000  O
  O199     1.0000 0.49486  0.99641  0.09917  Biso   1.000  O
  O200     1.0000 0.49487  0.99639  0.09921  Biso   1.000  O
  O201     1.0000 0.49485  0.99637  0.09917  Biso   1.000  O
  O202     1.0000 0.49490  0.99641  0.09917  Biso   1.000  O
  O203     1.0000 0.50624  0.05530  0.18220  Biso   1.000  O
  O204     1.0000 0.50620  0.05530  0.18220  Biso   1.000  O
  O205     1.0000 0.37889  0.88680  0.26961  Biso   1.000  O
  O206     1.0000 0.42309  0.97909  0.30199  Biso   1.000  O
  O207     1.0000 0.37890  0.88684  0.26961  Biso   1.000  O
  O208     1.0000 0.42310  0.97913  0.30199  Biso   1.000  O
  O209     1.0000 0.37885  0.88680  0.26961  Biso   1.000  O
  O210     1.0000 0.42306  0.97909  0.30199  Biso   1.000  O
  B118     1.0000 0.53146  0.70728  0.97036  Biso   1.000  B
  B119     1.0000 0.53143  0.70728  0.97036  Biso   1.000  B
  B120     1.0000 0.53147  0.70732  0.97036  Biso   1.000  B
  C1331    1.0000 0.58776  0.69598  0.04391  Biso   1.000  C
  C1332    1.0000 0.58772  0.69600  0.04387  Biso   1.000  C
  C1333    1.0000 0.58777  0.69602  0.04391  Biso   1.000  C
  C1334    1.0000 0.58775  0.69596  0.04387  Biso   1.000  C
  C1335    1.0000 0.58776  0.69600  0.04387  Biso   1.000  C
  C1336    1.0000 0.58771  0.69596  0.04387  Biso   1.000  C
  B121     1.0000 0.64397  0.68959  0.11609  Biso   1.000  B
  B122     1.0000 0.64394  0.68962  0.11609  Biso   1.000  B
  B123     1.0000 0.64393  0.68959  0.11609  Biso   1.000  B
  B124     1.0000 0.64398  0.68962  0.11609  Biso   1.000  B
  C1337    1.0000 0.09849  0.14076  0.61155  Biso   1.000  C
  C1338    1.0000 0.09845  0.14076  0.61155  Biso   1.000  C
  C1339    1.0000 0.11999  0.09976  0.60024  Biso   1.000  C
  C1340    1.0000 0.11996  0.09976  0.60024  Biso   1.000  C
  C1341    1.0000 0.11995  0.09972  0.60024  Biso   1.000  C
  C1342    1.0000 0.11998  0.09972  0.60024  Biso   1.000  C
  C1343    1.0000 0.75211  0.98295  0.53154  Biso   1.000  C
  C1344    1.0000 0.75215  0.98295  0.53154  Biso   1.000  C
  C1345    1.0000 0.75212  0.98298  0.53154  Biso   1.000  C
  C1346    1.0000 0.75216  0.98298  0.53154  Biso   1.000  C
  C1347    1.0000 0.78135  0.03934  0.55152  Biso   1.000  C
  C1348    1.0000 0.78138  0.03934  0.55152  Biso   1.000  C
  C1349    1.0000 0.52290  0.04798  0.10568  Biso   1.000  C
  C1350    1.0000 0.52291  0.04802  0.10568  Biso   1.000  C
  C1351    1.0000 0.52293  0.04798  0.10568  Biso   1.000  C
  C1352    1.0000 0.52965  0.08291  0.15641  Biso   1.000  C
  C1353    1.0000 0.52960  0.08286  0.15637  Biso   1.000  C
  C1354    1.0000 0.52962  0.08291  0.15641  Biso   1.000  C
  C1355    1.0000 0.52964  0.08290  0.15637  Biso   1.000  C
  C1356    1.0000 0.52961  0.08290  0.15637  Biso   1.000  C
  C1357    1.0000 0.37742  0.91020  0.31872  Biso   1.000  C
  C1358    1.0000 0.37739  0.91024  0.31872  Biso   1.000  C
  C1359    1.0000 0.37738  0.91020  0.31872  Biso   1.000  C
  C1360    1.0000 0.37743  0.91024  0.31872  Biso   1.000  C
  C1361    1.0000 0.40522  0.96690  0.33800  Biso   1.000  C
  C1362    1.0000 0.40519  0.96694  0.33800  Biso   1.000  C
  C1363    1.0000 0.40518  0.96690  0.33800  Biso   1.000  C
  C1364    1.0000 0.40523  0.96694  0.33800  Biso   1.000  C
  O211     1.0000 0.50995  0.69060  0.91808  Biso   1.000  O
  O212     1.0000 0.50993  0.69055  0.91804  Biso   1.000  O
  O213     1.0000 0.50994  0.69059  0.91804  Biso   1.000  O
  O214     1.0000 0.52055  0.75149  0.00328  Biso   1.000  O
  O215     1.0000 0.52058  0.75149  0.00328  Biso   1.000  O
  H899     1.0000 0.58347  0.72600  0.06780  Biso   1.000  H
  H900     1.0000 0.58343  0.72600  0.06780  Biso   1.000  H
  O216     1.0000 0.64086  0.73370  0.15730  Biso   1.000  O
  O217     1.0000 0.67657  0.66609  0.13809  Biso   1.000  O
  O218     1.0000 0.64087  0.73374  0.15730  Biso   1.000  O
  O219     1.0000 0.67655  0.66613  0.13809  Biso   1.000  O
  O220     1.0000 0.67654  0.66609  0.13809  Biso   1.000  O
  O221     1.0000 0.64090  0.73370  0.15730  Biso   1.000  O
  O222     1.0000 0.67658  0.66613  0.13809  Biso   1.000  O
  C1365    1.0000 0.13129  0.19638  0.63343  Biso   1.000  C
  C1366    1.0000 0.13128  0.19634  0.63343  Biso   1.000  C
  C1367    1.0000 0.13126  0.19638  0.63343  Biso   1.000  C
  C1368    1.0000 0.17419  0.11425  0.61093  Biso   1.000  C
  C1369    1.0000 0.17415  0.11425  0.61093  Biso   1.000  C
  C1370    1.0000 0.69824  0.96466  0.52344  Biso   1.000  C
  C1371    1.0000 0.69820  0.96466  0.52344  Biso   1.000  C
  C1372    1.0000 0.75658  0.07745  0.56364  Biso   1.000  C
  C1373    1.0000 0.75654  0.07745  0.56364  Biso   1.000  C
  C1374    1.0000 0.54172  0.07008  0.07438  Biso   1.000  C
  C1375    1.0000 0.54167  0.07006  0.07435  Biso   1.000  C
  C1376    1.0000 0.54173  0.07012  0.07438  Biso   1.000  C
  C1377    1.0000 0.54171  0.07006  0.07435  Biso   1.000  C
  C1378    1.0000 0.55522  0.13989  0.17581  Biso   1.000  C
  C1379    1.0000 0.55525  0.13989  0.17581  Biso   1.000  C
  C1380    1.0000 0.35389  0.88976  0.34881  Biso   1.000  C
  C1381    1.0000 0.35390  0.88980  0.34881  Biso   1.000  C
  C1382    1.0000 0.35393  0.88980  0.34881  Biso   1.000  C
  C1383    1.0000 0.40947  0.00303  0.38742  Biso   1.000  C
  C1384    1.0000 0.40941  0.00298  0.38738  Biso   1.000  C
  C1385    1.0000 0.40943  0.00303  0.38742  Biso   1.000  C
  C1386    1.0000 0.40946  0.00301  0.38738  Biso   1.000  C
  C1387    1.0000 0.40945  0.00298  0.38738  Biso   1.000  C
  C1388    1.0000 0.40942  0.00301  0.38738  Biso   1.000  C
  C1389    1.0000 0.48392  0.72556  0.91634  Biso   1.000  C
  C1390    1.0000 0.48397  0.72562  0.91638  Biso   1.000  C
  C1391    1.0000 0.48396  0.72558  0.91638  Biso   1.000  C
  C1392    1.0000 0.48393  0.72558  0.91638  Biso   1.000  C
  C1393    1.0000 0.48395  0.72556  0.91634  Biso   1.000  C
  C1394    1.0000 0.49065  0.76111  0.96688  Biso   1.000  C
  C1395    1.0000 0.49069  0.76111  0.96688  Biso   1.000  C
  C1396    1.0000 0.49064  0.76109  0.96684  Biso   1.000  C
  C1397    1.0000 0.49063  0.76106  0.96684  Biso   1.000  C
  C1398    1.0000 0.49067  0.76106  0.96684  Biso   1.000  C
  C1399    1.0000 0.67148  0.73821  0.20230  Biso   1.000  C
  C1400    1.0000 0.67145  0.73821  0.20230  Biso   1.000  C
  C1401    1.0000 0.69308  0.69731  0.19080  Biso   1.000  C
  C1402    1.0000 0.69304  0.69731  0.19080  Biso   1.000  C
  H901     1.0000 0.11700  0.22378  0.64094  Biso   1.000  H
  C1403    1.0000 0.18561  0.21089  0.64416  Biso   1.000  C
  H902     1.0000 0.11697  0.22378  0.64094  Biso   1.000  H
  C1404    1.0000 0.18555  0.21083  0.64412  Biso   1.000  C
  H903     1.0000 0.11696  0.22374  0.64094  Biso   1.000  H
  C1405    1.0000 0.18560  0.21085  0.64416  Biso   1.000  C
  C1406    1.0000 0.18556  0.21087  0.64412  Biso   1.000  C
  C1407    1.0000 0.18557  0.21089  0.64416  Biso   1.000  C
  C1408    1.0000 0.18558  0.21083  0.64412  Biso   1.000  C
  H904     1.0000 0.11699  0.22374  0.64094  Biso   1.000  H
  C1409    1.0000 0.20700  0.16989  0.63285  Biso   1.000  C
  H905     1.0000 0.18860  0.08687  0.60346  Biso   1.000  H
  C1410    1.0000 0.20696  0.16985  0.63285  Biso   1.000  C
  H906     1.0000 0.18855  0.08685  0.60342  Biso   1.000  H
  H907     1.0000 0.18855  0.08684  0.60346  Biso   1.000  H
  C1411    1.0000 0.20697  0.16989  0.63285  Biso   1.000  C
  H908     1.0000 0.18856  0.08687  0.60346  Biso   1.000  H
  C1412    1.0000 0.20699  0.16985  0.63285  Biso   1.000  C
  H909     1.0000 0.18858  0.08685  0.60342  Biso   1.000  H
  H910     1.0000 0.18859  0.08684  0.60346  Biso   1.000  H
  H911     1.0000 0.67862  0.92695  0.51004  Biso   1.000  H
  H912     1.0000 0.67863  0.92699  0.51004  Biso   1.000  H
  C1413    1.0000 0.67335  0.00275  0.53553  Biso   1.000  C
  C1414    1.0000 0.67334  0.00271  0.53553  Biso   1.000  C
  C1415    1.0000 0.67338  0.00275  0.53553  Biso   1.000  C
  C1416    1.0000 0.70256  0.05917  0.55555  Biso   1.000  C
  H913     1.0000 0.77608  0.11527  0.57704  Biso   1.000  H
  C1417    1.0000 0.70255  0.05913  0.55555  Biso   1.000  C
  H914     1.0000 0.77607  0.11524  0.57704  Biso   1.000  H
  C1418    1.0000 0.70259  0.05917  0.55555  Biso   1.000  C
  C1419    1.0000 0.56732  0.12717  0.09379  Biso   1.000  C
  H915     1.0000 0.53721  0.04677  0.04038  Biso   1.000  H
  C1420    1.0000 0.56733  0.12721  0.09379  Biso   1.000  C
  H916     1.0000 0.53722  0.04681  0.04038  Biso   1.000  H
  C1421    1.0000 0.56735  0.12717  0.09379  Biso   1.000  C
  H917     1.0000 0.55976  0.16332  0.20982  Biso   1.000  H
  C1422    1.0000 0.57401  0.16205  0.14448  Biso   1.000  C
  H918     1.0000 0.55971  0.16330  0.20978  Biso   1.000  H
  H919     1.0000 0.55972  0.16332  0.20982  Biso   1.000  H
  C1423    1.0000 0.57402  0.16209  0.14448  Biso   1.000  C
  H920     1.0000 0.55975  0.16330  0.20978  Biso   1.000  H
  C1424    1.0000 0.57405  0.16205  0.14448  Biso   1.000  C
  H921     1.0000 0.33531  0.85192  0.33591  Biso   1.000  H
  C1425    1.0000 0.35823  0.92590  0.39830  Biso   1.000  C
  H922     1.0000 0.33532  0.85196  0.33591  Biso   1.000  H
  C1426    1.0000 0.35820  0.92593  0.39830  Biso   1.000  C
  H923     1.0000 0.33527  0.85192  0.33591  Biso   1.000  H
  C1427    1.0000 0.35819  0.92590  0.39830  Biso   1.000  C
  C1428    1.0000 0.35824  0.92593  0.39830  Biso   1.000  C
  C1429    1.0000 0.38601  0.98252  0.41759  Biso   1.000  C
  C1430    1.0000 0.38602  0.98256  0.41759  Biso   1.000  C
  H924     1.0000 0.42804  0.04091  0.40040  Biso   1.000  H
  H925     1.0000 0.42807  0.04091  0.40040  Biso   1.000  H
  C1431    1.0000 0.45446  0.73001  0.87498  Biso   1.000  C
  C1432    1.0000 0.45443  0.72995  0.87494  Biso   1.000  C
  C1433    1.0000 0.45441  0.72999  0.87494  Biso   1.000  C
  C1434    1.0000 0.45444  0.72999  0.87494  Biso   1.000  C
  C1435    1.0000 0.46784  0.80097  0.97594  Biso   1.000  C
  C1436    1.0000 0.46785  0.80099  0.97598  Biso   1.000  C
  C1437    1.0000 0.46789  0.80099  0.97598  Biso   1.000  C
  C1438    1.0000 0.46788  0.80097  0.97594  Biso   1.000  C
  C1439    1.0000 0.68299  0.77539  0.25362  Biso   1.000  C
  C1440    1.0000 0.68295  0.77541  0.25358  Biso   1.000  C
  C1441    1.0000 0.68296  0.77543  0.25362  Biso   1.000  C
  C1442    1.0000 0.68298  0.77538  0.25358  Biso   1.000  C
  C1443    1.0000 0.68299  0.77541  0.25358  Biso   1.000  C
  C1444    1.0000 0.68300  0.77543  0.25362  Biso   1.000  C
  C1445    1.0000 0.68294  0.77538  0.25358  Biso   1.000  C
  C1446    1.0000 0.72608  0.69360  0.23042  Biso   1.000  C
  C1447    1.0000 0.72608  0.69362  0.23038  Biso   1.000  C
  C1448    1.0000 0.72607  0.69358  0.23038  Biso   1.000  C
  C1449    1.0000 0.22571  0.27005  0.67084  Biso   1.000  C
  C1450    1.0000 0.22568  0.27005  0.67084  Biso   1.000  C
  C1451    1.0000 0.22569  0.27009  0.67084  Biso   1.000  C
  C1452    1.0000 0.27000  0.19315  0.64993  Biso   1.000  C
  C1453    1.0000 0.26997  0.19315  0.64993  Biso   1.000  C
  C1454    1.0000 0.26998  0.19318  0.64993  Biso   1.000  C
  C1455    1.0000 0.61302  0.98337  0.52724  Biso   1.000  C
  C1456    1.0000 0.66659  0.09399  0.56945  Biso   1.000  C
  C1457    1.0000 0.66654  0.09393  0.56941  Biso   1.000  C
  C1458    1.0000 0.66655  0.09395  0.56945  Biso   1.000  C
  C1459    1.0000 0.66658  0.09397  0.56941  Biso   1.000  C
  C1460    1.0000 0.66657  0.09393  0.56941  Biso   1.000  C
  C1461    1.0000 0.66658  0.09395  0.56945  Biso   1.000  C
  C1462    1.0000 0.66655  0.09397  0.56941  Biso   1.000  C
  C1463    1.0000 0.58860  0.15088  0.06188  Biso   1.000  C
  C1464    1.0000 0.58864  0.15088  0.06188  Biso   1.000  C
  C1465    1.0000 0.60214  0.22310  0.15889  Biso   1.000  C
  C1466    1.0000 0.60211  0.22310  0.15889  Biso   1.000  C
  C1467    1.0000 0.33360  0.90610  0.43060  Biso   1.000  C
  C1468    1.0000 0.33361  0.90613  0.43060  Biso   1.000  C
  C1469    1.0000 0.33357  0.90613  0.43060  Biso   1.000  C
  C1470    1.0000 0.38717  0.01672  0.47282  Biso   1.000  C
  C1471    1.0000 0.38713  0.01672  0.47282  Biso   1.000  C
  H926     1.0000 0.44994  0.70619  0.84124  Biso   1.000  H
  C1472    1.0000 0.43164  0.76988  0.88415  Biso   1.000  C
  H927     1.0000 0.44993  0.70615  0.84124  Biso   1.000  H
  C1473    1.0000 0.43167  0.76988  0.88415  Biso   1.000  C
  H928     1.0000 0.44990  0.70619  0.84124  Biso   1.000  H
  C1474    1.0000 0.43835  0.80538  0.93466  Biso   1.000  C
  C1475    1.0000 0.43836  0.80541  0.93466  Biso   1.000  C
  C1476    1.0000 0.43831  0.80538  0.93466  Biso   1.000  C
  H929     1.0000 0.47226  0.82468  0.00967  Biso   1.000  H
  H930     1.0000 0.47223  0.82471  0.00967  Biso   1.000  H
  H931     1.0000 0.47222  0.82468  0.00967  Biso   1.000  H
  H932     1.0000 0.47227  0.82471  0.00967  Biso   1.000  H
  H933     1.0000 0.66859  0.80279  0.26129  Biso   1.000  H
  C1477    1.0000 0.71610  0.77160  0.29320  Biso   1.000  C
  H934     1.0000 0.66856  0.80283  0.26129  Biso   1.000  H
  C1478    1.0000 0.71608  0.77163  0.29320  Biso   1.000  C
  H935     1.0000 0.66855  0.80279  0.26129  Biso   1.000  H
  C1479    1.0000 0.71607  0.77160  0.29320  Biso   1.000  C
  H936     1.0000 0.66860  0.80283  0.26129  Biso   1.000  H
  C1480    1.0000 0.73759  0.73069  0.28169  Biso   1.000  C
  H937     1.0000 0.74047  0.66619  0.22271  Biso   1.000  H
  C1481    1.0000 0.73757  0.73073  0.28169  Biso   1.000  C
  H938     1.0000 0.74047  0.66621  0.22267  Biso   1.000  H
  C1482    1.0000 0.73756  0.73069  0.28169  Biso   1.000  C
  H939     1.0000 0.74048  0.66623  0.22271  Biso   1.000  H
  H940     1.0000 0.74046  0.66617  0.22267  Biso   1.000  H
  H941     1.0000 0.74051  0.66619  0.22271  Biso   1.000  H
  C1483    1.0000 0.73760  0.73073  0.28169  Biso   1.000  C
  C1484    1.0000 0.26121  0.27335  0.63924  Biso   1.000  C
  H942     1.0000 0.21082  0.29927  0.67936  Biso   1.000  H
  C1485    1.0000 0.26260  0.26939  0.71836  Biso   1.000  C
  C1486    1.0000 0.26117  0.27335  0.63924  Biso   1.000  C
  H943     1.0000 0.21077  0.29925  0.67932  Biso   1.000  H
  C1487    1.0000 0.26259  0.26937  0.71832  Biso   1.000  C
  H944     1.0000 0.21079  0.29927  0.67936  Biso   1.000  H
  C1488    1.0000 0.26259  0.26935  0.71836  Biso   1.000  C
  C1489    1.0000 0.26255  0.26937  0.71832  Biso   1.000  C
  H945     1.0000 0.21081  0.29925  0.67932  Biso   1.000  H
  C1490    1.0000 0.28188  0.23196  0.62545  Biso   1.000  C
  H946     1.0000 0.28550  0.16457  0.64125  Biso   1.000  H
  C1491    1.0000 0.28409  0.22848  0.70686  Biso   1.000  C
  H947     1.0000 0.28546  0.16457  0.64125  Biso   1.000  H
  C1492    1.0000 0.28408  0.22845  0.70686  Biso   1.000  C
  C1493    1.0000 0.61418  0.01756  0.58247  Biso   1.000  C
  C1494    1.0000 0.61415  0.01756  0.58247  Biso   1.000  C
  C1495    1.0000 0.61414  0.01752  0.58247  Biso   1.000  C
  C1496    1.0000 0.61417  0.01752  0.58247  Biso   1.000  C
  H948     1.0000 0.59363  0.94327  0.51194  Biso   1.000  H
  H949     1.0000 0.59360  0.94327  0.51194  Biso   1.000  H
  C1497    1.0000 0.59506  0.01296  0.49792  Biso   1.000  C
  C1498    1.0000 0.59503  0.01296  0.49792  Biso   1.000  C
  C1499    1.0000 0.59505  0.01292  0.49792  Biso   1.000  C
  C1500    1.0000 0.64197  0.07419  0.60175  Biso   1.000  C
  C1501    1.0000 0.64196  0.07415  0.60175  Biso   1.000  C
  C1502    1.0000 0.64200  0.07419  0.60175  Biso   1.000  C
  C1503    1.0000 0.62257  0.06983  0.51853  Biso   1.000  C
  H950     1.0000 0.68506  0.13425  0.58494  Biso   1.000  H
  C1504    1.0000 0.62254  0.06983  0.51853  Biso   1.000  C
  C1505    1.0000 0.62258  0.06987  0.51853  Biso   1.000  C
  H951     1.0000 0.68510  0.13425  0.58494  Biso   1.000  H
  C1506    1.0000 0.62255  0.06987  0.51853  Biso   1.000  C
  C1507    1.0000 0.64602  0.18790  0.09549  Biso   1.000  C
  H952     1.0000 0.58350  0.12419  0.02679  Biso   1.000  H
  C1508    1.0000 0.56184  0.19470  0.06540  Biso   1.000  C
  C1509    1.0000 0.56181  0.19470  0.06540  Biso   1.000  C
  H953     1.0000 0.58354  0.12419  0.02679  Biso   1.000  H
  C1510    1.0000 0.64606  0.18790  0.09549  Biso   1.000  C
  C1511    1.0000 0.65144  0.22511  0.14499  Biso   1.000  C
  H954     1.0000 0.60733  0.24920  0.19429  Biso   1.000  H
  C1512    1.0000 0.56852  0.23020  0.11590  Biso   1.000  C
  C1513    1.0000 0.65139  0.22507  0.14499  Biso   1.000  C
  C1514    1.0000 0.56856  0.23020  0.11590  Biso   1.000  C
  H955     1.0000 0.60736  0.24920  0.19429  Biso   1.000  H
  C1515    1.0000 0.65143  0.22507  0.14499  Biso   1.000  C
  C1516    1.0000 0.65140  0.22511  0.14499  Biso   1.000  C
  C1517    1.0000 0.29763  0.94092  0.44451  Biso   1.000  C
  C1518    1.0000 0.29761  0.94095  0.44451  Biso   1.000  C
  C1519    1.0000 0.29760  0.94092  0.44451  Biso   1.000  C
  C1520    1.0000 0.37762  0.93025  0.48153  Biso   1.000  C
  H956     1.0000 0.31513  0.86583  0.41511  Biso   1.000  H
  C1521    1.0000 0.37761  0.93023  0.48149  Biso   1.000  C
  H957     1.0000 0.31510  0.86583  0.41511  Biso   1.000  H
  C1522    1.0000 0.32685  0.99733  0.46453  Biso   1.000  C
  C1523    1.0000 0.32681  0.99735  0.46449  Biso   1.000  C
  C1524    1.0000 0.32681  0.99733  0.46453  Biso   1.000  C
  C1525    1.0000 0.32680  0.99731  0.46449  Biso   1.000  C
  C1526    1.0000 0.32684  0.99735  0.46449  Biso   1.000  C
  C1527    1.0000 0.40513  0.98712  0.50213  Biso   1.000  C
  C1528    1.0000 0.40513  0.98714  0.50209  Biso   1.000  C
  C1529    1.0000 0.40514  0.98716  0.50213  Biso   1.000  C
  C1530    1.0000 0.40508  0.98711  0.50209  Biso   1.000  C
  C1531    1.0000 0.40510  0.98712  0.50213  Biso   1.000  C
  C1532    1.0000 0.40512  0.98711  0.50209  Biso   1.000  C
  H958     1.0000 0.40656  0.05681  0.48811  Biso   1.000  H
  H959     1.0000 0.40652  0.05681  0.48811  Biso   1.000  H
  H960     1.0000 0.40657  0.05685  0.48811  Biso   1.000  H
  C1533    1.0000 0.39805  0.77698  0.84117  Biso   1.000  C
  C1534    1.0000 0.39801  0.77698  0.84117  Biso   1.000  C
  C1535    1.0000 0.41154  0.84918  0.93814  Biso   1.000  C
  C1536    1.0000 0.41156  0.84920  0.93818  Biso   1.000  C
  C1537    1.0000 0.41159  0.84920  0.93818  Biso   1.000  C
  C1538    1.0000 0.73019  0.80694  0.35013  Biso   1.000  C
  C1539    1.0000 0.73018  0.80692  0.35009  Biso   1.000  C
  C1540    1.0000 0.73021  0.80692  0.35009  Biso   1.000  C
  C1541    1.0000 0.73023  0.80694  0.35013  Biso   1.000  C
  C1542    1.0000 0.77448  0.73003  0.32921  Biso   1.000  C
  C1543    1.0000 0.77452  0.73003  0.32921  Biso   1.000  C
  C1544    1.0000 0.27110  0.31317  0.62073  Biso   1.000  C
  C1545    1.0000 0.27106  0.31317  0.62073  Biso   1.000  C
  C1546    1.0000 0.27109  0.31313  0.62073  Biso   1.000  C
  C1547    1.0000 0.27411  0.30648  0.76964  Biso   1.000  C
  C1548    1.0000 0.27408  0.30648  0.76964  Biso   1.000  C
  C1549    1.0000 0.27410  0.30644  0.76964  Biso   1.000  C
  C1550    1.0000 0.31259  0.23027  0.59315  Biso   1.000  C
  C1551    1.0000 0.31258  0.23025  0.59312  Biso   1.000  C
  C1552    1.0000 0.31258  0.23023  0.59315  Biso   1.000  C
  C1553    1.0000 0.31254  0.23025  0.59312  Biso   1.000  C
  C1554    1.0000 0.31720  0.22469  0.74644  Biso   1.000  C
  C1555    1.0000 0.31719  0.22465  0.74644  Biso   1.000  C
  C1556    1.0000 0.31717  0.22469  0.74644  Biso   1.000  C
  C1557    1.0000 0.59072  0.99705  0.61263  Biso   1.000  C
  C1558    1.0000 0.59073  0.99709  0.61263  Biso   1.000  C
  C1559    1.0000 0.55522  0.98536  0.45025  Biso   1.000  C
  C1560    1.0000 0.55521  0.98534  0.45021  Biso   1.000  C
  C1561    1.0000 0.55518  0.98534  0.45021  Biso   1.000  C
  C1562    1.0000 0.64630  0.11032  0.65125  Biso   1.000  C
  C1563    1.0000 0.64627  0.11032  0.65125  Biso   1.000  C
  C1564    1.0000 0.64626  0.11028  0.65125  Biso   1.000  C
  C1565    1.0000 0.64629  0.11028  0.65125  Biso   1.000  C
  C1566    1.0000 0.61007  0.09904  0.49153  Biso   1.000  C
  C1567    1.0000 0.61003  0.09904  0.49153  Biso   1.000  C
  C1568    1.0000 0.69033  0.18777  0.08039  Biso   1.000  C
  C1569    1.0000 0.69029  0.18777  0.08039  Biso   1.000  C
  C1570    1.0000 0.69030  0.18781  0.08039  Biso   1.000  C
  C1571    1.0000 0.69034  0.18781  0.08039  Biso   1.000  C
  C1572    1.0000 0.53230  0.19909  0.02408  Biso   1.000  C
  C1573    1.0000 0.53234  0.19909  0.02408  Biso   1.000  C
  C1574    1.0000 0.70133  0.26220  0.17930  Biso   1.000  C
  C1575    1.0000 0.70136  0.26220  0.17930  Biso   1.000  C
  C1576    1.0000 0.54574  0.27008  0.12508  Biso   1.000  C
  C1577    1.0000 0.54570  0.27008  0.12508  Biso   1.000  C
  C1578    1.0000 0.54571  0.27011  0.12508  Biso   1.000  C
  C1579    1.0000 0.54575  0.27011  0.12508  Biso   1.000  C
  C1580    1.0000 0.24362  0.92263  0.43641  Biso   1.000  C
  C1581    1.0000 0.24358  0.92263  0.43641  Biso   1.000  C
  C1582    1.0000 0.39013  0.90104  0.50852  Biso   1.000  C
  C1583    1.0000 0.39009  0.90104  0.50852  Biso   1.000  C
  C1584    1.0000 0.30196  0.03542  0.47661  Biso   1.000  C
  C1585    1.0000 0.44497  0.01472  0.54981  Biso   1.000  C
  C1586    1.0000 0.44493  0.01472  0.54981  Biso   1.000  C
  H961     1.0000 0.39282  0.75087  0.80573  Biso   1.000  H
  H962     1.0000 0.39283  0.75088  0.80577  Biso   1.000  H
  C1587    1.0000 0.42614  0.83803  0.85557  Biso   1.000  C
  C1588    1.0000 0.34874  0.77495  0.85503  Biso   1.000  C
  C1589    1.0000 0.34876  0.77501  0.85507  Biso   1.000  C
  H963     1.0000 0.39286  0.75088  0.80577  Biso   1.000  H
  C1590    1.0000 0.42618  0.83803  0.85557  Biso   1.000  C
  C1591    1.0000 0.42613  0.83801  0.85553  Biso   1.000  C
  C1592    1.0000 0.34875  0.77497  0.85507  Biso   1.000  C
  C1593    1.0000 0.42612  0.83798  0.85553  Biso   1.000  C
  C1594    1.0000 0.34870  0.77495  0.85503  Biso   1.000  C
  C1595    1.0000 0.34872  0.77497  0.85507  Biso   1.000  C
  H964     1.0000 0.39285  0.75087  0.80573  Biso   1.000  H
  C1596    1.0000 0.42616  0.83798  0.85553  Biso   1.000  C
  C1597    1.0000 0.35413  0.81218  0.90456  Biso   1.000  C
  H965     1.0000 0.41665  0.87590  0.97327  Biso   1.000  H
  C1598    1.0000 0.43288  0.87291  0.90627  Biso   1.000  C
  C1599    1.0000 0.43284  0.87291  0.90627  Biso   1.000  C
  C1600    1.0000 0.35417  0.81218  0.90456  Biso   1.000  C
  H966     1.0000 0.41669  0.87590  0.97327  Biso   1.000  H
  C1601    1.0000 0.43283  0.87287  0.90627  Biso   1.000  C
  C1602    1.0000 0.43287  0.87287  0.90627  Biso   1.000  C
  C1603    1.0000 0.71831  0.76812  0.37460  Biso   1.000  C
  H967     1.0000 0.71469  0.83552  0.35880  Biso   1.000  H
  C1604    1.0000 0.79319  0.83019  0.36721  Biso   1.000  C
  C1605    1.0000 0.71828  0.76812  0.37460  Biso   1.000  C
  H968     1.0000 0.71470  0.83555  0.35880  Biso   1.000  H
  C1606    1.0000 0.79320  0.83023  0.36721  Biso   1.000  C
  C1607    1.0000 0.79322  0.83019  0.36721  Biso   1.000  C
  C1608    1.0000 0.73898  0.72673  0.36082  Biso   1.000  C
  H969     1.0000 0.78937  0.70081  0.32069  Biso   1.000  H
  C1609    1.0000 0.81459  0.78919  0.35590  Biso   1.000  C
  C1610    1.0000 0.81460  0.78923  0.35590  Biso   1.000  C
  C1611    1.0000 0.73902  0.72673  0.36082  Biso   1.000  C
  H970     1.0000 0.78941  0.70081  0.32069  Biso   1.000  H
  C1612    1.0000 0.30171  0.31137  0.58843  Biso   1.000  C
  C1613    1.0000 0.25150  0.35958  0.63583  Biso   1.000  C
  C1614    1.0000 0.30167  0.31137  0.58843  Biso   1.000  C
  C1615    1.0000 0.25149  0.35954  0.63583  Biso   1.000  C
  C1616    1.0000 0.30166  0.31133  0.58843  Biso   1.000  C
  C1617    1.0000 0.25146  0.35958  0.63583  Biso   1.000  C
  C1618    1.0000 0.30170  0.31133  0.58843  Biso   1.000  C
  H971     1.0000 0.25972  0.33389  0.77734  Biso   1.000  H
  C1619    1.0000 0.30711  0.30277  0.80925  Biso   1.000  C
  H972     1.0000 0.25968  0.33385  0.77734  Biso   1.000  H
  H973     1.0000 0.25969  0.33389  0.77734  Biso   1.000  H
  C1620    1.0000 0.30708  0.30277  0.80925  Biso   1.000  C
  H974     1.0000 0.25971  0.33385  0.77734  Biso   1.000  H
  C1621    1.0000 0.32238  0.26998  0.57464  Biso   1.000  C
  C1622    1.0000 0.33411  0.18457  0.57735  Biso   1.000  C
  C1623    1.0000 0.32237  0.26994  0.57464  Biso   1.000  C
  C1624    1.0000 0.33406  0.18455  0.57731  Biso   1.000  C
  C1625    1.0000 0.33406  0.18453  0.57735  Biso   1.000  C
  C1626    1.0000 0.33407  0.18457  0.57735  Biso   1.000  C
  C1627    1.0000 0.33410  0.18455  0.57731  Biso   1.000  C
  C1628    1.0000 0.33410  0.18453  0.57735  Biso   1.000  C
  C1629    1.0000 0.32871  0.26187  0.79775  Biso   1.000  C
  H975     1.0000 0.33160  0.19729  0.73877  Biso   1.000  H
  H976     1.0000 0.33159  0.19727  0.73873  Biso   1.000  H
  H977     1.0000 0.33160  0.19725  0.73877  Biso   1.000  H
  C1630    1.0000 0.32868  0.26187  0.79775  Biso   1.000  C
  H978     1.0000 0.33156  0.19727  0.73873  Biso   1.000  H
  C1631    1.0000 0.59497  0.03318  0.66205  Biso   1.000  C
  C1632    1.0000 0.59496  0.03314  0.66205  Biso   1.000  C
  C1633    1.0000 0.59501  0.03318  0.66205  Biso   1.000  C
  H979     1.0000 0.57211  0.95915  0.59962  Biso   1.000  H
  H980     1.0000 0.57212  0.95917  0.59966  Biso   1.000  H
  H981     1.0000 0.57215  0.95917  0.59966  Biso   1.000  H
  H982     1.0000 0.57214  0.95915  0.59962  Biso   1.000  H
  C1634    1.0000 0.53012  0.92406  0.42244  Biso   1.000  C
  C1635    1.0000 0.53008  0.92406  0.42244  Biso   1.000  C
  C1636    1.0000 0.54265  0.01466  0.42314  Biso   1.000  C
  C1637    1.0000 0.54264  0.01462  0.42314  Biso   1.000  C
  C1638    1.0000 0.54268  0.01466  0.42314  Biso   1.000  C
  C1639    1.0000 0.62278  0.08988  0.68134  Biso   1.000  C
  C1640    1.0000 0.62277  0.08984  0.68134  Biso   1.000  C
  C1641    1.0000 0.62281  0.08988  0.68134  Biso   1.000  C
  H983     1.0000 0.66488  0.14816  0.66414  Biso   1.000  H
  C1642    1.0000 0.57005  0.07146  0.44382  Biso   1.000  C
  C1643    1.0000 0.64147  0.15967  0.50993  Biso   1.000  C
  C1644    1.0000 0.57004  0.07142  0.44382  Biso   1.000  C
  C1645    1.0000 0.64146  0.15964  0.50993  Biso   1.000  C
  C1646    1.0000 0.57008  0.07146  0.44382  Biso   1.000  C
  C1647    1.0000 0.64150  0.15967  0.50993  Biso   1.000  C
  C1648    1.0000 0.74024  0.22490  0.11478  Biso   1.000  C
  C1649    1.0000 0.68491  0.14699  0.02698  Biso   1.000  C
  C1650    1.0000 0.74020  0.22490  0.11478  Biso   1.000  C
  C1651    1.0000 0.68495  0.14699  0.02698  Biso   1.000  C
  H984     1.0000 0.52794  0.17540  0.99038  Biso   1.000  H
  H985     1.0000 0.52792  0.17539  0.99035  Biso   1.000  H
  H986     1.0000 0.52793  0.17537  0.99038  Biso   1.000  H
  H987     1.0000 0.52789  0.17539  0.99035  Biso   1.000  H
  C1652    1.0000 0.50950  0.23897  0.03318  Biso   1.000  C
  C1653    1.0000 0.50951  0.23901  0.03318  Biso   1.000  C
  C1654    1.0000 0.50954  0.23897  0.03318  Biso   1.000  C
  C1655    1.0000 0.74575  0.26211  0.16419  Biso   1.000  C
  C1656    1.0000 0.70876  0.29642  0.23561  Biso   1.000  C
  C1657    1.0000 0.74570  0.26207  0.16419  Biso   1.000  C
  C1658    1.0000 0.70872  0.29639  0.23561  Biso   1.000  C
  C1659    1.0000 0.70873  0.29642  0.23561  Biso   1.000  C
  C1660    1.0000 0.74574  0.26207  0.16419  Biso   1.000  C
  C1661    1.0000 0.70875  0.29639  0.23561  Biso   1.000  C
  C1662    1.0000 0.74571  0.26211  0.16419  Biso   1.000  C
  C1663    1.0000 0.51623  0.27450  0.08368  Biso   1.000  C
  H988     1.0000 0.55025  0.29389  0.15881  Biso   1.000  H
  C1664    1.0000 0.51622  0.27446  0.08368  Biso   1.000  C
  H989     1.0000 0.55021  0.29387  0.15877  Biso   1.000  H
  H990     1.0000 0.55023  0.29393  0.15881  Biso   1.000  H
  H991     1.0000 0.55024  0.29387  0.15877  Biso   1.000  H
  H992     1.0000 0.55026  0.29393  0.15881  Biso   1.000  H
  C1665    1.0000 0.21885  0.96074  0.44853  Biso   1.000  C
  C1666    1.0000 0.21881  0.96076  0.44849  Biso   1.000  C
  C1667    1.0000 0.21881  0.96074  0.44853  Biso   1.000  C
  C1668    1.0000 0.21880  0.96072  0.44849  Biso   1.000  C
  H993     1.0000 0.22411  0.88481  0.42301  Biso   1.000  H
  H994     1.0000 0.22412  0.88485  0.42301  Biso   1.000  H
  H995     1.0000 0.22408  0.88481  0.42301  Biso   1.000  H
  C1669    1.0000 0.43015  0.92862  0.55624  Biso   1.000  C
  C1670    1.0000 0.35873  0.84041  0.49013  Biso   1.000  C
  C1671    1.0000 0.43011  0.92864  0.55620  Biso   1.000  C
  C1672    1.0000 0.35869  0.84043  0.49009  Biso   1.000  C
  C1673    1.0000 0.43012  0.92866  0.55624  Biso   1.000  C
  C1674    1.0000 0.35870  0.84045  0.49013  Biso   1.000  C
  C1675    1.0000 0.43010  0.92860  0.55620  Biso   1.000  C
  C1676    1.0000 0.43011  0.92862  0.55624  Biso   1.000  C
  C1677    1.0000 0.35869  0.84041  0.49013  Biso   1.000  C
  C1678    1.0000 0.43014  0.92864  0.55620  Biso   1.000  C
  C1679    1.0000 0.35872  0.84043  0.49009  Biso   1.000  C
  C1680    1.0000 0.43016  0.92866  0.55624  Biso   1.000  C
  C1681    1.0000 0.35874  0.84045  0.49013  Biso   1.000  C
  C1682    1.0000 0.24805  0.01713  0.46852  Biso   1.000  C
  C1683    1.0000 0.24804  0.01710  0.46852  Biso   1.000  C
  C1684    1.0000 0.24808  0.01713  0.46852  Biso   1.000  C
  H996     1.0000 0.32158  0.07313  0.49001  Biso   1.000  H
  H997     1.0000 0.32154  0.07313  0.49001  Biso   1.000  H
  C1685    1.0000 0.45755  0.98542  0.57692  Biso   1.000  C
  C1686    1.0000 0.45752  0.98546  0.57692  Biso   1.000  C
  C1687    1.0000 0.45751  0.98542  0.57692  Biso   1.000  C
  C1688    1.0000 0.45756  0.98546  0.57692  Biso   1.000  C
  C1689    1.0000 0.47008  0.07602  0.57761  Biso   1.000  C
  C1690    1.0000 0.47004  0.07602  0.57761  Biso   1.000  C
  C1691    1.0000 0.47005  0.07606  0.57761  Biso   1.000  C
  C1692    1.0000 0.47009  0.07606  0.57761  Biso   1.000  C
  C1693    1.0000 0.44494  0.86019  0.82424  Biso   1.000  C
  C1694    1.0000 0.44498  0.86019  0.82424  Biso   1.000  C
  C1695    1.0000 0.29883  0.73788  0.82076  Biso   1.000  C
  C1696    1.0000 0.29887  0.73788  0.82076  Biso   1.000  C
  C1697    1.0000 0.30987  0.81231  0.91967  Biso   1.000  C
  C1698    1.0000 0.30986  0.81227  0.91967  Biso   1.000  C
  C1699    1.0000 0.30983  0.81231  0.91967  Biso   1.000  C
  C1700    1.0000 0.45847  0.93000  0.92567  Biso   1.000  C
  C1701    1.0000 0.45843  0.93000  0.92567  Biso   1.000  C
  C1702    1.0000 0.45846  0.92996  0.92567  Biso   1.000  C
  C1703    1.0000 0.68760  0.76981  0.40690  Biso   1.000  C
  C1704    1.0000 0.68758  0.76985  0.40690  Biso   1.000  C
  C1705    1.0000 0.68757  0.76981  0.40690  Biso   1.000  C
  C1706    1.0000 0.68761  0.76985  0.40690  Biso   1.000  C
  C1707    1.0000 0.82601  0.88583  0.38913  Biso   1.000  C
  C1708    1.0000 0.82599  0.88581  0.38909  Biso   1.000  C
  C1709    1.0000 0.82604  0.88583  0.38913  Biso   1.000  C
  C1710    1.0000 0.72909  0.68691  0.37933  Biso   1.000  C
  C1711    1.0000 0.72909  0.68693  0.37929  Biso   1.000  C
  C1712    1.0000 0.72908  0.68689  0.37929  Biso   1.000  C
  C1713    1.0000 0.86890  0.80370  0.36662  Biso   1.000  C
  C1714    1.0000 0.86890  0.80372  0.36659  Biso   1.000  C
  C1715    1.0000 0.86891  0.80374  0.36662  Biso   1.000  C
  H998     1.0000 0.30831  0.33797  0.57604  Biso   1.000  H
  H999     1.0000 0.30827  0.33797  0.57604  Biso   1.000  H
  H1000    1.0000 0.30826  0.33793  0.57604  Biso   1.000  H
  H1001    1.0000 0.30830  0.33793  0.57604  Biso   1.000  H
  H1002    1.0000 0.21511  0.34576  0.63463  Biso   1.000  H
  H1003    1.0000 0.25280  0.37599  0.61186  Biso   1.000  H
  C1716    1.0000 0.28653  0.40377  0.69125  Biso   1.000  C
  H1004    1.0000 0.21507  0.34576  0.63463  Biso   1.000  H
  H1005    1.0000 0.25278  0.37594  0.61182  Biso   1.000  H
  C1717    1.0000 0.28649  0.40377  0.69125  Biso   1.000  C
  H1006    1.0000 0.25279  0.37596  0.61186  Biso   1.000  H
  C1718    1.0000 0.28648  0.40374  0.69125  Biso   1.000  C
  H1007    1.0000 0.25275  0.37598  0.61182  Biso   1.000  H
  C1719    1.0000 0.28652  0.40374  0.69125  Biso   1.000  C
  H1008    1.0000 0.25279  0.37598  0.61182  Biso   1.000  H
  O223     1.0000 0.32362  0.33399  0.86196  Biso   1.000  O
  O224     1.0000 0.32361  0.33395  0.86196  Biso   1.000  O
  O225     1.0000 0.32358  0.33399  0.86196  Biso   1.000  O
  H1009    1.0000 0.34288  0.26878  0.55303  Biso   1.000  H
  H1010    1.0000 0.34287  0.26874  0.55303  Biso   1.000  H
  H1011    1.0000 0.34400  0.18198  0.54684  Biso   1.000  H
  H1012    1.0000 0.30648  0.14948  0.56814  Biso   1.000  H
  C1720    1.0000 0.38230  0.19408  0.62034  Biso   1.000  C
  H1013    1.0000 0.34396  0.18194  0.54684  Biso   1.000  H
  H1014    1.0000 0.30647  0.14944  0.56814  Biso   1.000  H
  C1721    1.0000 0.38226  0.19405  0.62034  Biso   1.000  C
  H1015    1.0000 0.34397  0.18198  0.54684  Biso   1.000  H
  H1016    1.0000 0.30644  0.14948  0.56814  Biso   1.000  H
  C1722    1.0000 0.38227  0.19408  0.62034  Biso   1.000  C
  H1017    1.0000 0.34399  0.18194  0.54684  Biso   1.000  H
  C1723    1.0000 0.38229  0.19405  0.62034  Biso   1.000  C
  O226     1.0000 0.35933  0.26638  0.84275  Biso   1.000  O
  O227     1.0000 0.35929  0.26638  0.84275  Biso   1.000  O
  O228     1.0000 0.57710  0.02099  0.69807  Biso   1.000  O
  O229     1.0000 0.57704  0.02094  0.69803  Biso   1.000  O
  O230     1.0000 0.57706  0.02096  0.69807  Biso   1.000  O
  O231     1.0000 0.57709  0.02097  0.69803  Biso   1.000  O
  O232     1.0000 0.57708  0.02094  0.69803  Biso   1.000  O
  O233     1.0000 0.57709  0.02096  0.69807  Biso   1.000  O
  O234     1.0000 0.57705  0.02097  0.69803  Biso   1.000  O
  H1018    1.0000 0.55630  0.90763  0.42682  Biso   1.000  H
  H1019    1.0000 0.51452  0.91246  0.38573  Biso   1.000  H
  C1724    1.0000 0.48783  0.90517  0.44425  Biso   1.000  C
  H1020    1.0000 0.51448  0.91246  0.38573  Biso   1.000  H
  H1021    1.0000 0.51451  0.91242  0.38573  Biso   1.000  H
  C1725    1.0000 0.48780  0.90511  0.44421  Biso   1.000  C
  H1022    1.0000 0.55631  0.90767  0.42682  Biso   1.000  H
  H1023    1.0000 0.55627  0.90763  0.42682  Biso   1.000  H
  C1726    1.0000 0.48778  0.90515  0.44421  Biso   1.000  C
  C1727    1.0000 0.48779  0.90517  0.44425  Biso   1.000  C
  C1728    1.0000 0.48781  0.90515  0.44421  Biso   1.000  C
  H1024    1.0000 0.51602  0.99614  0.39123  Biso   1.000  H
  H1025    1.0000 0.51598  0.99614  0.39123  Biso   1.000  H
  H1026    1.0000 0.51603  0.99617  0.39123  Biso   1.000  H
  O235     1.0000 0.62130  0.11328  0.73044  Biso   1.000  O
  O236     1.0000 0.62127  0.11328  0.73044  Biso   1.000  O
  O237     1.0000 0.62126  0.11324  0.73044  Biso   1.000  O
  O238     1.0000 0.62129  0.11324  0.73044  Biso   1.000  O
  H1027    1.0000 0.56175  0.09104  0.42573  Biso   1.000  H
  H1028    1.0000 0.56176  0.09107  0.42573  Biso   1.000  H
  H1029    1.0000 0.67897  0.16665  0.52143  Biso   1.000  H
  H1030    1.0000 0.63427  0.16976  0.48173  Biso   1.000  H
  C1729    1.0000 0.62619  0.19525  0.55543  Biso   1.000  C
  H1031    1.0000 0.63424  0.16976  0.48173  Biso   1.000  H
  C1730    1.0000 0.62615  0.19525  0.55543  Biso   1.000  C
  H1032    1.0000 0.67896  0.16662  0.52143  Biso   1.000  H
  H1033    1.0000 0.63426  0.16973  0.48173  Biso   1.000  H
  C1731    1.0000 0.62614  0.19522  0.55543  Biso   1.000  C
  H1034    1.0000 0.67900  0.16665  0.52143  Biso   1.000  H
  C1732    1.0000 0.62618  0.19522  0.55543  Biso   1.000  C
  H1035    1.0000 0.76994  0.22482  0.10471  Biso   1.000  H
  H1036    1.0000 0.76992  0.22476  0.10467  Biso   1.000  H
  H1037    1.0000 0.76993  0.22480  0.10467  Biso   1.000  H
  H1038    1.0000 0.71702  0.15928  0.01920  Biso   1.000  H
  H1039    1.0000 0.65593  0.14578  0.00158  Biso   1.000  H
  C1733    1.0000 0.67451  0.08788  0.02319  Biso   1.000  C
  H1040    1.0000 0.65589  0.14578  0.00158  Biso   1.000  H
  H1041    1.0000 0.71703  0.15931  0.01920  Biso   1.000  H
  H1042    1.0000 0.71705  0.15928  0.01920  Biso   1.000  H
  C1734    1.0000 0.67455  0.08788  0.02319  Biso   1.000  C
  O239     1.0000 0.47964  0.24859  0.99677  Biso   1.000  O
  O240     1.0000 0.47961  0.24859  0.99677  Biso   1.000  O
  H1043    1.0000 0.77904  0.28691  0.18720  Biso   1.000  H
  H1044    1.0000 0.77907  0.28691  0.18720  Biso   1.000  H
  H1045    1.0000 0.74557  0.31010  0.25652  Biso   1.000  H
  H1046    1.0000 0.68746  0.27411  0.24831  Biso   1.000  H
  C1735    1.0000 0.69145  0.34471  0.23801  Biso   1.000  C
  H1047    1.0000 0.74552  0.31008  0.25648  Biso   1.000  H
  H1048    1.0000 0.68743  0.27411  0.24831  Biso   1.000  H
  H1049    1.0000 0.74554  0.31014  0.25652  Biso   1.000  H
  H1050    1.0000 0.74556  0.31008  0.25648  Biso   1.000  H
  H1051    1.0000 0.74558  0.31014  0.25652  Biso   1.000  H
  O241     1.0000 0.49024  0.30948  0.08198  Biso   1.000  O
  O242     1.0000 0.49020  0.30948  0.08198  Biso   1.000  O
  O243     1.0000 0.49021  0.30951  0.08198  Biso   1.000  O
  O244     1.0000 0.49025  0.30951  0.08198  Biso   1.000  O
  O245     1.0000 0.16592  0.94963  0.44222  Biso   1.000  O
  O246     1.0000 0.16593  0.94966  0.44222  Biso   1.000  O
  O247     1.0000 0.16589  0.94963  0.44222  Biso   1.000  O
  H1052    1.0000 0.43844  0.90905  0.57432  Biso   1.000  H
  H1053    1.0000 0.43840  0.90905  0.57432  Biso   1.000  H
  H1054    1.0000 0.32123  0.83343  0.47863  Biso   1.000  H
  H1055    1.0000 0.36592  0.83032  0.51832  Biso   1.000  H
  C1736    1.0000 0.37401  0.80483  0.44462  Biso   1.000  C
  H1056    1.0000 0.32120  0.83346  0.47863  Biso   1.000  H
  H1057    1.0000 0.36593  0.83036  0.51832  Biso   1.000  H
  C1737    1.0000 0.37402  0.80486  0.44462  Biso   1.000  C
  H1058    1.0000 0.32119  0.83343  0.47863  Biso   1.000  H
  H1059    1.0000 0.36588  0.83032  0.51832  Biso   1.000  H
  H1060    1.0000 0.32124  0.83346  0.47863  Biso   1.000  H
  O248     1.0000 0.21388  0.04543  0.47793  Biso   1.000  O
  O249     1.0000 0.21383  0.04541  0.47789  Biso   1.000  O
  O250     1.0000 0.21384  0.04543  0.47793  Biso   1.000  O
  O251     1.0000 0.21386  0.04541  0.47789  Biso   1.000  O
  H1061    1.0000 0.48418  0.00395  0.60883  Biso   1.000  H
  H1062    1.0000 0.48417  0.00391  0.60883  Biso   1.000  H
  H1063    1.0000 0.48567  0.08762  0.61433  Biso   1.000  H
  H1064    1.0000 0.44389  0.09245  0.57324  Biso   1.000  H
  C1738    1.0000 0.51237  0.09491  0.55581  Biso   1.000  C
  H1065    1.0000 0.48564  0.08762  0.61433  Biso   1.000  H
  H1066    1.0000 0.44383  0.09240  0.57320  Biso   1.000  H
  C1739    1.0000 0.51233  0.09491  0.55581  Biso   1.000  C
  H1067    1.0000 0.48568  0.08766  0.61433  Biso   1.000  H
  H1068    1.0000 0.44385  0.09245  0.57324  Biso   1.000  H
  C1740    1.0000 0.51238  0.09495  0.55581  Biso   1.000  C
  H1069    1.0000 0.44388  0.09243  0.57320  Biso   1.000  H
  H1070    1.0000 0.44387  0.09240  0.57320  Biso   1.000  H
  H1071    1.0000 0.44384  0.09243  0.57320  Biso   1.000  H
  C1741    1.0000 0.47054  0.91717  0.84365  Biso   1.000  C
  H1072    1.0000 0.44043  0.83677  0.79024  Biso   1.000  H
  C1742    1.0000 0.47055  0.91720  0.84365  Biso   1.000  C
  C1743    1.0000 0.47058  0.91720  0.84365  Biso   1.000  C
  C1744    1.0000 0.25445  0.73797  0.83586  Biso   1.000  C
  C1745    1.0000 0.29143  0.70366  0.76445  Biso   1.000  C
  C1746    1.0000 0.25441  0.73797  0.83586  Biso   1.000  C
  C1747    1.0000 0.25446  0.73801  0.83586  Biso   1.000  C
  C1748    1.0000 0.29144  0.70369  0.76445  Biso   1.000  C
  C1749    1.0000 0.29139  0.70366  0.76445  Biso   1.000  C
  C1750    1.0000 0.31524  0.85309  0.97307  Biso   1.000  C
  C1751    1.0000 0.25995  0.77518  0.88528  Biso   1.000  C
  C1752    1.0000 0.25994  0.77516  0.88524  Biso   1.000  C
  C1753    1.0000 0.31528  0.85309  0.97307  Biso   1.000  C
  C1754    1.0000 0.25996  0.77522  0.88528  Biso   1.000  C
  C1755    1.0000 0.31525  0.85312  0.97307  Biso   1.000  C
  C1756    1.0000 0.25991  0.77516  0.88524  Biso   1.000  C
  C1757    1.0000 0.31529  0.85312  0.97307  Biso   1.000  C
  H1073    1.0000 0.46298  0.95331  0.95967  Biso   1.000  H
  H1074    1.0000 0.46295  0.95331  0.95967  Biso   1.000  H
  C1758    1.0000 0.47726  0.95210  0.89438  Biso   1.000  C
  H1075    1.0000 0.46297  0.95327  0.95967  Biso   1.000  H
  C1759    1.0000 0.47724  0.95204  0.89434  Biso   1.000  C
  C1760    1.0000 0.47730  0.95210  0.89438  Biso   1.000  C
  C1761    1.0000 0.47725  0.95208  0.89434  Biso   1.000  C
  C1762    1.0000 0.67781  0.73010  0.42541  Biso   1.000  C
  C1763    1.0000 0.66608  0.81551  0.42270  Biso   1.000  C
  C1764    1.0000 0.67779  0.73014  0.42541  Biso   1.000  C
  C1765    1.0000 0.66609  0.81555  0.42270  Biso   1.000  C
  C1766    1.0000 0.66612  0.81551  0.42270  Biso   1.000  C
  C1767    1.0000 0.67782  0.73014  0.42541  Biso   1.000  C
  C1768    1.0000 0.67778  0.73010  0.42541  Biso   1.000  C
  H1076    1.0000 0.81160  0.91321  0.39660  Biso   1.000  H
  C1769    1.0000 0.88020  0.90032  0.39981  Biso   1.000  C
  H1077    1.0000 0.81161  0.91325  0.39660  Biso   1.000  H
  C1770    1.0000 0.88021  0.90036  0.39981  Biso   1.000  C
  H1078    1.0000 0.81163  0.91321  0.39660  Biso   1.000  H
  C1771    1.0000 0.88024  0.90032  0.39981  Biso   1.000  C
  C1772    1.0000 0.69848  0.68871  0.41163  Biso   1.000  C
  C1773    1.0000 0.74869  0.64050  0.36422  Biso   1.000  C
  C1774    1.0000 0.69848  0.68873  0.41159  Biso   1.000  C
  C1775    1.0000 0.74866  0.64052  0.36418  Biso   1.000  C
  C1776    1.0000 0.69849  0.68875  0.41163  Biso   1.000  C
  C1777    1.0000 0.74867  0.64054  0.36422  Biso   1.000  C
  C1778    1.0000 0.69851  0.68869  0.41159  Biso   1.000  C
  C1779    1.0000 0.74868  0.64048  0.36418  Biso   1.000  C
  C1780    1.0000 0.69852  0.68871  0.41163  Biso   1.000  C
  C1781    1.0000 0.74869  0.64052  0.36418  Biso   1.000  C
  C1782    1.0000 0.74870  0.64054  0.36422  Biso   1.000  C
  C1783    1.0000 0.69847  0.68869  0.41159  Biso   1.000  C
  C1784    1.0000 0.74865  0.64048  0.36418  Biso   1.000  C
  C1785    1.0000 0.90170  0.85932  0.38851  Biso   1.000  C
  H1079    1.0000 0.88319  0.77630  0.35911  Biso   1.000  H
  H1080    1.0000 0.88320  0.77634  0.35911  Biso   1.000  H
  H1081    1.0000 0.88323  0.77630  0.35911  Biso   1.000  H
  H1082    1.0000 0.32101  0.42187  0.69094  Biso   1.000  H
  H1083    1.0000 0.28961  0.38607  0.71375  Biso   1.000  H
  H1084    1.0000 0.27084  0.43069  0.70357  Biso   1.000  H
  H1085    1.0000 0.27079  0.43067  0.70353  Biso   1.000  H
  H1086    1.0000 0.32100  0.42184  0.69094  Biso   1.000  H
  H1087    1.0000 0.27079  0.43065  0.70357  Biso   1.000  H
  H1088    1.0000 0.32097  0.42187  0.69094  Biso   1.000  H
  H1089    1.0000 0.28958  0.38607  0.71375  Biso   1.000  H
  H1090    1.0000 0.27080  0.43069  0.70357  Biso   1.000  H
  H1091    1.0000 0.27082  0.43067  0.70353  Biso   1.000  H
  H1092    1.0000 0.27083  0.43065  0.70357  Biso   1.000  H
  B125     1.0000 0.35623  0.31050  0.88396  Biso   1.000  B
  B126     1.0000 0.35622  0.31046  0.88396  Biso   1.000  B
  B127     1.0000 0.35619  0.31050  0.88396  Biso   1.000  B
  H1093    1.0000 0.41028  0.18985  0.60655  Biso   1.000  H
  H1094    1.0000 0.37281  0.16737  0.63366  Biso   1.000  H
  H1095    1.0000 0.39399  0.23077  0.64784  Biso   1.000  H
  H1096    1.0000 0.37276  0.16735  0.63362  Biso   1.000  H
  H1097    1.0000 0.37276  0.16733  0.63366  Biso   1.000  H
  H1098    1.0000 0.39398  0.23073  0.64784  Biso   1.000  H
  H1099    1.0000 0.41029  0.18989  0.60655  Biso   1.000  H
  H1100    1.0000 0.39396  0.23077  0.64784  Biso   1.000  H
  H1101    1.0000 0.37277  0.16737  0.63366  Biso   1.000  H
  H1102    1.0000 0.37280  0.16735  0.63362  Biso   1.000  H
  H1103    1.0000 0.37280  0.16733  0.63366  Biso   1.000  H
  B128     1.0000 0.59320  0.07367  0.74295  Biso   1.000  B
  B129     1.0000 0.59316  0.07367  0.74295  Biso   1.000  B
  B130     1.0000 0.59315  0.07363  0.74295  Biso   1.000  B
  B131     1.0000 0.59319  0.07363  0.74295  Biso   1.000  B
  H1104    1.0000 0.46382  0.92415  0.44243  Biso   1.000  H
  H1105    1.0000 0.50389  0.91354  0.47972  Biso   1.000  H
  H1106    1.0000 0.46888  0.86583  0.42442  Biso   1.000  H
  H1107    1.0000 0.46378  0.92415  0.44243  Biso   1.000  H
  H1108    1.0000 0.50393  0.91354  0.47972  Biso   1.000  H
  H1109    1.0000 0.46892  0.86583  0.42442  Biso   1.000  H
  H1110    1.0000 0.50390  0.91358  0.47972  Biso   1.000  H
  H1111    1.0000 0.46889  0.86586  0.42442  Biso   1.000  H
  H1112    1.0000 0.50394  0.91358  0.47972  Biso   1.000  H
  H1113    1.0000 0.46893  0.86586  0.42442  Biso   1.000  H
  H1114    1.0000 0.64988  0.20236  0.58785  Biso   1.000  H
  H1115    1.0000 0.62846  0.22986  0.55443  Biso   1.000  H
  H1116    1.0000 0.59068  0.17546  0.55226  Biso   1.000  H
  H1117    1.0000 0.59066  0.17545  0.55222  Biso   1.000  H
  H1118    1.0000 0.62845  0.22982  0.55443  Biso   1.000  H
  H1119    1.0000 0.59067  0.17543  0.55226  Biso   1.000  H
  H1120    1.0000 0.62850  0.22986  0.55443  Biso   1.000  H
  H1121    1.0000 0.66694  0.06229  0.98798  Biso   1.000  H
  H1122    1.0000 0.66690  0.06227  0.98794  Biso   1.000  H
  H1123    1.0000 0.66691  0.06229  0.98798  Biso   1.000  H
  H1124    1.0000 0.66693  0.06227  0.98794  Biso   1.000  H
  H1125    1.0000 0.64511  0.07727  0.03457  Biso   1.000  H
  H1126    1.0000 0.70531  0.08780  0.04460  Biso   1.000  H
  H1127    1.0000 0.70530  0.08778  0.04456  Biso   1.000  H
  H1128    1.0000 0.64512  0.07731  0.03457  Biso   1.000  H
  H1129    1.0000 0.70533  0.08778  0.04456  Biso   1.000  H
  H1130    1.0000 0.70535  0.08780  0.04460  Biso   1.000  H
  B132     1.0000 0.46873  0.29280  0.02969  Biso   1.000  B
  H1131    1.0000 0.70486  0.35961  0.21621  Biso   1.000  H
  H1132    1.0000 0.70508  0.37322  0.27302  Biso   1.000  H
  H1133    1.0000 0.65354  0.33181  0.22620  Biso   1.000  H
  H1134    1.0000 0.70483  0.35961  0.21621  Biso   1.000  H
  H1135    1.0000 0.70503  0.37321  0.27298  Biso   1.000  H
  H1136    1.0000 0.70505  0.37322  0.27302  Biso   1.000  H
  H1137    1.0000 0.70507  0.37321  0.27298  Biso   1.000  H
  H1138    1.0000 0.65357  0.33181  0.22620  Biso   1.000  H
  B133     1.0000 0.16606  0.00382  0.46251  Biso   1.000  B
  B134     1.0000 0.16603  0.00382  0.46251  Biso   1.000  B
  H1139    1.0000 0.35031  0.79772  0.41221  Biso   1.000  H
  H1140    1.0000 0.37173  0.77023  0.44563  Biso   1.000  H
  H1141    1.0000 0.40952  0.82462  0.44780  Biso   1.000  H
  H1142    1.0000 0.37169  0.77024  0.44559  Biso   1.000  H
  H1143    1.0000 0.40949  0.82465  0.44780  Biso   1.000  H
  H1144    1.0000 0.37170  0.77023  0.44563  Biso   1.000  H
  H1145    1.0000 0.35027  0.79772  0.41221  Biso   1.000  H
  H1146    1.0000 0.37168  0.77021  0.44559  Biso   1.000  H
  H1147    1.0000 0.40948  0.82462  0.44780  Biso   1.000  H
  H1148    1.0000 0.37173  0.77024  0.44559  Biso   1.000  H
  H1149    1.0000 0.40953  0.82465  0.44780  Biso   1.000  H
  H1150    1.0000 0.49627  0.08654  0.52033  Biso   1.000  H
  H1151    1.0000 0.53637  0.07593  0.55763  Biso   1.000  H
  H1152    1.0000 0.53127  0.13426  0.57564  Biso   1.000  H
  H1153    1.0000 0.49625  0.08652  0.52030  Biso   1.000  H
  H1154    1.0000 0.53634  0.07593  0.55763  Biso   1.000  H
  H1155    1.0000 0.53125  0.13420  0.57560  Biso   1.000  H
  H1156    1.0000 0.53130  0.13424  0.57560  Biso   1.000  H
  H1157    1.0000 0.49630  0.08654  0.52033  Biso   1.000  H
  H1158    1.0000 0.53131  0.13426  0.57564  Biso   1.000  H
  H1159    1.0000 0.53126  0.13424  0.57560  Biso   1.000  H
  O252     1.0000 0.49395  0.94478  0.81785  Biso   1.000  O
  O253     1.0000 0.49392  0.94478  0.81785  Biso   1.000  O
  H1160    1.0000 0.22112  0.71317  0.81286  Biso   1.000  H
  H1161    1.0000 0.22116  0.71317  0.81286  Biso   1.000  H
  H1162    1.0000 0.31273  0.72597  0.75174  Biso   1.000  H
  H1163    1.0000 0.25462  0.68998  0.74353  Biso   1.000  H
  C1786    1.0000 0.30874  0.65538  0.76205  Biso   1.000  C
  C1787    1.0000 0.30870  0.65538  0.76205  Biso   1.000  C
  H1164    1.0000 0.25461  0.68994  0.74353  Biso   1.000  H
  H1165    1.0000 0.31269  0.72597  0.75174  Biso   1.000  H
  H1166    1.0000 0.34426  0.85430  0.99848  Biso   1.000  H
  C1788    1.0000 0.32565  0.91220  0.97687  Biso   1.000  C
  H1167    1.0000 0.28314  0.84080  0.98086  Biso   1.000  H
  H1168    1.0000 0.34425  0.85428  0.99844  Biso   1.000  H
  C1789    1.0000 0.32568  0.91220  0.97687  Biso   1.000  C
  H1169    1.0000 0.28318  0.84080  0.98086  Biso   1.000  H
  H1170    1.0000 0.28313  0.84077  0.98086  Biso   1.000  H
  H1171    1.0000 0.28317  0.84077  0.98086  Biso   1.000  H
  H1172    1.0000 0.23021  0.77527  0.89535  Biso   1.000  H
  H1173    1.0000 0.23025  0.77527  0.89535  Biso   1.000  H
  H1174    1.0000 0.23026  0.77530  0.89535  Biso   1.000  H
  O254     1.0000 0.50529  0.00369  0.90085  Biso   1.000  O
  O255     1.0000 0.50528  0.00365  0.90085  Biso   1.000  O
  O256     1.0000 0.50533  0.00369  0.90085  Biso   1.000  O
  H1175    1.0000 0.65731  0.73130  0.44702  Biso   1.000  H
  H1176    1.0000 0.65729  0.73134  0.44702  Biso   1.000  H
  H1177    1.0000 0.65732  0.73134  0.44702  Biso   1.000  H
  H1178    1.0000 0.65619  0.81810  0.45322  Biso   1.000  H
  H1179    1.0000 0.69371  0.85060  0.43192  Biso   1.000  H
  C1790    1.0000 0.61789  0.80600  0.37971  Biso   1.000  C
  H1180    1.0000 0.65620  0.81814  0.45322  Biso   1.000  H
  H1181    1.0000 0.69369  0.85064  0.43192  Biso   1.000  H
  C1791    1.0000 0.61790  0.80603  0.37971  Biso   1.000  C
  H1182    1.0000 0.65623  0.81814  0.45322  Biso   1.000  H
  H1183    1.0000 0.69372  0.85064  0.43192  Biso   1.000  H
  H1184    1.0000 0.65622  0.81810  0.45322  Biso   1.000  H
  C1792    1.0000 0.61793  0.80600  0.37971  Biso   1.000  C
  O257     1.0000 0.91880  0.95181  0.42092  Biso   1.000  O
  O258     1.0000 0.91881  0.95185  0.42092  Biso   1.000  O
  O259     1.0000 0.91883  0.95181  0.42092  Biso   1.000  O
  H1185    1.0000 0.69189  0.66212  0.42402  Biso   1.000  H
  H1186    1.0000 0.69190  0.66215  0.42402  Biso   1.000  H
  H1187    1.0000 0.69192  0.66212  0.42402  Biso   1.000  H
  H1188    1.0000 0.78509  0.65433  0.36542  Biso   1.000  H
  H1189    1.0000 0.74739  0.62409  0.38820  Biso   1.000  H
  C1793    1.0000 0.71367  0.59631  0.30880  Biso   1.000  C
  H1190    1.0000 0.78507  0.65431  0.36539  Biso   1.000  H
  H1191    1.0000 0.74736  0.62412  0.38820  Biso   1.000  H
  C1794    1.0000 0.71368  0.59634  0.30880  Biso   1.000  C
  H1192    1.0000 0.78512  0.65433  0.36542  Biso   1.000  H
  C1795    1.0000 0.71370  0.59631  0.30880  Biso   1.000  C
  H1193    1.0000 0.74740  0.62412  0.38820  Biso   1.000  H
  H1194    1.0000 0.74735  0.62409  0.38820  Biso   1.000  H
  O260     1.0000 0.95481  0.88520  0.40311  Biso   1.000  O
  O261     1.0000 0.95478  0.88524  0.40311  Biso   1.000  O
  O262     1.0000 0.95482  0.88524  0.40311  Biso   1.000  O
  O263     1.0000 0.95477  0.88520  0.40311  Biso   1.000  O
  C1796    1.0000 0.38323  0.33140  0.93926  Biso   1.000  C
  C1797    1.0000 0.38322  0.33136  0.93926  Biso   1.000  C
  C1798    1.0000 0.38319  0.33140  0.93926  Biso   1.000  C
  C1799    1.0000 0.58501  0.08206  0.79245  Biso   1.000  C
  C1800    1.0000 0.58497  0.08206  0.79245  Biso   1.000  C
  C1801    1.0000 0.58502  0.08210  0.79245  Biso   1.000  C
  C1802    1.0000 0.58498  0.08210  0.79245  Biso   1.000  C
  C1803    1.0000 0.43502  0.32157  0.00878  Biso   1.000  C
  C1804    1.0000 0.43503  0.32161  0.00878  Biso   1.000  C
  C1805    1.0000 0.11485  0.01691  0.46081  Biso   1.000  C
  C1806    1.0000 0.11486  0.01694  0.46081  Biso   1.000  C
  B135     1.0000 0.51631  0.00138  0.85766  Biso   1.000  B
  B136     1.0000 0.51627  0.00138  0.85766  Biso   1.000  B
  B137     1.0000 0.51626  0.00135  0.85766  Biso   1.000  B
  B138     1.0000 0.51630  0.00135  0.85766  Biso   1.000  B
  H1195    1.0000 0.29533  0.64047  0.78385  Biso   1.000  H
  H1196    1.0000 0.29511  0.62686  0.72704  Biso   1.000  H
  H1197    1.0000 0.34662  0.66828  0.77386  Biso   1.000  H
  H1198    1.0000 0.34666  0.66828  0.77386  Biso   1.000  H
  H1199    1.0000 0.29529  0.64047  0.78385  Biso   1.000  H
  H1200    1.0000 0.35508  0.92281  0.96548  Biso   1.000  H
  H1201    1.0000 0.29485  0.91228  0.95545  Biso   1.000  H
  H1202    1.0000 0.35506  0.92276  0.96544  Biso   1.000  H
  H1203    1.0000 0.29488  0.91228  0.95545  Biso   1.000  H
  H1204    1.0000 0.35503  0.92279  0.96544  Biso   1.000  H
  H1205    1.0000 0.35505  0.92281  0.96548  Biso   1.000  H
  H1206    1.0000 0.35507  0.92279  0.96544  Biso   1.000  H
  H1207    1.0000 0.33325  0.93779  0.01207  Biso   1.000  H
  H1208    1.0000 0.33328  0.93779  0.01207  Biso   1.000  H
  H1209    1.0000 0.58992  0.81023  0.39350  Biso   1.000  H
  H1210    1.0000 0.62738  0.83271  0.36639  Biso   1.000  H
  H1211    1.0000 0.60620  0.76931  0.35222  Biso   1.000  H
  H1212    1.0000 0.58988  0.81023  0.39350  Biso   1.000  H
  H1213    1.0000 0.62739  0.83275  0.36639  Biso   1.000  H
  H1214    1.0000 0.60617  0.76935  0.35222  Biso   1.000  H
  H1215    1.0000 0.60616  0.76931  0.35222  Biso   1.000  H
  H1216    1.0000 0.62742  0.83271  0.36639  Biso   1.000  H
  H1217    1.0000 0.60621  0.76935  0.35222  Biso   1.000  H
  B139     1.0000 0.96740  0.94180  0.42290  Biso   1.000  B
  B140     1.0000 0.96741  0.94184  0.42290  Biso   1.000  B
  B141     1.0000 0.96743  0.94180  0.42290  Biso   1.000  B
  H1218    1.0000 0.67919  0.57821  0.30911  Biso   1.000  H
  H1219    1.0000 0.71058  0.61401  0.28630  Biso   1.000  H
  H1220    1.0000 0.72936  0.56939  0.29649  Biso   1.000  H
  H1221    1.0000 0.67916  0.57824  0.30911  Biso   1.000  H
  H1222    1.0000 0.71055  0.61401  0.28630  Biso   1.000  H
  H1223    1.0000 0.72937  0.56943  0.29649  Biso   1.000  H
  H1224    1.0000 0.67915  0.57821  0.30911  Biso   1.000  H
  H1225    1.0000 0.72939  0.56939  0.29649  Biso   1.000  H
  H1226    1.0000 0.67920  0.57824  0.30911  Biso   1.000  H
  C1807    1.0000 0.41243  0.30410  0.95615  Biso   1.000  C
  C1808    1.0000 0.37675  0.37630  0.97497  Biso   1.000  C
  C1809    1.0000 0.41242  0.30406  0.95615  Biso   1.000  C
  C1810    1.0000 0.37671  0.37630  0.97497  Biso   1.000  C
  C1811    1.0000 0.37670  0.37626  0.97497  Biso   1.000  C
  C1812    1.0000 0.41240  0.30410  0.95615  Biso   1.000  C
  C1813    1.0000 0.37674  0.37626  0.97497  Biso   1.000  C
  C1814    1.0000 0.55479  0.03857  0.79977  Biso   1.000  C
  C1815    1.0000 0.55478  0.03855  0.79973  Biso   1.000  C
  C1816    1.0000 0.60850  0.13529  0.83307  Biso   1.000  C
  C1817    1.0000 0.60849  0.13527  0.83303  Biso   1.000  C
  C1818    1.0000 0.60849  0.13525  0.83307  Biso   1.000  C
  C1819    1.0000 0.60854  0.13529  0.83307  Biso   1.000  C
  C1820    1.0000 0.42853  0.36649  0.04460  Biso   1.000  C
  C1821    1.0000 0.42852  0.36647  0.04456  Biso   1.000  C
  C1822    1.0000 0.06624  0.97444  0.44373  Biso   1.000  C
  C1823    1.0000 0.06620  0.97445  0.44369  Biso   1.000  C
  C1824    1.0000 0.06620  0.97444  0.44373  Biso   1.000  C
  C1825    1.0000 0.06619  0.97442  0.44369  Biso   1.000  C
  C1826    1.0000 0.06624  0.97445  0.44369  Biso   1.000  C
  C1827    1.0000 0.11814  0.07161  0.47762  Biso   1.000  C
  C1828    1.0000 0.11815  0.07165  0.47762  Biso   1.000  C
  C1829    1.0000 0.11818  0.07161  0.47762  Biso   1.000  C
  C1830    1.0000 0.54810  0.04839  0.84756  Biso   1.000  C
  C1831    1.0000 0.54809  0.04835  0.84756  Biso   1.000  C
  C1832    1.0000 0.02083  0.98661  0.44342  Biso   1.000  C
  C1833    1.0000 0.02081  0.98665  0.44342  Biso   1.000  C
  C1834    1.0000 0.02080  0.98661  0.44342  Biso   1.000  C
  C1835    1.0000 0.02084  0.98665  0.44342  Biso   1.000  C
  H1227    1.0000 0.41672  0.27408  0.93225  Biso   1.000  H
  H1228    1.0000 0.41669  0.27408  0.93225  Biso   1.000  H
  H1229    1.0000 0.35726  0.39462  0.96366  Biso   1.000  H
  H1230    1.0000 0.35721  0.39458  0.96366  Biso   1.000  H
  H1231    1.0000 0.35722  0.39462  0.96366  Biso   1.000  H
  H1232    1.0000 0.35725  0.39458  0.96366  Biso   1.000  H
  C1836    1.0000 0.39935  0.39381  0.02760  Biso   1.000  C
  C1837    1.0000 0.39930  0.39379  0.02756  Biso   1.000  C
  C1838    1.0000 0.39931  0.39381  0.02760  Biso   1.000  C
  C1839    1.0000 0.39933  0.39379  0.02756  Biso   1.000  C
  H1233    1.0000 0.53910  0.00298  0.77254  Biso   1.000  H
  H1234    1.0000 0.53905  0.00295  0.77254  Biso   1.000  H
  H1235    1.0000 0.53909  0.00295  0.77254  Biso   1.000  H
  H1236    1.0000 0.53906  0.00298  0.77254  Biso   1.000  H
  C1840    1.0000 0.60183  0.14508  0.88098  Biso   1.000  C
  C1841    1.0000 0.60178  0.14506  0.88094  Biso   1.000  C
  C1842    1.0000 0.60179  0.14508  0.88098  Biso   1.000  C
  C1843    1.0000 0.60182  0.14506  0.88094  Biso   1.000  C
  H1237    1.0000 0.62872  0.16440  0.82827  Biso   1.000  H
  H1238    1.0000 0.62866  0.16435  0.82823  Biso   1.000  H
  H1239    1.0000 0.62867  0.16436  0.82827  Biso   1.000  H
  H1240    1.0000 0.62870  0.16438  0.82823  Biso   1.000  H
  H1241    1.0000 0.62869  0.16435  0.82823  Biso   1.000  H
  H1242    1.0000 0.62871  0.16436  0.82827  Biso   1.000  H
  H1243    1.0000 0.62867  0.16438  0.82823  Biso   1.000  H
  H1244    1.0000 0.44375  0.37820  0.07988  Biso   1.000  H
  H1245    1.0000 0.44372  0.37820  0.07988  Biso   1.000  H
  H1246    1.0000 0.06403  0.93783  0.43250  Biso   1.000  H
  H1247    1.0000 0.06399  0.93783  0.43250  Biso   1.000  H
  C1844    1.0000 0.07274  0.08383  0.47731  Biso   1.000  C
  C1845    1.0000 0.07278  0.08383  0.47731  Biso   1.000  C
  H1248    1.0000 0.15077  0.10004  0.48912  Biso   1.000  H
  H1249    1.0000 0.15072  0.10000  0.48912  Biso   1.000  H
  H1250    1.0000 0.15076  0.10000  0.48912  Biso   1.000  H
  H1251    1.0000 0.15073  0.10004  0.48912  Biso   1.000  H
  C1846    1.0000 0.57162  0.10160  0.88814  Biso   1.000  C
  C1847    1.0000 0.57157  0.10156  0.88814  Biso   1.000  C
  C1848    1.0000 0.57161  0.10156  0.88814  Biso   1.000  C
  C1849    1.0000 0.57158  0.10160  0.88814  Biso   1.000  C
  C1850    1.0000 0.02405  0.04132  0.46023  Biso   1.000  C
  C1851    1.0000 0.02404  0.04130  0.46019  Biso   1.000  C
  C1852    1.0000 0.02406  0.04136  0.46023  Biso   1.000  C
  B142     1.0000 0.39284  0.44348  0.06819  Biso   1.000  B
  B143     1.0000 0.39281  0.44348  0.06819  Biso   1.000  B
  B144     1.0000 0.39282  0.44351  0.06819  Biso   1.000  B
  B145     1.0000 0.39285  0.44351  0.06819  Biso   1.000  B
  B146     1.0000 0.62652  0.20600  0.92737  Biso   1.000  B
  B147     1.0000 0.62650  0.20598  0.92734  Biso   1.000  B
  B148     1.0000 0.62651  0.20596  0.92737  Biso   1.000  B
  B149     1.0000 0.62655  0.20600  0.92737  Biso   1.000  B
  B150     1.0000 0.08016  0.14671  0.49690  Biso   1.000  B
  B151     1.0000 0.08012  0.14671  0.49690  Biso   1.000  B
  B152     1.0000 0.08017  0.14674  0.49690  Biso   1.000  B
  H1252    1.0000 0.56710  0.10818  0.92017  Biso   1.000  H
  H1253    1.0000 0.56713  0.10818  0.92017  Biso   1.000  H
  H1254    1.0000 0.99365  0.04942  0.46011  Biso   1.000  H
  H1255    1.0000 0.99369  0.04942  0.46011  Biso   1.000  H
  O264     1.0000 0.36073  0.47220  0.05471  Biso   1.000  O
  O265     1.0000 0.41113  0.45969  0.12028  Biso   1.000  O
  O266     1.0000 0.36072  0.47218  0.05467  Biso   1.000  O
  O267     1.0000 0.36077  0.47220  0.05471  Biso   1.000  O
  O268     1.0000 0.41117  0.45969  0.12028  Biso   1.000  O
  O269     1.0000 0.62364  0.21530  0.97408  Biso   1.000  O
  O270     1.0000 0.66061  0.24880  0.92246  Biso   1.000  O
  O271     1.0000 0.62359  0.21528  0.97404  Biso   1.000  O
  O272     1.0000 0.62359  0.21526  0.97408  Biso   1.000  O
  O273     1.0000 0.66060  0.24876  0.92246  Biso   1.000  O
  O274     1.0000 0.62362  0.21528  0.97404  Biso   1.000  O
  O275     1.0000 0.66064  0.24880  0.92246  Biso   1.000  O
  O276     1.0000 0.62363  0.21526  0.97408  Biso   1.000  O
  O277     1.0000 0.03437  0.16192  0.49381  Biso   1.000  O
  O278     1.0000 0.12476  0.18754  0.50581  Biso   1.000  O
  O279     1.0000 0.03433  0.16192  0.49381  Biso   1.000  O
  O280     1.0000 0.12475  0.18750  0.50581  Biso   1.000  O
  O281     1.0000 0.12480  0.18754  0.50581  Biso   1.000  O
  C1853    1.0000 0.36225  0.50648  0.10289  Biso   1.000  C
  C1854    1.0000 0.36222  0.50648  0.10289  Biso   1.000  C
  C1855    1.0000 0.36223  0.50652  0.10289  Biso   1.000  C
  C1856    1.0000 0.36226  0.50652  0.10289  Biso   1.000  C
  C1857    1.0000 0.39234  0.49989  0.14239  Biso   1.000  C
  C1858    1.0000 0.39235  0.49993  0.14239  Biso   1.000  C
  C1859    1.0000 0.39237  0.49989  0.14239  Biso   1.000  C
  C1860    1.0000 0.65513  0.27169  0.00409  Biso   1.000  C
  C1861    1.0000 0.65509  0.27169  0.00409  Biso   1.000  C
  C1862    1.0000 0.67634  0.28970  0.97149  Biso   1.000  C
  C1863    1.0000 0.67629  0.28968  0.97145  Biso   1.000  C
  C1864    1.0000 0.67629  0.28966  0.97149  Biso   1.000  C
  C1865    1.0000 0.67633  0.28968  0.97145  Biso   1.000  C
  C1866    1.0000 0.67633  0.28966  0.97149  Biso   1.000  C
  C1867    1.0000 0.05756  0.21793  0.50961  Biso   1.000  C
  C1868    1.0000 0.05755  0.21790  0.50961  Biso   1.000  C
  C1869    1.0000 0.05759  0.21793  0.50961  Biso   1.000  C
  C1870    1.0000 0.11148  0.23474  0.51724  Biso   1.000  C
  C1871    1.0000 0.11143  0.23472  0.51720  Biso   1.000  C
  C1872    1.0000 0.11144  0.23474  0.51724  Biso   1.000  C
  C1873    1.0000 0.11147  0.23472  0.51720  Biso   1.000  C
  C1874    1.0000 0.33723  0.54439  0.11458  Biso   1.000  C
  C1875    1.0000 0.33724  0.54442  0.11458  Biso   1.000  C
  C1876    1.0000 0.33727  0.54439  0.11458  Biso   1.000  C
  C1877    1.0000 0.39737  0.53121  0.19359  Biso   1.000  C
  C1878    1.0000 0.39733  0.53121  0.19359  Biso   1.000  C
  C1879    1.0000 0.66941  0.30801  0.05618  Biso   1.000  C
  C1880    1.0000 0.66944  0.30797  0.05618  Biso   1.000  C
  C1881    1.0000 0.66945  0.30801  0.05618  Biso   1.000  C
  C1882    1.0000 0.66940  0.30797  0.05618  Biso   1.000  C
  C1883    1.0000 0.71183  0.34379  0.99077  Biso   1.000  C
  C1884    1.0000 0.71180  0.34379  0.99077  Biso   1.000  C
  C1885    1.0000 0.03279  0.25594  0.51491  Biso   1.000  C
  C1886    1.0000 0.03274  0.25590  0.51491  Biso   1.000  C
  C1887    1.0000 0.03275  0.25594  0.51491  Biso   1.000  C
  C1888    1.0000 0.14059  0.28963  0.53021  Biso   1.000  C
  C1889    1.0000 0.14055  0.28963  0.53021  Biso   1.000  C
  H1256    1.0000 0.31714  0.54882  0.08821  Biso   1.000  H
  C1890    1.0000 0.34237  0.57570  0.16578  Biso   1.000  C
  H1257    1.0000 0.31712  0.54877  0.08817  Biso   1.000  H
  C1891    1.0000 0.34233  0.57570  0.16578  Biso   1.000  C
  H1258    1.0000 0.31713  0.54881  0.08817  Biso   1.000  H
  H1259    1.0000 0.31718  0.54882  0.08821  Biso   1.000  H
  C1892    1.0000 0.37235  0.56911  0.20528  Biso   1.000  C
  H1260    1.0000 0.41745  0.52672  0.22000  Biso   1.000  H
  C1893    1.0000 0.37234  0.56908  0.20528  Biso   1.000  C
  H1261    1.0000 0.41748  0.52672  0.22000  Biso   1.000  H
  C1894    1.0000 0.37238  0.56911  0.20528  Biso   1.000  C
  H1262    1.0000 0.65532  0.29598  0.07810  Biso   1.000  H
  C1895    1.0000 0.70492  0.36212  0.07551  Biso   1.000  C
  H1263    1.0000 0.65536  0.29598  0.07810  Biso   1.000  H
  C1896    1.0000 0.70493  0.36206  0.07547  Biso   1.000  C
  H1264    1.0000 0.65537  0.29602  0.07810  Biso   1.000  H
  C1897    1.0000 0.70496  0.36212  0.07551  Biso   1.000  C
  C1898    1.0000 0.70494  0.36210  0.07547  Biso   1.000  C
  C1899    1.0000 0.70490  0.36206  0.07547  Biso   1.000  C
  H1265    1.0000 0.65533  0.29602  0.07810  Biso   1.000  H
  H1266    1.0000 0.72592  0.35578  0.96885  Biso   1.000  H
  H1267    1.0000 0.72595  0.35578  0.96885  Biso   1.000  H
  C1900    1.0000 0.72603  0.38000  0.04278  Biso   1.000  C
  C1901    1.0000 0.72602  0.37997  0.04278  Biso   1.000  C
  H1268    1.0000 0.99665  0.24461  0.50980  Biso   1.000  H
  H1269    1.0000 0.99668  0.24461  0.50980  Biso   1.000  H
  C1902    1.0000 0.06176  0.31082  0.52793  Biso   1.000  C
  C1903    1.0000 0.06177  0.31086  0.52793  Biso   1.000  C
  C1904    1.0000 0.06179  0.31082  0.52793  Biso   1.000  C
  C1905    1.0000 0.11570  0.32766  0.53563  Biso   1.000  C
  H1270    1.0000 0.17658  0.30092  0.53532  Biso   1.000  H
  C1906    1.0000 0.11564  0.32760  0.53559  Biso   1.000  C
  H1271    1.0000 0.17654  0.30092  0.53532  Biso   1.000  H
  C1907    1.0000 0.11567  0.32766  0.53563  Biso   1.000  C
  H1272    1.0000 0.17659  0.30096  0.53532  Biso   1.000  H
  C1908    1.0000 0.11569  0.32764  0.53559  Biso   1.000  C
  C1909    1.0000 0.11565  0.32764  0.53559  Biso   1.000  C
  C1910    1.0000 0.31387  0.62053  0.18460  Biso   1.000  C
  C1911    1.0000 0.31382  0.62049  0.18460  Biso   1.000  C
  C1912    1.0000 0.31386  0.62049  0.18460  Biso   1.000  C
  C1913    1.0000 0.31383  0.62053  0.18460  Biso   1.000  C
  C1914    1.0000 0.37128  0.60162  0.25749  Biso   1.000  C
  C1915    1.0000 0.37123  0.60158  0.25749  Biso   1.000  C
  C1916    1.0000 0.37124  0.60162  0.25749  Biso   1.000  C
  C1917    1.0000 0.37127  0.60158  0.25749  Biso   1.000  C
  C1918    1.0000 0.72132  0.40132  0.13170  Biso   1.000  C
  C1919    1.0000 0.72135  0.40128  0.13170  Biso   1.000  C
  C1920    1.0000 0.72136  0.40132  0.13170  Biso   1.000  C
  C1921    1.0000 0.72131  0.40128  0.13170  Biso   1.000  C
  C1922    1.0000 0.76344  0.43991  0.07040  Biso   1.000  C
  C1923    1.0000 0.76347  0.43991  0.07040  Biso   1.000  C
  C1924    1.0000 0.03577  0.35434  0.52603  Biso   1.000  C
  C1925    1.0000 0.03581  0.35434  0.52603  Biso   1.000  C
  C1926    1.0000 0.14138  0.38734  0.54551  Biso   1.000  C
  C1927    1.0000 0.14137  0.38730  0.54551  Biso   1.000  C
  C1928    1.0000 0.14141  0.38734  0.54551  Biso   1.000  C
  C1929    1.0000 0.28424  0.59349  0.21319  Biso   1.000  C
  C1930    1.0000 0.28425  0.59353  0.21319  Biso   1.000  C
  C1931    1.0000 0.28427  0.59349  0.21319  Biso   1.000  C
  C1932    1.0000 0.35807  0.66981  0.22829  Biso   1.000  C
  H1273    1.0000 0.29294  0.62681  0.15788  Biso   1.000  H
  C1933    1.0000 0.35804  0.66981  0.22829  Biso   1.000  C
  H1274    1.0000 0.29293  0.62677  0.15788  Biso   1.000  H
  H1275    1.0000 0.29297  0.62681  0.15788  Biso   1.000  H
  C1934    1.0000 0.31295  0.58690  0.25338  Biso   1.000  C
  C1935    1.0000 0.38797  0.66249  0.26729  Biso   1.000  C
  H1276    1.0000 0.39217  0.59591  0.28472  Biso   1.000  H
  C1936    1.0000 0.38793  0.66249  0.26729  Biso   1.000  C
  H1277    1.0000 0.39213  0.59589  0.28468  Biso   1.000  H
  C1937    1.0000 0.38794  0.66253  0.26729  Biso   1.000  C
  H1278    1.0000 0.39215  0.59595  0.28472  Biso   1.000  H
  H1279    1.0000 0.39216  0.59589  0.28468  Biso   1.000  H
  C1938    1.0000 0.38798  0.66253  0.26729  Biso   1.000  C
  H1280    1.0000 0.39218  0.59595  0.28472  Biso   1.000  H
  C1939    1.0000 0.71353  0.45371  0.13201  Biso   1.000  C
  H1281    1.0000 0.70512  0.38641  0.15289  Biso   1.000  H
  C1940    1.0000 0.78023  0.41841  0.14599  Biso   1.000  C
  C1941    1.0000 0.71355  0.45369  0.13197  Biso   1.000  C
  H1282    1.0000 0.70515  0.38638  0.15289  Biso   1.000  H
  C1942    1.0000 0.78027  0.41841  0.14599  Biso   1.000  C
  C1943    1.0000 0.71356  0.45371  0.13201  Biso   1.000  C
  H1283    1.0000 0.70516  0.38641  0.15289  Biso   1.000  H
  C1944    1.0000 0.71351  0.45369  0.13197  Biso   1.000  C
  H1284    1.0000 0.70511  0.38638  0.15289  Biso   1.000  H
  C1945    1.0000 0.73602  0.47300  0.10068  Biso   1.000  C
  H1285    1.0000 0.77941  0.45461  0.04910  Biso   1.000  H
  C1946    1.0000 0.80194  0.43829  0.11458  Biso   1.000  C
  C1947    1.0000 0.73606  0.47300  0.10068  Biso   1.000  C
  H1286    1.0000 0.77945  0.45461  0.04910  Biso   1.000  H
  H1287    1.0000 0.99726  0.34232  0.51662  Biso   1.000  H
  H1288    1.0000 0.99729  0.34232  0.51662  Biso   1.000  H
  H1289    1.0000 0.99730  0.34236  0.51662  Biso   1.000  H
  H1290    1.0000 0.99727  0.34236  0.51662  Biso   1.000  H
  C1948    1.0000 0.06917  0.39852  0.58071  Biso   1.000  C
  C1949    1.0000 0.06258  0.37752  0.49330  Biso   1.000  C
  C1950    1.0000 0.06254  0.37752  0.49330  Biso   1.000  C
  C1951    1.0000 0.06918  0.39856  0.58071  Biso   1.000  C
  C1952    1.0000 0.06920  0.39852  0.58071  Biso   1.000  C
  C1953    1.0000 0.12309  0.41744  0.58873  Biso   1.000  C
  H1291    1.0000 0.18000  0.39994  0.55503  Biso   1.000  H
  C1954    1.0000 0.11649  0.39614  0.50101  Biso   1.000  C
  H1292    1.0000 0.17995  0.39992  0.55500  Biso   1.000  H
  C1955    1.0000 0.11645  0.39610  0.50101  Biso   1.000  C
  H1293    1.0000 0.17996  0.39994  0.55503  Biso   1.000  H
  C1956    1.0000 0.11646  0.39614  0.50101  Biso   1.000  C
  H1294    1.0000 0.17998  0.39992  0.55500  Biso   1.000  H
  C1957    1.0000 0.12312  0.41744  0.58873  Biso   1.000  C
  C1958    1.0000 0.22967  0.57680  0.20021  Biso   1.000  C
  C1959    1.0000 0.22962  0.57678  0.20017  Biso   1.000  C
  C1960    1.0000 0.22964  0.57684  0.20021  Biso   1.000  C
  C1961    1.0000 0.22966  0.57678  0.20017  Biso   1.000  C
  C1962    1.0000 0.22968  0.57684  0.20021  Biso   1.000  C
  C1963    1.0000 0.36837  0.72272  0.23119  Biso   1.000  C
  C1964    1.0000 0.36836  0.72268  0.23119  Biso   1.000  C
  C1965    1.0000 0.28717  0.56341  0.28049  Biso   1.000  C
  C1966    1.0000 0.28713  0.56341  0.28049  Biso   1.000  C
  C1967    1.0000 0.42807  0.70802  0.30919  Biso   1.000  C
  C1968    1.0000 0.42806  0.70799  0.30919  Biso   1.000  C
  C1969    1.0000 0.42810  0.70802  0.30919  Biso   1.000  C
  C1970    1.0000 0.68555  0.48101  0.15920  Biso   1.000  C
  C1971    1.0000 0.81253  0.41340  0.18530  Biso   1.000  C
  C1972    1.0000 0.81257  0.41340  0.18530  Biso   1.000  C
  C1973    1.0000 0.73044  0.51950  0.09650  Biso   1.000  C
  C1974    1.0000 0.73048  0.51950  0.09650  Biso   1.000  C
  C1975    1.0000 0.85593  0.45338  0.12268  Biso   1.000  C
  C1976    1.0000 0.85596  0.45338  0.12268  Biso   1.000  C
  C1977    1.0000 0.85597  0.45342  0.12268  Biso   1.000  C
  C1978    1.0000 0.85594  0.45342  0.12268  Biso   1.000  C
  C1979    1.0000 0.04918  0.42656  0.61754  Biso   1.000  C
  C1980    1.0000 0.04916  0.42651  0.61750  Biso   1.000  C
  C1981    1.0000 0.04921  0.42655  0.61750  Biso   1.000  C
  C1982    1.0000 0.04922  0.42656  0.61754  Biso   1.000  C
  C1983    1.0000 0.04917  0.42655  0.61750  Biso   1.000  C
  C1984    1.0000 0.02787  0.37993  0.45372  Biso   1.000  C
  C1985    1.0000 0.15710  0.46446  0.63354  Biso   1.000  C
  C1986    1.0000 0.15707  0.46441  0.63350  Biso   1.000  C
  C1987    1.0000 0.15708  0.46444  0.63350  Biso   1.000  C
  C1988    1.0000 0.15713  0.46446  0.63354  Biso   1.000  C
  C1989    1.0000 0.13567  0.41711  0.46921  Biso   1.000  C
  C1990    1.0000 0.13564  0.41711  0.46921  Biso   1.000  C
  C1991    1.0000 0.13568  0.41715  0.46921  Biso   1.000  C
  C1992    1.0000 0.13565  0.41715  0.46921  Biso   1.000  C
  C1993    1.0000 0.20377  0.55342  0.22732  Biso   1.000  C
  C1994    1.0000 0.20372  0.55341  0.22728  Biso   1.000  C
  C1995    1.0000 0.20376  0.55341  0.22728  Biso   1.000  C
  H1295    1.0000 0.21046  0.58132  0.17330  Biso   1.000  H
  H1296    1.0000 0.21042  0.58128  0.17330  Biso   1.000  H
  H1297    1.0000 0.21043  0.58132  0.17330  Biso   1.000  H
  H1298    1.0000 0.21045  0.58128  0.17330  Biso   1.000  H
  C1996    1.0000 0.40846  0.76821  0.27310  Biso   1.000  C
  C1997    1.0000 0.34236  0.73081  0.18739  Biso   1.000  C
  C1998    1.0000 0.40850  0.76821  0.27310  Biso   1.000  C
  C1999    1.0000 0.23246  0.54670  0.26740  Biso   1.000  C
  C2000    1.0000 0.23243  0.54670  0.26740  Biso   1.000  C
  C2001    1.0000 0.23244  0.54674  0.26740  Biso   1.000  C
  C2002    1.0000 0.23247  0.54674  0.26740  Biso   1.000  C
  H1299    1.0000 0.30635  0.55903  0.30729  Biso   1.000  H
  H1300    1.0000 0.30634  0.55899  0.30729  Biso   1.000  H
  H1301    1.0000 0.30639  0.55903  0.30729  Biso   1.000  H
  C2003    1.0000 0.43827  0.76083  0.31210  Biso   1.000  C
  C2004    1.0000 0.46290  0.70151  0.35082  Biso   1.000  C
  C2005    1.0000 0.43826  0.76079  0.31210  Biso   1.000  C
  C2006    1.0000 0.46285  0.70149  0.35078  Biso   1.000  C
  C2007    1.0000 0.46287  0.70155  0.35082  Biso   1.000  C
  C2008    1.0000 0.43830  0.76083  0.31210  Biso   1.000  C
  C2009    1.0000 0.46290  0.70153  0.35078  Biso   1.000  C
  C2010    1.0000 0.46291  0.70155  0.35082  Biso   1.000  C
  C2011    1.0000 0.46286  0.70153  0.35078  Biso   1.000  C
  C2012    1.0000 0.68004  0.52751  0.15502  Biso   1.000  C
  C2013    1.0000 0.66273  0.46029  0.19340  Biso   1.000  C
  C2014    1.0000 0.68006  0.52750  0.15498  Biso   1.000  C
  C2015    1.0000 0.66276  0.46029  0.19340  Biso   1.000  C
  C2016    1.0000 0.68007  0.52751  0.15502  Biso   1.000  C
  C2017    1.0000 0.66277  0.46033  0.19340  Biso   1.000  C
  C2018    1.0000 0.68003  0.52750  0.15498  Biso   1.000  C
  C2019    1.0000 0.66274  0.46033  0.19340  Biso   1.000  C
  H1302    1.0000 0.79806  0.40012  0.20629  Biso   1.000  H
  C2020    1.0000 0.86645  0.42849  0.19340  Biso   1.000  C
  H1303    1.0000 0.79805  0.40008  0.20629  Biso   1.000  H
  C2021    1.0000 0.86646  0.42852  0.19340  Biso   1.000  C
  C2022    1.0000 0.86642  0.42849  0.19340  Biso   1.000  C
  C2023    1.0000 0.70243  0.54669  0.12369  Biso   1.000  C
  C2024    1.0000 0.74745  0.53658  0.05800  Biso   1.000  C
  C2025    1.0000 0.70247  0.54669  0.12369  Biso   1.000  C
  C2026    1.0000 0.74743  0.53657  0.05796  Biso   1.000  C
  C2027    1.0000 0.74746  0.53662  0.05800  Biso   1.000  C
  C2028    1.0000 0.74744  0.53660  0.05796  Biso   1.000  C
  C2029    1.0000 0.88814  0.44850  0.16210  Biso   1.000  C
  H1304    1.0000 0.87043  0.46679  0.10180  Biso   1.000  H
  H1305    1.0000 0.87046  0.46679  0.10180  Biso   1.000  H
  C2030    1.0000 0.88818  0.44850  0.16210  Biso   1.000  C
  H1306    1.0000 0.87047  0.46683  0.10180  Biso   1.000  H
  H1307    1.0000 0.87044  0.46683  0.10180  Biso   1.000  H
  C2031    1.0000 0.99201  0.40266  0.61204  Biso   1.000  C
  C2032    1.0000 0.99200  0.40264  0.61200  Biso   1.000  C
  C2033    1.0000 0.99196  0.40264  0.61200  Biso   1.000  C
  C2034    1.0000 0.08328  0.47353  0.66231  Biso   1.000  C
  C2035    1.0000 0.08329  0.47356  0.66231  Biso   1.000  C
  C2036    1.0000 0.08331  0.47353  0.66231  Biso   1.000  C
  H1308    1.0000 0.99176  0.36742  0.44853  Biso   1.000  H
  H1309    1.0000 0.99178  0.36740  0.44849  Biso   1.000  H
  H1310    1.0000 0.99181  0.36746  0.44853  Biso   1.000  H
  H1311    1.0000 0.99175  0.36740  0.44849  Biso   1.000  H
  H1312    1.0000 0.99180  0.36742  0.44853  Biso   1.000  H
  H1313    1.0000 0.99177  0.36746  0.44853  Biso   1.000  H
  C2037    1.0000 0.04718  0.40083  0.42193  Biso   1.000  C
  C2038    1.0000 0.04713  0.40081  0.42189  Biso   1.000  C
  C2039    1.0000 0.04716  0.40081  0.42189  Biso   1.000  C
  C2040    1.0000 0.13720  0.49245  0.67033  Biso   1.000  C
  C2041    1.0000 0.21519  0.48906  0.64434  Biso   1.000  C
  C2042    1.0000 0.21517  0.48900  0.64430  Biso   1.000  C
  C2043    1.0000 0.21521  0.48904  0.64430  Biso   1.000  C
  C2044    1.0000 0.13723  0.49245  0.67033  Biso   1.000  C
  C2045    1.0000 0.21523  0.48906  0.64434  Biso   1.000  C
  C2046    1.0000 0.21518  0.48904  0.64430  Biso   1.000  C
  H1314    1.0000 0.17179  0.42962  0.47440  Biso   1.000  H
  C2047    1.0000 0.10107  0.41951  0.42960  Biso   1.000  C
  H1315    1.0000 0.17175  0.42962  0.47440  Biso   1.000  H
  C2048    1.0000 0.10103  0.41951  0.42960  Biso   1.000  C
  O282     1.0000 0.15194  0.53282  0.22391  Biso   1.000  O
  O283     1.0000 0.15193  0.53280  0.22387  Biso   1.000  O
  O284     1.0000 0.15196  0.53280  0.22387  Biso   1.000  O
  O285     1.0000 0.15198  0.53282  0.22391  Biso   1.000  O
  H1316    1.0000 0.41527  0.80352  0.27499  Biso   1.000  H
  H1317    1.0000 0.41530  0.80352  0.27499  Biso   1.000  H
  H1318    1.0000 0.33874  0.70101  0.15509  Biso   1.000  H
  H1319    1.0000 0.36407  0.76552  0.18921  Biso   1.000  H
  C2049    1.0000 0.28837  0.73190  0.18821  Biso   1.000  C
  H1320    1.0000 0.36406  0.76550  0.18917  Biso   1.000  H
  C2050    1.0000 0.28833  0.73190  0.18821  Biso   1.000  C
  C2051    1.0000 0.28834  0.73194  0.18821  Biso   1.000  C
  H1321    1.0000 0.33878  0.70101  0.15509  Biso   1.000  H
  C2052    1.0000 0.28838  0.73194  0.18821  Biso   1.000  C
  O286     1.0000 0.20125  0.52222  0.28990  Biso   1.000  O
  O287     1.0000 0.20128  0.52222  0.28990  Biso   1.000  O
  H1322    1.0000 0.46510  0.79133  0.34021  Biso   1.000  H
  H1323    1.0000 0.46506  0.79133  0.34021  Biso   1.000  H
  H1324    1.0000 0.49539  0.73394  0.36903  Biso   1.000  H
  H1325    1.0000 0.47176  0.66922  0.33541  Biso   1.000  H
  C2053    1.0000 0.43349  0.69472  0.38951  Biso   1.000  C
  H1326    1.0000 0.49538  0.73392  0.36899  Biso   1.000  H
  C2054    1.0000 0.43345  0.69472  0.38951  Biso   1.000  C
  H1327    1.0000 0.47180  0.66922  0.33541  Biso   1.000  H
  H1328    1.0000 0.49542  0.73394  0.36903  Biso   1.000  H
  H1329    1.0000 0.66124  0.54572  0.17322  Biso   1.000  H
  H1330    1.0000 0.66126  0.54570  0.17318  Biso   1.000  H
  H1331    1.0000 0.66127  0.54572  0.17322  Biso   1.000  H
  H1332    1.0000 0.66122  0.54570  0.17318  Biso   1.000  H
  H1333    1.0000 0.68564  0.44500  0.20811  Biso   1.000  H
  H1334    1.0000 0.66134  0.49122  0.22178  Biso   1.000  H
  C2055    1.0000 0.60672  0.41541  0.16369  Biso   1.000  C
  H1335    1.0000 0.68566  0.44498  0.20807  Biso   1.000  H
  H1336    1.0000 0.66136  0.49118  0.22178  Biso   1.000  H
  C2056    1.0000 0.60676  0.41541  0.16369  Biso   1.000  C
  H1337    1.0000 0.68569  0.44504  0.20811  Biso   1.000  H
  H1338    1.0000 0.66137  0.49122  0.22178  Biso   1.000  H
  H1339    1.0000 0.68563  0.44498  0.20807  Biso   1.000  H
  H1340    1.0000 0.66133  0.49118  0.22178  Biso   1.000  H
  H1341    1.0000 0.68565  0.44504  0.20811  Biso   1.000  H
  O288     1.0000 0.90595  0.42752  0.23030  Biso   1.000  O
  O289     1.0000 0.90599  0.42752  0.23030  Biso   1.000  O
  H1342    1.0000 0.69873  0.57780  0.12090  Biso   1.000  H
  H1343    1.0000 0.69877  0.57780  0.12090  Biso   1.000  H
  H1344    1.0000 0.74232  0.50419  0.02698  Biso   1.000  H
  H1345    1.0000 0.72715  0.55690  0.04840  Biso   1.000  H
  C2057    1.0000 0.80564  0.57330  0.08360  Biso   1.000  C
  H1346    1.0000 0.74236  0.50419  0.02698  Biso   1.000  H
  O290     1.0000 0.94366  0.46430  0.18011  Biso   1.000  O
  O291     1.0000 0.94365  0.46429  0.18007  Biso   1.000  O
  O292     1.0000 0.94362  0.46429  0.18007  Biso   1.000  O
  H1347    1.0000 0.98759  0.41333  0.64593  Biso   1.000  H
  H1348    1.0000 0.97879  0.36243  0.59403  Biso   1.000  H
  C2058    1.0000 0.96120  0.42584  0.58052  Biso   1.000  C
  H1349    1.0000 0.97878  0.36241  0.59400  Biso   1.000  H
  H1350    1.0000 0.98760  0.41336  0.64593  Biso   1.000  H
  H1351    1.0000 0.97880  0.36246  0.59403  Biso   1.000  H
  H1352    1.0000 0.97879  0.36244  0.59400  Biso   1.000  H
  H1353    1.0000 0.06989  0.49224  0.68702  Biso   1.000  H
  H1354    1.0000 0.06992  0.49224  0.68702  Biso   1.000  H
  O293     1.0000 0.02616  0.40794  0.38022  Biso   1.000  O
  O294     1.0000 0.02615  0.40790  0.38022  Biso   1.000  O
  O295     1.0000 0.02620  0.40794  0.38022  Biso   1.000  O
  H1355    1.0000 0.16002  0.52396  0.70034  Biso   1.000  H
  H1356    1.0000 0.15997  0.52394  0.70030  Biso   1.000  H
  H1357    1.0000 0.15998  0.52396  0.70034  Biso   1.000  H
  H1358    1.0000 0.16000  0.52394  0.70030  Biso   1.000  H
  H1359    1.0000 0.22499  0.52595  0.64612  Biso   1.000  H
  H1360    1.0000 0.22560  0.46615  0.61723  Biso   1.000  H
  C2059    1.0000 0.24190  0.49203  0.69624  Biso   1.000  C
  H1361    1.0000 0.22498  0.52592  0.64612  Biso   1.000  H
  H1362    1.0000 0.22557  0.46615  0.61723  Biso   1.000  H
  C2060    1.0000 0.24191  0.49207  0.69624  Biso   1.000  C
  H1363    1.0000 0.22502  0.52595  0.64612  Biso   1.000  H
  O296     1.0000 0.11558  0.43584  0.39462  Biso   1.000  O
  O297     1.0000 0.11552  0.43579  0.39459  Biso   1.000  O
  O298     1.0000 0.11557  0.43583  0.39459  Biso   1.000  O
  O299     1.0000 0.11556  0.43579  0.39459  Biso   1.000  O
  O300     1.0000 0.11553  0.43583  0.39459  Biso   1.000  O
  B153     1.0000 0.15076  0.51473  0.26210  Biso   1.000  B
  B154     1.0000 0.15072  0.51469  0.26210  Biso   1.000  B
  B155     1.0000 0.15075  0.51469  0.26210  Biso   1.000  B
  B156     1.0000 0.15073  0.51473  0.26210  Biso   1.000  B
  H1364    1.0000 0.26508  0.71662  0.15331  Biso   1.000  H
  H1365    1.0000 0.29129  0.76952  0.20691  Biso   1.000  H
  H1366    1.0000 0.27436  0.71021  0.20490  Biso   1.000  H
  H1367    1.0000 0.26503  0.71660  0.15327  Biso   1.000  H
  H1368    1.0000 0.29124  0.76950  0.20687  Biso   1.000  H
  H1369    1.0000 0.26504  0.71662  0.15331  Biso   1.000  H
  H1370    1.0000 0.29125  0.76952  0.20691  Biso   1.000  H
  H1371    1.0000 0.26507  0.71660  0.15327  Biso   1.000  H
  H1372    1.0000 0.29128  0.76950  0.20687  Biso   1.000  H
  H1373    1.0000 0.40396  0.66002  0.37239  Biso   1.000  H
  H1374    1.0000 0.42108  0.72462  0.40152  Biso   1.000  H
  H1375    1.0000 0.45730  0.69543  0.41840  Biso   1.000  H
  H1376    1.0000 0.45727  0.69543  0.41840  Biso   1.000  H
  H1377    1.0000 0.42109  0.72466  0.40152  Biso   1.000  H
  H1378    1.0000 0.40400  0.66002  0.37239  Biso   1.000  H
  H1379    1.0000 0.42112  0.72462  0.40152  Biso   1.000  H
  H1380    1.0000 0.59504  0.40001  0.18580  Biso   1.000  H
  H1381    1.0000 0.58293  0.43169  0.15320  Biso   1.000  H
  H1382    1.0000 0.60742  0.38652  0.13372  Biso   1.000  H
  H1383    1.0000 0.58297  0.43169  0.15320  Biso   1.000  H
  H1384    1.0000 0.60745  0.38650  0.13368  Biso   1.000  H
  H1385    1.0000 0.58298  0.43173  0.15320  Biso   1.000  H
  H1386    1.0000 0.60746  0.38652  0.13372  Biso   1.000  H
  H1387    1.0000 0.60741  0.38650  0.13368  Biso   1.000  H
  H1388    1.0000 0.58294  0.43173  0.15320  Biso   1.000  H
  B157     1.0000 0.94974  0.45141  0.22109  Biso   1.000  B
  B158     1.0000 0.94976  0.45137  0.22109  Biso   1.000  B
  B159     1.0000 0.94977  0.45141  0.22109  Biso   1.000  B
  B160     1.0000 0.94973  0.45137  0.22109  Biso   1.000  B
  H1389    1.0000 0.82235  0.56070  0.10641  Biso   1.000  H
  H1390    1.0000 0.82214  0.57139  0.05750  Biso   1.000  H
  H1391    1.0000 0.80914  0.61088  0.10308  Biso   1.000  H
  H1392    1.0000 0.82234  0.56068  0.10637  Biso   1.000  H
  H1393    1.0000 0.82236  0.56073  0.10641  Biso   1.000  H
  H1394    1.0000 0.82215  0.57142  0.05750  Biso   1.000  H
  H1395    1.0000 0.80915  0.61091  0.10308  Biso   1.000  H
  H1396    1.0000 0.94910  0.45142  0.60282  Biso   1.000  H
  H1397    1.0000 0.93139  0.39575  0.55263  Biso   1.000  H
  H1398    1.0000 0.98407  0.44462  0.56673  Biso   1.000  H
  H1399    1.0000 0.93137  0.39573  0.55260  Biso   1.000  H
  H1400    1.0000 0.98410  0.44462  0.56673  Biso   1.000  H
  H1401    1.0000 0.94911  0.45146  0.60282  Biso   1.000  H
  H1402    1.0000 0.93142  0.39575  0.55263  Biso   1.000  H
  H1403    1.0000 0.98411  0.44466  0.56673  Biso   1.000  H
  H1404    1.0000 0.98408  0.44466  0.56673  Biso   1.000  H
  B161     1.0000 0.06717  0.43321  0.36519  Biso   1.000  B
  B162     1.0000 0.06713  0.43321  0.36519  Biso   1.000  B
  H1405    1.0000 0.23459  0.45465  0.69302  Biso   1.000  H
  H1406    1.0000 0.22850  0.51132  0.72191  Biso   1.000  H
  H1407    1.0000 0.27930  0.51066  0.70654  Biso   1.000  H
  H1408    1.0000 0.22846  0.51132  0.72191  Biso   1.000  H
  H1409    1.0000 0.22851  0.51136  0.72191  Biso   1.000  H
  H1410    1.0000 0.27933  0.51066  0.70654  Biso   1.000  H
  H1411    1.0000 0.23463  0.45465  0.69302  Biso   1.000  H
  H1412    1.0000 0.22847  0.51136  0.72191  Biso   1.000  H
  C2061    1.0000 0.10065  0.48883  0.27252  Biso   1.000  C
  C2062    1.0000 0.10063  0.48878  0.27248  Biso   1.000  C
  C2063    1.0000 0.10067  0.48882  0.27248  Biso   1.000  C
  C2064    1.0000 0.10069  0.48883  0.27252  Biso   1.000  C
  C2065    1.0000 0.10064  0.48882  0.27248  Biso   1.000  C
  C2066    1.0000 0.00636  0.45511  0.25369  Biso   1.000  C
  C2067    1.0000 0.00632  0.45511  0.25369  Biso   1.000  C
  C2068    1.0000 0.06256  0.44944  0.32371  Biso   1.000  C
  C2069    1.0000 0.06255  0.44940  0.32371  Biso   1.000  C
  C2070    1.0000 0.06260  0.44944  0.32371  Biso   1.000  C
  C2071    1.0000 0.05053  0.47940  0.24289  Biso   1.000  C
  C2072    1.0000 0.05057  0.47940  0.24289  Biso   1.000  C
  C2073    1.0000 0.10675  0.47381  0.31291  Biso   1.000  C
  C2074    1.0000 0.10676  0.47384  0.31291  Biso   1.000  C
  C2075    1.0000 0.10679  0.47381  0.31291  Biso   1.000  C
  C2076    1.0000 0.01244  0.44012  0.29409  Biso   1.000  C
  C2077    1.0000 0.01243  0.44008  0.29409  Biso   1.000  C
  C2078    1.0000 0.01247  0.44012  0.29409  Biso   1.000  C
  H1413    1.0000 0.04655  0.48939  0.21590  Biso   1.000  H
  H1414    1.0000 0.04651  0.48939  0.21590  Biso   1.000  H
  H1415    1.0000 0.04652  0.48943  0.21590  Biso   1.000  H
  H1416    1.0000 0.04656  0.48943  0.21590  Biso   1.000  H
  H1417    1.0000 0.14026  0.48002  0.33270  Biso   1.000  H
  H1418    1.0000 0.14025  0.47999  0.33270  Biso   1.000  H
  H1419    1.0000 0.98285  0.42380  0.30129  Biso   1.000  H
  H1420    1.0000 0.98288  0.42380  0.30129  Biso   1.000  H
  H1421    1.0000 0.98289  0.42383  0.30129  Biso   1.000  H
  H1422    1.0000 0.98286  0.42383  0.30129  Biso   1.000  H
  C2079    1.0000 0.98773  0.56000  0.70597  Biso   1.000  C
  C2080    1.0000 0.93760  0.55064  0.67634  Biso   1.000  C
  C2081    1.0000 0.93763  0.55064  0.67634  Biso   1.000  C
  C2082    1.0000 0.93761  0.55068  0.67634  Biso   1.000  C
  C2083    1.0000 0.93764  0.55068  0.67634  Biso   1.000  C
  C2084    1.0000 0.99383  0.54497  0.74636  Biso   1.000  C
  C2085    1.0000 0.99380  0.54497  0.74636  Biso   1.000  C
  H1423    1.0000 0.01731  0.57629  0.69876  Biso   1.000  H
  H1424    1.0000 0.01732  0.57623  0.69873  Biso   1.000  H
  H1425    1.0000 0.01734  0.57629  0.69876  Biso   1.000  H
  H1426    1.0000 0.01730  0.57627  0.69873  Biso   1.000  H
  H1427    1.0000 0.01729  0.57623  0.69873  Biso   1.000  H
  H1428    1.0000 0.01733  0.57627  0.69873  Biso   1.000  H
  C2086    1.0000 0.89340  0.52628  0.68715  Biso   1.000  C
  C2087    1.0000 0.89344  0.52628  0.68715  Biso   1.000  C
  C2088    1.0000 0.89339  0.52624  0.68715  Biso   1.000  C
  C2089    1.0000 0.89343  0.52624  0.68715  Biso   1.000  C
  B163     1.0000 0.93303  0.56687  0.63486  Biso   1.000  B
  C2090    1.0000 0.98771  0.55995  0.70593  Biso   1.000  C
  B164     1.0000 0.93301  0.56685  0.63483  Biso   1.000  B
  C2091    1.0000 0.98775  0.55997  0.70597  Biso   1.000  C
  B165     1.0000 0.93298  0.56685  0.63483  Biso   1.000  B
  C2092    1.0000 0.98772  0.55997  0.70597  Biso   1.000  C
  C2093    1.0000 0.98774  0.55995  0.70593  Biso   1.000  C
  C2094    1.0000 0.98776  0.56000  0.70597  Biso   1.000  C
  C2095    1.0000 0.94961  0.52066  0.75713  Biso   1.000  C
  C2096    1.0000 0.94966  0.52068  0.75717  Biso   1.000  C
  C2097    1.0000 0.94962  0.52068  0.75717  Biso   1.000  C
  C2098    1.0000 0.94965  0.52066  0.75713  Biso   1.000  C
  B166     1.0000 0.05042  0.54867  0.77897  Biso   1.000  B
  B167     1.0000 0.05041  0.54865  0.77893  Biso   1.000  B
  B168     1.0000 0.05043  0.54871  0.77897  Biso   1.000  B
  C2099    1.0000 0.89951  0.51125  0.72754  Biso   1.000  C
  C2100    1.0000 0.89954  0.51125  0.72754  Biso   1.000  C
  C2101    1.0000 0.89952  0.51128  0.72754  Biso   1.000  C
  C2102    1.0000 0.89955  0.51128  0.72754  Biso   1.000  C
  H1429    1.0000 0.85993  0.52006  0.66736  Biso   1.000  H
  H1430    1.0000 0.85994  0.52009  0.66736  Biso   1.000  H
  H1431    1.0000 0.85989  0.52006  0.66736  Biso   1.000  H
  O301     1.0000 0.97399  0.59215  0.61984  Biso   1.000  O
  O302     1.0000 0.88461  0.56424  0.60543  Biso   1.000  O
  O303     1.0000 0.97403  0.59215  0.61984  Biso   1.000  O
  O304     1.0000 0.97400  0.59218  0.61984  Biso   1.000  O
  O305     1.0000 0.88462  0.56427  0.60543  Biso   1.000  O
  O306     1.0000 0.88458  0.56424  0.60543  Biso   1.000  O
  O307     1.0000 0.97404  0.59218  0.61984  Biso   1.000  O
  H1432    1.0000 0.95364  0.51069  0.78416  Biso   1.000  H
  H1433    1.0000 0.95363  0.51065  0.78416  Biso   1.000  H
  H1434    1.0000 0.95361  0.51069  0.78416  Biso   1.000  H
  O308     1.0000 0.05649  0.53578  0.81994  Biso   1.000  O
  O309     1.0000 0.09420  0.57256  0.76975  Biso   1.000  O
  O310     1.0000 0.05653  0.53578  0.81994  Biso   1.000  O
  O311     1.0000 0.09424  0.57256  0.76975  Biso   1.000  O
  O312     1.0000 0.09425  0.57260  0.76975  Biso   1.000  O
  O313     1.0000 0.09421  0.57260  0.76975  Biso   1.000  O
  B169     1.0000 0.84943  0.48535  0.73796  Biso   1.000  B
  B170     1.0000 0.84944  0.48539  0.73796  Biso   1.000  B
  B171     1.0000 0.84940  0.48539  0.73796  Biso   1.000  B
  B172     1.0000 0.84939  0.48535  0.73796  Biso   1.000  B
  C2103    1.0000 0.95302  0.59925  0.57813  Biso   1.000  C
  C2104    1.0000 0.95298  0.59925  0.57813  Biso   1.000  C
  C2105    1.0000 0.89913  0.58057  0.57046  Biso   1.000  C
  C2106    1.0000 0.89911  0.58055  0.57042  Biso   1.000  C
  C2107    1.0000 0.89908  0.58055  0.57042  Biso   1.000  C
  C2108    1.0000 0.89909  0.58057  0.57046  Biso   1.000  C
  C2109    1.0000 0.11201  0.55158  0.83795  Biso   1.000  C
  C2110    1.0000 0.11205  0.55158  0.83795  Biso   1.000  C
  C2111    1.0000 0.13370  0.57159  0.80666  Biso   1.000  C
  C2112    1.0000 0.13373  0.57156  0.80666  Biso   1.000  C
  C2113    1.0000 0.13374  0.57159  0.80666  Biso   1.000  C
  C2114    1.0000 0.13369  0.57156  0.80666  Biso   1.000  C
  O314     1.0000 0.79891  0.47786  0.71015  Biso   1.000  O
  O315     1.0000 0.79895  0.47786  0.71015  Biso   1.000  O
  O316     1.0000 0.84822  0.46727  0.77614  Biso   1.000  O
  O317     1.0000 0.84825  0.46727  0.77614  Biso   1.000  O
  C2115    1.0000 0.97232  0.62015  0.54633  Biso   1.000  C
  C2116    1.0000 0.97228  0.62015  0.54633  Biso   1.000  C
  C2117    1.0000 0.86452  0.58297  0.53084  Biso   1.000  C
  C2118    1.0000 0.86451  0.58293  0.53084  Biso   1.000  C
  C2119    1.0000 0.86449  0.58297  0.53084  Biso   1.000  C
  C2120    1.0000 0.14423  0.54670  0.87738  Biso   1.000  C
  C2121    1.0000 0.14424  0.54665  0.87734  Biso   1.000  C
  C2122    1.0000 0.14426  0.54670  0.87738  Biso   1.000  C
  C2123    1.0000 0.14422  0.54668  0.87734  Biso   1.000  C
  C2124    1.0000 0.14421  0.54665  0.87734  Biso   1.000  C
  C2125    1.0000 0.14425  0.54668  0.87734  Biso   1.000  C
  C2126    1.0000 0.18762  0.58668  0.81475  Biso   1.000  C
  C2127    1.0000 0.76773  0.45338  0.73265  Biso   1.000  C
  C2128    1.0000 0.76772  0.45334  0.73265  Biso   1.000  C
  C2129    1.0000 0.76769  0.45338  0.73265  Biso   1.000  C
  C2130    1.0000 0.79642  0.44666  0.77273  Biso   1.000  C
  C2131    1.0000 0.79639  0.44666  0.77273  Biso   1.000  C
  C2132    1.0000 0.93762  0.62257  0.50675  Biso   1.000  C
  C2133    1.0000 0.93760  0.62255  0.50671  Biso   1.000  C
  C2134    1.0000 0.93757  0.62255  0.50671  Biso   1.000  C
  H1435    1.0000 0.00840  0.63266  0.55152  Biso   1.000  H
  H1436    1.0000 0.00839  0.63262  0.55152  Biso   1.000  H
  C2135    1.0000 0.88370  0.60394  0.49905  Biso   1.000  C
  H1437    1.0000 0.82841  0.57046  0.52565  Biso   1.000  H
  H1438    1.0000 0.82839  0.57044  0.52561  Biso   1.000  H
  C2136    1.0000 0.88371  0.60398  0.49905  Biso   1.000  C
  H1439    1.0000 0.12973  0.53329  0.89825  Biso   1.000  H
  C2137    1.0000 0.19822  0.56179  0.88547  Biso   1.000  C
  H1440    1.0000 0.12972  0.53325  0.89825  Biso   1.000  H
  C2138    1.0000 0.19824  0.56177  0.88543  Biso   1.000  C
  C2139    1.0000 0.19826  0.56179  0.88547  Biso   1.000  C
  C2140    1.0000 0.19821  0.56177  0.88543  Biso   1.000  C
  C2141    1.0000 0.21993  0.58167  0.85406  Biso   1.000  C
  H1441    1.0000 0.20210  0.59996  0.79376  Biso   1.000  H
  H1442    1.0000 0.20214  0.59996  0.79376  Biso   1.000  H
  C2142    1.0000 0.21994  0.58171  0.85406  Biso   1.000  C
  H1443    1.0000 0.20215  0.60000  0.79376  Biso   1.000  H
  H1444    1.0000 0.20211  0.60000  0.79376  Biso   1.000  H
  C2143    1.0000 0.71303  0.43667  0.71956  Biso   1.000  C
  C2144    1.0000 0.71301  0.43665  0.71952  Biso   1.000  C
  C2145    1.0000 0.71298  0.43665  0.71952  Biso   1.000  C
  C2146    1.0000 0.77052  0.42328  0.79984  Biso   1.000  C
  C2147    1.0000 0.77051  0.42324  0.79984  Biso   1.000  C
  C2148    1.0000 0.77049  0.42328  0.79984  Biso   1.000  C
  C2149    1.0000 0.96439  0.64574  0.47403  Biso   1.000  C
  C2150    1.0000 0.96442  0.64574  0.47403  Biso   1.000  C
  C2151    1.0000 0.96440  0.64577  0.47403  Biso   1.000  C
  C2152    1.0000 0.96443  0.64577  0.47403  Biso   1.000  C
  C2153    1.0000 0.85877  0.61272  0.45451  Biso   1.000  C
  C2154    1.0000 0.85882  0.61274  0.45455  Biso   1.000  C
  C2155    1.0000 0.85883  0.61278  0.45455  Biso   1.000  C
  C2156    1.0000 0.85878  0.61274  0.45455  Biso   1.000  C
  C2157    1.0000 0.85880  0.61272  0.45451  Biso   1.000  C
  C2158    1.0000 0.23672  0.56017  0.92966  Biso   1.000  C
  C2159    1.0000 0.23676  0.56017  0.92966  Biso   1.000  C
  C2160    1.0000 0.23677  0.56021  0.92966  Biso   1.000  C
  C2161    1.0000 0.23673  0.56021  0.92966  Biso   1.000  C
  C2162    1.0000 0.27883  0.59876  0.86835  Biso   1.000  C
  C2163    1.0000 0.27884  0.59880  0.86835  Biso   1.000  C
  C2164    1.0000 0.68724  0.41318  0.74667  Biso   1.000  C
  C2165    1.0000 0.68719  0.41316  0.74663  Biso   1.000  C
  C2166    1.0000 0.68720  0.41318  0.74667  Biso   1.000  C
  C2167    1.0000 0.68723  0.41316  0.74663  Biso   1.000  C
  H1445    1.0000 0.69379  0.44104  0.69272  Biso   1.000  H
  H1446    1.0000 0.69384  0.44106  0.69276  Biso   1.000  H
  H1447    1.0000 0.69382  0.44109  0.69276  Biso   1.000  H
  H1448    1.0000 0.69381  0.44106  0.69276  Biso   1.000  H
  H1449    1.0000 0.69385  0.44109  0.69276  Biso   1.000  H
  C2168    1.0000 0.71595  0.40659  0.78687  Biso   1.000  C
  C2169    1.0000 0.71590  0.40653  0.78683  Biso   1.000  C
  C2170    1.0000 0.71592  0.40659  0.78687  Biso   1.000  C
  C2171    1.0000 0.71591  0.40657  0.78683  Biso   1.000  C
  C2172    1.0000 0.71593  0.40653  0.78683  Biso   1.000  C
  H1450    1.0000 0.78973  0.41877  0.82676  Biso   1.000  H
  H1451    1.0000 0.78974  0.41880  0.82676  Biso   1.000  H
  H1452    1.0000 0.78970  0.41877  0.82676  Biso   1.000  H
  C2173    1.0000 0.93840  0.68926  0.47213  Biso   1.000  C
  C2174    1.0000 0.93098  0.60154  0.41931  Biso   1.000  C
  C2175    1.0000 0.93103  0.60156  0.41934  Biso   1.000  C
  C2176    1.0000 0.93844  0.68926  0.47213  Biso   1.000  C
  C2177    1.0000 0.93839  0.68923  0.47213  Biso   1.000  C
  C2178    1.0000 0.93099  0.60156  0.41934  Biso   1.000  C
  C2179    1.0000 0.93101  0.60154  0.41931  Biso   1.000  C
  H1453    1.0000 0.00290  0.65776  0.48344  Biso   1.000  H
  H1454    1.0000 0.82020  0.60014  0.44502  Biso   1.000  H
  C2180    1.0000 0.87707  0.58264  0.41133  Biso   1.000  C
  C2181    1.0000 0.88449  0.67243  0.46442  Biso   1.000  C
  C2182    1.0000 0.87711  0.58264  0.41133  Biso   1.000  C
  C2183    1.0000 0.88450  0.67246  0.46442  Biso   1.000  C
  H1455    1.0000 0.82016  0.60014  0.44502  Biso   1.000  H
  C2184    1.0000 0.26413  0.52708  0.89937  Biso   1.000  C
  H1456    1.0000 0.22074  0.54547  0.95096  Biso   1.000  H
  C2185    1.0000 0.27412  0.62008  0.95727  Biso   1.000  C
  C2186    1.0000 0.26412  0.52706  0.89934  Biso   1.000  C
  C2187    1.0000 0.27416  0.62008  0.95727  Biso   1.000  C
  H1457    1.0000 0.22075  0.54551  0.95096  Biso   1.000  H
  C2188    1.0000 0.27417  0.62012  0.95727  Biso   1.000  C
  H1458    1.0000 0.22071  0.54547  0.95096  Biso   1.000  H
  C2189    1.0000 0.27413  0.62012  0.95727  Biso   1.000  C
  C2190    1.0000 0.28663  0.54637  0.86804  Biso   1.000  C
  H1459    1.0000 0.29503  0.61367  0.84717  Biso   1.000  H
  C2191    1.0000 0.29524  0.63796  0.92455  Biso   1.000  C
  H1460    1.0000 0.29502  0.61365  0.84713  Biso   1.000  H
  H1461    1.0000 0.29504  0.61371  0.84717  Biso   1.000  H
  C2192    1.0000 0.29525  0.63800  0.92455  Biso   1.000  C
  C2193    1.0000 0.62890  0.39845  0.74253  Biso   1.000  C
  C2194    1.0000 0.62892  0.39846  0.74257  Biso   1.000  C
  C2195    1.0000 0.62893  0.39850  0.74257  Biso   1.000  C
  C2196    1.0000 0.62887  0.39845  0.74253  Biso   1.000  C
  C2197    1.0000 0.68633  0.37955  0.81545  Biso   1.000  C
  C2198    1.0000 0.68634  0.37959  0.81545  Biso   1.000  C
  C2199    1.0000 0.68630  0.37959  0.81545  Biso   1.000  C
  C2200    1.0000 0.68629  0.37955  0.81545  Biso   1.000  C
  C2201    1.0000 0.96741  0.74414  0.48514  Biso   1.000  C
  C2202    1.0000 0.96742  0.74418  0.48514  Biso   1.000  C
  C2203    1.0000 0.95097  0.57352  0.38251  Biso   1.000  C
  C2204    1.0000 0.95101  0.57352  0.38251  Biso   1.000  C
  C2205    1.0000 0.95098  0.57355  0.38251  Biso   1.000  C
  C2206    1.0000 0.95102  0.57355  0.38251  Biso   1.000  C
  C2207    1.0000 0.84306  0.53562  0.36652  Biso   1.000  C
  C2208    1.0000 0.84310  0.53562  0.36652  Biso   1.000  C
  C2209    1.0000 0.84307  0.53566  0.36652  Biso   1.000  C
  C2210    1.0000 0.84311  0.53566  0.36652  Biso   1.000  C
  C2211    1.0000 0.85960  0.71045  0.46984  Biso   1.000  C
  C2212    1.0000 0.26972  0.48058  0.90356  Biso   1.000  C
  C2213    1.0000 0.26975  0.48058  0.90356  Biso   1.000  C
  C2214    1.0000 0.28836  0.65629  0.00928  Biso   1.000  C
  C2215    1.0000 0.28837  0.65632  0.00928  Biso   1.000  C
  C2216    1.0000 0.28832  0.65629  0.00928  Biso   1.000  C
  C2217    1.0000 0.31461  0.51907  0.84086  Biso   1.000  C
  C2218    1.0000 0.31464  0.51907  0.84086  Biso   1.000  C
  C2219    1.0000 0.31465  0.51911  0.84086  Biso   1.000  C
  C2220    1.0000 0.31462  0.51911  0.84086  Biso   1.000  C
  C2221    1.0000 0.33074  0.69207  0.94387  Biso   1.000  C
  C2222    1.0000 0.33075  0.69211  0.94387  Biso   1.000  C
  C2223    1.0000 0.61223  0.33759  0.73277  Biso   1.000  C
  C2224    1.0000 0.61220  0.33753  0.73273  Biso   1.000  C
  C2225    1.0000 0.61218  0.33757  0.73273  Biso   1.000  C
  C2226    1.0000 0.61221  0.33757  0.73273  Biso   1.000  C
  H1462    1.0000 0.60802  0.40417  0.71534  Biso   1.000  H
  C2227    1.0000 0.62780  0.43095  0.79473  Biso   1.000  C
  C2228    1.0000 0.62785  0.43097  0.79477  Biso   1.000  C
  H1463    1.0000 0.60801  0.40413  0.71534  Biso   1.000  H
  C2229    1.0000 0.62782  0.43100  0.79477  Biso   1.000  C
  H1464    1.0000 0.60798  0.40417  0.71534  Biso   1.000  H
  C2230    1.0000 0.62781  0.43097  0.79477  Biso   1.000  C
  C2231    1.0000 0.62783  0.43095  0.79473  Biso   1.000  C
  C2232    1.0000 0.62786  0.43100  0.79477  Biso   1.000  C
  C2233    1.0000 0.64212  0.33027  0.77177  Biso   1.000  C
  C2234    1.0000 0.64211  0.33026  0.77173  Biso   1.000  C
  C2235    1.0000 0.64207  0.33026  0.77173  Biso   1.000  C
  C2236    1.0000 0.65782  0.42438  0.83427  Biso   1.000  C
  H1465    1.0000 0.70721  0.37325  0.84213  Biso   1.000  H
  C2237    1.0000 0.65781  0.42436  0.83423  Biso   1.000  C
  H1466    1.0000 0.70726  0.37327  0.84217  Biso   1.000  H
  H1467    1.0000 0.70723  0.37331  0.84217  Biso   1.000  H
  H1468    1.0000 0.70722  0.37327  0.84217  Biso   1.000  H
  H1469    1.0000 0.70727  0.37331  0.84217  Biso   1.000  H
  C2238    1.0000 0.65786  0.42438  0.83427  Biso   1.000  C
  C2239    1.0000 0.94259  0.78213  0.49041  Biso   1.000  C
  C2240    1.0000 0.94263  0.78215  0.49045  Biso   1.000  C
  C2241    1.0000 0.94261  0.78218  0.49045  Biso   1.000  C
  C2242    1.0000 0.94260  0.78215  0.49045  Biso   1.000  C
  C2243    1.0000 0.94262  0.78213  0.49041  Biso   1.000  C
  C2244    1.0000 0.94264  0.78218  0.49045  Biso   1.000  C
  H1470    1.0000 0.00351  0.75547  0.49025  Biso   1.000  H
  H1471    1.0000 0.00350  0.75545  0.49022  Biso   1.000  H
  C2245    1.0000 0.91691  0.52655  0.33774  Biso   1.000  C
  C2246    1.0000 0.91686  0.52650  0.33771  Biso   1.000  C
  C2247    1.0000 0.91688  0.52655  0.33774  Biso   1.000  C
  C2248    1.0000 0.91687  0.52654  0.33771  Biso   1.000  C
  C2249    1.0000 0.91689  0.52650  0.33771  Biso   1.000  C
  C2250    1.0000 0.00815  0.59743  0.38801  Biso   1.000  C
  C2251    1.0000 0.00818  0.59743  0.38801  Biso   1.000  C
  C2252    1.0000 0.00819  0.59746  0.38801  Biso   1.000  C
  C2253    1.0000 0.00816  0.59746  0.38801  Biso   1.000  C
  C2254    1.0000 0.86296  0.50763  0.32973  Biso   1.000  C
  C2255    1.0000 0.78497  0.51102  0.35571  Biso   1.000  C
  C2256    1.0000 0.86300  0.50763  0.32973  Biso   1.000  C
  C2257    1.0000 0.78500  0.51102  0.35571  Biso   1.000  C
  C2258    1.0000 0.78498  0.51106  0.35571  Biso   1.000  C
  C2259    1.0000 0.78501  0.51106  0.35571  Biso   1.000  C
  C2260    1.0000 0.88871  0.76535  0.48282  Biso   1.000  C
  H1472    1.0000 0.82362  0.69916  0.46473  Biso   1.000  H
  H1473    1.0000 0.82361  0.69912  0.46473  Biso   1.000  H
  H1474    1.0000 0.82358  0.69916  0.46473  Biso   1.000  H
  C2261    1.0000 0.88868  0.76535  0.48282  Biso   1.000  C
  C2262    1.0000 0.29772  0.45339  0.87637  Biso   1.000  C
  C2263    1.0000 0.25271  0.46350  0.94205  Biso   1.000  C
  C2264    1.0000 0.29775  0.45337  0.87633  Biso   1.000  C
  C2265    1.0000 0.25274  0.46346  0.94205  Biso   1.000  C
  C2266    1.0000 0.29776  0.45339  0.87637  Biso   1.000  C
  C2267    1.0000 0.25275  0.46350  0.94205  Biso   1.000  C
  C2268    1.0000 0.29771  0.45337  0.87633  Biso   1.000  C
  C2269    1.0000 0.25270  0.46346  0.94205  Biso   1.000  C
  H1475    1.0000 0.27428  0.64430  0.03120  Biso   1.000  H
  C2270    1.0000 0.32385  0.71038  0.02857  Biso   1.000  C
  H1476    1.0000 0.27423  0.64428  0.03116  Biso   1.000  H
  C2271    1.0000 0.32386  0.71042  0.02857  Biso   1.000  C
  H1477    1.0000 0.27424  0.64430  0.03120  Biso   1.000  H
  C2272    1.0000 0.32382  0.71038  0.02857  Biso   1.000  C
  H1478    1.0000 0.27426  0.64428  0.03116  Biso   1.000  H
  C2273    1.0000 0.32012  0.47257  0.84504  Biso   1.000  C
  C2274    1.0000 0.33743  0.53979  0.80666  Biso   1.000  C
  C2275    1.0000 0.33742  0.53975  0.80666  Biso   1.000  C
  C2276    1.0000 0.34503  0.72839  0.99596  Biso   1.000  C
  H1479    1.0000 0.34484  0.70410  0.92195  Biso   1.000  H
  C2277    1.0000 0.34506  0.72839  0.99596  Biso   1.000  C
  H1480    1.0000 0.34486  0.70406  0.92195  Biso   1.000  H
  H1481    1.0000 0.34487  0.70410  0.92195  Biso   1.000  H
  H1482    1.0000 0.34483  0.70406  0.92195  Biso   1.000  H
  C2278    1.0000 0.57208  0.29204  0.69083  Biso   1.000  C
  C2279    1.0000 0.57212  0.29206  0.69086  Biso   1.000  C
  C2280    1.0000 0.57210  0.29210  0.69086  Biso   1.000  C
  C2281    1.0000 0.57209  0.29206  0.69086  Biso   1.000  C
  C2282    1.0000 0.57211  0.29204  0.69083  Biso   1.000  C
  C2283    1.0000 0.57213  0.29210  0.69086  Biso   1.000  C
  C2284    1.0000 0.60283  0.46887  0.80647  Biso   1.000  C
  C2285    1.0000 0.60281  0.46885  0.80643  Biso   1.000  C
  C2286    1.0000 0.60278  0.46885  0.80643  Biso   1.000  C
  C2287    1.0000 0.63182  0.27736  0.76886  Biso   1.000  C
  C2288    1.0000 0.63183  0.27740  0.76886  Biso   1.000  C
  C2289    1.0000 0.63179  0.27736  0.76886  Biso   1.000  C
  C2290    1.0000 0.66291  0.45568  0.88543  Biso   1.000  C
  C2291    1.0000 0.66296  0.45569  0.88547  Biso   1.000  C
  C2292    1.0000 0.66292  0.45569  0.88547  Biso   1.000  C
  C2293    1.0000 0.66295  0.45568  0.88543  Biso   1.000  C
  O318     1.0000 0.96583  0.83816  0.50625  Biso   1.000  O
  O319     1.0000 0.96581  0.83814  0.50621  Biso   1.000  O
  O320     1.0000 0.96578  0.83814  0.50621  Biso   1.000  O
  H1483    1.0000 0.93027  0.50784  0.31304  Biso   1.000  H
  H1484    1.0000 0.93031  0.50784  0.31304  Biso   1.000  H
  H1485    1.0000 0.01256  0.58676  0.35413  Biso   1.000  H
  H1486    1.0000 0.02137  0.63766  0.40602  Biso   1.000  H
  C2294    1.0000 0.03896  0.57424  0.41954  Biso   1.000  C
  H1487    1.0000 0.01259  0.58672  0.35413  Biso   1.000  H
  H1488    1.0000 0.02139  0.63762  0.40602  Biso   1.000  H
  C2295    1.0000 0.03900  0.57424  0.41954  Biso   1.000  C
  H1489    1.0000 0.01260  0.58676  0.35413  Biso   1.000  H
  H1490    1.0000 0.02140  0.63766  0.40602  Biso   1.000  H
  H1491    1.0000 0.01255  0.58672  0.35413  Biso   1.000  H
  H1492    1.0000 0.02136  0.63762  0.40602  Biso   1.000  H
  H1493    1.0000 0.84018  0.47612  0.29971  Biso   1.000  H
  H1494    1.0000 0.84014  0.47612  0.29971  Biso   1.000  H
  H1495    1.0000 0.77459  0.53393  0.38282  Biso   1.000  H
  H1496    1.0000 0.77517  0.47413  0.35393  Biso   1.000  H
  C2296    1.0000 0.75829  0.50805  0.30382  Biso   1.000  C
  C2297    1.0000 0.75826  0.50805  0.30382  Biso   1.000  C
  H1497    1.0000 0.77521  0.47413  0.35393  Biso   1.000  H
  C2298    1.0000 0.75825  0.50801  0.30382  Biso   1.000  C
  H1498    1.0000 0.77518  0.47417  0.35393  Biso   1.000  H
  H1499    1.0000 0.77455  0.53393  0.38282  Biso   1.000  H
  C2299    1.0000 0.75828  0.50801  0.30382  Biso   1.000  C
  H1500    1.0000 0.77522  0.47417  0.35393  Biso   1.000  H
  O321     1.0000 0.87540  0.81255  0.49424  Biso   1.000  O
  O322     1.0000 0.87543  0.81255  0.49424  Biso   1.000  O
  O323     1.0000 0.87541  0.81258  0.49424  Biso   1.000  O
  O324     1.0000 0.87544  0.81258  0.49424  Biso   1.000  O
  H1501    1.0000 0.30143  0.42228  0.87916  Biso   1.000  H
  H1502    1.0000 0.25784  0.49590  0.97307  Biso   1.000  H
  H1503    1.0000 0.27301  0.44318  0.95166  Biso   1.000  H
  C2300    1.0000 0.19451  0.42678  0.91645  Biso   1.000  C
  H1504    1.0000 0.27305  0.44318  0.95166  Biso   1.000  H
  C2301    1.0000 0.19455  0.42678  0.91645  Biso   1.000  C
  O325     1.0000 0.33959  0.75128  0.07760  Biso   1.000  O
  O326     1.0000 0.33956  0.75132  0.07760  Biso   1.000  O
  O327     1.0000 0.33955  0.75128  0.07760  Biso   1.000  O
  O328     1.0000 0.33960  0.75132  0.07760  Biso   1.000  O
  H1505    1.0000 0.33892  0.45437  0.82684  Biso   1.000  H
  H1506    1.0000 0.31452  0.55508  0.79194  Biso   1.000  H
  H1507    1.0000 0.33882  0.50887  0.77827  Biso   1.000  H
  C2302    1.0000 0.39344  0.58467  0.83636  Biso   1.000  C
  H1508    1.0000 0.31451  0.55504  0.79194  Biso   1.000  H
  H1509    1.0000 0.33881  0.50885  0.77823  Biso   1.000  H
  H1510    1.0000 0.31455  0.55508  0.79194  Biso   1.000  H
  H1511    1.0000 0.33883  0.50890  0.77827  Biso   1.000  H
  O329     1.0000 0.37656  0.78478  0.02598  Biso   1.000  O
  O330     1.0000 0.37657  0.78482  0.02598  Biso   1.000  O
  O331     1.0000 0.37652  0.78478  0.02598  Biso   1.000  O
  C2303    1.0000 0.53729  0.29857  0.64923  Biso   1.000  C
  C2304    1.0000 0.53728  0.29853  0.64923  Biso   1.000  C
  C2305    1.0000 0.56188  0.23924  0.68792  Biso   1.000  C
  C2306    1.0000 0.56193  0.23925  0.68796  Biso   1.000  C
  C2307    1.0000 0.56190  0.23929  0.68796  Biso   1.000  C
  C2308    1.0000 0.56189  0.23925  0.68796  Biso   1.000  C
  C2309    1.0000 0.56191  0.23924  0.68792  Biso   1.000  C
  C2310    1.0000 0.56194  0.23929  0.68796  Biso   1.000  C
  H1512    1.0000 0.58271  0.47337  0.78005  Biso   1.000  H
  C2311    1.0000 0.60782  0.50019  0.85766  Biso   1.000  C
  H1513    1.0000 0.58275  0.47337  0.78005  Biso   1.000  H
  C2312    1.0000 0.60786  0.50019  0.85766  Biso   1.000  C
  C2313    1.0000 0.59170  0.23187  0.72696  Biso   1.000  C
  C2314    1.0000 0.59173  0.23187  0.72696  Biso   1.000  C
  C2315    1.0000 0.65779  0.26927  0.81266  Biso   1.000  C
  C2316    1.0000 0.65783  0.26927  0.81266  Biso   1.000  C
  C2317    1.0000 0.63794  0.49360  0.89717  Biso   1.000  C
  H1514    1.0000 0.68301  0.45126  0.91184  Biso   1.000  H
  H1515    1.0000 0.68305  0.45126  0.91184  Biso   1.000  H
  C2318    1.0000 0.63793  0.49356  0.89717  Biso   1.000  C
  H1516    1.0000 0.68302  0.45129  0.91184  Biso   1.000  H
  H1517    1.0000 0.68306  0.45129  0.91184  Biso   1.000  H
  B173     1.0000 0.92004  0.85337  0.50315  Biso   1.000  B
  B174     1.0000 0.92001  0.85332  0.50311  Biso   1.000  B
  B175     1.0000 0.91999  0.85336  0.50311  Biso   1.000  B
  B176     1.0000 0.92000  0.85337  0.50315  Biso   1.000  B
  B177     1.0000 0.92002  0.85336  0.50311  Biso   1.000  B
  H1518    1.0000 0.05106  0.54866  0.39723  Biso   1.000  H
  H1519    1.0000 0.06877  0.60433  0.44742  Biso   1.000  H
  H1520    1.0000 0.01609  0.55546  0.43332  Biso   1.000  H
  H1521    1.0000 0.05108  0.54862  0.39723  Biso   1.000  H
  H1522    1.0000 0.06881  0.60433  0.44742  Biso   1.000  H
  H1523    1.0000 0.01608  0.55542  0.43332  Biso   1.000  H
  H1524    1.0000 0.05109  0.54866  0.39723  Biso   1.000  H
  H1525    1.0000 0.05105  0.54862  0.39723  Biso   1.000  H
  H1526    1.0000 0.76557  0.54543  0.30703  Biso   1.000  H
  H1527    1.0000 0.72086  0.48942  0.29352  Biso   1.000  H
  H1528    1.0000 0.76560  0.54543  0.30703  Biso   1.000  H
  H1529    1.0000 0.77169  0.48876  0.27814  Biso   1.000  H
  H1530    1.0000 0.72090  0.48942  0.29352  Biso   1.000  H
  H1531    1.0000 0.77167  0.48870  0.27810  Biso   1.000  H
  H1532    1.0000 0.72087  0.48946  0.29352  Biso   1.000  H
  H1533    1.0000 0.77165  0.48874  0.27810  Biso   1.000  H
  H1534    1.0000 0.77166  0.48876  0.27814  Biso   1.000  H
  H1535    1.0000 0.72091  0.48946  0.29352  Biso   1.000  H
  H1536    1.0000 0.77168  0.48874  0.27810  Biso   1.000  H
  H1537    1.0000 0.17780  0.43939  0.89364  Biso   1.000  H
  H1538    1.0000 0.17801  0.42869  0.94256  Biso   1.000  H
  H1539    1.0000 0.19101  0.38920  0.89697  Biso   1.000  H
  H1540    1.0000 0.17783  0.43935  0.89364  Biso   1.000  H
  H1541    1.0000 0.17804  0.42866  0.94256  Biso   1.000  H
  H1542    1.0000 0.19103  0.38915  0.89693  Biso   1.000  H
  H1543    1.0000 0.17784  0.43939  0.89364  Biso   1.000  H
  H1544    1.0000 0.17805  0.42869  0.94256  Biso   1.000  H
  H1545    1.0000 0.19105  0.38920  0.89697  Biso   1.000  H
  H1546    1.0000 0.19100  0.38919  0.89693  Biso   1.000  H
  H1547    1.0000 0.17779  0.43935  0.89364  Biso   1.000  H
  H1548    1.0000 0.17800  0.42866  0.94256  Biso   1.000  H
  H1549    1.0000 0.19099  0.38915  0.89693  Biso   1.000  H
  H1550    1.0000 0.19104  0.38919  0.89693  Biso   1.000  H
  B178     1.0000 0.37368  0.79408  0.07268  Biso   1.000  B
  B179     1.0000 0.37365  0.79412  0.07268  Biso   1.000  B
  B180     1.0000 0.37364  0.79408  0.07268  Biso   1.000  B
  B181     1.0000 0.37369  0.79412  0.07268  Biso   1.000  B
  H1551    1.0000 0.40511  0.60007  0.81425  Biso   1.000  H
  H1552    1.0000 0.41723  0.56839  0.84686  Biso   1.000  H
  H1553    1.0000 0.39273  0.61356  0.86634  Biso   1.000  H
  H1554    1.0000 0.40515  0.60007  0.81425  Biso   1.000  H
  H1555    1.0000 0.41722  0.56835  0.84686  Biso   1.000  H
  H1556    1.0000 0.41726  0.56839  0.84686  Biso   1.000  H
  H1557    1.0000 0.39274  0.61360  0.86634  Biso   1.000  H
  H1558    1.0000 0.39270  0.61356  0.86634  Biso   1.000  H
  C2319    1.0000 0.56671  0.30536  0.61054  Biso   1.000  C
  H1559    1.0000 0.50477  0.26614  0.63103  Biso   1.000  H
  H1560    1.0000 0.52839  0.33087  0.66465  Biso   1.000  H
  H1561    1.0000 0.50480  0.26614  0.63103  Biso   1.000  H
  H1562    1.0000 0.52843  0.33087  0.66465  Biso   1.000  H
  C2320    1.0000 0.56667  0.30536  0.61054  Biso   1.000  C
  H1563    1.0000 0.53509  0.20875  0.65984  Biso   1.000  H
  H1564    1.0000 0.53506  0.20875  0.65984  Biso   1.000  H
  O332     1.0000 0.58901  0.54037  0.87974  Biso   1.000  O
  O333     1.0000 0.58906  0.54039  0.87978  Biso   1.000  O
  O334     1.0000 0.58903  0.54039  0.87978  Biso   1.000  O
  O335     1.0000 0.58905  0.54037  0.87974  Biso   1.000  O
  H1565    1.0000 0.58488  0.19654  0.72502  Biso   1.000  H
  H1566    1.0000 0.58493  0.19656  0.72506  Biso   1.000  H
  H1567    1.0000 0.58490  0.19660  0.72506  Biso   1.000  H
  H1568    1.0000 0.58489  0.19656  0.72506  Biso   1.000  H
  H1569    1.0000 0.58491  0.19654  0.72502  Biso   1.000  H
  H1570    1.0000 0.58494  0.19660  0.72506  Biso   1.000  H
  H1571    1.0000 0.63612  0.23456  0.81084  Biso   1.000  H
  H1572    1.0000 0.66141  0.29907  0.84496  Biso   1.000  H
  C2321    1.0000 0.71182  0.26818  0.81185  Biso   1.000  C
  H1573    1.0000 0.66145  0.29907  0.84496  Biso   1.000  H
  C2322    1.0000 0.71181  0.26814  0.81185  Biso   1.000  C
  H1574    1.0000 0.63608  0.23456  0.81084  Biso   1.000  H
  C2323    1.0000 0.71179  0.26818  0.81185  Biso   1.000  C
  O336     1.0000 0.63942  0.52788  0.94534  Biso   1.000  O
  O337     1.0000 0.63946  0.52788  0.94534  Biso   1.000  O
  C2324    1.0000 0.92742  0.91625  0.52275  Biso   1.000  C
  C2325    1.0000 0.92745  0.91625  0.52275  Biso   1.000  C
  C2326    1.0000 0.39836  0.85500  0.11908  Biso   1.000  C
  H1575    1.0000 0.54289  0.30465  0.58165  Biso   1.000  H
  H1576    1.0000 0.57907  0.27546  0.59854  Biso   1.000  H
  H1577    1.0000 0.57911  0.27546  0.59854  Biso   1.000  H
  H1578    1.0000 0.59618  0.34005  0.62762  Biso   1.000  H
  H1579    1.0000 0.59623  0.34006  0.62766  Biso   1.000  H
  H1580    1.0000 0.59619  0.34006  0.62766  Biso   1.000  H
  H1581    1.0000 0.59622  0.34005  0.62762  Biso   1.000  H
  B182     1.0000 0.60735  0.55660  0.93187  Biso   1.000  B
  B183     1.0000 0.60734  0.55657  0.93187  Biso   1.000  B
  B184     1.0000 0.60731  0.55660  0.93187  Biso   1.000  B
  H1582    1.0000 0.70890  0.23056  0.79314  Biso   1.000  H
  H1583    1.0000 0.73511  0.28346  0.84674  Biso   1.000  H
  H1584    1.0000 0.72579  0.28987  0.79516  Biso   1.000  H
  H1585    1.0000 0.72583  0.28987  0.79516  Biso   1.000  H
  H1586    1.0000 0.73512  0.28350  0.84674  Biso   1.000  H
  C2327    1.0000 0.97614  0.95876  0.53983  Biso   1.000  C
  C2328    1.0000 0.88202  0.92847  0.52244  Biso   1.000  C
  C2329    1.0000 0.88205  0.92847  0.52244  Biso   1.000  C
  C2330    1.0000 0.88201  0.92843  0.52244  Biso   1.000  C
  C2331    1.0000 0.97610  0.95876  0.53983  Biso   1.000  C
  C2332    1.0000 0.88204  0.92843  0.52244  Biso   1.000  C
  C2333    1.0000 0.42857  0.89848  0.11191  Biso   1.000  C
  C2334    1.0000 0.39169  0.86479  0.16698  Biso   1.000  C
  C2335    1.0000 0.42857  0.89850  0.11187  Biso   1.000  C
  C2336    1.0000 0.39166  0.86483  0.16698  Biso   1.000  C
  C2337    1.0000 0.42858  0.89852  0.11191  Biso   1.000  C
  C2338    1.0000 0.39166  0.86479  0.16698  Biso   1.000  C
  C2339    1.0000 0.42856  0.89847  0.11187  Biso   1.000  C
  C2340    1.0000 0.39170  0.86483  0.16698  Biso   1.000  C
  C2341    1.0000 0.60085  0.60627  0.97245  Biso   1.000  C
  C2342    1.0000 0.60086  0.60631  0.97245  Biso   1.000  C
  C2343    1.0000 0.60081  0.60627  0.97245  Biso   1.000  C
  C2344    1.0000 0.97936  0.01347  0.55663  Biso   1.000  C
  C2345    1.0000 0.97935  0.01343  0.55663  Biso   1.000  C
  C2346    1.0000 0.97940  0.01347  0.55663  Biso   1.000  C
  H1587    1.0000 0.00651  0.95066  0.53994  Biso   1.000  H
  H1588    1.0000 0.00654  0.95066  0.53994  Biso   1.000  H
  H1589    1.0000 0.84943  0.90004  0.51094  Biso   1.000  H
  C2347    1.0000 0.88535  0.98317  0.53925  Biso   1.000  C
  C2348    1.0000 0.88534  0.98314  0.53925  Biso   1.000  C
  H1590    1.0000 0.84944  0.90008  0.51094  Biso   1.000  H
  H1591    1.0000 0.84939  0.90004  0.51094  Biso   1.000  H
  C2349    1.0000 0.88531  0.98317  0.53925  Biso   1.000  C
  C2350    1.0000 0.45209  0.95169  0.15250  Biso   1.000  C
  H1592    1.0000 0.43310  0.89190  0.07988  Biso   1.000  H
  C2351    1.0000 0.45210  0.95173  0.15250  Biso   1.000  C
  H1593    1.0000 0.43306  0.89190  0.07988  Biso   1.000  H
  C2352    1.0000 0.45206  0.95169  0.15250  Biso   1.000  C
  C2353    1.0000 0.41519  0.91802  0.20761  Biso   1.000  C
  H1594    1.0000 0.37148  0.83568  0.17179  Biso   1.000  H
  H1595    1.0000 0.37149  0.83572  0.17179  Biso   1.000  H
  H1596    1.0000 0.37144  0.83568  0.17179  Biso   1.000  H
  C2354    1.0000 0.57163  0.63359  0.95545  Biso   1.000  C
  C2355    1.0000 0.57166  0.63359  0.95545  Biso   1.000  C
  C2356    1.0000 0.62344  0.62379  0.02508  Biso   1.000  C
  C2357    1.0000 0.62345  0.62382  0.02508  Biso   1.000  C
  C2358    1.0000 0.62348  0.62379  0.02508  Biso   1.000  C
  C2359    1.0000 0.93395  0.02565  0.55632  Biso   1.000  C
  C2360    1.0000 0.93399  0.02565  0.55632  Biso   1.000  C
  B185     1.0000 0.03280  0.05828  0.57716  Biso   1.000  B
  B186     1.0000 0.03275  0.05826  0.57712  Biso   1.000  B
  B187     1.0000 0.03275  0.05824  0.57716  Biso   1.000  B
  B188     1.0000 0.03276  0.05828  0.57716  Biso   1.000  B
  B189     1.0000 0.03278  0.05826  0.57712  Biso   1.000  B
  B190     1.0000 0.03279  0.05824  0.57716  Biso   1.000  B
  B191     1.0000 0.83413  0.99626  0.53754  Biso   1.000  B
  B192     1.0000 0.83410  0.99626  0.53754  Biso   1.000  B
  C2361    1.0000 0.44540  0.96151  0.20029  Biso   1.000  C
  B193     1.0000 0.48389  0.99870  0.14239  Biso   1.000  B
  B194     1.0000 0.48390  0.99874  0.14239  Biso   1.000  B
  C2362    1.0000 0.44536  0.96151  0.20029  Biso   1.000  C
  B195     1.0000 0.48385  0.99870  0.14239  Biso   1.000  B
  B196     1.0000 0.40699  0.92641  0.25710  Biso   1.000  B
  B197     1.0000 0.40700  0.92645  0.25710  Biso   1.000  B
  B198     1.0000 0.40696  0.92641  0.25710  Biso   1.000  B
  H1597    1.0000 0.55644  0.62189  0.92017  Biso   1.000  H
  C2363    1.0000 0.56517  0.67851  0.99128  Biso   1.000  C
  C2364    1.0000 0.56516  0.67847  0.99128  Biso   1.000  C
  C2365    1.0000 0.56514  0.67851  0.99128  Biso   1.000  C
  C2366    1.0000 0.61696  0.66868  0.06079  Biso   1.000  C
  H1598    1.0000 0.64294  0.60546  0.03639  Biso   1.000  H
  C2367    1.0000 0.61694  0.66872  0.06079  Biso   1.000  C
  H1599    1.0000 0.64295  0.60550  0.03639  Biso   1.000  H
  C2368    1.0000 0.61693  0.66868  0.06079  Biso   1.000  C
  H1600    1.0000 0.64297  0.60546  0.03639  Biso   1.000  H
  C2369    1.0000 0.61697  0.66872  0.06079  Biso   1.000  C
  H1601    1.0000 0.93617  0.06225  0.56756  Biso   1.000  H
  H1602    1.0000 0.93615  0.06223  0.56752  Biso   1.000  H
  H1603    1.0000 0.93616  0.06227  0.56752  Biso   1.000  H
  H1604    1.0000 0.93620  0.06225  0.56756  Biso   1.000  H
  O338     1.0000 0.04538  0.11488  0.59695  Biso   1.000  O
  O339     1.0000 0.08139  0.04827  0.57913  Biso   1.000  O
  O340     1.0000 0.04537  0.11484  0.59695  Biso   1.000  O
  O341     1.0000 0.08136  0.04827  0.57913  Biso   1.000  O
  O342     1.0000 0.08135  0.04823  0.57913  Biso   1.000  O
  O343     1.0000 0.04535  0.11488  0.59695  Biso   1.000  O
  O344     1.0000 0.08138  0.04823  0.57913  Biso   1.000  O
  O345     1.0000 0.78632  0.95465  0.52213  Biso   1.000  O
  O346     1.0000 0.83427  0.05045  0.55783  Biso   1.000  O
  O347     1.0000 0.83426  0.05042  0.55783  Biso   1.000  O
  H1605    1.0000 0.46110  0.99710  0.22751  Biso   1.000  H
  H1606    1.0000 0.46109  0.99712  0.22748  Biso   1.000  H
  H1607    1.0000 0.46111  0.99713  0.22751  Biso   1.000  H
  H1608    1.0000 0.46105  0.99708  0.22748  Biso   1.000  H
  H1609    1.0000 0.46108  0.99708  0.22748  Biso   1.000  H
  O348     1.0000 0.49490  0.99639  0.09921  Biso   1.000  O
  O349     1.0000 0.49486  0.99641  0.09917  Biso   1.000  O
  O350     1.0000 0.49487  0.99639  0.09921  Biso   1.000  O
  O351     1.0000 0.49485  0.99637  0.09917  Biso   1.000  O
  O352     1.0000 0.49490  0.99641  0.09917  Biso   1.000  O
  O353     1.0000 0.50624  0.05530  0.18220  Biso   1.000  O
  O354     1.0000 0.50620  0.05530  0.18220  Biso   1.000  O
  O355     1.0000 0.37889  0.88680  0.26961  Biso   1.000  O
  O356     1.0000 0.42309  0.97909  0.30199  Biso   1.000  O
  O357     1.0000 0.37890  0.88684  0.26961  Biso   1.000  O
  O358     1.0000 0.42310  0.97913  0.30199  Biso   1.000  O
  O359     1.0000 0.37885  0.88680  0.26961  Biso   1.000  O
  O360     1.0000 0.42306  0.97909  0.30199  Biso   1.000  O
  B199     1.0000 0.53146  0.70728  0.97036  Biso   1.000  B
  B200     1.0000 0.53147  0.70732  0.97036  Biso   1.000  B
  B201     1.0000 0.53143  0.70728  0.97036  Biso   1.000  B
  C2370    1.0000 0.58776  0.69598  0.04391  Biso   1.000  C
  C2371    1.0000 0.58772  0.69600  0.04387  Biso   1.000  C
  C2372    1.0000 0.58777  0.69602  0.04391  Biso   1.000  C
  C2373    1.0000 0.58775  0.69596  0.04387  Biso   1.000  C
  C2374    1.0000 0.58776  0.69600  0.04387  Biso   1.000  C
  C2375    1.0000 0.58771  0.69596  0.04387  Biso   1.000  C
  B202     1.0000 0.64397  0.68959  0.11609  Biso   1.000  B
  B203     1.0000 0.64394  0.68962  0.11609  Biso   1.000  B
  B204     1.0000 0.64393  0.68959  0.11609  Biso   1.000  B
  B205     1.0000 0.64398  0.68962  0.11609  Biso   1.000  B
  C2376    1.0000 0.09849  0.14076  0.61155  Biso   1.000  C
  C2377    1.0000 0.09845  0.14076  0.61155  Biso   1.000  C
  C2378    1.0000 0.11999  0.09976  0.60024  Biso   1.000  C
  C2379    1.0000 0.11996  0.09976  0.60024  Biso   1.000  C
  C2380    1.0000 0.11995  0.09972  0.60024  Biso   1.000  C
  C2381    1.0000 0.11998  0.09972  0.60024  Biso   1.000  C
  C2382    1.0000 0.75211  0.98295  0.53154  Biso   1.000  C
  C2383    1.0000 0.75215  0.98295  0.53154  Biso   1.000  C
  C2384    1.0000 0.75212  0.98298  0.53154  Biso   1.000  C
  C2385    1.0000 0.75216  0.98298  0.53154  Biso   1.000  C
  C2386    1.0000 0.78135  0.03934  0.55152  Biso   1.000  C
  C2387    1.0000 0.78138  0.03934  0.55152  Biso   1.000  C
  C2388    1.0000 0.52290  0.04798  0.10568  Biso   1.000  C
  C2389    1.0000 0.52291  0.04802  0.10568  Biso   1.000  C
  C2390    1.0000 0.52293  0.04798  0.10568  Biso   1.000  C
  C2391    1.0000 0.52965  0.08291  0.15641  Biso   1.000  C
  C2392    1.0000 0.52960  0.08286  0.15637  Biso   1.000  C
  C2393    1.0000 0.52962  0.08291  0.15641  Biso   1.000  C
  C2394    1.0000 0.52964  0.08290  0.15637  Biso   1.000  C
  C2395    1.0000 0.52961  0.08290  0.15637  Biso   1.000  C
  C2396    1.0000 0.37742  0.91020  0.31872  Biso   1.000  C
  C2397    1.0000 0.37739  0.91024  0.31872  Biso   1.000  C
  C2398    1.0000 0.37738  0.91020  0.31872  Biso   1.000  C
  C2399    1.0000 0.37743  0.91024  0.31872  Biso   1.000  C
  C2400    1.0000 0.40522  0.96690  0.33800  Biso   1.000  C
  C2401    1.0000 0.40519  0.96694  0.33800  Biso   1.000  C
  C2402    1.0000 0.40518  0.96690  0.33800  Biso   1.000  C
  C2403    1.0000 0.40523  0.96694  0.33800  Biso   1.000  C
  O361     1.0000 0.50995  0.69060  0.91808  Biso   1.000  O
  O362     1.0000 0.50993  0.69055  0.91804  Biso   1.000  O
  O363     1.0000 0.50994  0.69059  0.91804  Biso   1.000  O
  O364     1.0000 0.52055  0.75149  0.00328  Biso   1.000  O
  O365     1.0000 0.52058  0.75149  0.00328  Biso   1.000  O
  H1610    1.0000 0.58347  0.72600  0.06780  Biso   1.000  H
  H1611    1.0000 0.58343  0.72600  0.06780  Biso   1.000  H
  O366     1.0000 0.64086  0.73370  0.15730  Biso   1.000  O
  O367     1.0000 0.67657  0.66609  0.13809  Biso   1.000  O
  O368     1.0000 0.64087  0.73374  0.15730  Biso   1.000  O
  O369     1.0000 0.67655  0.66613  0.13809  Biso   1.000  O
  O370     1.0000 0.67654  0.66609  0.13809  Biso   1.000  O
  O371     1.0000 0.64090  0.73370  0.15730  Biso   1.000  O
  O372     1.0000 0.67658  0.66613  0.13809  Biso   1.000  O
  C2404    1.0000 0.13129  0.19638  0.63343  Biso   1.000  C
  C2405    1.0000 0.13128  0.19634  0.63343  Biso   1.000  C
  C2406    1.0000 0.13126  0.19638  0.63343  Biso   1.000  C
  C2407    1.0000 0.17419  0.11425  0.61093  Biso   1.000  C
  C2408    1.0000 0.17415  0.11425  0.61093  Biso   1.000  C
  C2409    1.0000 0.69824  0.96466  0.52344  Biso   1.000  C
  C2410    1.0000 0.69820  0.96466  0.52344  Biso   1.000  C
  C2411    1.0000 0.75658  0.07745  0.56364  Biso   1.000  C
  C2412    1.0000 0.75654  0.07745  0.56364  Biso   1.000  C
  C2413    1.0000 0.54172  0.07008  0.07438  Biso   1.000  C
  C2414    1.0000 0.54167  0.07006  0.07435  Biso   1.000  C
  C2415    1.0000 0.54173  0.07012  0.07438  Biso   1.000  C
  C2416    1.0000 0.54171  0.07006  0.07435  Biso   1.000  C
  C2417    1.0000 0.55522  0.13989  0.17581  Biso   1.000  C
  C2418    1.0000 0.55525  0.13989  0.17581  Biso   1.000  C
  C2419    1.0000 0.35389  0.88976  0.34881  Biso   1.000  C
  C2420    1.0000 0.35390  0.88980  0.34881  Biso   1.000  C
  C2421    1.0000 0.35393  0.88980  0.34881  Biso   1.000  C
  C2422    1.0000 0.40947  0.00303  0.38742  Biso   1.000  C
  C2423    1.0000 0.40941  0.00298  0.38738  Biso   1.000  C
  C2424    1.0000 0.40943  0.00303  0.38742  Biso   1.000  C
  C2425    1.0000 0.40946  0.00301  0.38738  Biso   1.000  C
  C2426    1.0000 0.40945  0.00298  0.38738  Biso   1.000  C
  C2427    1.0000 0.40942  0.00301  0.38738  Biso   1.000  C
  C2428    1.0000 0.48392  0.72556  0.91634  Biso   1.000  C
  C2429    1.0000 0.48396  0.72558  0.91638  Biso   1.000  C
  C2430    1.0000 0.48397  0.72562  0.91638  Biso   1.000  C
  C2431    1.0000 0.48393  0.72558  0.91638  Biso   1.000  C
  C2432    1.0000 0.48395  0.72556  0.91634  Biso   1.000  C
  C2433    1.0000 0.49069  0.76111  0.96688  Biso   1.000  C
  C2434    1.0000 0.49063  0.76106  0.96684  Biso   1.000  C
  C2435    1.0000 0.49065  0.76111  0.96688  Biso   1.000  C
  C2436    1.0000 0.49064  0.76109  0.96684  Biso   1.000  C
  C2437    1.0000 0.49067  0.76106  0.96684  Biso   1.000  C
  C2438    1.0000 0.67148  0.73821  0.20230  Biso   1.000  C
  C2439    1.0000 0.67145  0.73821  0.20230  Biso   1.000  C
  C2440    1.0000 0.69308  0.69731  0.19080  Biso   1.000  C
  C2441    1.0000 0.69304  0.69731  0.19080  Biso   1.000  C
  H1612    1.0000 0.11700  0.22378  0.64094  Biso   1.000  H
  C2442    1.0000 0.18561  0.21089  0.64416  Biso   1.000  C
  H1613    1.0000 0.11697  0.22378  0.64094  Biso   1.000  H
  C2443    1.0000 0.18555  0.21083  0.64412  Biso   1.000  C
  H1614    1.0000 0.11696  0.22374  0.64094  Biso   1.000  H
  C2444    1.0000 0.18560  0.21085  0.64416  Biso   1.000  C
  C2445    1.0000 0.18556  0.21087  0.64412  Biso   1.000  C
  C2446    1.0000 0.18557  0.21089  0.64416  Biso   1.000  C
  C2447    1.0000 0.18558  0.21083  0.64412  Biso   1.000  C
  H1615    1.0000 0.11699  0.22374  0.64094  Biso   1.000  H
  C2448    1.0000 0.20700  0.16989  0.63285  Biso   1.000  C
  H1616    1.0000 0.18860  0.08687  0.60346  Biso   1.000  H
  C2449    1.0000 0.20696  0.16985  0.63285  Biso   1.000  C
  H1617    1.0000 0.18855  0.08685  0.60342  Biso   1.000  H
  H1618    1.0000 0.18855  0.08684  0.60346  Biso   1.000  H
  C2450    1.0000 0.20697  0.16989  0.63285  Biso   1.000  C
  H1619    1.0000 0.18856  0.08687  0.60346  Biso   1.000  H
  C2451    1.0000 0.20699  0.16985  0.63285  Biso   1.000  C
  H1620    1.0000 0.18858  0.08685  0.60342  Biso   1.000  H
  H1621    1.0000 0.18859  0.08684  0.60346  Biso   1.000  H
  H1622    1.0000 0.67862  0.92695  0.51004  Biso   1.000  H
  H1623    1.0000 0.67863  0.92699  0.51004  Biso   1.000  H
  C2452    1.0000 0.67335  0.00275  0.53553  Biso   1.000  C
  C2453    1.0000 0.67334  0.00271  0.53553  Biso   1.000  C
  C2454    1.0000 0.67338  0.00275  0.53553  Biso   1.000  C
  C2455    1.0000 0.70256  0.05917  0.55555  Biso   1.000  C
  H1624    1.0000 0.77608  0.11527  0.57704  Biso   1.000  H
  C2456    1.0000 0.70255  0.05913  0.55555  Biso   1.000  C
  H1625    1.0000 0.77607  0.11524  0.57704  Biso   1.000  H
  C2457    1.0000 0.70259  0.05917  0.55555  Biso   1.000  C
  C2458    1.0000 0.56732  0.12717  0.09379  Biso   1.000  C
  H1626    1.0000 0.53721  0.04677  0.04038  Biso   1.000  H
  C2459    1.0000 0.56733  0.12721  0.09379  Biso   1.000  C
  H1627    1.0000 0.53722  0.04681  0.04038  Biso   1.000  H
  C2460    1.0000 0.56735  0.12717  0.09379  Biso   1.000  C
  H1628    1.0000 0.55976  0.16332  0.20982  Biso   1.000  H
  C2461    1.0000 0.57401  0.16205  0.14448  Biso   1.000  C
  H1629    1.0000 0.55971  0.16330  0.20978  Biso   1.000  H
  H1630    1.0000 0.55972  0.16332  0.20982  Biso   1.000  H
  C2462    1.0000 0.57402  0.16209  0.14448  Biso   1.000  C
  H1631    1.0000 0.55975  0.16330  0.20978  Biso   1.000  H
  C2463    1.0000 0.57405  0.16205  0.14448  Biso   1.000  C
  H1632    1.0000 0.33531  0.85192  0.33591  Biso   1.000  H
  C2464    1.0000 0.35823  0.92590  0.39830  Biso   1.000  C
  H1633    1.0000 0.33532  0.85196  0.33591  Biso   1.000  H
  C2465    1.0000 0.35820  0.92593  0.39830  Biso   1.000  C
  H1634    1.0000 0.33527  0.85192  0.33591  Biso   1.000  H
  C2466    1.0000 0.35819  0.92590  0.39830  Biso   1.000  C
  C2467    1.0000 0.35824  0.92593  0.39830  Biso   1.000  C
  C2468    1.0000 0.38601  0.98252  0.41759  Biso   1.000  C
  C2469    1.0000 0.38602  0.98256  0.41759  Biso   1.000  C
  H1635    1.0000 0.42804  0.04091  0.40040  Biso   1.000  H
  H1636    1.0000 0.42807  0.04091  0.40040  Biso   1.000  H
  C2470    1.0000 0.45446  0.73001  0.87498  Biso   1.000  C
  C2471    1.0000 0.45443  0.72995  0.87494  Biso   1.000  C
  C2472    1.0000 0.45441  0.72999  0.87494  Biso   1.000  C
  C2473    1.0000 0.45444  0.72999  0.87494  Biso   1.000  C
  C2474    1.0000 0.46784  0.80097  0.97594  Biso   1.000  C
  C2475    1.0000 0.46789  0.80099  0.97598  Biso   1.000  C
  C2476    1.0000 0.46785  0.80099  0.97598  Biso   1.000  C
  C2477    1.0000 0.46788  0.80097  0.97594  Biso   1.000  C
  C2478    1.0000 0.68299  0.77539  0.25362  Biso   1.000  C
  C2479    1.0000 0.68295  0.77541  0.25358  Biso   1.000  C
  C2480    1.0000 0.68296  0.77543  0.25362  Biso   1.000  C
  C2481    1.0000 0.68298  0.77538  0.25358  Biso   1.000  C
  C2482    1.0000 0.68299  0.77541  0.25358  Biso   1.000  C
  C2483    1.0000 0.68300  0.77543  0.25362  Biso   1.000  C
  C2484    1.0000 0.68294  0.77538  0.25358  Biso   1.000  C
  C2485    1.0000 0.72608  0.69360  0.23042  Biso   1.000  C
  C2486    1.0000 0.72608  0.69362  0.23038  Biso   1.000  C
  C2487    1.0000 0.72607  0.69358  0.23038  Biso   1.000  C
  C2488    1.0000 0.22571  0.27005  0.67084  Biso   1.000  C
  C2489    1.0000 0.22568  0.27005  0.67084  Biso   1.000  C
  C2490    1.0000 0.22569  0.27009  0.67084  Biso   1.000  C
  C2491    1.0000 0.27000  0.19315  0.64993  Biso   1.000  C
  C2492    1.0000 0.26997  0.19315  0.64993  Biso   1.000  C
  C2493    1.0000 0.26998  0.19318  0.64993  Biso   1.000  C
  C2494    1.0000 0.61302  0.98337  0.52724  Biso   1.000  C
  C2495    1.0000 0.66659  0.09399  0.56945  Biso   1.000  C
  C2496    1.0000 0.66654  0.09393  0.56941  Biso   1.000  C
  C2497    1.0000 0.66655  0.09395  0.56945  Biso   1.000  C
  C2498    1.0000 0.66658  0.09397  0.56941  Biso   1.000  C
  C2499    1.0000 0.66657  0.09393  0.56941  Biso   1.000  C
  C2500    1.0000 0.66658  0.09395  0.56945  Biso   1.000  C
  C2501    1.0000 0.66655  0.09397  0.56941  Biso   1.000  C
  C2502    1.0000 0.58860  0.15088  0.06188  Biso   1.000  C
  C2503    1.0000 0.58864  0.15088  0.06188  Biso   1.000  C
  C2504    1.0000 0.60214  0.22310  0.15889  Biso   1.000  C
  C2505    1.0000 0.60211  0.22310  0.15889  Biso   1.000  C
  C2506    1.0000 0.33360  0.90610  0.43060  Biso   1.000  C
  C2507    1.0000 0.33361  0.90613  0.43060  Biso   1.000  C
  C2508    1.0000 0.33357  0.90613  0.43060  Biso   1.000  C
  C2509    1.0000 0.38717  0.01672  0.47282  Biso   1.000  C
  C2510    1.0000 0.38713  0.01672  0.47282  Biso   1.000  C
  C2511    1.0000 0.43164  0.76988  0.88415  Biso   1.000  C
  H1637    1.0000 0.44994  0.70619  0.84124  Biso   1.000  H
  C2512    1.0000 0.43167  0.76988  0.88415  Biso   1.000  C
  H1638    1.0000 0.44993  0.70615  0.84124  Biso   1.000  H
  H1639    1.0000 0.44990  0.70619  0.84124  Biso   1.000  H
  C2513    1.0000 0.43835  0.80538  0.93466  Biso   1.000  C
  C2514    1.0000 0.43836  0.80541  0.93466  Biso   1.000  C
  C2515    1.0000 0.43831  0.80538  0.93466  Biso   1.000  C
  H1640    1.0000 0.47226  0.82468  0.00967  Biso   1.000  H
  H1641    1.0000 0.47223  0.82471  0.00967  Biso   1.000  H
  H1642    1.0000 0.47222  0.82468  0.00967  Biso   1.000  H
  H1643    1.0000 0.47227  0.82471  0.00967  Biso   1.000  H
  H1644    1.0000 0.66859  0.80279  0.26129  Biso   1.000  H
  C2516    1.0000 0.71610  0.77160  0.29320  Biso   1.000  C
  H1645    1.0000 0.66856  0.80283  0.26129  Biso   1.000  H
  C2517    1.0000 0.71608  0.77163  0.29320  Biso   1.000  C
  H1646    1.0000 0.66855  0.80279  0.26129  Biso   1.000  H
  C2518    1.0000 0.71607  0.77160  0.29320  Biso   1.000  C
  H1647    1.0000 0.66860  0.80283  0.26129  Biso   1.000  H
  C2519    1.0000 0.73759  0.73069  0.28169  Biso   1.000  C
  H1648    1.0000 0.74047  0.66619  0.22271  Biso   1.000  H
  C2520    1.0000 0.73757  0.73073  0.28169  Biso   1.000  C
  H1649    1.0000 0.74047  0.66621  0.22267  Biso   1.000  H
  C2521    1.0000 0.73756  0.73069  0.28169  Biso   1.000  C
  H1650    1.0000 0.74048  0.66623  0.22271  Biso   1.000  H
  H1651    1.0000 0.74046  0.66617  0.22267  Biso   1.000  H
  H1652    1.0000 0.74051  0.66619  0.22271  Biso   1.000  H
  C2522    1.0000 0.73760  0.73073  0.28169  Biso   1.000  C
  C2523    1.0000 0.26121  0.27335  0.63924  Biso   1.000  C
  H1653    1.0000 0.21082  0.29927  0.67936  Biso   1.000  H
  C2524    1.0000 0.26260  0.26939  0.71836  Biso   1.000  C
  C2525    1.0000 0.26117  0.27335  0.63924  Biso   1.000  C
  H1654    1.0000 0.21077  0.29925  0.67932  Biso   1.000  H
  C2526    1.0000 0.26259  0.26937  0.71832  Biso   1.000  C
  H1655    1.0000 0.21079  0.29927  0.67936  Biso   1.000  H
  C2527    1.0000 0.26259  0.26935  0.71836  Biso   1.000  C
  C2528    1.0000 0.26255  0.26937  0.71832  Biso   1.000  C
  H1656    1.0000 0.21081  0.29925  0.67932  Biso   1.000  H
  C2529    1.0000 0.28188  0.23196  0.62545  Biso   1.000  C
  H1657    1.0000 0.28550  0.16457  0.64125  Biso   1.000  H
  C2530    1.0000 0.28409  0.22848  0.70686  Biso   1.000  C
  H1658    1.0000 0.28546  0.16457  0.64125  Biso   1.000  H
  C2531    1.0000 0.28408  0.22845  0.70686  Biso   1.000  C
  C2532    1.0000 0.61418  0.01756  0.58247  Biso   1.000  C
  C2533    1.0000 0.61415  0.01756  0.58247  Biso   1.000  C
  C2534    1.0000 0.61414  0.01752  0.58247  Biso   1.000  C
  C2535    1.0000 0.61417  0.01752  0.58247  Biso   1.000  C
  H1659    1.0000 0.59363  0.94327  0.51194  Biso   1.000  H
  H1660    1.0000 0.59360  0.94327  0.51194  Biso   1.000  H
  C2536    1.0000 0.59506  0.01296  0.49792  Biso   1.000  C
  C2537    1.0000 0.59503  0.01296  0.49792  Biso   1.000  C
  C2538    1.0000 0.59505  0.01292  0.49792  Biso   1.000  C
  C2539    1.0000 0.64197  0.07419  0.60175  Biso   1.000  C
  C2540    1.0000 0.64196  0.07415  0.60175  Biso   1.000  C
  C2541    1.0000 0.64200  0.07419  0.60175  Biso   1.000  C
  C2542    1.0000 0.62257  0.06983  0.51853  Biso   1.000  C
  H1661    1.0000 0.68506  0.13425  0.58494  Biso   1.000  H
  C2543    1.0000 0.62254  0.06983  0.51853  Biso   1.000  C
  C2544    1.0000 0.62258  0.06987  0.51853  Biso   1.000  C
  H1662    1.0000 0.68510  0.13425  0.58494  Biso   1.000  H
  C2545    1.0000 0.62255  0.06987  0.51853  Biso   1.000  C
  C2546    1.0000 0.64602  0.18790  0.09549  Biso   1.000  C
  H1663    1.0000 0.58350  0.12419  0.02679  Biso   1.000  H
  C2547    1.0000 0.56184  0.19470  0.06540  Biso   1.000  C
  C2548    1.0000 0.56181  0.19470  0.06540  Biso   1.000  C
  H1664    1.0000 0.58354  0.12419  0.02679  Biso   1.000  H
  C2549    1.0000 0.64606  0.18790  0.09549  Biso   1.000  C
  C2550    1.0000 0.65144  0.22511  0.14499  Biso   1.000  C
  H1665    1.0000 0.60733  0.24920  0.19429  Biso   1.000  H
  C2551    1.0000 0.56852  0.23020  0.11590  Biso   1.000  C
  C2552    1.0000 0.65139  0.22507  0.14499  Biso   1.000  C
  C2553    1.0000 0.56856  0.23020  0.11590  Biso   1.000  C
  H1666    1.0000 0.60736  0.24920  0.19429  Biso   1.000  H
  C2554    1.0000 0.65143  0.22507  0.14499  Biso   1.000  C
  C2555    1.0000 0.65140  0.22511  0.14499  Biso   1.000  C
  C2556    1.0000 0.29763  0.94092  0.44451  Biso   1.000  C
  C2557    1.0000 0.29761  0.94095  0.44451  Biso   1.000  C
  C2558    1.0000 0.29760  0.94092  0.44451  Biso   1.000  C
  C2559    1.0000 0.37762  0.93025  0.48153  Biso   1.000  C
  H1667    1.0000 0.31513  0.86583  0.41511  Biso   1.000  H
  C2560    1.0000 0.37761  0.93023  0.48149  Biso   1.000  C
  H1668    1.0000 0.31510  0.86583  0.41511  Biso   1.000  H
  C2561    1.0000 0.32685  0.99733  0.46453  Biso   1.000  C
  C2562    1.0000 0.32681  0.99735  0.46449  Biso   1.000  C
  C2563    1.0000 0.32681  0.99733  0.46453  Biso   1.000  C
  C2564    1.0000 0.32680  0.99731  0.46449  Biso   1.000  C
  C2565    1.0000 0.32684  0.99735  0.46449  Biso   1.000  C
  C2566    1.0000 0.40513  0.98712  0.50213  Biso   1.000  C
  C2567    1.0000 0.40513  0.98714  0.50209  Biso   1.000  C
  C2568    1.0000 0.40514  0.98716  0.50213  Biso   1.000  C
  C2569    1.0000 0.40508  0.98711  0.50209  Biso   1.000  C
  C2570    1.0000 0.40510  0.98712  0.50213  Biso   1.000  C
  C2571    1.0000 0.40512  0.98711  0.50209  Biso   1.000  C
  H1669    1.0000 0.40656  0.05681  0.48811  Biso   1.000  H
  H1670    1.0000 0.40652  0.05681  0.48811  Biso   1.000  H
  H1671    1.0000 0.40657  0.05685  0.48811  Biso   1.000  H
  C2572    1.0000 0.39805  0.77698  0.84117  Biso   1.000  C
  C2573    1.0000 0.39801  0.77698  0.84117  Biso   1.000  C
  C2574    1.0000 0.41154  0.84918  0.93814  Biso   1.000  C
  C2575    1.0000 0.41159  0.84920  0.93818  Biso   1.000  C
  C2576    1.0000 0.41156  0.84920  0.93818  Biso   1.000  C
  C2577    1.0000 0.73019  0.80694  0.35013  Biso   1.000  C
  C2578    1.0000 0.73018  0.80692  0.35009  Biso   1.000  C
  C2579    1.0000 0.73021  0.80692  0.35009  Biso   1.000  C
  C2580    1.0000 0.73023  0.80694  0.35013  Biso   1.000  C
  C2581    1.0000 0.77448  0.73003  0.32921  Biso   1.000  C
  C2582    1.0000 0.77452  0.73003  0.32921  Biso   1.000  C
  C2583    1.0000 0.27110  0.31317  0.62073  Biso   1.000  C
  C2584    1.0000 0.27106  0.31317  0.62073  Biso   1.000  C
  C2585    1.0000 0.27109  0.31313  0.62073  Biso   1.000  C
  C2586    1.0000 0.27411  0.30648  0.76964  Biso   1.000  C
  C2587    1.0000 0.27408  0.30648  0.76964  Biso   1.000  C
  C2588    1.0000 0.27410  0.30644  0.76964  Biso   1.000  C
  C2589    1.0000 0.31259  0.23027  0.59315  Biso   1.000  C
  C2590    1.0000 0.31258  0.23025  0.59312  Biso   1.000  C
  C2591    1.0000 0.31258  0.23023  0.59315  Biso   1.000  C
  C2592    1.0000 0.31254  0.23025  0.59312  Biso   1.000  C
  C2593    1.0000 0.31720  0.22469  0.74644  Biso   1.000  C
  C2594    1.0000 0.31719  0.22465  0.74644  Biso   1.000  C
  C2595    1.0000 0.31717  0.22469  0.74644  Biso   1.000  C
  C2596    1.0000 0.59072  0.99705  0.61263  Biso   1.000  C
  C2597    1.0000 0.59073  0.99709  0.61263  Biso   1.000  C
  C2598    1.0000 0.55522  0.98536  0.45025  Biso   1.000  C
  C2599    1.0000 0.55521  0.98534  0.45021  Biso   1.000  C
  C2600    1.0000 0.55518  0.98534  0.45021  Biso   1.000  C
  C2601    1.0000 0.64630  0.11032  0.65125  Biso   1.000  C
  C2602    1.0000 0.64627  0.11032  0.65125  Biso   1.000  C
  C2603    1.0000 0.64626  0.11028  0.65125  Biso   1.000  C
  C2604    1.0000 0.64629  0.11028  0.65125  Biso   1.000  C
  C2605    1.0000 0.61007  0.09904  0.49153  Biso   1.000  C
  C2606    1.0000 0.61003  0.09904  0.49153  Biso   1.000  C
  C2607    1.0000 0.69033  0.18777  0.08039  Biso   1.000  C
  C2608    1.0000 0.69029  0.18777  0.08039  Biso   1.000  C
  C2609    1.0000 0.69030  0.18781  0.08039  Biso   1.000  C
  C2610    1.0000 0.69034  0.18781  0.08039  Biso   1.000  C
  C2611    1.0000 0.53230  0.19909  0.02408  Biso   1.000  C
  C2612    1.0000 0.53234  0.19909  0.02408  Biso   1.000  C
  C2613    1.0000 0.70133  0.26220  0.17930  Biso   1.000  C
  C2614    1.0000 0.70136  0.26220  0.17930  Biso   1.000  C
  C2615    1.0000 0.54574  0.27008  0.12508  Biso   1.000  C
  C2616    1.0000 0.54570  0.27008  0.12508  Biso   1.000  C
  C2617    1.0000 0.54571  0.27011  0.12508  Biso   1.000  C
  C2618    1.0000 0.54575  0.27011  0.12508  Biso   1.000  C
  C2619    1.0000 0.24362  0.92263  0.43641  Biso   1.000  C
  C2620    1.0000 0.24358  0.92263  0.43641  Biso   1.000  C
  C2621    1.0000 0.39013  0.90104  0.50852  Biso   1.000  C
  C2622    1.0000 0.39009  0.90104  0.50852  Biso   1.000  C
  C2623    1.0000 0.30196  0.03542  0.47661  Biso   1.000  C
  C2624    1.0000 0.44497  0.01472  0.54981  Biso   1.000  C
  C2625    1.0000 0.44493  0.01472  0.54981  Biso   1.000  C
  C2626    1.0000 0.34874  0.77495  0.85503  Biso   1.000  C
  H1672    1.0000 0.39282  0.75087  0.80573  Biso   1.000  H
  C2627    1.0000 0.34875  0.77497  0.85507  Biso   1.000  C
  H1673    1.0000 0.39286  0.75088  0.80577  Biso   1.000  H
  C2628    1.0000 0.42618  0.83803  0.85557  Biso   1.000  C
  C2629    1.0000 0.42612  0.83798  0.85553  Biso   1.000  C
  C2630    1.0000 0.34876  0.77501  0.85507  Biso   1.000  C
  H1674    1.0000 0.39283  0.75088  0.80577  Biso   1.000  H
  C2631    1.0000 0.42614  0.83803  0.85557  Biso   1.000  C
  C2632    1.0000 0.34870  0.77495  0.85503  Biso   1.000  C
  C2633    1.0000 0.42613  0.83801  0.85553  Biso   1.000  C
  C2634    1.0000 0.34872  0.77497  0.85507  Biso   1.000  C
  H1675    1.0000 0.39285  0.75087  0.80573  Biso   1.000  H
  C2635    1.0000 0.42616  0.83798  0.85553  Biso   1.000  C
  C2636    1.0000 0.35413  0.81218  0.90456  Biso   1.000  C
  H1676    1.0000 0.41665  0.87590  0.97327  Biso   1.000  H
  C2637    1.0000 0.35417  0.81218  0.90456  Biso   1.000  C
  C2638    1.0000 0.43288  0.87291  0.90627  Biso   1.000  C
  C2639    1.0000 0.43284  0.87291  0.90627  Biso   1.000  C
  H1677    1.0000 0.41669  0.87590  0.97327  Biso   1.000  H
  C2640    1.0000 0.43283  0.87287  0.90627  Biso   1.000  C
  C2641    1.0000 0.43287  0.87287  0.90627  Biso   1.000  C
  C2642    1.0000 0.71831  0.76812  0.37460  Biso   1.000  C
  H1678    1.0000 0.71469  0.83552  0.35880  Biso   1.000  H
  C2643    1.0000 0.79319  0.83019  0.36721  Biso   1.000  C
  C2644    1.0000 0.71828  0.76812  0.37460  Biso   1.000  C
  H1679    1.0000 0.71470  0.83555  0.35880  Biso   1.000  H
  C2645    1.0000 0.79320  0.83023  0.36721  Biso   1.000  C
  C2646    1.0000 0.79322  0.83019  0.36721  Biso   1.000  C
  C2647    1.0000 0.73898  0.72673  0.36082  Biso   1.000  C
  H1680    1.0000 0.78937  0.70081  0.32069  Biso   1.000  H
  C2648    1.0000 0.81459  0.78919  0.35590  Biso   1.000  C
  C2649    1.0000 0.81460  0.78923  0.35590  Biso   1.000  C
  C2650    1.0000 0.73902  0.72673  0.36082  Biso   1.000  C
  H1681    1.0000 0.78941  0.70081  0.32069  Biso   1.000  H
  C2651    1.0000 0.30171  0.31137  0.58843  Biso   1.000  C
  C2652    1.0000 0.25150  0.35958  0.63583  Biso   1.000  C
  C2653    1.0000 0.30167  0.31137  0.58843  Biso   1.000  C
  C2654    1.0000 0.25149  0.35954  0.63583  Biso   1.000  C
  C2655    1.0000 0.30166  0.31133  0.58843  Biso   1.000  C
  C2656    1.0000 0.25146  0.35958  0.63583  Biso   1.000  C
  C2657    1.0000 0.30170  0.31133  0.58843  Biso   1.000  C
  H1682    1.0000 0.25972  0.33389  0.77734  Biso   1.000  H
  C2658    1.0000 0.30711  0.30277  0.80925  Biso   1.000  C
  H1683    1.0000 0.25968  0.33385  0.77734  Biso   1.000  H
  H1684    1.0000 0.25969  0.33389  0.77734  Biso   1.000  H
  C2659    1.0000 0.30708  0.30277  0.80925  Biso   1.000  C
  H1685    1.0000 0.25971  0.33385  0.77734  Biso   1.000  H
  C2660    1.0000 0.32238  0.26998  0.57464  Biso   1.000  C
  C2661    1.0000 0.33411  0.18457  0.57735  Biso   1.000  C
  C2662    1.0000 0.32237  0.26994  0.57464  Biso   1.000  C
  C2663    1.0000 0.33406  0.18455  0.57731  Biso   1.000  C
  C2664    1.0000 0.33406  0.18453  0.57735  Biso   1.000  C
  C2665    1.0000 0.33407  0.18457  0.57735  Biso   1.000  C
  C2666    1.0000 0.33410  0.18455  0.57731  Biso   1.000  C
  C2667    1.0000 0.33410  0.18453  0.57735  Biso   1.000  C
  C2668    1.0000 0.32871  0.26187  0.79775  Biso   1.000  C
  H1686    1.0000 0.33160  0.19729  0.73877  Biso   1.000  H
  H1687    1.0000 0.33159  0.19727  0.73873  Biso   1.000  H
  H1688    1.0000 0.33160  0.19725  0.73877  Biso   1.000  H
  C2669    1.0000 0.32868  0.26187  0.79775  Biso   1.000  C
  H1689    1.0000 0.33156  0.19727  0.73873  Biso   1.000  H
  C2670    1.0000 0.59497  0.03318  0.66205  Biso   1.000  C
  C2671    1.0000 0.59496  0.03314  0.66205  Biso   1.000  C
  C2672    1.0000 0.59501  0.03318  0.66205  Biso   1.000  C
  H1690    1.0000 0.57211  0.95915  0.59962  Biso   1.000  H
  H1691    1.0000 0.57215  0.95917  0.59966  Biso   1.000  H
  H1692    1.0000 0.57212  0.95917  0.59966  Biso   1.000  H
  H1693    1.0000 0.57214  0.95915  0.59962  Biso   1.000  H
  C2673    1.0000 0.53012  0.92406  0.42244  Biso   1.000  C
  C2674    1.0000 0.53008  0.92406  0.42244  Biso   1.000  C
  C2675    1.0000 0.54265  0.01466  0.42314  Biso   1.000  C
  C2676    1.0000 0.54264  0.01462  0.42314  Biso   1.000  C
  C2677    1.0000 0.54268  0.01466  0.42314  Biso   1.000  C
  C2678    1.0000 0.62278  0.08988  0.68134  Biso   1.000  C
  C2679    1.0000 0.62277  0.08984  0.68134  Biso   1.000  C
  C2680    1.0000 0.62281  0.08988  0.68134  Biso   1.000  C
  H1694    1.0000 0.66488  0.14816  0.66414  Biso   1.000  H
  C2681    1.0000 0.57005  0.07146  0.44382  Biso   1.000  C
  C2682    1.0000 0.64147  0.15967  0.50993  Biso   1.000  C
  C2683    1.0000 0.57004  0.07142  0.44382  Biso   1.000  C
  C2684    1.0000 0.64146  0.15964  0.50993  Biso   1.000  C
  C2685    1.0000 0.57008  0.07146  0.44382  Biso   1.000  C
  C2686    1.0000 0.64150  0.15967  0.50993  Biso   1.000  C
  C2687    1.0000 0.74024  0.22490  0.11478  Biso   1.000  C
  C2688    1.0000 0.68491  0.14699  0.02698  Biso   1.000  C
  C2689    1.0000 0.74020  0.22490  0.11478  Biso   1.000  C
  C2690    1.0000 0.68495  0.14699  0.02698  Biso   1.000  C
  H1695    1.0000 0.52794  0.17540  0.99038  Biso   1.000  H
  H1696    1.0000 0.52792  0.17539  0.99035  Biso   1.000  H
  H1697    1.0000 0.52793  0.17537  0.99038  Biso   1.000  H
  H1698    1.0000 0.52789  0.17539  0.99035  Biso   1.000  H
  C2691    1.0000 0.50950  0.23897  0.03318  Biso   1.000  C
  C2692    1.0000 0.50951  0.23901  0.03318  Biso   1.000  C
  C2693    1.0000 0.50954  0.23897  0.03318  Biso   1.000  C
  C2694    1.0000 0.74575  0.26211  0.16419  Biso   1.000  C
  C2695    1.0000 0.70876  0.29642  0.23561  Biso   1.000  C
  C2696    1.0000 0.74570  0.26207  0.16419  Biso   1.000  C
  C2697    1.0000 0.70872  0.29639  0.23561  Biso   1.000  C
  C2698    1.0000 0.70873  0.29642  0.23561  Biso   1.000  C
  C2699    1.0000 0.74574  0.26207  0.16419  Biso   1.000  C
  C2700    1.0000 0.70875  0.29639  0.23561  Biso   1.000  C
  C2701    1.0000 0.74571  0.26211  0.16419  Biso   1.000  C
  C2702    1.0000 0.51623  0.27450  0.08368  Biso   1.000  C
  H1699    1.0000 0.55025  0.29389  0.15881  Biso   1.000  H
  C2703    1.0000 0.51622  0.27446  0.08368  Biso   1.000  C
  H1700    1.0000 0.55021  0.29387  0.15877  Biso   1.000  H
  H1701    1.0000 0.55023  0.29393  0.15881  Biso   1.000  H
  H1702    1.0000 0.55024  0.29387  0.15877  Biso   1.000  H
  H1703    1.0000 0.55026  0.29393  0.15881  Biso   1.000  H
  C2704    1.0000 0.21885  0.96074  0.44853  Biso   1.000  C
  C2705    1.0000 0.21881  0.96076  0.44849  Biso   1.000  C
  C2706    1.0000 0.21881  0.96074  0.44853  Biso   1.000  C
  C2707    1.0000 0.21880  0.96072  0.44849  Biso   1.000  C
  H1704    1.0000 0.22411  0.88481  0.42301  Biso   1.000  H
  H1705    1.0000 0.22412  0.88485  0.42301  Biso   1.000  H
  H1706    1.0000 0.22408  0.88481  0.42301  Biso   1.000  H
  C2708    1.0000 0.43015  0.92862  0.55624  Biso   1.000  C
  C2709    1.0000 0.35873  0.84041  0.49013  Biso   1.000  C
  C2710    1.0000 0.43011  0.92864  0.55620  Biso   1.000  C
  C2711    1.0000 0.35869  0.84043  0.49009  Biso   1.000  C
  C2712    1.0000 0.43012  0.92866  0.55624  Biso   1.000  C
  C2713    1.0000 0.35870  0.84045  0.49013  Biso   1.000  C
  C2714    1.0000 0.43010  0.92860  0.55620  Biso   1.000  C
  C2715    1.0000 0.43011  0.92862  0.55624  Biso   1.000  C
  C2716    1.0000 0.35869  0.84041  0.49013  Biso   1.000  C
  C2717    1.0000 0.43014  0.92864  0.55620  Biso   1.000  C
  C2718    1.0000 0.35872  0.84043  0.49009  Biso   1.000  C
  C2719    1.0000 0.43016  0.92866  0.55624  Biso   1.000  C
  C2720    1.0000 0.35874  0.84045  0.49013  Biso   1.000  C
  C2721    1.0000 0.24805  0.01713  0.46852  Biso   1.000  C
  C2722    1.0000 0.24804  0.01710  0.46852  Biso   1.000  C
  C2723    1.0000 0.24808  0.01713  0.46852  Biso   1.000  C
  H1707    1.0000 0.32158  0.07313  0.49001  Biso   1.000  H
  H1708    1.0000 0.32154  0.07313  0.49001  Biso   1.000  H
  C2724    1.0000 0.45755  0.98542  0.57692  Biso   1.000  C
  C2725    1.0000 0.45752  0.98546  0.57692  Biso   1.000  C
  C2726    1.0000 0.45751  0.98542  0.57692  Biso   1.000  C
  C2727    1.0000 0.45756  0.98546  0.57692  Biso   1.000  C
  C2728    1.0000 0.47008  0.07602  0.57761  Biso   1.000  C
  C2729    1.0000 0.47004  0.07602  0.57761  Biso   1.000  C
  C2730    1.0000 0.47005  0.07606  0.57761  Biso   1.000  C
  C2731    1.0000 0.47009  0.07606  0.57761  Biso   1.000  C
  C2732    1.0000 0.29883  0.73788  0.82076  Biso   1.000  C
  C2733    1.0000 0.29887  0.73788  0.82076  Biso   1.000  C
  C2734    1.0000 0.44494  0.86019  0.82424  Biso   1.000  C
  C2735    1.0000 0.44498  0.86019  0.82424  Biso   1.000  C
  C2736    1.0000 0.30987  0.81231  0.91967  Biso   1.000  C
  C2737    1.0000 0.30986  0.81227  0.91967  Biso   1.000  C
  C2738    1.0000 0.30983  0.81231  0.91967  Biso   1.000  C
  C2739    1.0000 0.45847  0.93000  0.92567  Biso   1.000  C
  C2740    1.0000 0.45846  0.92996  0.92567  Biso   1.000  C
  C2741    1.0000 0.45843  0.93000  0.92567  Biso   1.000  C
  C2742    1.0000 0.68760  0.76981  0.40690  Biso   1.000  C
  C2743    1.0000 0.68758  0.76985  0.40690  Biso   1.000  C
  C2744    1.0000 0.68757  0.76981  0.40690  Biso   1.000  C
  C2745    1.0000 0.68761  0.76985  0.40690  Biso   1.000  C
  C2746    1.0000 0.82601  0.88583  0.38913  Biso   1.000  C
  C2747    1.0000 0.82599  0.88581  0.38909  Biso   1.000  C
  C2748    1.0000 0.82604  0.88583  0.38913  Biso   1.000  C
  C2749    1.0000 0.72909  0.68691  0.37933  Biso   1.000  C
  C2750    1.0000 0.72909  0.68693  0.37929  Biso   1.000  C
  C2751    1.0000 0.72908  0.68689  0.37929  Biso   1.000  C
  C2752    1.0000 0.86890  0.80370  0.36662  Biso   1.000  C
  C2753    1.0000 0.86890  0.80372  0.36659  Biso   1.000  C
  C2754    1.0000 0.86891  0.80374  0.36662  Biso   1.000  C
  H1709    1.0000 0.30831  0.33797  0.57604  Biso   1.000  H
  H1710    1.0000 0.30827  0.33797  0.57604  Biso   1.000  H
  H1711    1.0000 0.30826  0.33793  0.57604  Biso   1.000  H
  H1712    1.0000 0.30830  0.33793  0.57604  Biso   1.000  H
  H1713    1.0000 0.21511  0.34576  0.63463  Biso   1.000  H
  H1714    1.0000 0.25280  0.37599  0.61186  Biso   1.000  H
  C2755    1.0000 0.28653  0.40377  0.69125  Biso   1.000  C
  H1715    1.0000 0.21507  0.34576  0.63463  Biso   1.000  H
  H1716    1.0000 0.25278  0.37594  0.61182  Biso   1.000  H
  C2756    1.0000 0.28649  0.40377  0.69125  Biso   1.000  C
  H1717    1.0000 0.25279  0.37596  0.61186  Biso   1.000  H
  C2757    1.0000 0.28648  0.40374  0.69125  Biso   1.000  C
  H1718    1.0000 0.25275  0.37598  0.61182  Biso   1.000  H
  C2758    1.0000 0.28652  0.40374  0.69125  Biso   1.000  C
  H1719    1.0000 0.25279  0.37598  0.61182  Biso   1.000  H
  O373     1.0000 0.32362  0.33399  0.86196  Biso   1.000  O
  O374     1.0000 0.32361  0.33395  0.86196  Biso   1.000  O
  O375     1.0000 0.32358  0.33399  0.86196  Biso   1.000  O
  H1720    1.0000 0.34288  0.26878  0.55303  Biso   1.000  H
  H1721    1.0000 0.34287  0.26874  0.55303  Biso   1.000  H
  H1722    1.0000 0.34400  0.18198  0.54684  Biso   1.000  H
  H1723    1.0000 0.30648  0.14948  0.56814  Biso   1.000  H
  C2759    1.0000 0.38230  0.19408  0.62034  Biso   1.000  C
  H1724    1.0000 0.34396  0.18194  0.54684  Biso   1.000  H
  H1725    1.0000 0.30647  0.14944  0.56814  Biso   1.000  H
  C2760    1.0000 0.38226  0.19405  0.62034  Biso   1.000  C
  H1726    1.0000 0.34397  0.18198  0.54684  Biso   1.000  H
  H1727    1.0000 0.30644  0.14948  0.56814  Biso   1.000  H
  C2761    1.0000 0.38227  0.19408  0.62034  Biso   1.000  C
  H1728    1.0000 0.34399  0.18194  0.54684  Biso   1.000  H
  C2762    1.0000 0.38229  0.19405  0.62034  Biso   1.000  C
  O376     1.0000 0.35933  0.26638  0.84275  Biso   1.000  O
  O377     1.0000 0.35929  0.26638  0.84275  Biso   1.000  O
  O378     1.0000 0.57710  0.02099  0.69807  Biso   1.000  O
  O379     1.0000 0.57704  0.02094  0.69803  Biso   1.000  O
  O380     1.0000 0.57706  0.02096  0.69807  Biso   1.000  O
  O381     1.0000 0.57709  0.02097  0.69803  Biso   1.000  O
  O382     1.0000 0.57708  0.02094  0.69803  Biso   1.000  O
  O383     1.0000 0.57709  0.02096  0.69807  Biso   1.000  O
  O384     1.0000 0.57705  0.02097  0.69803  Biso   1.000  O
  H1729    1.0000 0.55630  0.90763  0.42682  Biso   1.000  H
  H1730    1.0000 0.51452  0.91246  0.38573  Biso   1.000  H
  C2763    1.0000 0.48783  0.90517  0.44425  Biso   1.000  C
  H1731    1.0000 0.51451  0.91242  0.38573  Biso   1.000  H
  C2764    1.0000 0.48780  0.90511  0.44421  Biso   1.000  C
  H1732    1.0000 0.55631  0.90767  0.42682  Biso   1.000  H
  H1733    1.0000 0.51448  0.91246  0.38573  Biso   1.000  H
  H1734    1.0000 0.55627  0.90763  0.42682  Biso   1.000  H
  C2765    1.0000 0.48778  0.90515  0.44421  Biso   1.000  C
  C2766    1.0000 0.48779  0.90517  0.44425  Biso   1.000  C
  C2767    1.0000 0.48781  0.90515  0.44421  Biso   1.000  C
  H1735    1.0000 0.51602  0.99614  0.39123  Biso   1.000  H
  H1736    1.0000 0.51603  0.99617  0.39123  Biso   1.000  H
  H1737    1.0000 0.51598  0.99614  0.39123  Biso   1.000  H
  O385     1.0000 0.62130  0.11328  0.73044  Biso   1.000  O
  O386     1.0000 0.62127  0.11328  0.73044  Biso   1.000  O
  O387     1.0000 0.62126  0.11324  0.73044  Biso   1.000  O
  O388     1.0000 0.62129  0.11324  0.73044  Biso   1.000  O
  H1738    1.0000 0.56175  0.09104  0.42573  Biso   1.000  H
  H1739    1.0000 0.56176  0.09107  0.42573  Biso   1.000  H
  H1740    1.0000 0.67897  0.16665  0.52143  Biso   1.000  H
  H1741    1.0000 0.63427  0.16976  0.48173  Biso   1.000  H
  C2768    1.0000 0.62619  0.19525  0.55543  Biso   1.000  C
  H1742    1.0000 0.63424  0.16976  0.48173  Biso   1.000  H
  C2769    1.0000 0.62615  0.19525  0.55543  Biso   1.000  C
  H1743    1.0000 0.67896  0.16662  0.52143  Biso   1.000  H
  H1744    1.0000 0.63426  0.16973  0.48173  Biso   1.000  H
  C2770    1.0000 0.62614  0.19522  0.55543  Biso   1.000  C
  H1745    1.0000 0.67900  0.16665  0.52143  Biso   1.000  H
  C2771    1.0000 0.62618  0.19522  0.55543  Biso   1.000  C
  H1746    1.0000 0.76994  0.22482  0.10471  Biso   1.000  H
  H1747    1.0000 0.76992  0.22476  0.10467  Biso   1.000  H
  H1748    1.0000 0.76993  0.22480  0.10467  Biso   1.000  H
  H1749    1.0000 0.71702  0.15928  0.01920  Biso   1.000  H
  H1750    1.0000 0.65593  0.14578  0.00158  Biso   1.000  H
  C2772    1.0000 0.67451  0.08788  0.02319  Biso   1.000  C
  H1751    1.0000 0.65589  0.14578  0.00158  Biso   1.000  H
  H1752    1.0000 0.71703  0.15931  0.01920  Biso   1.000  H
  H1753    1.0000 0.71705  0.15928  0.01920  Biso   1.000  H
  C2773    1.0000 0.67455  0.08788  0.02319  Biso   1.000  C
  O389     1.0000 0.47964  0.24859  0.99677  Biso   1.000  O
  O390     1.0000 0.47961  0.24859  0.99677  Biso   1.000  O
  H1754    1.0000 0.77904  0.28691  0.18720  Biso   1.000  H
  H1755    1.0000 0.77907  0.28691  0.18720  Biso   1.000  H
  H1756    1.0000 0.74557  0.31010  0.25652  Biso   1.000  H
  H1757    1.0000 0.68746  0.27411  0.24831  Biso   1.000  H
  C2774    1.0000 0.69145  0.34471  0.23801  Biso   1.000  C
  H1758    1.0000 0.74552  0.31008  0.25648  Biso   1.000  H
  H1759    1.0000 0.68743  0.27411  0.24831  Biso   1.000  H
  H1760    1.0000 0.74554  0.31014  0.25652  Biso   1.000  H
  H1761    1.0000 0.74556  0.31008  0.25648  Biso   1.000  H
  H1762    1.0000 0.74558  0.31014  0.25652  Biso   1.000  H
  O391     1.0000 0.49024  0.30948  0.08198  Biso   1.000  O
  O392     1.0000 0.49020  0.30948  0.08198  Biso   1.000  O
  O393     1.0000 0.49021  0.30951  0.08198  Biso   1.000  O
  O394     1.0000 0.49025  0.30951  0.08198  Biso   1.000  O
  O395     1.0000 0.16592  0.94963  0.44222  Biso   1.000  O
  O396     1.0000 0.16593  0.94966  0.44222  Biso   1.000  O
  O397     1.0000 0.16589  0.94963  0.44222  Biso   1.000  O
  H1763    1.0000 0.43844  0.90905  0.57432  Biso   1.000  H
  H1764    1.0000 0.43840  0.90905  0.57432  Biso   1.000  H
  H1765    1.0000 0.32123  0.83343  0.47863  Biso   1.000  H
  H1766    1.0000 0.36592  0.83032  0.51832  Biso   1.000  H
  C2775    1.0000 0.37401  0.80483  0.44462  Biso   1.000  C
  H1767    1.0000 0.32120  0.83346  0.47863  Biso   1.000  H
  H1768    1.0000 0.36593  0.83036  0.51832  Biso   1.000  H
  C2776    1.0000 0.37402  0.80486  0.44462  Biso   1.000  C
  H1769    1.0000 0.32119  0.83343  0.47863  Biso   1.000  H
  H1770    1.0000 0.36588  0.83032  0.51832  Biso   1.000  H
  H1771    1.0000 0.32124  0.83346  0.47863  Biso   1.000  H
  O398     1.0000 0.21388  0.04543  0.47793  Biso   1.000  O
  O399     1.0000 0.21383  0.04541  0.47789  Biso   1.000  O
  O400     1.0000 0.21384  0.04543  0.47793  Biso   1.000  O
  O401     1.0000 0.21386  0.04541  0.47789  Biso   1.000  O
  H1772    1.0000 0.48418  0.00395  0.60883  Biso   1.000  H
  H1773    1.0000 0.48417  0.00391  0.60883  Biso   1.000  H
  H1774    1.0000 0.48567  0.08762  0.61433  Biso   1.000  H
  H1775    1.0000 0.44389  0.09245  0.57324  Biso   1.000  H
  C2777    1.0000 0.51237  0.09491  0.55581  Biso   1.000  C
  H1776    1.0000 0.48564  0.08762  0.61433  Biso   1.000  H
  H1777    1.0000 0.44383  0.09240  0.57320  Biso   1.000  H
  C2778    1.0000 0.51233  0.09491  0.55581  Biso   1.000  C
  H1778    1.0000 0.48568  0.08766  0.61433  Biso   1.000  H
  H1779    1.0000 0.44385  0.09245  0.57324  Biso   1.000  H
  C2779    1.0000 0.51238  0.09495  0.55581  Biso   1.000  C
  H1780    1.0000 0.44388  0.09243  0.57320  Biso   1.000  H
  H1781    1.0000 0.44387  0.09240  0.57320  Biso   1.000  H
  H1782    1.0000 0.44384  0.09243  0.57320  Biso   1.000  H
  C2780    1.0000 0.29143  0.70366  0.76445  Biso   1.000  C
  C2781    1.0000 0.25445  0.73797  0.83586  Biso   1.000  C
  C2782    1.0000 0.25446  0.73801  0.83586  Biso   1.000  C
  C2783    1.0000 0.29144  0.70369  0.76445  Biso   1.000  C
  C2784    1.0000 0.25441  0.73797  0.83586  Biso   1.000  C
  C2785    1.0000 0.29139  0.70366  0.76445  Biso   1.000  C
  H1783    1.0000 0.44043  0.83677  0.79024  Biso   1.000  H
  C2786    1.0000 0.47054  0.91717  0.84365  Biso   1.000  C
  C2787    1.0000 0.47055  0.91720  0.84365  Biso   1.000  C
  C2788    1.0000 0.47058  0.91720  0.84365  Biso   1.000  C
  C2789    1.0000 0.31524  0.85309  0.97307  Biso   1.000  C
  C2790    1.0000 0.25994  0.77516  0.88524  Biso   1.000  C
  C2791    1.0000 0.25995  0.77518  0.88528  Biso   1.000  C
  C2792    1.0000 0.31528  0.85309  0.97307  Biso   1.000  C
  C2793    1.0000 0.25996  0.77522  0.88528  Biso   1.000  C
  C2794    1.0000 0.31525  0.85312  0.97307  Biso   1.000  C
  C2795    1.0000 0.25991  0.77516  0.88524  Biso   1.000  C
  C2796    1.0000 0.31529  0.85312  0.97307  Biso   1.000  C
  H1784    1.0000 0.46298  0.95331  0.95967  Biso   1.000  H
  C2797    1.0000 0.47730  0.95210  0.89438  Biso   1.000  C
  H1785    1.0000 0.46297  0.95327  0.95967  Biso   1.000  H
  C2798    1.0000 0.47724  0.95204  0.89434  Biso   1.000  C
  C2799    1.0000 0.47726  0.95210  0.89438  Biso   1.000  C
  H1786    1.0000 0.46295  0.95331  0.95967  Biso   1.000  H
  C2800    1.0000 0.47725  0.95208  0.89434  Biso   1.000  C
  C2801    1.0000 0.67781  0.73010  0.42541  Biso   1.000  C
  C2802    1.0000 0.66608  0.81551  0.42270  Biso   1.000  C
  C2803    1.0000 0.67779  0.73014  0.42541  Biso   1.000  C
  C2804    1.0000 0.66609  0.81555  0.42270  Biso   1.000  C
  C2805    1.0000 0.66612  0.81551  0.42270  Biso   1.000  C
  C2806    1.0000 0.67782  0.73014  0.42541  Biso   1.000  C
  C2807    1.0000 0.67778  0.73010  0.42541  Biso   1.000  C
  H1787    1.0000 0.81160  0.91321  0.39660  Biso   1.000  H
  C2808    1.0000 0.88020  0.90032  0.39981  Biso   1.000  C
  H1788    1.0000 0.81161  0.91325  0.39660  Biso   1.000  H
  C2809    1.0000 0.88021  0.90036  0.39981  Biso   1.000  C
  H1789    1.0000 0.81163  0.91321  0.39660  Biso   1.000  H
  C2810    1.0000 0.88024  0.90032  0.39981  Biso   1.000  C
  C2811    1.0000 0.69848  0.68871  0.41163  Biso   1.000  C
  C2812    1.0000 0.74869  0.64050  0.36422  Biso   1.000  C
  C2813    1.0000 0.69848  0.68873  0.41159  Biso   1.000  C
  C2814    1.0000 0.74866  0.64052  0.36418  Biso   1.000  C
  C2815    1.0000 0.69849  0.68875  0.41163  Biso   1.000  C
  C2816    1.0000 0.74867  0.64054  0.36422  Biso   1.000  C
  C2817    1.0000 0.69851  0.68869  0.41159  Biso   1.000  C
  C2818    1.0000 0.74868  0.64048  0.36418  Biso   1.000  C
  C2819    1.0000 0.69852  0.68871  0.41163  Biso   1.000  C
  C2820    1.0000 0.74869  0.64052  0.36418  Biso   1.000  C
  C2821    1.0000 0.74870  0.64054  0.36422  Biso   1.000  C
  C2822    1.0000 0.69847  0.68869  0.41159  Biso   1.000  C
  C2823    1.0000 0.74865  0.64048  0.36418  Biso   1.000  C
  C2824    1.0000 0.90170  0.85932  0.38851  Biso   1.000  C
  H1790    1.0000 0.88319  0.77630  0.35911  Biso   1.000  H
  H1791    1.0000 0.88320  0.77634  0.35911  Biso   1.000  H
  H1792    1.0000 0.88323  0.77630  0.35911  Biso   1.000  H
  H1793    1.0000 0.32101  0.42187  0.69094  Biso   1.000  H
  H1794    1.0000 0.28961  0.38607  0.71375  Biso   1.000  H
  H1795    1.0000 0.27084  0.43069  0.70357  Biso   1.000  H
  H1796    1.0000 0.27079  0.43067  0.70353  Biso   1.000  H
  H1797    1.0000 0.32100  0.42184  0.69094  Biso   1.000  H
  H1798    1.0000 0.27079  0.43065  0.70357  Biso   1.000  H
  H1799    1.0000 0.32097  0.42187  0.69094  Biso   1.000  H
  H1800    1.0000 0.28958  0.38607  0.71375  Biso   1.000  H
  H1801    1.0000 0.27080  0.43069  0.70357  Biso   1.000  H
  H1802    1.0000 0.27082  0.43067  0.70353  Biso   1.000  H
  H1803    1.0000 0.27083  0.43065  0.70357  Biso   1.000  H
  B206     1.0000 0.35623  0.31050  0.88396  Biso   1.000  B
  B207     1.0000 0.35622  0.31046  0.88396  Biso   1.000  B
  B208     1.0000 0.35619  0.31050  0.88396  Biso   1.000  B
  H1804    1.0000 0.41028  0.18985  0.60655  Biso   1.000  H
  H1805    1.0000 0.37281  0.16737  0.63366  Biso   1.000  H
  H1806    1.0000 0.39399  0.23077  0.64784  Biso   1.000  H
  H1807    1.0000 0.37276  0.16735  0.63362  Biso   1.000  H
  H1808    1.0000 0.37276  0.16733  0.63366  Biso   1.000  H
  H1809    1.0000 0.39398  0.23073  0.64784  Biso   1.000  H
  H1810    1.0000 0.41029  0.18989  0.60655  Biso   1.000  H
  H1811    1.0000 0.39396  0.23077  0.64784  Biso   1.000  H
  H1812    1.0000 0.37277  0.16737  0.63366  Biso   1.000  H
  H1813    1.0000 0.37280  0.16735  0.63362  Biso   1.000  H
  H1814    1.0000 0.37280  0.16733  0.63366  Biso   1.000  H
  B209     1.0000 0.59320  0.07367  0.74295  Biso   1.000  B
  B210     1.0000 0.59316  0.07367  0.74295  Biso   1.000  B
  B211     1.0000 0.59315  0.07363  0.74295  Biso   1.000  B
  B212     1.0000 0.59319  0.07363  0.74295  Biso   1.000  B
  H1815    1.0000 0.46382  0.92415  0.44243  Biso   1.000  H
  H1816    1.0000 0.50389  0.91354  0.47972  Biso   1.000  H
  H1817    1.0000 0.46888  0.86583  0.42442  Biso   1.000  H
  H1818    1.0000 0.50393  0.91354  0.47972  Biso   1.000  H
  H1819    1.0000 0.46892  0.86583  0.42442  Biso   1.000  H
  H1820    1.0000 0.50390  0.91358  0.47972  Biso   1.000  H
  H1821    1.0000 0.46889  0.86586  0.42442  Biso   1.000  H
  H1822    1.0000 0.46378  0.92415  0.44243  Biso   1.000  H
  H1823    1.0000 0.50394  0.91358  0.47972  Biso   1.000  H
  H1824    1.0000 0.46893  0.86586  0.42442  Biso   1.000  H
  H1825    1.0000 0.64988  0.20236  0.58785  Biso   1.000  H
  H1826    1.0000 0.62846  0.22986  0.55443  Biso   1.000  H
  H1827    1.0000 0.59068  0.17546  0.55226  Biso   1.000  H
  H1828    1.0000 0.59066  0.17545  0.55222  Biso   1.000  H
  H1829    1.0000 0.62845  0.22982  0.55443  Biso   1.000  H
  H1830    1.0000 0.59067  0.17543  0.55226  Biso   1.000  H
  H1831    1.0000 0.62850  0.22986  0.55443  Biso   1.000  H
  H1832    1.0000 0.66694  0.06229  0.98798  Biso   1.000  H
  H1833    1.0000 0.66690  0.06227  0.98794  Biso   1.000  H
  H1834    1.0000 0.66691  0.06229  0.98798  Biso   1.000  H
  H1835    1.0000 0.66693  0.06227  0.98794  Biso   1.000  H
  H1836    1.0000 0.64511  0.07727  0.03457  Biso   1.000  H
  H1837    1.0000 0.70531  0.08780  0.04460  Biso   1.000  H
  H1838    1.0000 0.70530  0.08778  0.04456  Biso   1.000  H
  H1839    1.0000 0.64512  0.07731  0.03457  Biso   1.000  H
  H1840    1.0000 0.70533  0.08778  0.04456  Biso   1.000  H
  H1841    1.0000 0.70535  0.08780  0.04460  Biso   1.000  H
  B213     1.0000 0.46873  0.29280  0.02969  Biso   1.000  B
  H1842    1.0000 0.70486  0.35961  0.21621  Biso   1.000  H
  H1843    1.0000 0.70508  0.37322  0.27302  Biso   1.000  H
  H1844    1.0000 0.65354  0.33181  0.22620  Biso   1.000  H
  H1845    1.0000 0.70483  0.35961  0.21621  Biso   1.000  H
  H1846    1.0000 0.70503  0.37321  0.27298  Biso   1.000  H
  H1847    1.0000 0.70505  0.37322  0.27302  Biso   1.000  H
  H1848    1.0000 0.70507  0.37321  0.27298  Biso   1.000  H
  H1849    1.0000 0.65357  0.33181  0.22620  Biso   1.000  H
  B214     1.0000 0.16606  0.00382  0.46251  Biso   1.000  B
  B215     1.0000 0.16603  0.00382  0.46251  Biso   1.000  B
  H1850    1.0000 0.35031  0.79772  0.41221  Biso   1.000  H
  H1851    1.0000 0.37173  0.77023  0.44563  Biso   1.000  H
  H1852    1.0000 0.40952  0.82462  0.44780  Biso   1.000  H
  H1853    1.0000 0.37169  0.77024  0.44559  Biso   1.000  H
  H1854    1.0000 0.40949  0.82465  0.44780  Biso   1.000  H
  H1855    1.0000 0.37170  0.77023  0.44563  Biso   1.000  H
  H1856    1.0000 0.35027  0.79772  0.41221  Biso   1.000  H
  H1857    1.0000 0.37168  0.77021  0.44559  Biso   1.000  H
  H1858    1.0000 0.40948  0.82462  0.44780  Biso   1.000  H
  H1859    1.0000 0.37173  0.77024  0.44559  Biso   1.000  H
  H1860    1.0000 0.40953  0.82465  0.44780  Biso   1.000  H
  H1861    1.0000 0.49627  0.08654  0.52033  Biso   1.000  H
  H1862    1.0000 0.53637  0.07593  0.55763  Biso   1.000  H
  H1863    1.0000 0.53127  0.13426  0.57564  Biso   1.000  H
  H1864    1.0000 0.49625  0.08652  0.52030  Biso   1.000  H
  H1865    1.0000 0.53634  0.07593  0.55763  Biso   1.000  H
  H1866    1.0000 0.53125  0.13420  0.57560  Biso   1.000  H
  H1867    1.0000 0.53130  0.13424  0.57560  Biso   1.000  H
  H1868    1.0000 0.49630  0.08654  0.52033  Biso   1.000  H
  H1869    1.0000 0.53131  0.13426  0.57564  Biso   1.000  H
  H1870    1.0000 0.53126  0.13424  0.57560  Biso   1.000  H
  H1871    1.0000 0.31273  0.72597  0.75174  Biso   1.000  H
  H1872    1.0000 0.25462  0.68998  0.74353  Biso   1.000  H
  C2825    1.0000 0.30870  0.65538  0.76205  Biso   1.000  C
  C2826    1.0000 0.30874  0.65538  0.76205  Biso   1.000  C
  H1873    1.0000 0.25461  0.68994  0.74353  Biso   1.000  H
  H1874    1.0000 0.31269  0.72597  0.75174  Biso   1.000  H
  H1875    1.0000 0.22112  0.71317  0.81286  Biso   1.000  H
  H1876    1.0000 0.22116  0.71317  0.81286  Biso   1.000  H
  O402     1.0000 0.49395  0.94478  0.81785  Biso   1.000  O
  O403     1.0000 0.49392  0.94478  0.81785  Biso   1.000  O
  C2827    1.0000 0.32565  0.91220  0.97687  Biso   1.000  C
  H1877    1.0000 0.28314  0.84080  0.98086  Biso   1.000  H
  H1878    1.0000 0.34426  0.85430  0.99848  Biso   1.000  H
  H1879    1.0000 0.34425  0.85428  0.99844  Biso   1.000  H
  C2828    1.0000 0.32568  0.91220  0.97687  Biso   1.000  C
  H1880    1.0000 0.28318  0.84080  0.98086  Biso   1.000  H
  H1881    1.0000 0.28313  0.84077  0.98086  Biso   1.000  H
  H1882    1.0000 0.28317  0.84077  0.98086  Biso   1.000  H
  H1883    1.0000 0.23021  0.77527  0.89535  Biso   1.000  H
  H1884    1.0000 0.23025  0.77527  0.89535  Biso   1.000  H
  H1885    1.0000 0.23026  0.77530  0.89535  Biso   1.000  H
  O404     1.0000 0.50529  0.00369  0.90085  Biso   1.000  O
  O405     1.0000 0.50528  0.00365  0.90085  Biso   1.000  O
  O406     1.0000 0.50533  0.00369  0.90085  Biso   1.000  O
  H1886    1.0000 0.65731  0.73130  0.44702  Biso   1.000  H
  H1887    1.0000 0.65729  0.73134  0.44702  Biso   1.000  H
  H1888    1.0000 0.65732  0.73134  0.44702  Biso   1.000  H
  H1889    1.0000 0.65619  0.81810  0.45322  Biso   1.000  H
  H1890    1.0000 0.69371  0.85060  0.43192  Biso   1.000  H
  C2829    1.0000 0.61789  0.80600  0.37971  Biso   1.000  C
  H1891    1.0000 0.65620  0.81814  0.45322  Biso   1.000  H
  H1892    1.0000 0.69369  0.85064  0.43192  Biso   1.000  H
  C2830    1.0000 0.61790  0.80603  0.37971  Biso   1.000  C
  H1893    1.0000 0.65623  0.81814  0.45322  Biso   1.000  H
  H1894    1.0000 0.69372  0.85064  0.43192  Biso   1.000  H
  H1895    1.0000 0.65622  0.81810  0.45322  Biso   1.000  H
  C2831    1.0000 0.61793  0.80600  0.37971  Biso   1.000  C
  O407     1.0000 0.91880  0.95181  0.42092  Biso   1.000  O
  O408     1.0000 0.91881  0.95185  0.42092  Biso   1.000  O
  O409     1.0000 0.91883  0.95181  0.42092  Biso   1.000  O
  H1896    1.0000 0.69189  0.66212  0.42402  Biso   1.000  H
  H1897    1.0000 0.69190  0.66215  0.42402  Biso   1.000  H
  H1898    1.0000 0.69192  0.66212  0.42402  Biso   1.000  H
  H1899    1.0000 0.78509  0.65433  0.36542  Biso   1.000  H
  H1900    1.0000 0.74739  0.62409  0.38820  Biso   1.000  H
  C2832    1.0000 0.71367  0.59631  0.30880  Biso   1.000  C
  H1901    1.0000 0.78507  0.65431  0.36539  Biso   1.000  H
  H1902    1.0000 0.74736  0.62412  0.38820  Biso   1.000  H
  C2833    1.0000 0.71368  0.59634  0.30880  Biso   1.000  C
  H1903    1.0000 0.78512  0.65433  0.36542  Biso   1.000  H
  C2834    1.0000 0.71370  0.59631  0.30880  Biso   1.000  C
  H1904    1.0000 0.74740  0.62412  0.38820  Biso   1.000  H
  H1905    1.0000 0.74735  0.62409  0.38820  Biso   1.000  H
  O410     1.0000 0.95481  0.88520  0.40311  Biso   1.000  O
  O411     1.0000 0.95478  0.88524  0.40311  Biso   1.000  O
  O412     1.0000 0.95482  0.88524  0.40311  Biso   1.000  O
  O413     1.0000 0.95477  0.88520  0.40311  Biso   1.000  O
  C2835    1.0000 0.38323  0.33140  0.93926  Biso   1.000  C
  C2836    1.0000 0.38322  0.33136  0.93926  Biso   1.000  C
  C2837    1.0000 0.38319  0.33140  0.93926  Biso   1.000  C
  C2838    1.0000 0.58501  0.08206  0.79245  Biso   1.000  C
  C2839    1.0000 0.58497  0.08206  0.79245  Biso   1.000  C
  C2840    1.0000 0.58502  0.08210  0.79245  Biso   1.000  C
  C2841    1.0000 0.58498  0.08210  0.79245  Biso   1.000  C
  C2842    1.0000 0.43502  0.32157  0.00878  Biso   1.000  C
  C2843    1.0000 0.43503  0.32161  0.00878  Biso   1.000  C
  C2844    1.0000 0.11485  0.01691  0.46081  Biso   1.000  C
  C2845    1.0000 0.11486  0.01694  0.46081  Biso   1.000  C
  H1906    1.0000 0.29533  0.64047  0.78385  Biso   1.000  H
  H1907    1.0000 0.29511  0.62686  0.72704  Biso   1.000  H
  H1908    1.0000 0.34662  0.66828  0.77386  Biso   1.000  H
  H1909    1.0000 0.34666  0.66828  0.77386  Biso   1.000  H
  H1910    1.0000 0.29529  0.64047  0.78385  Biso   1.000  H
  B216     1.0000 0.51631  0.00138  0.85766  Biso   1.000  B
  B217     1.0000 0.51627  0.00138  0.85766  Biso   1.000  B
  B218     1.0000 0.51626  0.00135  0.85766  Biso   1.000  B
  B219     1.0000 0.51630  0.00135  0.85766  Biso   1.000  B
  H1911    1.0000 0.29485  0.91228  0.95545  Biso   1.000  H
  H1912    1.0000 0.35508  0.92281  0.96548  Biso   1.000  H
  H1913    1.0000 0.29488  0.91228  0.95545  Biso   1.000  H
  H1914    1.0000 0.35506  0.92276  0.96544  Biso   1.000  H
  H1915    1.0000 0.35503  0.92279  0.96544  Biso   1.000  H
  H1916    1.0000 0.35505  0.92281  0.96548  Biso   1.000  H
  H1917    1.0000 0.35507  0.92279  0.96544  Biso   1.000  H
  H1918    1.0000 0.33325  0.93779  0.01207  Biso   1.000  H
  H1919    1.0000 0.33328  0.93779  0.01207  Biso   1.000  H
  H1920    1.0000 0.58992  0.81023  0.39350  Biso   1.000  H
  H1921    1.0000 0.62738  0.83271  0.36639  Biso   1.000  H
  H1922    1.0000 0.60620  0.76931  0.35222  Biso   1.000  H
  H1923    1.0000 0.58988  0.81023  0.39350  Biso   1.000  H
  H1924    1.0000 0.62739  0.83275  0.36639  Biso   1.000  H
  H1925    1.0000 0.60617  0.76935  0.35222  Biso   1.000  H
  H1926    1.0000 0.60616  0.76931  0.35222  Biso   1.000  H
  H1927    1.0000 0.62742  0.83271  0.36639  Biso   1.000  H
  H1928    1.0000 0.60621  0.76935  0.35222  Biso   1.000  H
  B220     1.0000 0.96740  0.94180  0.42290  Biso   1.000  B
  B221     1.0000 0.96741  0.94184  0.42290  Biso   1.000  B
  B222     1.0000 0.96743  0.94180  0.42290  Biso   1.000  B
  H1929    1.0000 0.67919  0.57821  0.30911  Biso   1.000  H
  H1930    1.0000 0.71058  0.61401  0.28630  Biso   1.000  H
  H1931    1.0000 0.72936  0.56939  0.29649  Biso   1.000  H
  H1932    1.0000 0.67916  0.57824  0.30911  Biso   1.000  H
  H1933    1.0000 0.71055  0.61401  0.28630  Biso   1.000  H
  H1934    1.0000 0.72937  0.56943  0.29649  Biso   1.000  H
  H1935    1.0000 0.67915  0.57821  0.30911  Biso   1.000  H
  H1936    1.0000 0.72939  0.56939  0.29649  Biso   1.000  H
  H1937    1.0000 0.67920  0.57824  0.30911  Biso   1.000  H
  C2846    1.0000 0.41243  0.30410  0.95615  Biso   1.000  C
  C2847    1.0000 0.37675  0.37630  0.97497  Biso   1.000  C
  C2848    1.0000 0.41242  0.30406  0.95615  Biso   1.000  C
  C2849    1.0000 0.37671  0.37630  0.97497  Biso   1.000  C
  C2850    1.0000 0.37670  0.37626  0.97497  Biso   1.000  C
  C2851    1.0000 0.41240  0.30410  0.95615  Biso   1.000  C
  C2852    1.0000 0.37674  0.37626  0.97497  Biso   1.000  C
  C2853    1.0000 0.55479  0.03857  0.79977  Biso   1.000  C
  C2854    1.0000 0.55478  0.03855  0.79973  Biso   1.000  C
  C2855    1.0000 0.60850  0.13529  0.83307  Biso   1.000  C
  C2856    1.0000 0.60849  0.13527  0.83303  Biso   1.000  C
  C2857    1.0000 0.60849  0.13525  0.83307  Biso   1.000  C
  C2858    1.0000 0.60854  0.13529  0.83307  Biso   1.000  C
  C2859    1.0000 0.42853  0.36649  0.04460  Biso   1.000  C
  C2860    1.0000 0.42852  0.36647  0.04456  Biso   1.000  C
  C2861    1.0000 0.06624  0.97444  0.44373  Biso   1.000  C
  C2862    1.0000 0.06620  0.97445  0.44369  Biso   1.000  C
  C2863    1.0000 0.06620  0.97444  0.44373  Biso   1.000  C
  C2864    1.0000 0.06619  0.97442  0.44369  Biso   1.000  C
  C2865    1.0000 0.06624  0.97445  0.44369  Biso   1.000  C
  C2866    1.0000 0.11814  0.07161  0.47762  Biso   1.000  C
  C2867    1.0000 0.11815  0.07165  0.47762  Biso   1.000  C
  C2868    1.0000 0.11818  0.07161  0.47762  Biso   1.000  C
  C2869    1.0000 0.54810  0.04839  0.84756  Biso   1.000  C
  C2870    1.0000 0.54809  0.04835  0.84756  Biso   1.000  C
  C2871    1.0000 0.02083  0.98661  0.44342  Biso   1.000  C
  C2872    1.0000 0.02081  0.98665  0.44342  Biso   1.000  C
  C2873    1.0000 0.02080  0.98661  0.44342  Biso   1.000  C
  C2874    1.0000 0.02084  0.98665  0.44342  Biso   1.000  C
  H1938    1.0000 0.41672  0.27408  0.93225  Biso   1.000  H
  H1939    1.0000 0.41669  0.27408  0.93225  Biso   1.000  H
  H1940    1.0000 0.35726  0.39462  0.96366  Biso   1.000  H
  H1941    1.0000 0.35721  0.39458  0.96366  Biso   1.000  H
  H1942    1.0000 0.35722  0.39462  0.96366  Biso   1.000  H
  H1943    1.0000 0.35725  0.39458  0.96366  Biso   1.000  H
  C2875    1.0000 0.39935  0.39381  0.02760  Biso   1.000  C
  C2876    1.0000 0.39930  0.39379  0.02756  Biso   1.000  C
  C2877    1.0000 0.39931  0.39381  0.02760  Biso   1.000  C
  C2878    1.0000 0.39933  0.39379  0.02756  Biso   1.000  C
  H1944    1.0000 0.53910  0.00298  0.77254  Biso   1.000  H
  H1945    1.0000 0.53905  0.00295  0.77254  Biso   1.000  H
  H1946    1.0000 0.53909  0.00295  0.77254  Biso   1.000  H
  H1947    1.0000 0.53906  0.00298  0.77254  Biso   1.000  H
  C2879    1.0000 0.60183  0.14508  0.88098  Biso   1.000  C
  C2880    1.0000 0.60178  0.14506  0.88094  Biso   1.000  C
  C2881    1.0000 0.60179  0.14508  0.88098  Biso   1.000  C
  C2882    1.0000 0.60182  0.14506  0.88094  Biso   1.000  C
  H1948    1.0000 0.62872  0.16440  0.82827  Biso   1.000  H
  H1949    1.0000 0.62866  0.16435  0.82823  Biso   1.000  H
  H1950    1.0000 0.62867  0.16436  0.82827  Biso   1.000  H
  H1951    1.0000 0.62870  0.16438  0.82823  Biso   1.000  H
  H1952    1.0000 0.62869  0.16435  0.82823  Biso   1.000  H
  H1953    1.0000 0.62871  0.16436  0.82827  Biso   1.000  H
  H1954    1.0000 0.62867  0.16438  0.82823  Biso   1.000  H
  H1955    1.0000 0.44375  0.37820  0.07988  Biso   1.000  H
  H1956    1.0000 0.44372  0.37820  0.07988  Biso   1.000  H
  H1957    1.0000 0.06403  0.93783  0.43250  Biso   1.000  H
  H1958    1.0000 0.06399  0.93783  0.43250  Biso   1.000  H
  C2883    1.0000 0.07274  0.08383  0.47731  Biso   1.000  C
  C2884    1.0000 0.07278  0.08383  0.47731  Biso   1.000  C
  H1959    1.0000 0.15077  0.10004  0.48912  Biso   1.000  H
  H1960    1.0000 0.15072  0.10000  0.48912  Biso   1.000  H
  H1961    1.0000 0.15076  0.10000  0.48912  Biso   1.000  H
  H1962    1.0000 0.15073  0.10004  0.48912  Biso   1.000  H
  C2885    1.0000 0.57162  0.10160  0.88814  Biso   1.000  C
  C2886    1.0000 0.57157  0.10156  0.88814  Biso   1.000  C
  C2887    1.0000 0.57161  0.10156  0.88814  Biso   1.000  C
  C2888    1.0000 0.57158  0.10160  0.88814  Biso   1.000  C
  C2889    1.0000 0.02405  0.04132  0.46023  Biso   1.000  C
  C2890    1.0000 0.02404  0.04130  0.46019  Biso   1.000  C
  C2891    1.0000 0.02406  0.04136  0.46023  Biso   1.000  C
  B223     1.0000 0.39284  0.44348  0.06819  Biso   1.000  B
  B224     1.0000 0.39281  0.44348  0.06819  Biso   1.000  B
  B225     1.0000 0.39282  0.44351  0.06819  Biso   1.000  B
  B226     1.0000 0.39285  0.44351  0.06819  Biso   1.000  B
  B227     1.0000 0.62652  0.20600  0.92737  Biso   1.000  B
  B228     1.0000 0.62650  0.20598  0.92734  Biso   1.000  B
  B229     1.0000 0.62651  0.20596  0.92737  Biso   1.000  B
  B230     1.0000 0.62655  0.20600  0.92737  Biso   1.000  B
  B231     1.0000 0.08016  0.14671  0.49690  Biso   1.000  B
  B232     1.0000 0.08012  0.14671  0.49690  Biso   1.000  B
  B233     1.0000 0.08017  0.14674  0.49690  Biso   1.000  B
  H1963    1.0000 0.56710  0.10818  0.92017  Biso   1.000  H
  H1964    1.0000 0.56713  0.10818  0.92017  Biso   1.000  H
  H1965    1.0000 0.99365  0.04942  0.46011  Biso   1.000  H
  H1966    1.0000 0.99369  0.04942  0.46011  Biso   1.000  H
  O414     1.0000 0.36073  0.47220  0.05471  Biso   1.000  O
  O415     1.0000 0.41113  0.45969  0.12028  Biso   1.000  O
  O416     1.0000 0.36072  0.47218  0.05467  Biso   1.000  O
  O417     1.0000 0.36077  0.47220  0.05471  Biso   1.000  O
  O418     1.0000 0.41117  0.45969  0.12028  Biso   1.000  O
  O419     1.0000 0.62364  0.21530  0.97408  Biso   1.000  O
  O420     1.0000 0.66061  0.24880  0.92246  Biso   1.000  O
  O421     1.0000 0.62359  0.21528  0.97404  Biso   1.000  O
  O422     1.0000 0.62359  0.21526  0.97408  Biso   1.000  O
  O423     1.0000 0.66060  0.24876  0.92246  Biso   1.000  O
  O424     1.0000 0.62362  0.21528  0.97404  Biso   1.000  O
  O425     1.0000 0.66064  0.24880  0.92246  Biso   1.000  O
  O426     1.0000 0.62363  0.21526  0.97408  Biso   1.000  O
  O427     1.0000 0.03437  0.16192  0.49381  Biso   1.000  O
  O428     1.0000 0.12476  0.18754  0.50581  Biso   1.000  O
  O429     1.0000 0.03433  0.16192  0.49381  Biso   1.000  O
  O430     1.0000 0.12475  0.18750  0.50581  Biso   1.000  O
  O431     1.0000 0.12480  0.18754  0.50581  Biso   1.000  O
  C2892    1.0000 0.36225  0.50648  0.10289  Biso   1.000  C
  C2893    1.0000 0.36222  0.50648  0.10289  Biso   1.000  C
  C2894    1.0000 0.36223  0.50652  0.10289  Biso   1.000  C
  C2895    1.0000 0.36226  0.50652  0.10289  Biso   1.000  C
  C2896    1.0000 0.39234  0.49989  0.14239  Biso   1.000  C
  C2897    1.0000 0.39235  0.49993  0.14239  Biso   1.000  C
  C2898    1.0000 0.39237  0.49989  0.14239  Biso   1.000  C
  C2899    1.0000 0.65513  0.27169  0.00409  Biso   1.000  C
  C2900    1.0000 0.65509  0.27169  0.00409  Biso   1.000  C
  C2901    1.0000 0.67634  0.28970  0.97149  Biso   1.000  C
  C2902    1.0000 0.67629  0.28968  0.97145  Biso   1.000  C
  C2903    1.0000 0.67629  0.28966  0.97149  Biso   1.000  C
  C2904    1.0000 0.67633  0.28968  0.97145  Biso   1.000  C
  C2905    1.0000 0.67633  0.28966  0.97149  Biso   1.000  C
  C2906    1.0000 0.05756  0.21793  0.50961  Biso   1.000  C
  C2907    1.0000 0.05755  0.21790  0.50961  Biso   1.000  C
  C2908    1.0000 0.05759  0.21793  0.50961  Biso   1.000  C
  C2909    1.0000 0.11148  0.23474  0.51724  Biso   1.000  C
  C2910    1.0000 0.11143  0.23472  0.51720  Biso   1.000  C
  C2911    1.0000 0.11144  0.23474  0.51724  Biso   1.000  C
  C2912    1.0000 0.11147  0.23472  0.51720  Biso   1.000  C
  C2913    1.0000 0.33723  0.54439  0.11458  Biso   1.000  C
  C2914    1.0000 0.33724  0.54442  0.11458  Biso   1.000  C
  C2915    1.0000 0.33727  0.54439  0.11458  Biso   1.000  C
  C2916    1.0000 0.39737  0.53121  0.19359  Biso   1.000  C
  C2917    1.0000 0.39733  0.53121  0.19359  Biso   1.000  C
  C2918    1.0000 0.66941  0.30801  0.05618  Biso   1.000  C
  C2919    1.0000 0.66944  0.30797  0.05618  Biso   1.000  C
  C2920    1.0000 0.66945  0.30801  0.05618  Biso   1.000  C
  C2921    1.0000 0.66940  0.30797  0.05618  Biso   1.000  C
  C2922    1.0000 0.71183  0.34379  0.99077  Biso   1.000  C
  C2923    1.0000 0.71180  0.34379  0.99077  Biso   1.000  C
  C2924    1.0000 0.03279  0.25594  0.51491  Biso   1.000  C
  C2925    1.0000 0.03274  0.25590  0.51491  Biso   1.000  C
  C2926    1.0000 0.03275  0.25594  0.51491  Biso   1.000  C
  C2927    1.0000 0.14059  0.28963  0.53021  Biso   1.000  C
  C2928    1.0000 0.14055  0.28963  0.53021  Biso   1.000  C
  H1967    1.0000 0.31714  0.54882  0.08821  Biso   1.000  H
  C2929    1.0000 0.34237  0.57570  0.16578  Biso   1.000  C
  H1968    1.0000 0.31712  0.54877  0.08817  Biso   1.000  H
  C2930    1.0000 0.34233  0.57570  0.16578  Biso   1.000  C
  H1969    1.0000 0.31713  0.54881  0.08817  Biso   1.000  H
  H1970    1.0000 0.31718  0.54882  0.08821  Biso   1.000  H
  C2931    1.0000 0.37235  0.56911  0.20528  Biso   1.000  C
  H1971    1.0000 0.41745  0.52672  0.22000  Biso   1.000  H
  C2932    1.0000 0.37234  0.56908  0.20528  Biso   1.000  C
  H1972    1.0000 0.41748  0.52672  0.22000  Biso   1.000  H
  C2933    1.0000 0.37238  0.56911  0.20528  Biso   1.000  C
  H1973    1.0000 0.65532  0.29598  0.07810  Biso   1.000  H
  C2934    1.0000 0.70492  0.36212  0.07551  Biso   1.000  C
  H1974    1.0000 0.65536  0.29598  0.07810  Biso   1.000  H
  C2935    1.0000 0.70493  0.36206  0.07547  Biso   1.000  C
  H1975    1.0000 0.65537  0.29602  0.07810  Biso   1.000  H
  C2936    1.0000 0.70496  0.36212  0.07551  Biso   1.000  C
  C2937    1.0000 0.70494  0.36210  0.07547  Biso   1.000  C
  C2938    1.0000 0.70490  0.36206  0.07547  Biso   1.000  C
  H1976    1.0000 0.65533  0.29602  0.07810  Biso   1.000  H
  H1977    1.0000 0.72592  0.35578  0.96885  Biso   1.000  H
  H1978    1.0000 0.72595  0.35578  0.96885  Biso   1.000  H
  C2939    1.0000 0.72603  0.38000  0.04278  Biso   1.000  C
  C2940    1.0000 0.72602  0.37997  0.04278  Biso   1.000  C
  H1979    1.0000 0.99665  0.24461  0.50980  Biso   1.000  H
  H1980    1.0000 0.99668  0.24461  0.50980  Biso   1.000  H
  C2941    1.0000 0.06176  0.31082  0.52793  Biso   1.000  C
  C2942    1.0000 0.06177  0.31086  0.52793  Biso   1.000  C
  C2943    1.0000 0.06179  0.31082  0.52793  Biso   1.000  C
  C2944    1.0000 0.11570  0.32766  0.53563  Biso   1.000  C
  H1981    1.0000 0.17658  0.30092  0.53532  Biso   1.000  H
  C2945    1.0000 0.11564  0.32760  0.53559  Biso   1.000  C
  H1982    1.0000 0.17654  0.30092  0.53532  Biso   1.000  H
  C2946    1.0000 0.11567  0.32766  0.53563  Biso   1.000  C
  H1983    1.0000 0.17659  0.30096  0.53532  Biso   1.000  H
  C2947    1.0000 0.11569  0.32764  0.53559  Biso   1.000  C
  C2948    1.0000 0.11565  0.32764  0.53559  Biso   1.000  C
  C2949    1.0000 0.31387  0.62053  0.18460  Biso   1.000  C
  C2950    1.0000 0.31382  0.62049  0.18460  Biso   1.000  C
  C2951    1.0000 0.31386  0.62049  0.18460  Biso   1.000  C
  C2952    1.0000 0.31383  0.62053  0.18460  Biso   1.000  C
  C2953    1.0000 0.37128  0.60162  0.25749  Biso   1.000  C
  C2954    1.0000 0.37123  0.60158  0.25749  Biso   1.000  C
  C2955    1.0000 0.37124  0.60162  0.25749  Biso   1.000  C
  C2956    1.0000 0.37127  0.60158  0.25749  Biso   1.000  C
  C2957    1.0000 0.72132  0.40132  0.13170  Biso   1.000  C
  C2958    1.0000 0.72135  0.40128  0.13170  Biso   1.000  C
  C2959    1.0000 0.72136  0.40132  0.13170  Biso   1.000  C
  C2960    1.0000 0.72131  0.40128  0.13170  Biso   1.000  C
  C2961    1.0000 0.76344  0.43991  0.07040  Biso   1.000  C
  C2962    1.0000 0.76347  0.43991  0.07040  Biso   1.000  C
  C2963    1.0000 0.03577  0.35434  0.52603  Biso   1.000  C
  C2964    1.0000 0.03581  0.35434  0.52603  Biso   1.000  C
  C2965    1.0000 0.14138  0.38734  0.54551  Biso   1.000  C
  C2966    1.0000 0.14137  0.38730  0.54551  Biso   1.000  C
  C2967    1.0000 0.14141  0.38734  0.54551  Biso   1.000  C
  C2968    1.0000 0.28424  0.59349  0.21319  Biso   1.000  C
  C2969    1.0000 0.28425  0.59353  0.21319  Biso   1.000  C
  C2970    1.0000 0.28427  0.59349  0.21319  Biso   1.000  C
  C2971    1.0000 0.35807  0.66981  0.22829  Biso   1.000  C
  H1984    1.0000 0.29294  0.62681  0.15788  Biso   1.000  H
  C2972    1.0000 0.35804  0.66981  0.22829  Biso   1.000  C
  H1985    1.0000 0.29293  0.62677  0.15788  Biso   1.000  H
  H1986    1.0000 0.29297  0.62681  0.15788  Biso   1.000  H
  C2973    1.0000 0.31295  0.58690  0.25338  Biso   1.000  C
  C2974    1.0000 0.38797  0.66249  0.26729  Biso   1.000  C
  H1987    1.0000 0.39217  0.59591  0.28472  Biso   1.000  H
  C2975    1.0000 0.38793  0.66249  0.26729  Biso   1.000  C
  H1988    1.0000 0.39213  0.59589  0.28468  Biso   1.000  H
  C2976    1.0000 0.38794  0.66253  0.26729  Biso   1.000  C
  H1989    1.0000 0.39215  0.59595  0.28472  Biso   1.000  H
  H1990    1.0000 0.39216  0.59589  0.28468  Biso   1.000  H
  C2977    1.0000 0.38798  0.66253  0.26729  Biso   1.000  C
  H1991    1.0000 0.39218  0.59595  0.28472  Biso   1.000  H
  C2978    1.0000 0.71353  0.45371  0.13201  Biso   1.000  C
  H1992    1.0000 0.70512  0.38641  0.15289  Biso   1.000  H
  C2979    1.0000 0.78023  0.41841  0.14599  Biso   1.000  C
  C2980    1.0000 0.71355  0.45369  0.13197  Biso   1.000  C
  H1993    1.0000 0.70515  0.38638  0.15289  Biso   1.000  H
  C2981    1.0000 0.78027  0.41841  0.14599  Biso   1.000  C
  C2982    1.0000 0.71356  0.45371  0.13201  Biso   1.000  C
  H1994    1.0000 0.70516  0.38641  0.15289  Biso   1.000  H
  C2983    1.0000 0.71351  0.45369  0.13197  Biso   1.000  C
  H1995    1.0000 0.70511  0.38638  0.15289  Biso   1.000  H
  C2984    1.0000 0.73602  0.47300  0.10068  Biso   1.000  C
  H1996    1.0000 0.77941  0.45461  0.04910  Biso   1.000  H
  C2985    1.0000 0.80194  0.43829  0.11458  Biso   1.000  C
  C2986    1.0000 0.73606  0.47300  0.10068  Biso   1.000  C
  H1997    1.0000 0.77945  0.45461  0.04910  Biso   1.000  H
  H1998    1.0000 0.99726  0.34232  0.51662  Biso   1.000  H
  H1999    1.0000 0.99729  0.34232  0.51662  Biso   1.000  H
  H2000    1.0000 0.99730  0.34236  0.51662  Biso   1.000  H
  H2001    1.0000 0.99727  0.34236  0.51662  Biso   1.000  H
  C2987    1.0000 0.06917  0.39852  0.58071  Biso   1.000  C
  C2988    1.0000 0.06258  0.37752  0.49330  Biso   1.000  C
  C2989    1.0000 0.06254  0.37752  0.49330  Biso   1.000  C
  C2990    1.0000 0.06918  0.39856  0.58071  Biso   1.000  C
  C2991    1.0000 0.06920  0.39852  0.58071  Biso   1.000  C
  C2992    1.0000 0.12309  0.41744  0.58873  Biso   1.000  C
  H2002    1.0000 0.18000  0.39994  0.55503  Biso   1.000  H
  C2993    1.0000 0.11649  0.39614  0.50101  Biso   1.000  C
  H2003    1.0000 0.17995  0.39992  0.55500  Biso   1.000  H
  C2994    1.0000 0.11645  0.39610  0.50101  Biso   1.000  C
  H2004    1.0000 0.17996  0.39994  0.55503  Biso   1.000  H
  C2995    1.0000 0.11646  0.39614  0.50101  Biso   1.000  C
  H2005    1.0000 0.17998  0.39992  0.55500  Biso   1.000  H
  C2996    1.0000 0.12312  0.41744  0.58873  Biso   1.000  C
  C2997    1.0000 0.22967  0.57680  0.20021  Biso   1.000  C
  C2998    1.0000 0.22962  0.57678  0.20017  Biso   1.000  C
  C2999    1.0000 0.22964  0.57684  0.20021  Biso   1.000  C
  C3000    1.0000 0.22966  0.57678  0.20017  Biso   1.000  C
  C3001    1.0000 0.22968  0.57684  0.20021  Biso   1.000  C
  C3002    1.0000 0.36837  0.72272  0.23119  Biso   1.000  C
  C3003    1.0000 0.36836  0.72268  0.23119  Biso   1.000  C
  C3004    1.0000 0.28717  0.56341  0.28049  Biso   1.000  C
  C3005    1.0000 0.28713  0.56341  0.28049  Biso   1.000  C
  C3006    1.0000 0.42807  0.70802  0.30919  Biso   1.000  C
  C3007    1.0000 0.42806  0.70799  0.30919  Biso   1.000  C
  C3008    1.0000 0.42810  0.70802  0.30919  Biso   1.000  C
  C3009    1.0000 0.68555  0.48101  0.15920  Biso   1.000  C
  C3010    1.0000 0.81253  0.41340  0.18530  Biso   1.000  C
  C3011    1.0000 0.81257  0.41340  0.18530  Biso   1.000  C
  C3012    1.0000 0.73044  0.51950  0.09650  Biso   1.000  C
  C3013    1.0000 0.73048  0.51950  0.09650  Biso   1.000  C
  C3014    1.0000 0.85593  0.45338  0.12268  Biso   1.000  C
  C3015    1.0000 0.85596  0.45338  0.12268  Biso   1.000  C
  C3016    1.0000 0.85597  0.45342  0.12268  Biso   1.000  C
  C3017    1.0000 0.85594  0.45342  0.12268  Biso   1.000  C
  C3018    1.0000 0.04918  0.42656  0.61754  Biso   1.000  C
  C3019    1.0000 0.04916  0.42651  0.61750  Biso   1.000  C
  C3020    1.0000 0.04921  0.42655  0.61750  Biso   1.000  C
  C3021    1.0000 0.04922  0.42656  0.61754  Biso   1.000  C
  C3022    1.0000 0.04917  0.42655  0.61750  Biso   1.000  C
  C3023    1.0000 0.02787  0.37993  0.45372  Biso   1.000  C
  C3024    1.0000 0.15710  0.46446  0.63354  Biso   1.000  C
  C3025    1.0000 0.15707  0.46441  0.63350  Biso   1.000  C
  C3026    1.0000 0.15708  0.46444  0.63350  Biso   1.000  C
  C3027    1.0000 0.15713  0.46446  0.63354  Biso   1.000  C
  C3028    1.0000 0.13567  0.41711  0.46921  Biso   1.000  C
  C3029    1.0000 0.13564  0.41711  0.46921  Biso   1.000  C
  C3030    1.0000 0.13568  0.41715  0.46921  Biso   1.000  C
  C3031    1.0000 0.13565  0.41715  0.46921  Biso   1.000  C
  C3032    1.0000 0.20377  0.55342  0.22732  Biso   1.000  C
  C3033    1.0000 0.20372  0.55341  0.22728  Biso   1.000  C
  C3034    1.0000 0.20376  0.55341  0.22728  Biso   1.000  C
  H2006    1.0000 0.21046  0.58132  0.17330  Biso   1.000  H
  H2007    1.0000 0.21042  0.58128  0.17330  Biso   1.000  H
  H2008    1.0000 0.21043  0.58132  0.17330  Biso   1.000  H
  H2009    1.0000 0.21045  0.58128  0.17330  Biso   1.000  H
  C3035    1.0000 0.40846  0.76821  0.27310  Biso   1.000  C
  C3036    1.0000 0.34236  0.73081  0.18739  Biso   1.000  C
  C3037    1.0000 0.40850  0.76821  0.27310  Biso   1.000  C
  C3038    1.0000 0.23246  0.54670  0.26740  Biso   1.000  C
  C3039    1.0000 0.23243  0.54670  0.26740  Biso   1.000  C
  C3040    1.0000 0.23244  0.54674  0.26740  Biso   1.000  C
  C3041    1.0000 0.23247  0.54674  0.26740  Biso   1.000  C
  H2010    1.0000 0.30635  0.55903  0.30729  Biso   1.000  H
  H2011    1.0000 0.30634  0.55899  0.30729  Biso   1.000  H
  H2012    1.0000 0.30639  0.55903  0.30729  Biso   1.000  H
  C3042    1.0000 0.43827  0.76083  0.31210  Biso   1.000  C
  C3043    1.0000 0.46290  0.70151  0.35082  Biso   1.000  C
  C3044    1.0000 0.43826  0.76079  0.31210  Biso   1.000  C
  C3045    1.0000 0.46285  0.70149  0.35078  Biso   1.000  C
  C3046    1.0000 0.46287  0.70155  0.35082  Biso   1.000  C
  C3047    1.0000 0.43830  0.76083  0.31210  Biso   1.000  C
  C3048    1.0000 0.46290  0.70153  0.35078  Biso   1.000  C
  C3049    1.0000 0.46291  0.70155  0.35082  Biso   1.000  C
  C3050    1.0000 0.46286  0.70153  0.35078  Biso   1.000  C
  C3051    1.0000 0.68004  0.52751  0.15502  Biso   1.000  C
  C3052    1.0000 0.66273  0.46029  0.19340  Biso   1.000  C
  C3053    1.0000 0.68006  0.52750  0.15498  Biso   1.000  C
  C3054    1.0000 0.66276  0.46029  0.19340  Biso   1.000  C
  C3055    1.0000 0.68007  0.52751  0.15502  Biso   1.000  C
  C3056    1.0000 0.66277  0.46033  0.19340  Biso   1.000  C
  C3057    1.0000 0.68003  0.52750  0.15498  Biso   1.000  C
  C3058    1.0000 0.66274  0.46033  0.19340  Biso   1.000  C
  H2013    1.0000 0.79806  0.40012  0.20629  Biso   1.000  H
  C3059    1.0000 0.86645  0.42849  0.19340  Biso   1.000  C
  H2014    1.0000 0.79805  0.40008  0.20629  Biso   1.000  H
  C3060    1.0000 0.86646  0.42852  0.19340  Biso   1.000  C
  C3061    1.0000 0.86642  0.42849  0.19340  Biso   1.000  C
  C3062    1.0000 0.70243  0.54669  0.12369  Biso   1.000  C
  C3063    1.0000 0.74745  0.53658  0.05800  Biso   1.000  C
  C3064    1.0000 0.70247  0.54669  0.12369  Biso   1.000  C
  C3065    1.0000 0.74743  0.53657  0.05796  Biso   1.000  C
  C3066    1.0000 0.74746  0.53662  0.05800  Biso   1.000  C
  C3067    1.0000 0.74744  0.53660  0.05796  Biso   1.000  C
  C3068    1.0000 0.88814  0.44850  0.16210  Biso   1.000  C
  H2015    1.0000 0.87043  0.46679  0.10180  Biso   1.000  H
  H2016    1.0000 0.87046  0.46679  0.10180  Biso   1.000  H
  C3069    1.0000 0.88818  0.44850  0.16210  Biso   1.000  C
  H2017    1.0000 0.87047  0.46683  0.10180  Biso   1.000  H
  H2018    1.0000 0.87044  0.46683  0.10180  Biso   1.000  H
  C3070    1.0000 0.99201  0.40266  0.61204  Biso   1.000  C
  C3071    1.0000 0.99200  0.40264  0.61200  Biso   1.000  C
  C3072    1.0000 0.99196  0.40264  0.61200  Biso   1.000  C
  C3073    1.0000 0.08328  0.47353  0.66231  Biso   1.000  C
  C3074    1.0000 0.08329  0.47356  0.66231  Biso   1.000  C
  C3075    1.0000 0.08331  0.47353  0.66231  Biso   1.000  C
  H2019    1.0000 0.99176  0.36742  0.44853  Biso   1.000  H
  H2020    1.0000 0.99178  0.36740  0.44849  Biso   1.000  H
  H2021    1.0000 0.99181  0.36746  0.44853  Biso   1.000  H
  H2022    1.0000 0.99175  0.36740  0.44849  Biso   1.000  H
  H2023    1.0000 0.99180  0.36742  0.44853  Biso   1.000  H
  H2024    1.0000 0.99177  0.36746  0.44853  Biso   1.000  H
  C3076    1.0000 0.04718  0.40083  0.42193  Biso   1.000  C
  C3077    1.0000 0.04713  0.40081  0.42189  Biso   1.000  C
  C3078    1.0000 0.04716  0.40081  0.42189  Biso   1.000  C
  C3079    1.0000 0.13720  0.49245  0.67033  Biso   1.000  C
  C3080    1.0000 0.21519  0.48906  0.64434  Biso   1.000  C
  C3081    1.0000 0.21517  0.48900  0.64430  Biso   1.000  C
  C3082    1.0000 0.21521  0.48904  0.64430  Biso   1.000  C
  C3083    1.0000 0.13723  0.49245  0.67033  Biso   1.000  C
  C3084    1.0000 0.21523  0.48906  0.64434  Biso   1.000  C
  C3085    1.0000 0.21518  0.48904  0.64430  Biso   1.000  C
  H2025    1.0000 0.17179  0.42962  0.47440  Biso   1.000  H
  C3086    1.0000 0.10107  0.41951  0.42960  Biso   1.000  C
  H2026    1.0000 0.17175  0.42962  0.47440  Biso   1.000  H
  C3087    1.0000 0.10103  0.41951  0.42960  Biso   1.000  C
  O432     1.0000 0.15194  0.53282  0.22391  Biso   1.000  O
  O433     1.0000 0.15193  0.53280  0.22387  Biso   1.000  O
  O434     1.0000 0.15196  0.53280  0.22387  Biso   1.000  O
  O435     1.0000 0.15198  0.53282  0.22391  Biso   1.000  O
  H2027    1.0000 0.41527  0.80352  0.27499  Biso   1.000  H
  H2028    1.0000 0.41530  0.80352  0.27499  Biso   1.000  H
  H2029    1.0000 0.33874  0.70101  0.15509  Biso   1.000  H
  H2030    1.0000 0.36407  0.76552  0.18921  Biso   1.000  H
  C3088    1.0000 0.28837  0.73190  0.18821  Biso   1.000  C
  H2031    1.0000 0.36406  0.76550  0.18917  Biso   1.000  H
  C3089    1.0000 0.28833  0.73190  0.18821  Biso   1.000  C
  C3090    1.0000 0.28834  0.73194  0.18821  Biso   1.000  C
  H2032    1.0000 0.33878  0.70101  0.15509  Biso   1.000  H
  C3091    1.0000 0.28838  0.73194  0.18821  Biso   1.000  C
  O436     1.0000 0.20125  0.52222  0.28990  Biso   1.000  O
  O437     1.0000 0.20128  0.52222  0.28990  Biso   1.000  O
  H2033    1.0000 0.46510  0.79133  0.34021  Biso   1.000  H
  H2034    1.0000 0.46506  0.79133  0.34021  Biso   1.000  H
  H2035    1.0000 0.49539  0.73394  0.36903  Biso   1.000  H
  H2036    1.0000 0.47176  0.66922  0.33541  Biso   1.000  H
  C3092    1.0000 0.43349  0.69472  0.38951  Biso   1.000  C
  H2037    1.0000 0.49538  0.73392  0.36899  Biso   1.000  H
  C3093    1.0000 0.43345  0.69472  0.38951  Biso   1.000  C
  H2038    1.0000 0.47180  0.66922  0.33541  Biso   1.000  H
  H2039    1.0000 0.49542  0.73394  0.36903  Biso   1.000  H
  H2040    1.0000 0.66124  0.54572  0.17322  Biso   1.000  H
  H2041    1.0000 0.66126  0.54570  0.17318  Biso   1.000  H
  H2042    1.0000 0.66127  0.54572  0.17322  Biso   1.000  H
  H2043    1.0000 0.66122  0.54570  0.17318  Biso   1.000  H
  H2044    1.0000 0.68564  0.44500  0.20811  Biso   1.000  H
  H2045    1.0000 0.66134  0.49122  0.22178  Biso   1.000  H
  C3094    1.0000 0.60672  0.41541  0.16369  Biso   1.000  C
  H2046    1.0000 0.68566  0.44498  0.20807  Biso   1.000  H
  H2047    1.0000 0.66136  0.49118  0.22178  Biso   1.000  H
  C3095    1.0000 0.60676  0.41541  0.16369  Biso   1.000  C
  H2048    1.0000 0.68569  0.44504  0.20811  Biso   1.000  H
  H2049    1.0000 0.66137  0.49122  0.22178  Biso   1.000  H
  H2050    1.0000 0.68563  0.44498  0.20807  Biso   1.000  H
  H2051    1.0000 0.66133  0.49118  0.22178  Biso   1.000  H
  H2052    1.0000 0.68565  0.44504  0.20811  Biso   1.000  H
  O438     1.0000 0.90595  0.42752  0.23030  Biso   1.000  O
  O439     1.0000 0.90599  0.42752  0.23030  Biso   1.000  O
  H2053    1.0000 0.69873  0.57780  0.12090  Biso   1.000  H
  H2054    1.0000 0.69877  0.57780  0.12090  Biso   1.000  H
  H2055    1.0000 0.74232  0.50419  0.02698  Biso   1.000  H
  H2056    1.0000 0.72715  0.55690  0.04840  Biso   1.000  H
  C3096    1.0000 0.80564  0.57330  0.08360  Biso   1.000  C
  H2057    1.0000 0.74236  0.50419  0.02698  Biso   1.000  H
  O440     1.0000 0.94366  0.46430  0.18011  Biso   1.000  O
  O441     1.0000 0.94365  0.46429  0.18007  Biso   1.000  O
  O442     1.0000 0.94362  0.46429  0.18007  Biso   1.000  O
  H2058    1.0000 0.98759  0.41333  0.64593  Biso   1.000  H
  H2059    1.0000 0.97879  0.36243  0.59403  Biso   1.000  H
  C3097    1.0000 0.96120  0.42584  0.58052  Biso   1.000  C
  H2060    1.0000 0.97878  0.36241  0.59400  Biso   1.000  H
  H2061    1.0000 0.98760  0.41336  0.64593  Biso   1.000  H
  H2062    1.0000 0.97880  0.36246  0.59403  Biso   1.000  H
  H2063    1.0000 0.97879  0.36244  0.59400  Biso   1.000  H
  H2064    1.0000 0.06989  0.49224  0.68702  Biso   1.000  H
  H2065    1.0000 0.06992  0.49224  0.68702  Biso   1.000  H
  O443     1.0000 0.02616  0.40794  0.38022  Biso   1.000  O
  O444     1.0000 0.02615  0.40790  0.38022  Biso   1.000  O
  O445     1.0000 0.02620  0.40794  0.38022  Biso   1.000  O
  H2066    1.0000 0.16002  0.52396  0.70034  Biso   1.000  H
  H2067    1.0000 0.15997  0.52394  0.70030  Biso   1.000  H
  H2068    1.0000 0.15998  0.52396  0.70034  Biso   1.000  H
  H2069    1.0000 0.16000  0.52394  0.70030  Biso   1.000  H
  H2070    1.0000 0.22499  0.52595  0.64612  Biso   1.000  H
  H2071    1.0000 0.22560  0.46615  0.61723  Biso   1.000  H
  C3098    1.0000 0.24190  0.49203  0.69624  Biso   1.000  C
  H2072    1.0000 0.22498  0.52592  0.64612  Biso   1.000  H
  H2073    1.0000 0.22557  0.46615  0.61723  Biso   1.000  H
  C3099    1.0000 0.24191  0.49207  0.69624  Biso   1.000  C
  H2074    1.0000 0.22502  0.52595  0.64612  Biso   1.000  H
  O446     1.0000 0.11558  0.43584  0.39462  Biso   1.000  O
  O447     1.0000 0.11552  0.43579  0.39459  Biso   1.000  O
  O448     1.0000 0.11557  0.43583  0.39459  Biso   1.000  O
  O449     1.0000 0.11556  0.43579  0.39459  Biso   1.000  O
  O450     1.0000 0.11553  0.43583  0.39459  Biso   1.000  O
  B234     1.0000 0.15076  0.51473  0.26210  Biso   1.000  B
  B235     1.0000 0.15072  0.51469  0.26210  Biso   1.000  B
  B236     1.0000 0.15075  0.51469  0.26210  Biso   1.000  B
  B237     1.0000 0.15073  0.51473  0.26210  Biso   1.000  B
  H2075    1.0000 0.26508  0.71662  0.15331  Biso   1.000  H
  H2076    1.0000 0.29129  0.76952  0.20691  Biso   1.000  H
  H2077    1.0000 0.27436  0.71021  0.20490  Biso   1.000  H
  H2078    1.0000 0.26503  0.71660  0.15327  Biso   1.000  H
  H2079    1.0000 0.29124  0.76950  0.20687  Biso   1.000  H
  H2080    1.0000 0.26504  0.71662  0.15331  Biso   1.000  H
  H2081    1.0000 0.29125  0.76952  0.20691  Biso   1.000  H
  H2082    1.0000 0.26507  0.71660  0.15327  Biso   1.000  H
  H2083    1.0000 0.29128  0.76950  0.20687  Biso   1.000  H
  H2084    1.0000 0.40396  0.66002  0.37239  Biso   1.000  H
  H2085    1.0000 0.42108  0.72462  0.40152  Biso   1.000  H
  H2086    1.0000 0.45730  0.69543  0.41840  Biso   1.000  H
  H2087    1.0000 0.45727  0.69543  0.41840  Biso   1.000  H
  H2088    1.0000 0.42109  0.72466  0.40152  Biso   1.000  H
  H2089    1.0000 0.40400  0.66002  0.37239  Biso   1.000  H
  H2090    1.0000 0.42112  0.72462  0.40152  Biso   1.000  H
  H2091    1.0000 0.59504  0.40001  0.18580  Biso   1.000  H
  H2092    1.0000 0.58293  0.43169  0.15320  Biso   1.000  H
  H2093    1.0000 0.60742  0.38652  0.13372  Biso   1.000  H
  H2094    1.0000 0.58297  0.43169  0.15320  Biso   1.000  H
  H2095    1.0000 0.60745  0.38650  0.13368  Biso   1.000  H
  H2096    1.0000 0.58298  0.43173  0.15320  Biso   1.000  H
  H2097    1.0000 0.60746  0.38652  0.13372  Biso   1.000  H
  H2098    1.0000 0.60741  0.38650  0.13368  Biso   1.000  H
  H2099    1.0000 0.58294  0.43173  0.15320  Biso   1.000  H
  B238     1.0000 0.94974  0.45141  0.22109  Biso   1.000  B
  B239     1.0000 0.94976  0.45137  0.22109  Biso   1.000  B
  B240     1.0000 0.94977  0.45141  0.22109  Biso   1.000  B
  B241     1.0000 0.94973  0.45137  0.22109  Biso   1.000  B
  H2100    1.0000 0.82235  0.56070  0.10641  Biso   1.000  H
  H2101    1.0000 0.82214  0.57139  0.05750  Biso   1.000  H
  H2102    1.0000 0.80914  0.61088  0.10308  Biso   1.000  H
  H2103    1.0000 0.82234  0.56068  0.10637  Biso   1.000  H
  H2104    1.0000 0.82236  0.56073  0.10641  Biso   1.000  H
  H2105    1.0000 0.82215  0.57142  0.05750  Biso   1.000  H
  H2106    1.0000 0.80915  0.61091  0.10308  Biso   1.000  H
  H2107    1.0000 0.94910  0.45142  0.60282  Biso   1.000  H
  H2108    1.0000 0.93139  0.39575  0.55263  Biso   1.000  H
  H2109    1.0000 0.98407  0.44462  0.56673  Biso   1.000  H
  H2110    1.0000 0.93137  0.39573  0.55260  Biso   1.000  H
  H2111    1.0000 0.98410  0.44462  0.56673  Biso   1.000  H
  H2112    1.0000 0.94911  0.45146  0.60282  Biso   1.000  H
  H2113    1.0000 0.93142  0.39575  0.55263  Biso   1.000  H
  H2114    1.0000 0.98411  0.44466  0.56673  Biso   1.000  H
  H2115    1.0000 0.98408  0.44466  0.56673  Biso   1.000  H
  B242     1.0000 0.06717  0.43321  0.36519  Biso   1.000  B
  B243     1.0000 0.06713  0.43321  0.36519  Biso   1.000  B
  H2116    1.0000 0.23459  0.45465  0.69302  Biso   1.000  H
  H2117    1.0000 0.22850  0.51132  0.72191  Biso   1.000  H
  H2118    1.0000 0.27930  0.51066  0.70654  Biso   1.000  H
  H2119    1.0000 0.22846  0.51132  0.72191  Biso   1.000  H
  H2120    1.0000 0.22851  0.51136  0.72191  Biso   1.000  H
  H2121    1.0000 0.27933  0.51066  0.70654  Biso   1.000  H
  H2122    1.0000 0.23463  0.45465  0.69302  Biso   1.000  H
  H2123    1.0000 0.22847  0.51136  0.72191  Biso   1.000  H
  C3100    1.0000 0.10065  0.48883  0.27252  Biso   1.000  C
  C3101    1.0000 0.10063  0.48878  0.27248  Biso   1.000  C
  C3102    1.0000 0.10067  0.48882  0.27248  Biso   1.000  C
  C3103    1.0000 0.10069  0.48883  0.27252  Biso   1.000  C
  C3104    1.0000 0.10064  0.48882  0.27248  Biso   1.000  C
  C3105    1.0000 0.00636  0.45511  0.25369  Biso   1.000  C
  C3106    1.0000 0.00632  0.45511  0.25369  Biso   1.000  C
  C3107    1.0000 0.06256  0.44944  0.32371  Biso   1.000  C
  C3108    1.0000 0.06255  0.44940  0.32371  Biso   1.000  C
  C3109    1.0000 0.06260  0.44944  0.32371  Biso   1.000  C
  C3110    1.0000 0.05053  0.47940  0.24289  Biso   1.000  C
  C3111    1.0000 0.05057  0.47940  0.24289  Biso   1.000  C
  C3112    1.0000 0.10675  0.47381  0.31291  Biso   1.000  C
  C3113    1.0000 0.10676  0.47384  0.31291  Biso   1.000  C
  C3114    1.0000 0.10679  0.47381  0.31291  Biso   1.000  C
  C3115    1.0000 0.01244  0.44012  0.29409  Biso   1.000  C
  C3116    1.0000 0.01243  0.44008  0.29409  Biso   1.000  C
  C3117    1.0000 0.01247  0.44012  0.29409  Biso   1.000  C
  H2124    1.0000 0.04655  0.48939  0.21590  Biso   1.000  H
  H2125    1.0000 0.04651  0.48939  0.21590  Biso   1.000  H
  H2126    1.0000 0.04652  0.48943  0.21590  Biso   1.000  H
  H2127    1.0000 0.04656  0.48943  0.21590  Biso   1.000  H
  H2128    1.0000 0.14026  0.48002  0.33270  Biso   1.000  H
  H2129    1.0000 0.14025  0.47999  0.33270  Biso   1.000  H
  H2130    1.0000 0.98285  0.42380  0.30129  Biso   1.000  H
  H2131    1.0000 0.98288  0.42380  0.30129  Biso   1.000  H
  H2132    1.0000 0.98289  0.42383  0.30129  Biso   1.000  H
  H2133    1.0000 0.98286  0.42383  0.30129  Biso   1.000  H
  C3118    1.0000 0.98773  0.56000  0.70597  Biso   1.000  C
  C3119    1.0000 0.93760  0.55064  0.67634  Biso   1.000  C
  C3120    1.0000 0.93763  0.55064  0.67634  Biso   1.000  C
  C3121    1.0000 0.93761  0.55068  0.67634  Biso   1.000  C
  C3122    1.0000 0.93764  0.55068  0.67634  Biso   1.000  C
  C3123    1.0000 0.99383  0.54497  0.74636  Biso   1.000  C
  C3124    1.0000 0.99380  0.54497  0.74636  Biso   1.000  C
  H2134    1.0000 0.01731  0.57629  0.69876  Biso   1.000  H
  H2135    1.0000 0.01732  0.57623  0.69873  Biso   1.000  H
  H2136    1.0000 0.01734  0.57629  0.69876  Biso   1.000  H
  H2137    1.0000 0.01730  0.57627  0.69873  Biso   1.000  H
  H2138    1.0000 0.01729  0.57623  0.69873  Biso   1.000  H
  H2139    1.0000 0.01733  0.57627  0.69873  Biso   1.000  H
  C3125    1.0000 0.89340  0.52628  0.68715  Biso   1.000  C
  C3126    1.0000 0.89344  0.52628  0.68715  Biso   1.000  C
  C3127    1.0000 0.89339  0.52624  0.68715  Biso   1.000  C
  C3128    1.0000 0.89343  0.52624  0.68715  Biso   1.000  C
  B244     1.0000 0.93303  0.56687  0.63486  Biso   1.000  B
  C3129    1.0000 0.98775  0.55997  0.70597  Biso   1.000  C
  C3130    1.0000 0.98771  0.55995  0.70593  Biso   1.000  C
  B245     1.0000 0.93301  0.56685  0.63483  Biso   1.000  B
  B246     1.0000 0.93298  0.56685  0.63483  Biso   1.000  B
  C3131    1.0000 0.98772  0.55997  0.70597  Biso   1.000  C
  C3132    1.0000 0.98774  0.55995  0.70593  Biso   1.000  C
  C3133    1.0000 0.98776  0.56000  0.70597  Biso   1.000  C
  C3134    1.0000 0.94966  0.52068  0.75717  Biso   1.000  C
  C3135    1.0000 0.94961  0.52066  0.75713  Biso   1.000  C
  C3136    1.0000 0.94962  0.52068  0.75717  Biso   1.000  C
  C3137    1.0000 0.94965  0.52066  0.75713  Biso   1.000  C
  B247     1.0000 0.05042  0.54867  0.77897  Biso   1.000  B
  B248     1.0000 0.05041  0.54865  0.77893  Biso   1.000  B
  B249     1.0000 0.05043  0.54871  0.77897  Biso   1.000  B
  C3138    1.0000 0.89951  0.51125  0.72754  Biso   1.000  C
  C3139    1.0000 0.89954  0.51125  0.72754  Biso   1.000  C
  C3140    1.0000 0.89952  0.51128  0.72754  Biso   1.000  C
  C3141    1.0000 0.89955  0.51128  0.72754  Biso   1.000  C
  H2140    1.0000 0.85993  0.52006  0.66736  Biso   1.000  H
  H2141    1.0000 0.85994  0.52009  0.66736  Biso   1.000  H
  H2142    1.0000 0.85989  0.52006  0.66736  Biso   1.000  H
  O451     1.0000 0.97399  0.59215  0.61984  Biso   1.000  O
  O452     1.0000 0.88461  0.56424  0.60543  Biso   1.000  O
  O453     1.0000 0.97403  0.59215  0.61984  Biso   1.000  O
  O454     1.0000 0.97400  0.59218  0.61984  Biso   1.000  O
  O455     1.0000 0.88462  0.56427  0.60543  Biso   1.000  O
  O456     1.0000 0.88458  0.56424  0.60543  Biso   1.000  O
  O457     1.0000 0.97404  0.59218  0.61984  Biso   1.000  O
  H2143    1.0000 0.95364  0.51069  0.78416  Biso   1.000  H
  H2144    1.0000 0.95363  0.51065  0.78416  Biso   1.000  H
  H2145    1.0000 0.95361  0.51069  0.78416  Biso   1.000  H
  O458     1.0000 0.05649  0.53578  0.81994  Biso   1.000  O
  O459     1.0000 0.09420  0.57256  0.76975  Biso   1.000  O
  O460     1.0000 0.05653  0.53578  0.81994  Biso   1.000  O
  O461     1.0000 0.09424  0.57256  0.76975  Biso   1.000  O
  O462     1.0000 0.09425  0.57260  0.76975  Biso   1.000  O
  O463     1.0000 0.09421  0.57260  0.76975  Biso   1.000  O
  B250     1.0000 0.84943  0.48535  0.73796  Biso   1.000  B
  B251     1.0000 0.84944  0.48539  0.73796  Biso   1.000  B
  B252     1.0000 0.84940  0.48539  0.73796  Biso   1.000  B
  B253     1.0000 0.84939  0.48535  0.73796  Biso   1.000  B
  C3142    1.0000 0.95302  0.59925  0.57813  Biso   1.000  C
  C3143    1.0000 0.95298  0.59925  0.57813  Biso   1.000  C
  C3144    1.0000 0.89913  0.58057  0.57046  Biso   1.000  C
  C3145    1.0000 0.89911  0.58055  0.57042  Biso   1.000  C
  C3146    1.0000 0.89908  0.58055  0.57042  Biso   1.000  C
  C3147    1.0000 0.89909  0.58057  0.57046  Biso   1.000  C
  C3148    1.0000 0.11201  0.55158  0.83795  Biso   1.000  C
  C3149    1.0000 0.11205  0.55158  0.83795  Biso   1.000  C
  C3150    1.0000 0.13370  0.57159  0.80666  Biso   1.000  C
  C3151    1.0000 0.13373  0.57156  0.80666  Biso   1.000  C
  C3152    1.0000 0.13374  0.57159  0.80666  Biso   1.000  C
  C3153    1.0000 0.13369  0.57156  0.80666  Biso   1.000  C
  O464     1.0000 0.79891  0.47786  0.71015  Biso   1.000  O
  O465     1.0000 0.79895  0.47786  0.71015  Biso   1.000  O
  O466     1.0000 0.84822  0.46727  0.77614  Biso   1.000  O
  O467     1.0000 0.84825  0.46727  0.77614  Biso   1.000  O
  C3154    1.0000 0.97232  0.62015  0.54633  Biso   1.000  C
  C3155    1.0000 0.97228  0.62015  0.54633  Biso   1.000  C
  C3156    1.0000 0.86452  0.58297  0.53084  Biso   1.000  C
  C3157    1.0000 0.86451  0.58293  0.53084  Biso   1.000  C
  C3158    1.0000 0.86449  0.58297  0.53084  Biso   1.000  C
  C3159    1.0000 0.14423  0.54670  0.87738  Biso   1.000  C
  C3160    1.0000 0.14424  0.54665  0.87734  Biso   1.000  C
  C3161    1.0000 0.14426  0.54670  0.87738  Biso   1.000  C
  C3162    1.0000 0.14422  0.54668  0.87734  Biso   1.000  C
  C3163    1.0000 0.14421  0.54665  0.87734  Biso   1.000  C
  C3164    1.0000 0.14425  0.54668  0.87734  Biso   1.000  C
  C3165    1.0000 0.18762  0.58668  0.81475  Biso   1.000  C
  C3166    1.0000 0.76773  0.45338  0.73265  Biso   1.000  C
  C3167    1.0000 0.76772  0.45334  0.73265  Biso   1.000  C
  C3168    1.0000 0.76769  0.45338  0.73265  Biso   1.000  C
  C3169    1.0000 0.79642  0.44666  0.77273  Biso   1.000  C
  C3170    1.0000 0.79639  0.44666  0.77273  Biso   1.000  C
  C3171    1.0000 0.93762  0.62257  0.50675  Biso   1.000  C
  C3172    1.0000 0.93760  0.62255  0.50671  Biso   1.000  C
  C3173    1.0000 0.93757  0.62255  0.50671  Biso   1.000  C
  H2146    1.0000 0.00840  0.63266  0.55152  Biso   1.000  H
  H2147    1.0000 0.00839  0.63262  0.55152  Biso   1.000  H
  C3174    1.0000 0.88370  0.60394  0.49905  Biso   1.000  C
  H2148    1.0000 0.82841  0.57046  0.52565  Biso   1.000  H
  H2149    1.0000 0.82839  0.57044  0.52561  Biso   1.000  H
  C3175    1.0000 0.88371  0.60398  0.49905  Biso   1.000  C
  H2150    1.0000 0.12973  0.53329  0.89825  Biso   1.000  H
  C3176    1.0000 0.19822  0.56179  0.88547  Biso   1.000  C
  H2151    1.0000 0.12972  0.53325  0.89825  Biso   1.000  H
  C3177    1.0000 0.19824  0.56177  0.88543  Biso   1.000  C
  C3178    1.0000 0.19826  0.56179  0.88547  Biso   1.000  C
  C3179    1.0000 0.19821  0.56177  0.88543  Biso   1.000  C
  C3180    1.0000 0.21993  0.58167  0.85406  Biso   1.000  C
  H2152    1.0000 0.20210  0.59996  0.79376  Biso   1.000  H
  H2153    1.0000 0.20214  0.59996  0.79376  Biso   1.000  H
  C3181    1.0000 0.21994  0.58171  0.85406  Biso   1.000  C
  H2154    1.0000 0.20215  0.60000  0.79376  Biso   1.000  H
  H2155    1.0000 0.20211  0.60000  0.79376  Biso   1.000  H
  C3182    1.0000 0.71303  0.43667  0.71956  Biso   1.000  C
  C3183    1.0000 0.71301  0.43665  0.71952  Biso   1.000  C
  C3184    1.0000 0.71298  0.43665  0.71952  Biso   1.000  C
  C3185    1.0000 0.77052  0.42328  0.79984  Biso   1.000  C
  C3186    1.0000 0.77051  0.42324  0.79984  Biso   1.000  C
  C3187    1.0000 0.77049  0.42328  0.79984  Biso   1.000  C
  C3188    1.0000 0.96439  0.64574  0.47403  Biso   1.000  C
  C3189    1.0000 0.96442  0.64574  0.47403  Biso   1.000  C
  C3190    1.0000 0.96440  0.64577  0.47403  Biso   1.000  C
  C3191    1.0000 0.96443  0.64577  0.47403  Biso   1.000  C
  C3192    1.0000 0.85882  0.61274  0.45455  Biso   1.000  C
  C3193    1.0000 0.85877  0.61272  0.45451  Biso   1.000  C
  C3194    1.0000 0.85883  0.61278  0.45455  Biso   1.000  C
  C3195    1.0000 0.85878  0.61274  0.45455  Biso   1.000  C
  C3196    1.0000 0.85880  0.61272  0.45451  Biso   1.000  C
  C3197    1.0000 0.23672  0.56017  0.92966  Biso   1.000  C
  C3198    1.0000 0.23676  0.56017  0.92966  Biso   1.000  C
  C3199    1.0000 0.23677  0.56021  0.92966  Biso   1.000  C
  C3200    1.0000 0.23673  0.56021  0.92966  Biso   1.000  C
  C3201    1.0000 0.27883  0.59876  0.86835  Biso   1.000  C
  C3202    1.0000 0.27884  0.59880  0.86835  Biso   1.000  C
  C3203    1.0000 0.68724  0.41318  0.74667  Biso   1.000  C
  C3204    1.0000 0.68719  0.41316  0.74663  Biso   1.000  C
  C3205    1.0000 0.68720  0.41318  0.74667  Biso   1.000  C
  C3206    1.0000 0.68723  0.41316  0.74663  Biso   1.000  C
  H2156    1.0000 0.69379  0.44104  0.69272  Biso   1.000  H
  H2157    1.0000 0.69384  0.44106  0.69276  Biso   1.000  H
  H2158    1.0000 0.69382  0.44109  0.69276  Biso   1.000  H
  H2159    1.0000 0.69381  0.44106  0.69276  Biso   1.000  H
  H2160    1.0000 0.69385  0.44109  0.69276  Biso   1.000  H
  C3207    1.0000 0.71595  0.40659  0.78687  Biso   1.000  C
  C3208    1.0000 0.71590  0.40653  0.78683  Biso   1.000  C
  C3209    1.0000 0.71592  0.40659  0.78687  Biso   1.000  C
  C3210    1.0000 0.71591  0.40657  0.78683  Biso   1.000  C
  C3211    1.0000 0.71593  0.40653  0.78683  Biso   1.000  C
  H2161    1.0000 0.78973  0.41877  0.82676  Biso   1.000  H
  H2162    1.0000 0.78974  0.41880  0.82676  Biso   1.000  H
  H2163    1.0000 0.78970  0.41877  0.82676  Biso   1.000  H
  C3212    1.0000 0.93840  0.68926  0.47213  Biso   1.000  C
  C3213    1.0000 0.93103  0.60156  0.41934  Biso   1.000  C
  C3214    1.0000 0.93844  0.68926  0.47213  Biso   1.000  C
  C3215    1.0000 0.93098  0.60154  0.41931  Biso   1.000  C
  C3216    1.0000 0.93839  0.68923  0.47213  Biso   1.000  C
  C3217    1.0000 0.93099  0.60156  0.41934  Biso   1.000  C
  C3218    1.0000 0.93101  0.60154  0.41931  Biso   1.000  C
  H2164    1.0000 0.00290  0.65776  0.48344  Biso   1.000  H
  C3219    1.0000 0.87707  0.58264  0.41133  Biso   1.000  C
  H2165    1.0000 0.82020  0.60014  0.44502  Biso   1.000  H
  C3220    1.0000 0.88449  0.67243  0.46442  Biso   1.000  C
  C3221    1.0000 0.88450  0.67246  0.46442  Biso   1.000  C
  C3222    1.0000 0.87711  0.58264  0.41133  Biso   1.000  C
  H2166    1.0000 0.82016  0.60014  0.44502  Biso   1.000  H
  C3223    1.0000 0.26413  0.52708  0.89937  Biso   1.000  C
  H2167    1.0000 0.22074  0.54547  0.95096  Biso   1.000  H
  C3224    1.0000 0.27412  0.62008  0.95727  Biso   1.000  C
  C3225    1.0000 0.26412  0.52706  0.89934  Biso   1.000  C
  C3226    1.0000 0.27416  0.62008  0.95727  Biso   1.000  C
  H2168    1.0000 0.22075  0.54551  0.95096  Biso   1.000  H
  C3227    1.0000 0.27417  0.62012  0.95727  Biso   1.000  C
  H2169    1.0000 0.22071  0.54547  0.95096  Biso   1.000  H
  C3228    1.0000 0.27413  0.62012  0.95727  Biso   1.000  C
  C3229    1.0000 0.28663  0.54637  0.86804  Biso   1.000  C
  H2170    1.0000 0.29503  0.61367  0.84717  Biso   1.000  H
  C3230    1.0000 0.29524  0.63796  0.92455  Biso   1.000  C
  H2171    1.0000 0.29502  0.61365  0.84713  Biso   1.000  H
  H2172    1.0000 0.29504  0.61371  0.84717  Biso   1.000  H
  C3231    1.0000 0.29525  0.63800  0.92455  Biso   1.000  C
  C3232    1.0000 0.62892  0.39846  0.74257  Biso   1.000  C
  C3233    1.0000 0.62890  0.39845  0.74253  Biso   1.000  C
  C3234    1.0000 0.62893  0.39850  0.74257  Biso   1.000  C
  C3235    1.0000 0.62887  0.39845  0.74253  Biso   1.000  C
  C3236    1.0000 0.68633  0.37955  0.81545  Biso   1.000  C
  C3237    1.0000 0.68634  0.37959  0.81545  Biso   1.000  C
  C3238    1.0000 0.68630  0.37959  0.81545  Biso   1.000  C
  C3239    1.0000 0.68629  0.37955  0.81545  Biso   1.000  C
  C3240    1.0000 0.96741  0.74414  0.48514  Biso   1.000  C
  C3241    1.0000 0.96742  0.74418  0.48514  Biso   1.000  C
  C3242    1.0000 0.95097  0.57352  0.38251  Biso   1.000  C
  C3243    1.0000 0.95101  0.57352  0.38251  Biso   1.000  C
  C3244    1.0000 0.95098  0.57355  0.38251  Biso   1.000  C
  C3245    1.0000 0.95102  0.57355  0.38251  Biso   1.000  C
  C3246    1.0000 0.84306  0.53562  0.36652  Biso   1.000  C
  C3247    1.0000 0.84310  0.53562  0.36652  Biso   1.000  C
  C3248    1.0000 0.84307  0.53566  0.36652  Biso   1.000  C
  C3249    1.0000 0.84311  0.53566  0.36652  Biso   1.000  C
  C3250    1.0000 0.85960  0.71045  0.46984  Biso   1.000  C
  C3251    1.0000 0.26972  0.48058  0.90356  Biso   1.000  C
  C3252    1.0000 0.26975  0.48058  0.90356  Biso   1.000  C
  C3253    1.0000 0.28836  0.65629  0.00928  Biso   1.000  C
  C3254    1.0000 0.28837  0.65632  0.00928  Biso   1.000  C
  C3255    1.0000 0.28832  0.65629  0.00928  Biso   1.000  C
  C3256    1.0000 0.31461  0.51907  0.84086  Biso   1.000  C
  C3257    1.0000 0.31464  0.51907  0.84086  Biso   1.000  C
  C3258    1.0000 0.31465  0.51911  0.84086  Biso   1.000  C
  C3259    1.0000 0.31462  0.51911  0.84086  Biso   1.000  C
  C3260    1.0000 0.33074  0.69207  0.94387  Biso   1.000  C
  C3261    1.0000 0.33075  0.69211  0.94387  Biso   1.000  C
  C3262    1.0000 0.61223  0.33759  0.73277  Biso   1.000  C
  C3263    1.0000 0.61220  0.33753  0.73273  Biso   1.000  C
  C3264    1.0000 0.61218  0.33757  0.73273  Biso   1.000  C
  C3265    1.0000 0.61221  0.33757  0.73273  Biso   1.000  C
  H2173    1.0000 0.60802  0.40417  0.71534  Biso   1.000  H
  C3266    1.0000 0.62785  0.43097  0.79477  Biso   1.000  C
  H2174    1.0000 0.60801  0.40413  0.71534  Biso   1.000  H
  C3267    1.0000 0.62780  0.43095  0.79473  Biso   1.000  C
  C3268    1.0000 0.62782  0.43100  0.79477  Biso   1.000  C
  H2175    1.0000 0.60798  0.40417  0.71534  Biso   1.000  H
  C3269    1.0000 0.62781  0.43097  0.79477  Biso   1.000  C
  C3270    1.0000 0.62783  0.43095  0.79473  Biso   1.000  C
  C3271    1.0000 0.62786  0.43100  0.79477  Biso   1.000  C
  C3272    1.0000 0.64212  0.33027  0.77177  Biso   1.000  C
  C3273    1.0000 0.64211  0.33026  0.77173  Biso   1.000  C
  C3274    1.0000 0.64207  0.33026  0.77173  Biso   1.000  C
  H2176    1.0000 0.70721  0.37325  0.84213  Biso   1.000  H
  C3275    1.0000 0.65781  0.42436  0.83423  Biso   1.000  C
  H2177    1.0000 0.70726  0.37327  0.84217  Biso   1.000  H
  C3276    1.0000 0.65782  0.42438  0.83427  Biso   1.000  C
  H2178    1.0000 0.70723  0.37331  0.84217  Biso   1.000  H
  H2179    1.0000 0.70722  0.37327  0.84217  Biso   1.000  H
  H2180    1.0000 0.70727  0.37331  0.84217  Biso   1.000  H
  C3277    1.0000 0.65786  0.42438  0.83427  Biso   1.000  C
  C3278    1.0000 0.94263  0.78215  0.49045  Biso   1.000  C
  C3279    1.0000 0.94259  0.78213  0.49041  Biso   1.000  C
  C3280    1.0000 0.94261  0.78218  0.49045  Biso   1.000  C
  C3281    1.0000 0.94260  0.78215  0.49045  Biso   1.000  C
  C3282    1.0000 0.94262  0.78213  0.49041  Biso   1.000  C
  C3283    1.0000 0.94264  0.78218  0.49045  Biso   1.000  C
  H2181    1.0000 0.00351  0.75547  0.49025  Biso   1.000  H
  H2182    1.0000 0.00350  0.75545  0.49022  Biso   1.000  H
  C3284    1.0000 0.91691  0.52655  0.33774  Biso   1.000  C
  C3285    1.0000 0.91686  0.52650  0.33771  Biso   1.000  C
  C3286    1.0000 0.91688  0.52655  0.33774  Biso   1.000  C
  C3287    1.0000 0.91687  0.52654  0.33771  Biso   1.000  C
  C3288    1.0000 0.91689  0.52650  0.33771  Biso   1.000  C
  C3289    1.0000 0.00815  0.59743  0.38801  Biso   1.000  C
  C3290    1.0000 0.00818  0.59743  0.38801  Biso   1.000  C
  C3291    1.0000 0.00819  0.59746  0.38801  Biso   1.000  C
  C3292    1.0000 0.00816  0.59746  0.38801  Biso   1.000  C
  C3293    1.0000 0.86296  0.50763  0.32973  Biso   1.000  C
  C3294    1.0000 0.78497  0.51102  0.35571  Biso   1.000  C
  C3295    1.0000 0.86300  0.50763  0.32973  Biso   1.000  C
  C3296    1.0000 0.78500  0.51102  0.35571  Biso   1.000  C
  C3297    1.0000 0.78498  0.51106  0.35571  Biso   1.000  C
  C3298    1.0000 0.78501  0.51106  0.35571  Biso   1.000  C
  C3299    1.0000 0.88871  0.76535  0.48282  Biso   1.000  C
  H2183    1.0000 0.82362  0.69916  0.46473  Biso   1.000  H
  H2184    1.0000 0.82361  0.69912  0.46473  Biso   1.000  H
  H2185    1.0000 0.82358  0.69916  0.46473  Biso   1.000  H
  C3300    1.0000 0.88868  0.76535  0.48282  Biso   1.000  C
  C3301    1.0000 0.29772  0.45339  0.87637  Biso   1.000  C
  C3302    1.0000 0.25271  0.46350  0.94205  Biso   1.000  C
  C3303    1.0000 0.29775  0.45337  0.87633  Biso   1.000  C
  C3304    1.0000 0.25274  0.46346  0.94205  Biso   1.000  C
  C3305    1.0000 0.29776  0.45339  0.87637  Biso   1.000  C
  C3306    1.0000 0.25275  0.46350  0.94205  Biso   1.000  C
  C3307    1.0000 0.29771  0.45337  0.87633  Biso   1.000  C
  C3308    1.0000 0.25270  0.46346  0.94205  Biso   1.000  C
  H2186    1.0000 0.27428  0.64430  0.03120  Biso   1.000  H
  C3309    1.0000 0.32385  0.71038  0.02857  Biso   1.000  C
  H2187    1.0000 0.27423  0.64428  0.03116  Biso   1.000  H
  C3310    1.0000 0.32386  0.71042  0.02857  Biso   1.000  C
  H2188    1.0000 0.27424  0.64430  0.03120  Biso   1.000  H
  C3311    1.0000 0.32382  0.71038  0.02857  Biso   1.000  C
  H2189    1.0000 0.27426  0.64428  0.03116  Biso   1.000  H
  C3312    1.0000 0.32012  0.47257  0.84504  Biso   1.000  C
  C3313    1.0000 0.33743  0.53979  0.80666  Biso   1.000  C
  C3314    1.0000 0.33742  0.53975  0.80666  Biso   1.000  C
  C3315    1.0000 0.34503  0.72839  0.99596  Biso   1.000  C
  H2190    1.0000 0.34484  0.70410  0.92195  Biso   1.000  H
  C3316    1.0000 0.34506  0.72839  0.99596  Biso   1.000  C
  H2191    1.0000 0.34486  0.70406  0.92195  Biso   1.000  H
  H2192    1.0000 0.34487  0.70410  0.92195  Biso   1.000  H
  H2193    1.0000 0.34483  0.70406  0.92195  Biso   1.000  H
  C3317    1.0000 0.57212  0.29206  0.69086  Biso   1.000  C
  C3318    1.0000 0.57208  0.29204  0.69083  Biso   1.000  C
  C3319    1.0000 0.57210  0.29210  0.69086  Biso   1.000  C
  C3320    1.0000 0.57209  0.29206  0.69086  Biso   1.000  C
  C3321    1.0000 0.57211  0.29204  0.69083  Biso   1.000  C
  C3322    1.0000 0.57213  0.29210  0.69086  Biso   1.000  C
  C3323    1.0000 0.60283  0.46887  0.80647  Biso   1.000  C
  C3324    1.0000 0.60281  0.46885  0.80643  Biso   1.000  C
  C3325    1.0000 0.60278  0.46885  0.80643  Biso   1.000  C
  C3326    1.0000 0.63182  0.27736  0.76886  Biso   1.000  C
  C3327    1.0000 0.63183  0.27740  0.76886  Biso   1.000  C
  C3328    1.0000 0.63179  0.27736  0.76886  Biso   1.000  C
  C3329    1.0000 0.66296  0.45569  0.88547  Biso   1.000  C
  C3330    1.0000 0.66291  0.45568  0.88543  Biso   1.000  C
  C3331    1.0000 0.66292  0.45569  0.88547  Biso   1.000  C
  C3332    1.0000 0.66295  0.45568  0.88543  Biso   1.000  C
  O468     1.0000 0.96583  0.83816  0.50625  Biso   1.000  O
  O469     1.0000 0.96581  0.83814  0.50621  Biso   1.000  O
  O470     1.0000 0.96578  0.83814  0.50621  Biso   1.000  O
  H2194    1.0000 0.93027  0.50784  0.31304  Biso   1.000  H
  H2195    1.0000 0.93031  0.50784  0.31304  Biso   1.000  H
  H2196    1.0000 0.01256  0.58676  0.35413  Biso   1.000  H
  H2197    1.0000 0.02137  0.63766  0.40602  Biso   1.000  H
  C3333    1.0000 0.03896  0.57424  0.41954  Biso   1.000  C
  H2198    1.0000 0.01259  0.58672  0.35413  Biso   1.000  H
  H2199    1.0000 0.02139  0.63762  0.40602  Biso   1.000  H
  C3334    1.0000 0.03900  0.57424  0.41954  Biso   1.000  C
  H2200    1.0000 0.01260  0.58676  0.35413  Biso   1.000  H
  H2201    1.0000 0.02140  0.63766  0.40602  Biso   1.000  H
  H2202    1.0000 0.01255  0.58672  0.35413  Biso   1.000  H
  H2203    1.0000 0.02136  0.63762  0.40602  Biso   1.000  H
  H2204    1.0000 0.84018  0.47612  0.29971  Biso   1.000  H
  H2205    1.0000 0.84014  0.47612  0.29971  Biso   1.000  H
  H2206    1.0000 0.77459  0.53393  0.38282  Biso   1.000  H
  H2207    1.0000 0.77517  0.47413  0.35393  Biso   1.000  H
  H2208    1.0000 0.77521  0.47413  0.35393  Biso   1.000  H
  C3335    1.0000 0.75829  0.50805  0.30382  Biso   1.000  C
  C3336    1.0000 0.75825  0.50801  0.30382  Biso   1.000  C
  H2209    1.0000 0.77518  0.47417  0.35393  Biso   1.000  H
  H2210    1.0000 0.77455  0.53393  0.38282  Biso   1.000  H
  C3337    1.0000 0.75826  0.50805  0.30382  Biso   1.000  C
  C3338    1.0000 0.75828  0.50801  0.30382  Biso   1.000  C
  H2211    1.0000 0.77522  0.47417  0.35393  Biso   1.000  H
  O471     1.0000 0.87540  0.81255  0.49424  Biso   1.000  O
  O472     1.0000 0.87543  0.81255  0.49424  Biso   1.000  O
  O473     1.0000 0.87541  0.81258  0.49424  Biso   1.000  O
  O474     1.0000 0.87544  0.81258  0.49424  Biso   1.000  O
  H2212    1.0000 0.30143  0.42228  0.87916  Biso   1.000  H
  H2213    1.0000 0.25784  0.49590  0.97307  Biso   1.000  H
  H2214    1.0000 0.27301  0.44318  0.95166  Biso   1.000  H
  C3339    1.0000 0.19451  0.42678  0.91645  Biso   1.000  C
  H2215    1.0000 0.27305  0.44318  0.95166  Biso   1.000  H
  C3340    1.0000 0.19455  0.42678  0.91645  Biso   1.000  C
  O475     1.0000 0.33959  0.75128  0.07760  Biso   1.000  O
  O476     1.0000 0.33956  0.75132  0.07760  Biso   1.000  O
  O477     1.0000 0.33955  0.75128  0.07760  Biso   1.000  O
  O478     1.0000 0.33960  0.75132  0.07760  Biso   1.000  O
  H2216    1.0000 0.33892  0.45437  0.82684  Biso   1.000  H
  H2217    1.0000 0.31452  0.55508  0.79194  Biso   1.000  H
  H2218    1.0000 0.33882  0.50887  0.77827  Biso   1.000  H
  C3341    1.0000 0.39344  0.58467  0.83636  Biso   1.000  C
  H2219    1.0000 0.31451  0.55504  0.79194  Biso   1.000  H
  H2220    1.0000 0.33881  0.50885  0.77823  Biso   1.000  H
  H2221    1.0000 0.31455  0.55508  0.79194  Biso   1.000  H
  H2222    1.0000 0.33883  0.50890  0.77827  Biso   1.000  H
  O479     1.0000 0.37656  0.78478  0.02598  Biso   1.000  O
  O480     1.0000 0.37657  0.78482  0.02598  Biso   1.000  O
  O481     1.0000 0.37652  0.78478  0.02598  Biso   1.000  O
  C3342    1.0000 0.53729  0.29857  0.64923  Biso   1.000  C
  C3343    1.0000 0.53728  0.29853  0.64923  Biso   1.000  C
  C3344    1.0000 0.56193  0.23925  0.68796  Biso   1.000  C
  C3345    1.0000 0.56188  0.23924  0.68792  Biso   1.000  C
  C3346    1.0000 0.56190  0.23929  0.68796  Biso   1.000  C
  C3347    1.0000 0.56189  0.23925  0.68796  Biso   1.000  C
  C3348    1.0000 0.56191  0.23924  0.68792  Biso   1.000  C
  C3349    1.0000 0.56194  0.23929  0.68796  Biso   1.000  C
  H2223    1.0000 0.58271  0.47337  0.78005  Biso   1.000  H
  C3350    1.0000 0.60782  0.50019  0.85766  Biso   1.000  C
  H2224    1.0000 0.58275  0.47337  0.78005  Biso   1.000  H
  C3351    1.0000 0.60786  0.50019  0.85766  Biso   1.000  C
  C3352    1.0000 0.59170  0.23187  0.72696  Biso   1.000  C
  C3353    1.0000 0.59173  0.23187  0.72696  Biso   1.000  C
  C3354    1.0000 0.65783  0.26927  0.81266  Biso   1.000  C
  C3355    1.0000 0.65779  0.26927  0.81266  Biso   1.000  C
  C3356    1.0000 0.63794  0.49360  0.89717  Biso   1.000  C
  H2225    1.0000 0.68301  0.45126  0.91184  Biso   1.000  H
  H2226    1.0000 0.68305  0.45126  0.91184  Biso   1.000  H
  C3357    1.0000 0.63793  0.49356  0.89717  Biso   1.000  C
  H2227    1.0000 0.68302  0.45129  0.91184  Biso   1.000  H
  H2228    1.0000 0.68306  0.45129  0.91184  Biso   1.000  H
  B254     1.0000 0.92004  0.85337  0.50315  Biso   1.000  B
  B255     1.0000 0.92001  0.85332  0.50311  Biso   1.000  B
  B256     1.0000 0.91999  0.85336  0.50311  Biso   1.000  B
  B257     1.0000 0.92000  0.85337  0.50315  Biso   1.000  B
  B258     1.0000 0.92002  0.85336  0.50311  Biso   1.000  B
  H2229    1.0000 0.05106  0.54866  0.39723  Biso   1.000  H
  H2230    1.0000 0.06877  0.60433  0.44742  Biso   1.000  H
  H2231    1.0000 0.01609  0.55546  0.43332  Biso   1.000  H
  H2232    1.0000 0.05108  0.54862  0.39723  Biso   1.000  H
  H2233    1.0000 0.06881  0.60433  0.44742  Biso   1.000  H
  H2234    1.0000 0.01608  0.55542  0.43332  Biso   1.000  H
  H2235    1.0000 0.05109  0.54866  0.39723  Biso   1.000  H
  H2236    1.0000 0.05105  0.54862  0.39723  Biso   1.000  H
  H2237    1.0000 0.76557  0.54543  0.30703  Biso   1.000  H
  H2238    1.0000 0.72086  0.48942  0.29352  Biso   1.000  H
  H2239    1.0000 0.76560  0.54543  0.30703  Biso   1.000  H
  H2240    1.0000 0.77169  0.48876  0.27814  Biso   1.000  H
  H2241    1.0000 0.72090  0.48942  0.29352  Biso   1.000  H
  H2242    1.0000 0.77167  0.48870  0.27810  Biso   1.000  H
  H2243    1.0000 0.72087  0.48946  0.29352  Biso   1.000  H
  H2244    1.0000 0.77165  0.48874  0.27810  Biso   1.000  H
  H2245    1.0000 0.77166  0.48876  0.27814  Biso   1.000  H
  H2246    1.0000 0.72091  0.48946  0.29352  Biso   1.000  H
  H2247    1.0000 0.77168  0.48874  0.27810  Biso   1.000  H
  H2248    1.0000 0.17780  0.43939  0.89364  Biso   1.000  H
  H2249    1.0000 0.17801  0.42869  0.94256  Biso   1.000  H
  H2250    1.0000 0.19101  0.38920  0.89697  Biso   1.000  H
  H2251    1.0000 0.17783  0.43935  0.89364  Biso   1.000  H
  H2252    1.0000 0.17804  0.42866  0.94256  Biso   1.000  H
  H2253    1.0000 0.19103  0.38915  0.89693  Biso   1.000  H
  H2254    1.0000 0.17784  0.43939  0.89364  Biso   1.000  H
  H2255    1.0000 0.17805  0.42869  0.94256  Biso   1.000  H
  H2256    1.0000 0.19105  0.38920  0.89697  Biso   1.000  H
  H2257    1.0000 0.19100  0.38919  0.89693  Biso   1.000  H
  H2258    1.0000 0.17779  0.43935  0.89364  Biso   1.000  H
  H2259    1.0000 0.17800  0.42866  0.94256  Biso   1.000  H
  H2260    1.0000 0.19099  0.38915  0.89693  Biso   1.000  H
  H2261    1.0000 0.19104  0.38919  0.89693  Biso   1.000  H
  B259     1.0000 0.37368  0.79408  0.07268  Biso   1.000  B
  B260     1.0000 0.37365  0.79412  0.07268  Biso   1.000  B
  B261     1.0000 0.37364  0.79408  0.07268  Biso   1.000  B
  B262     1.0000 0.37369  0.79412  0.07268  Biso   1.000  B
  H2262    1.0000 0.40511  0.60007  0.81425  Biso   1.000  H
  H2263    1.0000 0.41723  0.56839  0.84686  Biso   1.000  H
  H2264    1.0000 0.39273  0.61356  0.86634  Biso   1.000  H
  H2265    1.0000 0.40515  0.60007  0.81425  Biso   1.000  H
  H2266    1.0000 0.41722  0.56835  0.84686  Biso   1.000  H
  H2267    1.0000 0.41726  0.56839  0.84686  Biso   1.000  H
  H2268    1.0000 0.39274  0.61360  0.86634  Biso   1.000  H
  H2269    1.0000 0.39270  0.61356  0.86634  Biso   1.000  H
  C3358    1.0000 0.56671  0.30536  0.61054  Biso   1.000  C
  H2270    1.0000 0.50477  0.26614  0.63103  Biso   1.000  H
  H2271    1.0000 0.52839  0.33087  0.66465  Biso   1.000  H
  H2272    1.0000 0.50480  0.26614  0.63103  Biso   1.000  H
  H2273    1.0000 0.52843  0.33087  0.66465  Biso   1.000  H
  C3359    1.0000 0.56667  0.30536  0.61054  Biso   1.000  C
  H2274    1.0000 0.53509  0.20875  0.65984  Biso   1.000  H
  H2275    1.0000 0.53506  0.20875  0.65984  Biso   1.000  H
  O482     1.0000 0.58906  0.54039  0.87978  Biso   1.000  O
  O483     1.0000 0.58901  0.54037  0.87974  Biso   1.000  O
  O484     1.0000 0.58903  0.54039  0.87978  Biso   1.000  O
  O485     1.0000 0.58905  0.54037  0.87974  Biso   1.000  O
  H2276    1.0000 0.58493  0.19656  0.72506  Biso   1.000  H
  H2277    1.0000 0.58488  0.19654  0.72502  Biso   1.000  H
  H2278    1.0000 0.58490  0.19660  0.72506  Biso   1.000  H
  H2279    1.0000 0.58489  0.19656  0.72506  Biso   1.000  H
  H2280    1.0000 0.58491  0.19654  0.72502  Biso   1.000  H
  H2281    1.0000 0.58494  0.19660  0.72506  Biso   1.000  H
  H2282    1.0000 0.66141  0.29907  0.84496  Biso   1.000  H
  H2283    1.0000 0.63612  0.23456  0.81084  Biso   1.000  H
  C3360    1.0000 0.71182  0.26818  0.81185  Biso   1.000  C
  H2284    1.0000 0.66145  0.29907  0.84496  Biso   1.000  H
  C3361    1.0000 0.71181  0.26814  0.81185  Biso   1.000  C
  H2285    1.0000 0.63608  0.23456  0.81084  Biso   1.000  H
  C3362    1.0000 0.71179  0.26818  0.81185  Biso   1.000  C
  O486     1.0000 0.63942  0.52788  0.94534  Biso   1.000  O
  O487     1.0000 0.63946  0.52788  0.94534  Biso   1.000  O
  C3363    1.0000 0.92742  0.91625  0.52275  Biso   1.000  C
  C3364    1.0000 0.92745  0.91625  0.52275  Biso   1.000  C
  C3365    1.0000 0.39836  0.85500  0.11908  Biso   1.000  C
  H2286    1.0000 0.54289  0.30465  0.58165  Biso   1.000  H
  H2287    1.0000 0.57907  0.27546  0.59854  Biso   1.000  H
  H2288    1.0000 0.59623  0.34006  0.62766  Biso   1.000  H
  H2289    1.0000 0.57911  0.27546  0.59854  Biso   1.000  H
  H2290    1.0000 0.59618  0.34005  0.62762  Biso   1.000  H
  H2291    1.0000 0.59619  0.34006  0.62766  Biso   1.000  H
  H2292    1.0000 0.59622  0.34005  0.62762  Biso   1.000  H
  B263     1.0000 0.60735  0.55660  0.93187  Biso   1.000  B
  B264     1.0000 0.60734  0.55657  0.93187  Biso   1.000  B
  B265     1.0000 0.60731  0.55660  0.93187  Biso   1.000  B
  H2293    1.0000 0.70890  0.23056  0.79314  Biso   1.000  H
  H2294    1.0000 0.73511  0.28346  0.84674  Biso   1.000  H
  H2295    1.0000 0.72583  0.28987  0.79516  Biso   1.000  H
  H2296    1.0000 0.72579  0.28987  0.79516  Biso   1.000  H
  H2297    1.0000 0.73512  0.28350  0.84674  Biso   1.000  H
  C3366    1.0000 0.97614  0.95876  0.53983  Biso   1.000  C
  C3367    1.0000 0.88202  0.92847  0.52244  Biso   1.000  C
  C3368    1.0000 0.88205  0.92847  0.52244  Biso   1.000  C
  C3369    1.0000 0.88201  0.92843  0.52244  Biso   1.000  C
  C3370    1.0000 0.97610  0.95876  0.53983  Biso   1.000  C
  C3371    1.0000 0.88204  0.92843  0.52244  Biso   1.000  C
  C3372    1.0000 0.42857  0.89848  0.11191  Biso   1.000  C
  C3373    1.0000 0.39169  0.86479  0.16698  Biso   1.000  C
  C3374    1.0000 0.42857  0.89850  0.11187  Biso   1.000  C
  C3375    1.0000 0.39166  0.86483  0.16698  Biso   1.000  C
  C3376    1.0000 0.42858  0.89852  0.11191  Biso   1.000  C
  C3377    1.0000 0.39166  0.86479  0.16698  Biso   1.000  C
  C3378    1.0000 0.42856  0.89847  0.11187  Biso   1.000  C
  C3379    1.0000 0.39170  0.86483  0.16698  Biso   1.000  C
  C3380    1.0000 0.60085  0.60627  0.97245  Biso   1.000  C
  C3381    1.0000 0.60086  0.60631  0.97245  Biso   1.000  C
  C3382    1.0000 0.60081  0.60627  0.97245  Biso   1.000  C
  C3383    1.0000 0.97936  0.01347  0.55663  Biso   1.000  C
  C3384    1.0000 0.97935  0.01343  0.55663  Biso   1.000  C
  C3385    1.0000 0.97940  0.01347  0.55663  Biso   1.000  C
  H2298    1.0000 0.00651  0.95066  0.53994  Biso   1.000  H
  H2299    1.0000 0.00654  0.95066  0.53994  Biso   1.000  H
  H2300    1.0000 0.84943  0.90004  0.51094  Biso   1.000  H
  C3386    1.0000 0.88535  0.98317  0.53925  Biso   1.000  C
  C3387    1.0000 0.88534  0.98314  0.53925  Biso   1.000  C
  H2301    1.0000 0.84944  0.90008  0.51094  Biso   1.000  H
  H2302    1.0000 0.84939  0.90004  0.51094  Biso   1.000  H
  C3388    1.0000 0.88531  0.98317  0.53925  Biso   1.000  C
  C3389    1.0000 0.45209  0.95169  0.15250  Biso   1.000  C
  H2303    1.0000 0.43310  0.89190  0.07988  Biso   1.000  H
  C3390    1.0000 0.45210  0.95173  0.15250  Biso   1.000  C
  H2304    1.0000 0.43306  0.89190  0.07988  Biso   1.000  H
  C3391    1.0000 0.45206  0.95169  0.15250  Biso   1.000  C
  C3392    1.0000 0.41519  0.91802  0.20761  Biso   1.000  C
  H2305    1.0000 0.37148  0.83568  0.17179  Biso   1.000  H
  H2306    1.0000 0.37149  0.83572  0.17179  Biso   1.000  H
  H2307    1.0000 0.37144  0.83568  0.17179  Biso   1.000  H
  C3393    1.0000 0.57166  0.63359  0.95545  Biso   1.000  C
  C3394    1.0000 0.57163  0.63359  0.95545  Biso   1.000  C
  C3395    1.0000 0.62344  0.62379  0.02508  Biso   1.000  C
  C3396    1.0000 0.62345  0.62382  0.02508  Biso   1.000  C
  C3397    1.0000 0.62348  0.62379  0.02508  Biso   1.000  C
  C3398    1.0000 0.93395  0.02565  0.55632  Biso   1.000  C
  C3399    1.0000 0.93399  0.02565  0.55632  Biso   1.000  C
  B266     1.0000 0.03280  0.05828  0.57716  Biso   1.000  B
  B267     1.0000 0.03275  0.05826  0.57712  Biso   1.000  B
  B268     1.0000 0.03275  0.05824  0.57716  Biso   1.000  B
  B269     1.0000 0.03276  0.05828  0.57716  Biso   1.000  B
  B270     1.0000 0.03278  0.05826  0.57712  Biso   1.000  B
  B271     1.0000 0.03279  0.05824  0.57716  Biso   1.000  B
  B272     1.0000 0.83413  0.99626  0.53754  Biso   1.000  B
  B273     1.0000 0.83410  0.99626  0.53754  Biso   1.000  B
  C3400    1.0000 0.44540  0.96151  0.20029  Biso   1.000  C
  B274     1.0000 0.48389  0.99870  0.14239  Biso   1.000  B
  B275     1.0000 0.48390  0.99874  0.14239  Biso   1.000  B
  C3401    1.0000 0.44536  0.96151  0.20029  Biso   1.000  C
  B276     1.0000 0.48385  0.99870  0.14239  Biso   1.000  B
  B277     1.0000 0.40699  0.92641  0.25710  Biso   1.000  B
  B278     1.0000 0.40700  0.92645  0.25710  Biso   1.000  B
  B279     1.0000 0.40696  0.92641  0.25710  Biso   1.000  B
  H2308    1.0000 0.55644  0.62189  0.92017  Biso   1.000  H
  C3402    1.0000 0.56517  0.67851  0.99128  Biso   1.000  C
  C3403    1.0000 0.56516  0.67847  0.99128  Biso   1.000  C
  C3404    1.0000 0.56514  0.67851  0.99128  Biso   1.000  C
  C3405    1.0000 0.61696  0.66868  0.06079  Biso   1.000  C
  H2309    1.0000 0.64294  0.60546  0.03639  Biso   1.000  H
  C3406    1.0000 0.61694  0.66872  0.06079  Biso   1.000  C
  H2310    1.0000 0.64295  0.60550  0.03639  Biso   1.000  H
  C3407    1.0000 0.61693  0.66868  0.06079  Biso   1.000  C
  H2311    1.0000 0.64297  0.60546  0.03639  Biso   1.000  H
  C3408    1.0000 0.61697  0.66872  0.06079  Biso   1.000  C
  H2312    1.0000 0.93617  0.06225  0.56756  Biso   1.000  H
  H2313    1.0000 0.93615  0.06223  0.56752  Biso   1.000  H
  H2314    1.0000 0.93616  0.06227  0.56752  Biso   1.000  H
  H2315    1.0000 0.93620  0.06225  0.56756  Biso   1.000  H
  O488     1.0000 0.04538  0.11488  0.59695  Biso   1.000  O
  O489     1.0000 0.08139  0.04827  0.57913  Biso   1.000  O
  O490     1.0000 0.04537  0.11484  0.59695  Biso   1.000  O
  O491     1.0000 0.08136  0.04827  0.57913  Biso   1.000  O
  O492     1.0000 0.08135  0.04823  0.57913  Biso   1.000  O
  O493     1.0000 0.04535  0.11488  0.59695  Biso   1.000  O
  O494     1.0000 0.08138  0.04823  0.57913  Biso   1.000  O
  O495     1.0000 0.78632  0.95465  0.52213  Biso   1.000  O
  O496     1.0000 0.83427  0.05045  0.55783  Biso   1.000  O
  O497     1.0000 0.83426  0.05042  0.55783  Biso   1.000  O
  H2316    1.0000 0.46110  0.99710  0.22751  Biso   1.000  H
  H2317    1.0000 0.46109  0.99712  0.22748  Biso   1.000  H
  H2318    1.0000 0.46111  0.99713  0.22751  Biso   1.000  H
  H2319    1.0000 0.46105  0.99708  0.22748  Biso   1.000  H
  H2320    1.0000 0.46108  0.99708  0.22748  Biso   1.000  H
  O498     1.0000 0.49490  0.99639  0.09921  Biso   1.000  O
  O499     1.0000 0.49486  0.99641  0.09917  Biso   1.000  O
  O500     1.0000 0.49487  0.99639  0.09921  Biso   1.000  O
  O501     1.0000 0.49485  0.99637  0.09917  Biso   1.000  O
  O502     1.0000 0.49490  0.99641  0.09917  Biso   1.000  O
  O503     1.0000 0.50624  0.05530  0.18220  Biso   1.000  O
  O504     1.0000 0.50620  0.05530  0.18220  Biso   1.000  O
  O505     1.0000 0.37889  0.88680  0.26961  Biso   1.000  O
  O506     1.0000 0.42309  0.97909  0.30199  Biso   1.000  O
  O507     1.0000 0.37890  0.88684  0.26961  Biso   1.000  O
  O508     1.0000 0.42310  0.97913  0.30199  Biso   1.000  O
  O509     1.0000 0.37885  0.88680  0.26961  Biso   1.000  O
  O510     1.0000 0.42306  0.97909  0.30199  Biso   1.000  O
  B280     1.0000 0.53146  0.70728  0.97036  Biso   1.000  B
  B281     1.0000 0.53147  0.70732  0.97036  Biso   1.000  B
  B282     1.0000 0.53143  0.70728  0.97036  Biso   1.000  B
  C3409    1.0000 0.58776  0.69598  0.04391  Biso   1.000  C
  C3410    1.0000 0.58772  0.69600  0.04387  Biso   1.000  C
  C3411    1.0000 0.58777  0.69602  0.04391  Biso   1.000  C
  C3412    1.0000 0.58775  0.69596  0.04387  Biso   1.000  C
  C3413    1.0000 0.58776  0.69600  0.04387  Biso   1.000  C
  C3414    1.0000 0.58771  0.69596  0.04387  Biso   1.000  C
  B283     1.0000 0.64397  0.68959  0.11609  Biso   1.000  B
  B284     1.0000 0.64394  0.68962  0.11609  Biso   1.000  B
  B285     1.0000 0.64393  0.68959  0.11609  Biso   1.000  B
  B286     1.0000 0.64398  0.68962  0.11609  Biso   1.000  B
  C3415    1.0000 0.09849  0.14076  0.61155  Biso   1.000  C
  C3416    1.0000 0.09845  0.14076  0.61155  Biso   1.000  C
  C3417    1.0000 0.11999  0.09976  0.60024  Biso   1.000  C
  C3418    1.0000 0.11996  0.09976  0.60024  Biso   1.000  C
  C3419    1.0000 0.11995  0.09972  0.60024  Biso   1.000  C
  C3420    1.0000 0.11998  0.09972  0.60024  Biso   1.000  C
  C3421    1.0000 0.75211  0.98295  0.53154  Biso   1.000  C
  C3422    1.0000 0.75215  0.98295  0.53154  Biso   1.000  C
  C3423    1.0000 0.75212  0.98298  0.53154  Biso   1.000  C
  C3424    1.0000 0.75216  0.98298  0.53154  Biso   1.000  C
  C3425    1.0000 0.78135  0.03934  0.55152  Biso   1.000  C
  C3426    1.0000 0.78138  0.03934  0.55152  Biso   1.000  C
  C3427    1.0000 0.52290  0.04798  0.10568  Biso   1.000  C
  C3428    1.0000 0.52291  0.04802  0.10568  Biso   1.000  C
  C3429    1.0000 0.52293  0.04798  0.10568  Biso   1.000  C
  C3430    1.0000 0.52965  0.08291  0.15641  Biso   1.000  C
  C3431    1.0000 0.52960  0.08286  0.15637  Biso   1.000  C
  C3432    1.0000 0.52962  0.08291  0.15641  Biso   1.000  C
  C3433    1.0000 0.52964  0.08290  0.15637  Biso   1.000  C
  C3434    1.0000 0.52961  0.08290  0.15637  Biso   1.000  C
  C3435    1.0000 0.37742  0.91020  0.31872  Biso   1.000  C
  C3436    1.0000 0.37739  0.91024  0.31872  Biso   1.000  C
  C3437    1.0000 0.37738  0.91020  0.31872  Biso   1.000  C
  C3438    1.0000 0.37743  0.91024  0.31872  Biso   1.000  C
  C3439    1.0000 0.40522  0.96690  0.33800  Biso   1.000  C
  C3440    1.0000 0.40519  0.96694  0.33800  Biso   1.000  C
  C3441    1.0000 0.40518  0.96690  0.33800  Biso   1.000  C
  C3442    1.0000 0.40523  0.96694  0.33800  Biso   1.000  C
  O511     1.0000 0.50995  0.69060  0.91808  Biso   1.000  O
  O512     1.0000 0.50993  0.69055  0.91804  Biso   1.000  O
  O513     1.0000 0.50994  0.69059  0.91804  Biso   1.000  O
  O514     1.0000 0.52055  0.75149  0.00328  Biso   1.000  O
  O515     1.0000 0.52058  0.75149  0.00328  Biso   1.000  O
  H2321    1.0000 0.58347  0.72600  0.06780  Biso   1.000  H
  H2322    1.0000 0.58343  0.72600  0.06780  Biso   1.000  H
  O516     1.0000 0.64086  0.73370  0.15730  Biso   1.000  O
  O517     1.0000 0.67657  0.66609  0.13809  Biso   1.000  O
  O518     1.0000 0.64087  0.73374  0.15730  Biso   1.000  O
  O519     1.0000 0.67655  0.66613  0.13809  Biso   1.000  O
  O520     1.0000 0.67654  0.66609  0.13809  Biso   1.000  O
  O521     1.0000 0.64090  0.73370  0.15730  Biso   1.000  O
  O522     1.0000 0.67658  0.66613  0.13809  Biso   1.000  O
  C3443    1.0000 0.13129  0.19638  0.63343  Biso   1.000  C
  C3444    1.0000 0.13128  0.19634  0.63343  Biso   1.000  C
  C3445    1.0000 0.13126  0.19638  0.63343  Biso   1.000  C
  C3446    1.0000 0.17419  0.11425  0.61093  Biso   1.000  C
  C3447    1.0000 0.17415  0.11425  0.61093  Biso   1.000  C
  C3448    1.0000 0.69824  0.96466  0.52344  Biso   1.000  C
  C3449    1.0000 0.69820  0.96466  0.52344  Biso   1.000  C
  C3450    1.0000 0.75658  0.07745  0.56364  Biso   1.000  C
  C3451    1.0000 0.75654  0.07745  0.56364  Biso   1.000  C
  C3452    1.0000 0.54172  0.07008  0.07438  Biso   1.000  C
  C3453    1.0000 0.54167  0.07006  0.07435  Biso   1.000  C
  C3454    1.0000 0.54173  0.07012  0.07438  Biso   1.000  C
  C3455    1.0000 0.54171  0.07006  0.07435  Biso   1.000  C
  C3456    1.0000 0.55522  0.13989  0.17581  Biso   1.000  C
  C3457    1.0000 0.55525  0.13989  0.17581  Biso   1.000  C
  C3458    1.0000 0.35389  0.88976  0.34881  Biso   1.000  C
  C3459    1.0000 0.35390  0.88980  0.34881  Biso   1.000  C
  C3460    1.0000 0.35393  0.88980  0.34881  Biso   1.000  C
  C3461    1.0000 0.40947  0.00303  0.38742  Biso   1.000  C
  C3462    1.0000 0.40941  0.00298  0.38738  Biso   1.000  C
  C3463    1.0000 0.40943  0.00303  0.38742  Biso   1.000  C
  C3464    1.0000 0.40946  0.00301  0.38738  Biso   1.000  C
  C3465    1.0000 0.40945  0.00298  0.38738  Biso   1.000  C
  C3466    1.0000 0.40942  0.00301  0.38738  Biso   1.000  C
  C3467    1.0000 0.48396  0.72558  0.91638  Biso   1.000  C
  C3468    1.0000 0.48392  0.72556  0.91634  Biso   1.000  C
  C3469    1.0000 0.48397  0.72562  0.91638  Biso   1.000  C
  C3470    1.0000 0.48393  0.72558  0.91638  Biso   1.000  C
  C3471    1.0000 0.48395  0.72556  0.91634  Biso   1.000  C
  C3472    1.0000 0.49069  0.76111  0.96688  Biso   1.000  C
  C3473    1.0000 0.49063  0.76106  0.96684  Biso   1.000  C
  C3474    1.0000 0.49065  0.76111  0.96688  Biso   1.000  C
  C3475    1.0000 0.49064  0.76109  0.96684  Biso   1.000  C
  C3476    1.0000 0.49067  0.76106  0.96684  Biso   1.000  C
  C3477    1.0000 0.67148  0.73821  0.20230  Biso   1.000  C
  C3478    1.0000 0.67145  0.73821  0.20230  Biso   1.000  C
  C3479    1.0000 0.69308  0.69731  0.19080  Biso   1.000  C
  C3480    1.0000 0.69304  0.69731  0.19080  Biso   1.000  C
  H2323    1.0000 0.11700  0.22378  0.64094  Biso   1.000  H
  C3481    1.0000 0.18561  0.21089  0.64416  Biso   1.000  C
  H2324    1.0000 0.11697  0.22378  0.64094  Biso   1.000  H
  C3482    1.0000 0.18555  0.21083  0.64412  Biso   1.000  C
  H2325    1.0000 0.11696  0.22374  0.64094  Biso   1.000  H
  C3483    1.0000 0.18560  0.21085  0.64416  Biso   1.000  C
  C3484    1.0000 0.18556  0.21087  0.64412  Biso   1.000  C
  C3485    1.0000 0.18557  0.21089  0.64416  Biso   1.000  C
  C3486    1.0000 0.18558  0.21083  0.64412  Biso   1.000  C
  H2326    1.0000 0.11699  0.22374  0.64094  Biso   1.000  H
  C3487    1.0000 0.20700  0.16989  0.63285  Biso   1.000  C
  H2327    1.0000 0.18860  0.08687  0.60346  Biso   1.000  H
  C3488    1.0000 0.20696  0.16985  0.63285  Biso   1.000  C
  H2328    1.0000 0.18855  0.08685  0.60342  Biso   1.000  H
  H2329    1.0000 0.18855  0.08684  0.60346  Biso   1.000  H
  C3489    1.0000 0.20697  0.16989  0.63285  Biso   1.000  C
  H2330    1.0000 0.18856  0.08687  0.60346  Biso   1.000  H
  C3490    1.0000 0.20699  0.16985  0.63285  Biso   1.000  C
  H2331    1.0000 0.18858  0.08685  0.60342  Biso   1.000  H
  H2332    1.0000 0.18859  0.08684  0.60346  Biso   1.000  H
  H2333    1.0000 0.67862  0.92695  0.51004  Biso   1.000  H
  H2334    1.0000 0.67863  0.92699  0.51004  Biso   1.000  H
  C3491    1.0000 0.67335  0.00275  0.53553  Biso   1.000  C
  C3492    1.0000 0.67334  0.00271  0.53553  Biso   1.000  C
  C3493    1.0000 0.67338  0.00275  0.53553  Biso   1.000  C
  C3494    1.0000 0.70256  0.05917  0.55555  Biso   1.000  C
  H2335    1.0000 0.77608  0.11527  0.57704  Biso   1.000  H
  C3495    1.0000 0.70255  0.05913  0.55555  Biso   1.000  C
  H2336    1.0000 0.77607  0.11524  0.57704  Biso   1.000  H
  C3496    1.0000 0.70259  0.05917  0.55555  Biso   1.000  C
  C3497    1.0000 0.56732  0.12717  0.09379  Biso   1.000  C
  H2337    1.0000 0.53721  0.04677  0.04038  Biso   1.000  H
  C3498    1.0000 0.56733  0.12721  0.09379  Biso   1.000  C
  H2338    1.0000 0.53722  0.04681  0.04038  Biso   1.000  H
  C3499    1.0000 0.56735  0.12717  0.09379  Biso   1.000  C
  H2339    1.0000 0.55976  0.16332  0.20982  Biso   1.000  H
  C3500    1.0000 0.57401  0.16205  0.14448  Biso   1.000  C
  H2340    1.0000 0.55971  0.16330  0.20978  Biso   1.000  H
  H2341    1.0000 0.55972  0.16332  0.20982  Biso   1.000  H
  C3501    1.0000 0.57402  0.16209  0.14448  Biso   1.000  C
  H2342    1.0000 0.55975  0.16330  0.20978  Biso   1.000  H
  C3502    1.0000 0.57405  0.16205  0.14448  Biso   1.000  C
  H2343    1.0000 0.33531  0.85192  0.33591  Biso   1.000  H
  C3503    1.0000 0.35823  0.92590  0.39830  Biso   1.000  C
  H2344    1.0000 0.33532  0.85196  0.33591  Biso   1.000  H
  C3504    1.0000 0.35820  0.92593  0.39830  Biso   1.000  C
  H2345    1.0000 0.33527  0.85192  0.33591  Biso   1.000  H
  C3505    1.0000 0.35819  0.92590  0.39830  Biso   1.000  C
  C3506    1.0000 0.35824  0.92593  0.39830  Biso   1.000  C
  C3507    1.0000 0.38601  0.98252  0.41759  Biso   1.000  C
  C3508    1.0000 0.38602  0.98256  0.41759  Biso   1.000  C
  H2346    1.0000 0.42804  0.04091  0.40040  Biso   1.000  H
  H2347    1.0000 0.42807  0.04091  0.40040  Biso   1.000  H
  C3509    1.0000 0.45446  0.73001  0.87498  Biso   1.000  C
  C3510    1.0000 0.45443  0.72995  0.87494  Biso   1.000  C
  C3511    1.0000 0.45441  0.72999  0.87494  Biso   1.000  C
  C3512    1.0000 0.45444  0.72999  0.87494  Biso   1.000  C
  C3513    1.0000 0.46789  0.80099  0.97598  Biso   1.000  C
  C3514    1.0000 0.46784  0.80097  0.97594  Biso   1.000  C
  C3515    1.0000 0.46785  0.80099  0.97598  Biso   1.000  C
  C3516    1.0000 0.46788  0.80097  0.97594  Biso   1.000  C
  C3517    1.0000 0.68299  0.77539  0.25362  Biso   1.000  C
  C3518    1.0000 0.68295  0.77541  0.25358  Biso   1.000  C
  C3519    1.0000 0.68296  0.77543  0.25362  Biso   1.000  C
  C3520    1.0000 0.68298  0.77538  0.25358  Biso   1.000  C
  C3521    1.0000 0.68299  0.77541  0.25358  Biso   1.000  C
  C3522    1.0000 0.68300  0.77543  0.25362  Biso   1.000  C
  C3523    1.0000 0.68294  0.77538  0.25358  Biso   1.000  C
  C3524    1.0000 0.72608  0.69360  0.23042  Biso   1.000  C
  C3525    1.0000 0.72608  0.69362  0.23038  Biso   1.000  C
  C3526    1.0000 0.72607  0.69358  0.23038  Biso   1.000  C
  C3527    1.0000 0.22571  0.27005  0.67084  Biso   1.000  C
  C3528    1.0000 0.22568  0.27005  0.67084  Biso   1.000  C
  C3529    1.0000 0.22569  0.27009  0.67084  Biso   1.000  C
  C3530    1.0000 0.27000  0.19315  0.64993  Biso   1.000  C
  C3531    1.0000 0.26997  0.19315  0.64993  Biso   1.000  C
  C3532    1.0000 0.26998  0.19318  0.64993  Biso   1.000  C
  C3533    1.0000 0.61302  0.98337  0.52724  Biso   1.000  C
  C3534    1.0000 0.66659  0.09399  0.56945  Biso   1.000  C
  C3535    1.0000 0.66654  0.09393  0.56941  Biso   1.000  C
  C3536    1.0000 0.66655  0.09395  0.56945  Biso   1.000  C
  C3537    1.0000 0.66658  0.09397  0.56941  Biso   1.000  C
  C3538    1.0000 0.66657  0.09393  0.56941  Biso   1.000  C
  C3539    1.0000 0.66658  0.09395  0.56945  Biso   1.000  C
  C3540    1.0000 0.66655  0.09397  0.56941  Biso   1.000  C
  C3541    1.0000 0.58860  0.15088  0.06188  Biso   1.000  C
  C3542    1.0000 0.58864  0.15088  0.06188  Biso   1.000  C
  C3543    1.0000 0.60214  0.22310  0.15889  Biso   1.000  C
  C3544    1.0000 0.60211  0.22310  0.15889  Biso   1.000  C
  C3545    1.0000 0.33360  0.90610  0.43060  Biso   1.000  C
  C3546    1.0000 0.33361  0.90613  0.43060  Biso   1.000  C
  C3547    1.0000 0.33357  0.90613  0.43060  Biso   1.000  C
  C3548    1.0000 0.38717  0.01672  0.47282  Biso   1.000  C
  C3549    1.0000 0.38713  0.01672  0.47282  Biso   1.000  C
  C3550    1.0000 0.43164  0.76988  0.88415  Biso   1.000  C
  H2348    1.0000 0.44994  0.70619  0.84124  Biso   1.000  H
  C3551    1.0000 0.43167  0.76988  0.88415  Biso   1.000  C
  H2349    1.0000 0.44993  0.70615  0.84124  Biso   1.000  H
  H2350    1.0000 0.44990  0.70619  0.84124  Biso   1.000  H
  C3552    1.0000 0.43835  0.80538  0.93466  Biso   1.000  C
  C3553    1.0000 0.43836  0.80541  0.93466  Biso   1.000  C
  C3554    1.0000 0.43831  0.80538  0.93466  Biso   1.000  C
  H2351    1.0000 0.47226  0.82468  0.00967  Biso   1.000  H
  H2352    1.0000 0.47223  0.82471  0.00967  Biso   1.000  H
  H2353    1.0000 0.47222  0.82468  0.00967  Biso   1.000  H
  H2354    1.0000 0.47227  0.82471  0.00967  Biso   1.000  H
  H2355    1.0000 0.66859  0.80279  0.26129  Biso   1.000  H
  C3555    1.0000 0.71610  0.77160  0.29320  Biso   1.000  C
  H2356    1.0000 0.66856  0.80283  0.26129  Biso   1.000  H
  C3556    1.0000 0.71608  0.77163  0.29320  Biso   1.000  C
  H2357    1.0000 0.66855  0.80279  0.26129  Biso   1.000  H
  C3557    1.0000 0.71607  0.77160  0.29320  Biso   1.000  C
  H2358    1.0000 0.66860  0.80283  0.26129  Biso   1.000  H
  C3558    1.0000 0.73759  0.73069  0.28169  Biso   1.000  C
  H2359    1.0000 0.74047  0.66619  0.22271  Biso   1.000  H
  C3559    1.0000 0.73757  0.73073  0.28169  Biso   1.000  C
  H2360    1.0000 0.74047  0.66621  0.22267  Biso   1.000  H
  C3560    1.0000 0.73756  0.73069  0.28169  Biso   1.000  C
  H2361    1.0000 0.74048  0.66623  0.22271  Biso   1.000  H
  H2362    1.0000 0.74046  0.66617  0.22267  Biso   1.000  H
  H2363    1.0000 0.74051  0.66619  0.22271  Biso   1.000  H
  C3561    1.0000 0.73760  0.73073  0.28169  Biso   1.000  C
  C3562    1.0000 0.26121  0.27335  0.63924  Biso   1.000  C
  H2364    1.0000 0.21082  0.29927  0.67936  Biso   1.000  H
  C3563    1.0000 0.26260  0.26939  0.71836  Biso   1.000  C
  C3564    1.0000 0.26117  0.27335  0.63924  Biso   1.000  C
  H2365    1.0000 0.21077  0.29925  0.67932  Biso   1.000  H
  C3565    1.0000 0.26259  0.26937  0.71832  Biso   1.000  C
  H2366    1.0000 0.21079  0.29927  0.67936  Biso   1.000  H
  C3566    1.0000 0.26259  0.26935  0.71836  Biso   1.000  C
  C3567    1.0000 0.26255  0.26937  0.71832  Biso   1.000  C
  H2367    1.0000 0.21081  0.29925  0.67932  Biso   1.000  H
  C3568    1.0000 0.28188  0.23196  0.62545  Biso   1.000  C
  H2368    1.0000 0.28550  0.16457  0.64125  Biso   1.000  H
  C3569    1.0000 0.28409  0.22848  0.70686  Biso   1.000  C
  H2369    1.0000 0.28546  0.16457  0.64125  Biso   1.000  H
  C3570    1.0000 0.28408  0.22845  0.70686  Biso   1.000  C
  C3571    1.0000 0.61418  0.01756  0.58247  Biso   1.000  C
  C3572    1.0000 0.61415  0.01756  0.58247  Biso   1.000  C
  C3573    1.0000 0.61414  0.01752  0.58247  Biso   1.000  C
  C3574    1.0000 0.61417  0.01752  0.58247  Biso   1.000  C
  H2370    1.0000 0.59363  0.94327  0.51194  Biso   1.000  H
  H2371    1.0000 0.59360  0.94327  0.51194  Biso   1.000  H
  C3575    1.0000 0.59506  0.01296  0.49792  Biso   1.000  C
  C3576    1.0000 0.59503  0.01296  0.49792  Biso   1.000  C
  C3577    1.0000 0.59505  0.01292  0.49792  Biso   1.000  C
  C3578    1.0000 0.64197  0.07419  0.60175  Biso   1.000  C
  C3579    1.0000 0.64196  0.07415  0.60175  Biso   1.000  C
  C3580    1.0000 0.64200  0.07419  0.60175  Biso   1.000  C
  C3581    1.0000 0.62257  0.06983  0.51853  Biso   1.000  C
  H2372    1.0000 0.68506  0.13425  0.58494  Biso   1.000  H
  C3582    1.0000 0.62254  0.06983  0.51853  Biso   1.000  C
  C3583    1.0000 0.62258  0.06987  0.51853  Biso   1.000  C
  H2373    1.0000 0.68510  0.13425  0.58494  Biso   1.000  H
  C3584    1.0000 0.62255  0.06987  0.51853  Biso   1.000  C
  C3585    1.0000 0.64602  0.18790  0.09549  Biso   1.000  C
  H2374    1.0000 0.58350  0.12419  0.02679  Biso   1.000  H
  C3586    1.0000 0.56184  0.19470  0.06540  Biso   1.000  C
  C3587    1.0000 0.56181  0.19470  0.06540  Biso   1.000  C
  H2375    1.0000 0.58354  0.12419  0.02679  Biso   1.000  H
  C3588    1.0000 0.64606  0.18790  0.09549  Biso   1.000  C
  C3589    1.0000 0.65144  0.22511  0.14499  Biso   1.000  C
  H2376    1.0000 0.60733  0.24920  0.19429  Biso   1.000  H
  C3590    1.0000 0.56852  0.23020  0.11590  Biso   1.000  C
  C3591    1.0000 0.65139  0.22507  0.14499  Biso   1.000  C
  C3592    1.0000 0.56856  0.23020  0.11590  Biso   1.000  C
  H2377    1.0000 0.60736  0.24920  0.19429  Biso   1.000  H
  C3593    1.0000 0.65143  0.22507  0.14499  Biso   1.000  C
  C3594    1.0000 0.65140  0.22511  0.14499  Biso   1.000  C
  C3595    1.0000 0.29763  0.94092  0.44451  Biso   1.000  C
  C3596    1.0000 0.29761  0.94095  0.44451  Biso   1.000  C
  C3597    1.0000 0.29760  0.94092  0.44451  Biso   1.000  C
  C3598    1.0000 0.37762  0.93025  0.48153  Biso   1.000  C
  H2378    1.0000 0.31513  0.86583  0.41511  Biso   1.000  H
  C3599    1.0000 0.37761  0.93023  0.48149  Biso   1.000  C
  H2379    1.0000 0.31510  0.86583  0.41511  Biso   1.000  H
  C3600    1.0000 0.32685  0.99733  0.46453  Biso   1.000  C
  C3601    1.0000 0.32681  0.99735  0.46449  Biso   1.000  C
  C3602    1.0000 0.32681  0.99733  0.46453  Biso   1.000  C
  C3603    1.0000 0.32680  0.99731  0.46449  Biso   1.000  C
  C3604    1.0000 0.32684  0.99735  0.46449  Biso   1.000  C
  C3605    1.0000 0.40513  0.98712  0.50213  Biso   1.000  C
  C3606    1.0000 0.40513  0.98714  0.50209  Biso   1.000  C
  C3607    1.0000 0.40514  0.98716  0.50213  Biso   1.000  C
  C3608    1.0000 0.40508  0.98711  0.50209  Biso   1.000  C
  C3609    1.0000 0.40510  0.98712  0.50213  Biso   1.000  C
  C3610    1.0000 0.40512  0.98711  0.50209  Biso   1.000  C
  H2380    1.0000 0.40656  0.05681  0.48811  Biso   1.000  H
  H2381    1.0000 0.40652  0.05681  0.48811  Biso   1.000  H
  H2382    1.0000 0.40657  0.05685  0.48811  Biso   1.000  H
  C3611    1.0000 0.39805  0.77698  0.84117  Biso   1.000  C
  C3612    1.0000 0.39801  0.77698  0.84117  Biso   1.000  C
  C3613    1.0000 0.41154  0.84918  0.93814  Biso   1.000  C
  C3614    1.0000 0.41159  0.84920  0.93818  Biso   1.000  C
  C3615    1.0000 0.41156  0.84920  0.93818  Biso   1.000  C
  C3616    1.0000 0.73019  0.80694  0.35013  Biso   1.000  C
  C3617    1.0000 0.73018  0.80692  0.35009  Biso   1.000  C
  C3618    1.0000 0.73021  0.80692  0.35009  Biso   1.000  C
  C3619    1.0000 0.73023  0.80694  0.35013  Biso   1.000  C
  C3620    1.0000 0.77448  0.73003  0.32921  Biso   1.000  C
  C3621    1.0000 0.77452  0.73003  0.32921  Biso   1.000  C
  C3622    1.0000 0.27110  0.31317  0.62073  Biso   1.000  C
  C3623    1.0000 0.27106  0.31317  0.62073  Biso   1.000  C
  C3624    1.0000 0.27109  0.31313  0.62073  Biso   1.000  C
  C3625    1.0000 0.27411  0.30648  0.76964  Biso   1.000  C
  C3626    1.0000 0.27408  0.30648  0.76964  Biso   1.000  C
  C3627    1.0000 0.27410  0.30644  0.76964  Biso   1.000  C
  C3628    1.0000 0.31259  0.23027  0.59315  Biso   1.000  C
  C3629    1.0000 0.31258  0.23025  0.59312  Biso   1.000  C
  C3630    1.0000 0.31258  0.23023  0.59315  Biso   1.000  C
  C3631    1.0000 0.31254  0.23025  0.59312  Biso   1.000  C
  C3632    1.0000 0.31720  0.22469  0.74644  Biso   1.000  C
  C3633    1.0000 0.31719  0.22465  0.74644  Biso   1.000  C
  C3634    1.0000 0.31717  0.22469  0.74644  Biso   1.000  C
  C3635    1.0000 0.59072  0.99705  0.61263  Biso   1.000  C
  C3636    1.0000 0.59073  0.99709  0.61263  Biso   1.000  C
  C3637    1.0000 0.55522  0.98536  0.45025  Biso   1.000  C
  C3638    1.0000 0.55521  0.98534  0.45021  Biso   1.000  C
  C3639    1.0000 0.55518  0.98534  0.45021  Biso   1.000  C
  C3640    1.0000 0.64630  0.11032  0.65125  Biso   1.000  C
  C3641    1.0000 0.64627  0.11032  0.65125  Biso   1.000  C
  C3642    1.0000 0.64626  0.11028  0.65125  Biso   1.000  C
  C3643    1.0000 0.64629  0.11028  0.65125  Biso   1.000  C
  C3644    1.0000 0.61007  0.09904  0.49153  Biso   1.000  C
  C3645    1.0000 0.61003  0.09904  0.49153  Biso   1.000  C
  C3646    1.0000 0.69033  0.18777  0.08039  Biso   1.000  C
  C3647    1.0000 0.69029  0.18777  0.08039  Biso   1.000  C
  C3648    1.0000 0.69030  0.18781  0.08039  Biso   1.000  C
  C3649    1.0000 0.69034  0.18781  0.08039  Biso   1.000  C
  C3650    1.0000 0.53230  0.19909  0.02408  Biso   1.000  C
  C3651    1.0000 0.53234  0.19909  0.02408  Biso   1.000  C
  C3652    1.0000 0.70133  0.26220  0.17930  Biso   1.000  C
  C3653    1.0000 0.70136  0.26220  0.17930  Biso   1.000  C
  C3654    1.0000 0.54574  0.27008  0.12508  Biso   1.000  C
  C3655    1.0000 0.54570  0.27008  0.12508  Biso   1.000  C
  C3656    1.0000 0.54571  0.27011  0.12508  Biso   1.000  C
  C3657    1.0000 0.54575  0.27011  0.12508  Biso   1.000  C
  C3658    1.0000 0.24362  0.92263  0.43641  Biso   1.000  C
  C3659    1.0000 0.24358  0.92263  0.43641  Biso   1.000  C
  C3660    1.0000 0.39013  0.90104  0.50852  Biso   1.000  C
  C3661    1.0000 0.39009  0.90104  0.50852  Biso   1.000  C
  C3662    1.0000 0.30196  0.03542  0.47661  Biso   1.000  C
  C3663    1.0000 0.44497  0.01472  0.54981  Biso   1.000  C
  C3664    1.0000 0.44493  0.01472  0.54981  Biso   1.000  C
  C3665    1.0000 0.34875  0.77497  0.85507  Biso   1.000  C
  H2383    1.0000 0.39286  0.75088  0.80577  Biso   1.000  H
  C3666    1.0000 0.42618  0.83803  0.85557  Biso   1.000  C
  C3667    1.0000 0.34874  0.77495  0.85503  Biso   1.000  C
  H2384    1.0000 0.39282  0.75087  0.80573  Biso   1.000  H
  C3668    1.0000 0.42612  0.83798  0.85553  Biso   1.000  C
  C3669    1.0000 0.34876  0.77501  0.85507  Biso   1.000  C
  H2385    1.0000 0.39283  0.75088  0.80577  Biso   1.000  H
  C3670    1.0000 0.42614  0.83803  0.85557  Biso   1.000  C
  C3671    1.0000 0.34870  0.77495  0.85503  Biso   1.000  C
  C3672    1.0000 0.42613  0.83801  0.85553  Biso   1.000  C
  C3673    1.0000 0.34872  0.77497  0.85507  Biso   1.000  C
  H2386    1.0000 0.39285  0.75087  0.80573  Biso   1.000  H
  C3674    1.0000 0.42616  0.83798  0.85553  Biso   1.000  C
  C3675    1.0000 0.35413  0.81218  0.90456  Biso   1.000  C
  H2387    1.0000 0.41665  0.87590  0.97327  Biso   1.000  H
  C3676    1.0000 0.35417  0.81218  0.90456  Biso   1.000  C
  H2388    1.0000 0.41669  0.87590  0.97327  Biso   1.000  H
  C3677    1.0000 0.43288  0.87291  0.90627  Biso   1.000  C
  C3678    1.0000 0.43283  0.87287  0.90627  Biso   1.000  C
  C3679    1.0000 0.43284  0.87291  0.90627  Biso   1.000  C
  C3680    1.0000 0.43287  0.87287  0.90627  Biso   1.000  C
  C3681    1.0000 0.71831  0.76812  0.37460  Biso   1.000  C
  H2389    1.0000 0.71469  0.83552  0.35880  Biso   1.000  H
  C3682    1.0000 0.79319  0.83019  0.36721  Biso   1.000  C
  C3683    1.0000 0.71828  0.76812  0.37460  Biso   1.000  C
  H2390    1.0000 0.71470  0.83555  0.35880  Biso   1.000  H
  C3684    1.0000 0.79320  0.83023  0.36721  Biso   1.000  C
  C3685    1.0000 0.79322  0.83019  0.36721  Biso   1.000  C
  C3686    1.0000 0.73898  0.72673  0.36082  Biso   1.000  C
  H2391    1.0000 0.78937  0.70081  0.32069  Biso   1.000  H
  C3687    1.0000 0.81459  0.78919  0.35590  Biso   1.000  C
  C3688    1.0000 0.81460  0.78923  0.35590  Biso   1.000  C
  C3689    1.0000 0.73902  0.72673  0.36082  Biso   1.000  C
  H2392    1.0000 0.78941  0.70081  0.32069  Biso   1.000  H
  C3690    1.0000 0.30171  0.31137  0.58843  Biso   1.000  C
  C3691    1.0000 0.25150  0.35958  0.63583  Biso   1.000  C
  C3692    1.0000 0.30167  0.31137  0.58843  Biso   1.000  C
  C3693    1.0000 0.25149  0.35954  0.63583  Biso   1.000  C
  C3694    1.0000 0.30166  0.31133  0.58843  Biso   1.000  C
  C3695    1.0000 0.25146  0.35958  0.63583  Biso   1.000  C
  C3696    1.0000 0.30170  0.31133  0.58843  Biso   1.000  C
  H2393    1.0000 0.25972  0.33389  0.77734  Biso   1.000  H
  C3697    1.0000 0.30711  0.30277  0.80925  Biso   1.000  C
  H2394    1.0000 0.25968  0.33385  0.77734  Biso   1.000  H
  H2395    1.0000 0.25969  0.33389  0.77734  Biso   1.000  H
  C3698    1.0000 0.30708  0.30277  0.80925  Biso   1.000  C
  H2396    1.0000 0.25971  0.33385  0.77734  Biso   1.000  H
  C3699    1.0000 0.32238  0.26998  0.57464  Biso   1.000  C
  C3700    1.0000 0.33411  0.18457  0.57735  Biso   1.000  C
  C3701    1.0000 0.32237  0.26994  0.57464  Biso   1.000  C
  C3702    1.0000 0.33406  0.18455  0.57731  Biso   1.000  C
  C3703    1.0000 0.33406  0.18453  0.57735  Biso   1.000  C
  C3704    1.0000 0.33407  0.18457  0.57735  Biso   1.000  C
  C3705    1.0000 0.33410  0.18455  0.57731  Biso   1.000  C
  C3706    1.0000 0.33410  0.18453  0.57735  Biso   1.000  C
  C3707    1.0000 0.32871  0.26187  0.79775  Biso   1.000  C
  H2397    1.0000 0.33160  0.19729  0.73877  Biso   1.000  H
  H2398    1.0000 0.33159  0.19727  0.73873  Biso   1.000  H
  H2399    1.0000 0.33160  0.19725  0.73877  Biso   1.000  H
  C3708    1.0000 0.32868  0.26187  0.79775  Biso   1.000  C
  H2400    1.0000 0.33156  0.19727  0.73873  Biso   1.000  H
  C3709    1.0000 0.59497  0.03318  0.66205  Biso   1.000  C
  C3710    1.0000 0.59496  0.03314  0.66205  Biso   1.000  C
  C3711    1.0000 0.59501  0.03318  0.66205  Biso   1.000  C
  H2401    1.0000 0.57215  0.95917  0.59966  Biso   1.000  H
  H2402    1.0000 0.57211  0.95915  0.59962  Biso   1.000  H
  H2403    1.0000 0.57212  0.95917  0.59966  Biso   1.000  H
  H2404    1.0000 0.57214  0.95915  0.59962  Biso   1.000  H
  C3712    1.0000 0.53012  0.92406  0.42244  Biso   1.000  C
  C3713    1.0000 0.53008  0.92406  0.42244  Biso   1.000  C
  C3714    1.0000 0.54265  0.01466  0.42314  Biso   1.000  C
  C3715    1.0000 0.54264  0.01462  0.42314  Biso   1.000  C
  C3716    1.0000 0.54268  0.01466  0.42314  Biso   1.000  C
  C3717    1.0000 0.62278  0.08988  0.68134  Biso   1.000  C
  C3718    1.0000 0.62277  0.08984  0.68134  Biso   1.000  C
  C3719    1.0000 0.62281  0.08988  0.68134  Biso   1.000  C
  H2405    1.0000 0.66488  0.14816  0.66414  Biso   1.000  H
  C3720    1.0000 0.57005  0.07146  0.44382  Biso   1.000  C
  C3721    1.0000 0.64147  0.15967  0.50993  Biso   1.000  C
  C3722    1.0000 0.57004  0.07142  0.44382  Biso   1.000  C
  C3723    1.0000 0.64146  0.15964  0.50993  Biso   1.000  C
  C3724    1.0000 0.57008  0.07146  0.44382  Biso   1.000  C
  C3725    1.0000 0.64150  0.15967  0.50993  Biso   1.000  C
  C3726    1.0000 0.74024  0.22490  0.11478  Biso   1.000  C
  C3727    1.0000 0.68491  0.14699  0.02698  Biso   1.000  C
  C3728    1.0000 0.74020  0.22490  0.11478  Biso   1.000  C
  C3729    1.0000 0.68495  0.14699  0.02698  Biso   1.000  C
  H2406    1.0000 0.52794  0.17540  0.99038  Biso   1.000  H
  H2407    1.0000 0.52792  0.17539  0.99035  Biso   1.000  H
  H2408    1.0000 0.52793  0.17537  0.99038  Biso   1.000  H
  H2409    1.0000 0.52789  0.17539  0.99035  Biso   1.000  H
  C3730    1.0000 0.50950  0.23897  0.03318  Biso   1.000  C
  C3731    1.0000 0.50951  0.23901  0.03318  Biso   1.000  C
  C3732    1.0000 0.50954  0.23897  0.03318  Biso   1.000  C
  C3733    1.0000 0.74575  0.26211  0.16419  Biso   1.000  C
  C3734    1.0000 0.70876  0.29642  0.23561  Biso   1.000  C
  C3735    1.0000 0.74570  0.26207  0.16419  Biso   1.000  C
  C3736    1.0000 0.70872  0.29639  0.23561  Biso   1.000  C
  C3737    1.0000 0.70873  0.29642  0.23561  Biso   1.000  C
  C3738    1.0000 0.74574  0.26207  0.16419  Biso   1.000  C
  C3739    1.0000 0.70875  0.29639  0.23561  Biso   1.000  C
  C3740    1.0000 0.74571  0.26211  0.16419  Biso   1.000  C
  C3741    1.0000 0.51623  0.27450  0.08368  Biso   1.000  C
  H2410    1.0000 0.55025  0.29389  0.15881  Biso   1.000  H
  C3742    1.0000 0.51622  0.27446  0.08368  Biso   1.000  C
  H2411    1.0000 0.55021  0.29387  0.15877  Biso   1.000  H
  H2412    1.0000 0.55023  0.29393  0.15881  Biso   1.000  H
  H2413    1.0000 0.55024  0.29387  0.15877  Biso   1.000  H
  H2414    1.0000 0.55026  0.29393  0.15881  Biso   1.000  H
  C3743    1.0000 0.21885  0.96074  0.44853  Biso   1.000  C
  C3744    1.0000 0.21881  0.96076  0.44849  Biso   1.000  C
  C3745    1.0000 0.21881  0.96074  0.44853  Biso   1.000  C
  C3746    1.0000 0.21880  0.96072  0.44849  Biso   1.000  C
  H2415    1.0000 0.22411  0.88481  0.42301  Biso   1.000  H
  H2416    1.0000 0.22412  0.88485  0.42301  Biso   1.000  H
  H2417    1.0000 0.22408  0.88481  0.42301  Biso   1.000  H
  C3747    1.0000 0.43015  0.92862  0.55624  Biso   1.000  C
  C3748    1.0000 0.35873  0.84041  0.49013  Biso   1.000  C
  C3749    1.0000 0.43011  0.92864  0.55620  Biso   1.000  C
  C3750    1.0000 0.35869  0.84043  0.49009  Biso   1.000  C
  C3751    1.0000 0.43012  0.92866  0.55624  Biso   1.000  C
  C3752    1.0000 0.35870  0.84045  0.49013  Biso   1.000  C
  C3753    1.0000 0.43010  0.92860  0.55620  Biso   1.000  C
  C3754    1.0000 0.43011  0.92862  0.55624  Biso   1.000  C
  C3755    1.0000 0.35869  0.84041  0.49013  Biso   1.000  C
  C3756    1.0000 0.43014  0.92864  0.55620  Biso   1.000  C
  C3757    1.0000 0.35872  0.84043  0.49009  Biso   1.000  C
  C3758    1.0000 0.43016  0.92866  0.55624  Biso   1.000  C
  C3759    1.0000 0.35874  0.84045  0.49013  Biso   1.000  C
  C3760    1.0000 0.24805  0.01713  0.46852  Biso   1.000  C
  C3761    1.0000 0.24804  0.01710  0.46852  Biso   1.000  C
  C3762    1.0000 0.24808  0.01713  0.46852  Biso   1.000  C
  H2418    1.0000 0.32158  0.07313  0.49001  Biso   1.000  H
  H2419    1.0000 0.32154  0.07313  0.49001  Biso   1.000  H
  C3763    1.0000 0.45755  0.98542  0.57692  Biso   1.000  C
  C3764    1.0000 0.45752  0.98546  0.57692  Biso   1.000  C
  C3765    1.0000 0.45751  0.98542  0.57692  Biso   1.000  C
  C3766    1.0000 0.45756  0.98546  0.57692  Biso   1.000  C
  C3767    1.0000 0.47008  0.07602  0.57761  Biso   1.000  C
  C3768    1.0000 0.47004  0.07602  0.57761  Biso   1.000  C
  C3769    1.0000 0.47005  0.07606  0.57761  Biso   1.000  C
  C3770    1.0000 0.47009  0.07606  0.57761  Biso   1.000  C
  C3771    1.0000 0.29883  0.73788  0.82076  Biso   1.000  C
  C3772    1.0000 0.29887  0.73788  0.82076  Biso   1.000  C
  C3773    1.0000 0.44494  0.86019  0.82424  Biso   1.000  C
  C3774    1.0000 0.44498  0.86019  0.82424  Biso   1.000  C
  C3775    1.0000 0.30987  0.81231  0.91967  Biso   1.000  C
  C3776    1.0000 0.30986  0.81227  0.91967  Biso   1.000  C
  C3777    1.0000 0.30983  0.81231  0.91967  Biso   1.000  C
  C3778    1.0000 0.45847  0.93000  0.92567  Biso   1.000  C
  C3779    1.0000 0.45846  0.92996  0.92567  Biso   1.000  C
  C3780    1.0000 0.45843  0.93000  0.92567  Biso   1.000  C
  C3781    1.0000 0.68760  0.76981  0.40690  Biso   1.000  C
  C3782    1.0000 0.68758  0.76985  0.40690  Biso   1.000  C
  C3783    1.0000 0.68757  0.76981  0.40690  Biso   1.000  C
  C3784    1.0000 0.68761  0.76985  0.40690  Biso   1.000  C
  C3785    1.0000 0.82601  0.88583  0.38913  Biso   1.000  C
  C3786    1.0000 0.82599  0.88581  0.38909  Biso   1.000  C
  C3787    1.0000 0.82604  0.88583  0.38913  Biso   1.000  C
  C3788    1.0000 0.72909  0.68691  0.37933  Biso   1.000  C
  C3789    1.0000 0.72909  0.68693  0.37929  Biso   1.000  C
  C3790    1.0000 0.72908  0.68689  0.37929  Biso   1.000  C
  C3791    1.0000 0.86890  0.80370  0.36662  Biso   1.000  C
  C3792    1.0000 0.86890  0.80372  0.36659  Biso   1.000  C
  C3793    1.0000 0.86891  0.80374  0.36662  Biso   1.000  C
  H2420    1.0000 0.30831  0.33797  0.57604  Biso   1.000  H
  H2421    1.0000 0.30827  0.33797  0.57604  Biso   1.000  H
  H2422    1.0000 0.30826  0.33793  0.57604  Biso   1.000  H
  H2423    1.0000 0.30830  0.33793  0.57604  Biso   1.000  H
  H2424    1.0000 0.21511  0.34576  0.63463  Biso   1.000  H
  H2425    1.0000 0.25280  0.37599  0.61186  Biso   1.000  H
  C3794    1.0000 0.28653  0.40377  0.69125  Biso   1.000  C
  H2426    1.0000 0.21507  0.34576  0.63463  Biso   1.000  H
  H2427    1.0000 0.25278  0.37594  0.61182  Biso   1.000  H
  C3795    1.0000 0.28649  0.40377  0.69125  Biso   1.000  C
  H2428    1.0000 0.25279  0.37596  0.61186  Biso   1.000  H
  C3796    1.0000 0.28648  0.40374  0.69125  Biso   1.000  C
  H2429    1.0000 0.25275  0.37598  0.61182  Biso   1.000  H
  C3797    1.0000 0.28652  0.40374  0.69125  Biso   1.000  C
  H2430    1.0000 0.25279  0.37598  0.61182  Biso   1.000  H
  O523     1.0000 0.32362  0.33399  0.86196  Biso   1.000  O
  O524     1.0000 0.32361  0.33395  0.86196  Biso   1.000  O
  O525     1.0000 0.32358  0.33399  0.86196  Biso   1.000  O
  H2431    1.0000 0.34288  0.26878  0.55303  Biso   1.000  H
  H2432    1.0000 0.34287  0.26874  0.55303  Biso   1.000  H
  H2433    1.0000 0.34400  0.18198  0.54684  Biso   1.000  H
  H2434    1.0000 0.30648  0.14948  0.56814  Biso   1.000  H
  C3798    1.0000 0.38230  0.19408  0.62034  Biso   1.000  C
  H2435    1.0000 0.34396  0.18194  0.54684  Biso   1.000  H
  H2436    1.0000 0.30647  0.14944  0.56814  Biso   1.000  H
  C3799    1.0000 0.38226  0.19405  0.62034  Biso   1.000  C
  H2437    1.0000 0.34397  0.18198  0.54684  Biso   1.000  H
  H2438    1.0000 0.30644  0.14948  0.56814  Biso   1.000  H
  C3800    1.0000 0.38227  0.19408  0.62034  Biso   1.000  C
  H2439    1.0000 0.34399  0.18194  0.54684  Biso   1.000  H
  C3801    1.0000 0.38229  0.19405  0.62034  Biso   1.000  C
  O526     1.0000 0.35933  0.26638  0.84275  Biso   1.000  O
  O527     1.0000 0.35929  0.26638  0.84275  Biso   1.000  O
  O528     1.0000 0.57710  0.02099  0.69807  Biso   1.000  O
  O529     1.0000 0.57704  0.02094  0.69803  Biso   1.000  O
  O530     1.0000 0.57706  0.02096  0.69807  Biso   1.000  O
  O531     1.0000 0.57709  0.02097  0.69803  Biso   1.000  O
  O532     1.0000 0.57708  0.02094  0.69803  Biso   1.000  O
  O533     1.0000 0.57709  0.02096  0.69807  Biso   1.000  O
  O534     1.0000 0.57705  0.02097  0.69803  Biso   1.000  O
  H2440    1.0000 0.55630  0.90763  0.42682  Biso   1.000  H
  H2441    1.0000 0.51452  0.91246  0.38573  Biso   1.000  H
  C3802    1.0000 0.48783  0.90517  0.44425  Biso   1.000  C
  H2442    1.0000 0.51451  0.91242  0.38573  Biso   1.000  H
  C3803    1.0000 0.48780  0.90511  0.44421  Biso   1.000  C
  H2443    1.0000 0.55631  0.90767  0.42682  Biso   1.000  H
  H2444    1.0000 0.51448  0.91246  0.38573  Biso   1.000  H
  H2445    1.0000 0.55627  0.90763  0.42682  Biso   1.000  H
  C3804    1.0000 0.48778  0.90515  0.44421  Biso   1.000  C
  C3805    1.0000 0.48779  0.90517  0.44425  Biso   1.000  C
  C3806    1.0000 0.48781  0.90515  0.44421  Biso   1.000  C
  H2446    1.0000 0.51602  0.99614  0.39123  Biso   1.000  H
  H2447    1.0000 0.51603  0.99617  0.39123  Biso   1.000  H
  H2448    1.0000 0.51598  0.99614  0.39123  Biso   1.000  H
  O535     1.0000 0.62130  0.11328  0.73044  Biso   1.000  O
  O536     1.0000 0.62127  0.11328  0.73044  Biso   1.000  O
  O537     1.0000 0.62126  0.11324  0.73044  Biso   1.000  O
  O538     1.0000 0.62129  0.11324  0.73044  Biso   1.000  O
  H2449    1.0000 0.56175  0.09104  0.42573  Biso   1.000  H
  H2450    1.0000 0.56176  0.09107  0.42573  Biso   1.000  H
  H2451    1.0000 0.67897  0.16665  0.52143  Biso   1.000  H
  H2452    1.0000 0.63427  0.16976  0.48173  Biso   1.000  H
  C3807    1.0000 0.62619  0.19525  0.55543  Biso   1.000  C
  H2453    1.0000 0.63424  0.16976  0.48173  Biso   1.000  H
  C3808    1.0000 0.62615  0.19525  0.55543  Biso   1.000  C
  H2454    1.0000 0.67896  0.16662  0.52143  Biso   1.000  H
  H2455    1.0000 0.63426  0.16973  0.48173  Biso   1.000  H
  C3809    1.0000 0.62614  0.19522  0.55543  Biso   1.000  C
  H2456    1.0000 0.67900  0.16665  0.52143  Biso   1.000  H
  C3810    1.0000 0.62618  0.19522  0.55543  Biso   1.000  C
  H2457    1.0000 0.76994  0.22482  0.10471  Biso   1.000  H
  H2458    1.0000 0.76992  0.22476  0.10467  Biso   1.000  H
  H2459    1.0000 0.76993  0.22480  0.10467  Biso   1.000  H
  H2460    1.0000 0.71702  0.15928  0.01920  Biso   1.000  H
  H2461    1.0000 0.65593  0.14578  0.00158  Biso   1.000  H
  C3811    1.0000 0.67451  0.08788  0.02319  Biso   1.000  C
  H2462    1.0000 0.65589  0.14578  0.00158  Biso   1.000  H
  H2463    1.0000 0.71703  0.15931  0.01920  Biso   1.000  H
  H2464    1.0000 0.71705  0.15928  0.01920  Biso   1.000  H
  C3812    1.0000 0.67455  0.08788  0.02319  Biso   1.000  C
  O539     1.0000 0.47964  0.24859  0.99677  Biso   1.000  O
  O540     1.0000 0.47961  0.24859  0.99677  Biso   1.000  O
  H2465    1.0000 0.77904  0.28691  0.18720  Biso   1.000  H
  H2466    1.0000 0.77907  0.28691  0.18720  Biso   1.000  H
  H2467    1.0000 0.74557  0.31010  0.25652  Biso   1.000  H
  H2468    1.0000 0.68746  0.27411  0.24831  Biso   1.000  H
  C3813    1.0000 0.69145  0.34471  0.23801  Biso   1.000  C
  H2469    1.0000 0.74552  0.31008  0.25648  Biso   1.000  H
  H2470    1.0000 0.68743  0.27411  0.24831  Biso   1.000  H
  H2471    1.0000 0.74554  0.31014  0.25652  Biso   1.000  H
  H2472    1.0000 0.74556  0.31008  0.25648  Biso   1.000  H
  H2473    1.0000 0.74558  0.31014  0.25652  Biso   1.000  H
  O541     1.0000 0.49024  0.30948  0.08198  Biso   1.000  O
  O542     1.0000 0.49020  0.30948  0.08198  Biso   1.000  O
  O543     1.0000 0.49021  0.30951  0.08198  Biso   1.000  O
  O544     1.0000 0.49025  0.30951  0.08198  Biso   1.000  O
  O545     1.0000 0.16592  0.94963  0.44222  Biso   1.000  O
  O546     1.0000 0.16593  0.94966  0.44222  Biso   1.000  O
  O547     1.0000 0.16589  0.94963  0.44222  Biso   1.000  O
  H2474    1.0000 0.43844  0.90905  0.57432  Biso   1.000  H
  H2475    1.0000 0.43840  0.90905  0.57432  Biso   1.000  H
  H2476    1.0000 0.32123  0.83343  0.47863  Biso   1.000  H
  H2477    1.0000 0.36592  0.83032  0.51832  Biso   1.000  H
  C3814    1.0000 0.37401  0.80483  0.44462  Biso   1.000  C
  H2478    1.0000 0.32120  0.83346  0.47863  Biso   1.000  H
  H2479    1.0000 0.36593  0.83036  0.51832  Biso   1.000  H
  C3815    1.0000 0.37402  0.80486  0.44462  Biso   1.000  C
  H2480    1.0000 0.32119  0.83343  0.47863  Biso   1.000  H
  H2481    1.0000 0.36588  0.83032  0.51832  Biso   1.000  H
  H2482    1.0000 0.32124  0.83346  0.47863  Biso   1.000  H
  O548     1.0000 0.21388  0.04543  0.47793  Biso   1.000  O
  O549     1.0000 0.21383  0.04541  0.47789  Biso   1.000  O
  O550     1.0000 0.21384  0.04543  0.47793  Biso   1.000  O
  O551     1.0000 0.21386  0.04541  0.47789  Biso   1.000  O
  H2483    1.0000 0.48418  0.00395  0.60883  Biso   1.000  H
  H2484    1.0000 0.48417  0.00391  0.60883  Biso   1.000  H
  H2485    1.0000 0.48567  0.08762  0.61433  Biso   1.000  H
  H2486    1.0000 0.44389  0.09245  0.57324  Biso   1.000  H
  C3816    1.0000 0.51237  0.09491  0.55581  Biso   1.000  C
  H2487    1.0000 0.48564  0.08762  0.61433  Biso   1.000  H
  H2488    1.0000 0.44383  0.09240  0.57320  Biso   1.000  H
  C3817    1.0000 0.51233  0.09491  0.55581  Biso   1.000  C
  H2489    1.0000 0.48568  0.08766  0.61433  Biso   1.000  H
  H2490    1.0000 0.44385  0.09245  0.57324  Biso   1.000  H
  C3818    1.0000 0.51238  0.09495  0.55581  Biso   1.000  C
  H2491    1.0000 0.44388  0.09243  0.57320  Biso   1.000  H
  H2492    1.0000 0.44387  0.09240  0.57320  Biso   1.000  H
  H2493    1.0000 0.44384  0.09243  0.57320  Biso   1.000  H
  C3819    1.0000 0.29143  0.70366  0.76445  Biso   1.000  C
  C3820    1.0000 0.25445  0.73797  0.83586  Biso   1.000  C
  C3821    1.0000 0.25446  0.73801  0.83586  Biso   1.000  C
  C3822    1.0000 0.29144  0.70369  0.76445  Biso   1.000  C
  C3823    1.0000 0.25441  0.73797  0.83586  Biso   1.000  C
  C3824    1.0000 0.29139  0.70366  0.76445  Biso   1.000  C
  H2494    1.0000 0.44043  0.83677  0.79024  Biso   1.000  H
  C3825    1.0000 0.47054  0.91717  0.84365  Biso   1.000  C
  C3826    1.0000 0.47055  0.91720  0.84365  Biso   1.000  C
  C3827    1.0000 0.47058  0.91720  0.84365  Biso   1.000  C
  C3828    1.0000 0.31524  0.85309  0.97307  Biso   1.000  C
  C3829    1.0000 0.25995  0.77518  0.88528  Biso   1.000  C
  C3830    1.0000 0.31528  0.85309  0.97307  Biso   1.000  C
  C3831    1.0000 0.25994  0.77516  0.88524  Biso   1.000  C
  C3832    1.0000 0.25996  0.77522  0.88528  Biso   1.000  C
  C3833    1.0000 0.31525  0.85312  0.97307  Biso   1.000  C
  C3834    1.0000 0.25991  0.77516  0.88524  Biso   1.000  C
  C3835    1.0000 0.31529  0.85312  0.97307  Biso   1.000  C
  H2495    1.0000 0.46298  0.95331  0.95967  Biso   1.000  H
  C3836    1.0000 0.47730  0.95210  0.89438  Biso   1.000  C
  H2496    1.0000 0.46297  0.95327  0.95967  Biso   1.000  H
  C3837    1.0000 0.47724  0.95204  0.89434  Biso   1.000  C
  C3838    1.0000 0.47726  0.95210  0.89438  Biso   1.000  C
  H2497    1.0000 0.46295  0.95331  0.95967  Biso   1.000  H
  C3839    1.0000 0.47725  0.95208  0.89434  Biso   1.000  C
  C3840    1.0000 0.67781  0.73010  0.42541  Biso   1.000  C
  C3841    1.0000 0.66608  0.81551  0.42270  Biso   1.000  C
  C3842    1.0000 0.67779  0.73014  0.42541  Biso   1.000  C
  C3843    1.0000 0.66609  0.81555  0.42270  Biso   1.000  C
  C3844    1.0000 0.66612  0.81551  0.42270  Biso   1.000  C
  C3845    1.0000 0.67782  0.73014  0.42541  Biso   1.000  C
  C3846    1.0000 0.67778  0.73010  0.42541  Biso   1.000  C
  H2498    1.0000 0.81160  0.91321  0.39660  Biso   1.000  H
  C3847    1.0000 0.88020  0.90032  0.39981  Biso   1.000  C
  H2499    1.0000 0.81161  0.91325  0.39660  Biso   1.000  H
  C3848    1.0000 0.88021  0.90036  0.39981  Biso   1.000  C
  H2500    1.0000 0.81163  0.91321  0.39660  Biso   1.000  H
  C3849    1.0000 0.88024  0.90032  0.39981  Biso   1.000  C
  C3850    1.0000 0.69848  0.68871  0.41163  Biso   1.000  C
  C3851    1.0000 0.74869  0.64050  0.36422  Biso   1.000  C
  C3852    1.0000 0.69848  0.68873  0.41159  Biso   1.000  C
  C3853    1.0000 0.74866  0.64052  0.36418  Biso   1.000  C
  C3854    1.0000 0.69849  0.68875  0.41163  Biso   1.000  C
  C3855    1.0000 0.74867  0.64054  0.36422  Biso   1.000  C
  C3856    1.0000 0.69851  0.68869  0.41159  Biso   1.000  C
  C3857    1.0000 0.74868  0.64048  0.36418  Biso   1.000  C
  C3858    1.0000 0.69852  0.68871  0.41163  Biso   1.000  C
  C3859    1.0000 0.74869  0.64052  0.36418  Biso   1.000  C
  C3860    1.0000 0.74870  0.64054  0.36422  Biso   1.000  C
  C3861    1.0000 0.69847  0.68869  0.41159  Biso   1.000  C
  C3862    1.0000 0.74865  0.64048  0.36418  Biso   1.000  C
  C3863    1.0000 0.90170  0.85932  0.38851  Biso   1.000  C
  H2501    1.0000 0.88319  0.77630  0.35911  Biso   1.000  H
  H2502    1.0000 0.88320  0.77634  0.35911  Biso   1.000  H
  H2503    1.0000 0.88323  0.77630  0.35911  Biso   1.000  H
  H2504    1.0000 0.32101  0.42187  0.69094  Biso   1.000  H
  H2505    1.0000 0.28961  0.38607  0.71375  Biso   1.000  H
  H2506    1.0000 0.27084  0.43069  0.70357  Biso   1.000  H
  H2507    1.0000 0.27079  0.43067  0.70353  Biso   1.000  H
  H2508    1.0000 0.32100  0.42184  0.69094  Biso   1.000  H
  H2509    1.0000 0.27079  0.43065  0.70357  Biso   1.000  H
  H2510    1.0000 0.32097  0.42187  0.69094  Biso   1.000  H
  H2511    1.0000 0.28958  0.38607  0.71375  Biso   1.000  H
  H2512    1.0000 0.27080  0.43069  0.70357  Biso   1.000  H
  H2513    1.0000 0.27082  0.43067  0.70353  Biso   1.000  H
  H2514    1.0000 0.27083  0.43065  0.70357  Biso   1.000  H
  B287     1.0000 0.35623  0.31050  0.88396  Biso   1.000  B
  B288     1.0000 0.35622  0.31046  0.88396  Biso   1.000  B
  B289     1.0000 0.35619  0.31050  0.88396  Biso   1.000  B
  H2515    1.0000 0.41028  0.18985  0.60655  Biso   1.000  H
  H2516    1.0000 0.37281  0.16737  0.63366  Biso   1.000  H
  H2517    1.0000 0.39399  0.23077  0.64784  Biso   1.000  H
  H2518    1.0000 0.37276  0.16735  0.63362  Biso   1.000  H
  H2519    1.0000 0.37276  0.16733  0.63366  Biso   1.000  H
  H2520    1.0000 0.39398  0.23073  0.64784  Biso   1.000  H
  H2521    1.0000 0.41029  0.18989  0.60655  Biso   1.000  H
  H2522    1.0000 0.39396  0.23077  0.64784  Biso   1.000  H
  H2523    1.0000 0.37277  0.16737  0.63366  Biso   1.000  H
  H2524    1.0000 0.37280  0.16735  0.63362  Biso   1.000  H
  H2525    1.0000 0.37280  0.16733  0.63366  Biso   1.000  H
  B290     1.0000 0.59320  0.07367  0.74295  Biso   1.000  B
  B291     1.0000 0.59316  0.07367  0.74295  Biso   1.000  B
  B292     1.0000 0.59315  0.07363  0.74295  Biso   1.000  B
  B293     1.0000 0.59319  0.07363  0.74295  Biso   1.000  B
  H2526    1.0000 0.46382  0.92415  0.44243  Biso   1.000  H
  H2527    1.0000 0.50389  0.91354  0.47972  Biso   1.000  H
  H2528    1.0000 0.46888  0.86583  0.42442  Biso   1.000  H
  H2529    1.0000 0.50393  0.91354  0.47972  Biso   1.000  H
  H2530    1.0000 0.46892  0.86583  0.42442  Biso   1.000  H
  H2531    1.0000 0.50390  0.91358  0.47972  Biso   1.000  H
  H2532    1.0000 0.46889  0.86586  0.42442  Biso   1.000  H
  H2533    1.0000 0.46378  0.92415  0.44243  Biso   1.000  H
  H2534    1.0000 0.50394  0.91358  0.47972  Biso   1.000  H
  H2535    1.0000 0.46893  0.86586  0.42442  Biso   1.000  H
  H2536    1.0000 0.64988  0.20236  0.58785  Biso   1.000  H
  H2537    1.0000 0.62846  0.22986  0.55443  Biso   1.000  H
  H2538    1.0000 0.59068  0.17546  0.55226  Biso   1.000  H
  H2539    1.0000 0.59066  0.17545  0.55222  Biso   1.000  H
  H2540    1.0000 0.62845  0.22982  0.55443  Biso   1.000  H
  H2541    1.0000 0.59067  0.17543  0.55226  Biso   1.000  H
  H2542    1.0000 0.62850  0.22986  0.55443  Biso   1.000  H
  H2543    1.0000 0.66694  0.06229  0.98798  Biso   1.000  H
  H2544    1.0000 0.66690  0.06227  0.98794  Biso   1.000  H
  H2545    1.0000 0.66691  0.06229  0.98798  Biso   1.000  H
  H2546    1.0000 0.66693  0.06227  0.98794  Biso   1.000  H
  H2547    1.0000 0.64511  0.07727  0.03457  Biso   1.000  H
  H2548    1.0000 0.70531  0.08780  0.04460  Biso   1.000  H
  H2549    1.0000 0.70530  0.08778  0.04456  Biso   1.000  H
  H2550    1.0000 0.64512  0.07731  0.03457  Biso   1.000  H
  H2551    1.0000 0.70533  0.08778  0.04456  Biso   1.000  H
  H2552    1.0000 0.70535  0.08780  0.04460  Biso   1.000  H
  B294     1.0000 0.46873  0.29280  0.02969  Biso   1.000  B
  H2553    1.0000 0.70486  0.35961  0.21621  Biso   1.000  H
  H2554    1.0000 0.70508  0.37322  0.27302  Biso   1.000  H
  H2555    1.0000 0.65354  0.33181  0.22620  Biso   1.000  H
  H2556    1.0000 0.70483  0.35961  0.21621  Biso   1.000  H
  H2557    1.0000 0.70503  0.37321  0.27298  Biso   1.000  H
  H2558    1.0000 0.70505  0.37322  0.27302  Biso   1.000  H
  H2559    1.0000 0.70507  0.37321  0.27298  Biso   1.000  H
  H2560    1.0000 0.65357  0.33181  0.22620  Biso   1.000  H
  B295     1.0000 0.16606  0.00382  0.46251  Biso   1.000  B
  B296     1.0000 0.16603  0.00382  0.46251  Biso   1.000  B
  H2561    1.0000 0.35031  0.79772  0.41221  Biso   1.000  H
  H2562    1.0000 0.37173  0.77023  0.44563  Biso   1.000  H
  H2563    1.0000 0.40952  0.82462  0.44780  Biso   1.000  H
  H2564    1.0000 0.37169  0.77024  0.44559  Biso   1.000  H
  H2565    1.0000 0.40949  0.82465  0.44780  Biso   1.000  H
  H2566    1.0000 0.37170  0.77023  0.44563  Biso   1.000  H
  H2567    1.0000 0.35027  0.79772  0.41221  Biso   1.000  H
  H2568    1.0000 0.37168  0.77021  0.44559  Biso   1.000  H
  H2569    1.0000 0.40948  0.82462  0.44780  Biso   1.000  H
  H2570    1.0000 0.37173  0.77024  0.44559  Biso   1.000  H
  H2571    1.0000 0.40953  0.82465  0.44780  Biso   1.000  H
  H2572    1.0000 0.49627  0.08654  0.52033  Biso   1.000  H
  H2573    1.0000 0.53637  0.07593  0.55763  Biso   1.000  H
  H2574    1.0000 0.53127  0.13426  0.57564  Biso   1.000  H
  H2575    1.0000 0.49625  0.08652  0.52030  Biso   1.000  H
  H2576    1.0000 0.53634  0.07593  0.55763  Biso   1.000  H
  H2577    1.0000 0.53125  0.13420  0.57560  Biso   1.000  H
  H2578    1.0000 0.53130  0.13424  0.57560  Biso   1.000  H
  H2579    1.0000 0.49630  0.08654  0.52033  Biso   1.000  H
  H2580    1.0000 0.53131  0.13426  0.57564  Biso   1.000  H
  H2581    1.0000 0.53126  0.13424  0.57560  Biso   1.000  H
  H2582    1.0000 0.25462  0.68998  0.74353  Biso   1.000  H
  H2583    1.0000 0.31273  0.72597  0.75174  Biso   1.000  H
  C3864    1.0000 0.30874  0.65538  0.76205  Biso   1.000  C
  C3865    1.0000 0.30870  0.65538  0.76205  Biso   1.000  C
  H2584    1.0000 0.25461  0.68994  0.74353  Biso   1.000  H
  H2585    1.0000 0.31269  0.72597  0.75174  Biso   1.000  H
  H2586    1.0000 0.22112  0.71317  0.81286  Biso   1.000  H
  H2587    1.0000 0.22116  0.71317  0.81286  Biso   1.000  H
  O552     1.0000 0.49395  0.94478  0.81785  Biso   1.000  O
  O553     1.0000 0.49392  0.94478  0.81785  Biso   1.000  O
  C3866    1.0000 0.32565  0.91220  0.97687  Biso   1.000  C
  H2588    1.0000 0.34426  0.85430  0.99848  Biso   1.000  H
  H2589    1.0000 0.28314  0.84080  0.98086  Biso   1.000  H
  H2590    1.0000 0.34425  0.85428  0.99844  Biso   1.000  H
  H2591    1.0000 0.28318  0.84080  0.98086  Biso   1.000  H
  C3867    1.0000 0.32568  0.91220  0.97687  Biso   1.000  C
  H2592    1.0000 0.28313  0.84077  0.98086  Biso   1.000  H
  H2593    1.0000 0.28317  0.84077  0.98086  Biso   1.000  H
  H2594    1.0000 0.23021  0.77527  0.89535  Biso   1.000  H
  H2595    1.0000 0.23025  0.77527  0.89535  Biso   1.000  H
  H2596    1.0000 0.23026  0.77530  0.89535  Biso   1.000  H
  O554     1.0000 0.50529  0.00369  0.90085  Biso   1.000  O
  O555     1.0000 0.50528  0.00365  0.90085  Biso   1.000  O
  O556     1.0000 0.50533  0.00369  0.90085  Biso   1.000  O
  H2597    1.0000 0.65731  0.73130  0.44702  Biso   1.000  H
  H2598    1.0000 0.65729  0.73134  0.44702  Biso   1.000  H
  H2599    1.0000 0.65732  0.73134  0.44702  Biso   1.000  H
  H2600    1.0000 0.65619  0.81810  0.45322  Biso   1.000  H
  H2601    1.0000 0.69371  0.85060  0.43192  Biso   1.000  H
  C3868    1.0000 0.61789  0.80600  0.37971  Biso   1.000  C
  H2602    1.0000 0.65620  0.81814  0.45322  Biso   1.000  H
  H2603    1.0000 0.69369  0.85064  0.43192  Biso   1.000  H
  C3869    1.0000 0.61790  0.80603  0.37971  Biso   1.000  C
  H2604    1.0000 0.65623  0.81814  0.45322  Biso   1.000  H
  H2605    1.0000 0.69372  0.85064  0.43192  Biso   1.000  H
  H2606    1.0000 0.65622  0.81810  0.45322  Biso   1.000  H
  C3870    1.0000 0.61793  0.80600  0.37971  Biso   1.000  C
  O557     1.0000 0.91880  0.95181  0.42092  Biso   1.000  O
  O558     1.0000 0.91881  0.95185  0.42092  Biso   1.000  O
  O559     1.0000 0.91883  0.95181  0.42092  Biso   1.000  O
  H2607    1.0000 0.69189  0.66212  0.42402  Biso   1.000  H
  H2608    1.0000 0.69190  0.66215  0.42402  Biso   1.000  H
  H2609    1.0000 0.69192  0.66212  0.42402  Biso   1.000  H
  H2610    1.0000 0.78509  0.65433  0.36542  Biso   1.000  H
  H2611    1.0000 0.74739  0.62409  0.38820  Biso   1.000  H
  C3871    1.0000 0.71367  0.59631  0.30880  Biso   1.000  C
  H2612    1.0000 0.78507  0.65431  0.36539  Biso   1.000  H
  H2613    1.0000 0.74736  0.62412  0.38820  Biso   1.000  H
  C3872    1.0000 0.71368  0.59634  0.30880  Biso   1.000  C
  H2614    1.0000 0.78512  0.65433  0.36542  Biso   1.000  H
  C3873    1.0000 0.71370  0.59631  0.30880  Biso   1.000  C
  H2615    1.0000 0.74740  0.62412  0.38820  Biso   1.000  H
  H2616    1.0000 0.74735  0.62409  0.38820  Biso   1.000  H
  O560     1.0000 0.95481  0.88520  0.40311  Biso   1.000  O
  O561     1.0000 0.95478  0.88524  0.40311  Biso   1.000  O
  O562     1.0000 0.95482  0.88524  0.40311  Biso   1.000  O
  O563     1.0000 0.95477  0.88520  0.40311  Biso   1.000  O
  C3874    1.0000 0.38323  0.33140  0.93926  Biso   1.000  C
  C3875    1.0000 0.38322  0.33136  0.93926  Biso   1.000  C
  C3876    1.0000 0.38319  0.33140  0.93926  Biso   1.000  C
  C3877    1.0000 0.58501  0.08206  0.79245  Biso   1.000  C
  C3878    1.0000 0.58497  0.08206  0.79245  Biso   1.000  C
  C3879    1.0000 0.58502  0.08210  0.79245  Biso   1.000  C
  C3880    1.0000 0.58498  0.08210  0.79245  Biso   1.000  C
  C3881    1.0000 0.43502  0.32157  0.00878  Biso   1.000  C
  C3882    1.0000 0.43503  0.32161  0.00878  Biso   1.000  C
  C3883    1.0000 0.11485  0.01691  0.46081  Biso   1.000  C
  C3884    1.0000 0.11486  0.01694  0.46081  Biso   1.000  C
  H2617    1.0000 0.29511  0.62686  0.72704  Biso   1.000  H
  H2618    1.0000 0.29533  0.64047  0.78385  Biso   1.000  H
  H2619    1.0000 0.34662  0.66828  0.77386  Biso   1.000  H
  H2620    1.0000 0.34666  0.66828  0.77386  Biso   1.000  H
  H2621    1.0000 0.29529  0.64047  0.78385  Biso   1.000  H
  B297     1.0000 0.51631  0.00138  0.85766  Biso   1.000  B
  B298     1.0000 0.51627  0.00138  0.85766  Biso   1.000  B
  B299     1.0000 0.51626  0.00135  0.85766  Biso   1.000  B
  B300     1.0000 0.51630  0.00135  0.85766  Biso   1.000  B
  H2622    1.0000 0.29485  0.91228  0.95545  Biso   1.000  H
  H2623    1.0000 0.35508  0.92281  0.96548  Biso   1.000  H
  H2624    1.0000 0.29488  0.91228  0.95545  Biso   1.000  H
  H2625    1.0000 0.35506  0.92276  0.96544  Biso   1.000  H
  H2626    1.0000 0.35503  0.92279  0.96544  Biso   1.000  H
  H2627    1.0000 0.35505  0.92281  0.96548  Biso   1.000  H
  H2628    1.0000 0.35507  0.92279  0.96544  Biso   1.000  H
  H2629    1.0000 0.33325  0.93779  0.01207  Biso   1.000  H
  H2630    1.0000 0.33328  0.93779  0.01207  Biso   1.000  H
  H2631    1.0000 0.58992  0.81023  0.39350  Biso   1.000  H
  H2632    1.0000 0.62738  0.83271  0.36639  Biso   1.000  H
  H2633    1.0000 0.60620  0.76931  0.35222  Biso   1.000  H
  H2634    1.0000 0.58988  0.81023  0.39350  Biso   1.000  H
  H2635    1.0000 0.62739  0.83275  0.36639  Biso   1.000  H
  H2636    1.0000 0.60617  0.76935  0.35222  Biso   1.000  H
  H2637    1.0000 0.60616  0.76931  0.35222  Biso   1.000  H
  H2638    1.0000 0.62742  0.83271  0.36639  Biso   1.000  H
  H2639    1.0000 0.60621  0.76935  0.35222  Biso   1.000  H
  B301     1.0000 0.96740  0.94180  0.42290  Biso   1.000  B
  B302     1.0000 0.96741  0.94184  0.42290  Biso   1.000  B
  B303     1.0000 0.96743  0.94180  0.42290  Biso   1.000  B
  H2640    1.0000 0.67919  0.57821  0.30911  Biso   1.000  H
  H2641    1.0000 0.71058  0.61401  0.28630  Biso   1.000  H
  H2642    1.0000 0.72936  0.56939  0.29649  Biso   1.000  H
  H2643    1.0000 0.67916  0.57824  0.30911  Biso   1.000  H
  H2644    1.0000 0.71055  0.61401  0.28630  Biso   1.000  H
  H2645    1.0000 0.72937  0.56943  0.29649  Biso   1.000  H
  H2646    1.0000 0.67915  0.57821  0.30911  Biso   1.000  H
  H2647    1.0000 0.72939  0.56939  0.29649  Biso   1.000  H
  H2648    1.0000 0.67920  0.57824  0.30911  Biso   1.000  H
  C3885    1.0000 0.41243  0.30410  0.95615  Biso   1.000  C
  C3886    1.0000 0.37675  0.37630  0.97497  Biso   1.000  C
  C3887    1.0000 0.41242  0.30406  0.95615  Biso   1.000  C
  C3888    1.0000 0.37671  0.37630  0.97497  Biso   1.000  C
  C3889    1.0000 0.37670  0.37626  0.97497  Biso   1.000  C
  C3890    1.0000 0.41240  0.30410  0.95615  Biso   1.000  C
  C3891    1.0000 0.37674  0.37626  0.97497  Biso   1.000  C
  C3892    1.0000 0.55479  0.03857  0.79977  Biso   1.000  C
  C3893    1.0000 0.55478  0.03855  0.79973  Biso   1.000  C
  C3894    1.0000 0.60850  0.13529  0.83307  Biso   1.000  C
  C3895    1.0000 0.60849  0.13527  0.83303  Biso   1.000  C
  C3896    1.0000 0.60849  0.13525  0.83307  Biso   1.000  C
  C3897    1.0000 0.60854  0.13529  0.83307  Biso   1.000  C
  C3898    1.0000 0.42853  0.36649  0.04460  Biso   1.000  C
  C3899    1.0000 0.42852  0.36647  0.04456  Biso   1.000  C
  C3900    1.0000 0.06624  0.97444  0.44373  Biso   1.000  C
  C3901    1.0000 0.06620  0.97445  0.44369  Biso   1.000  C
  C3902    1.0000 0.06620  0.97444  0.44373  Biso   1.000  C
  C3903    1.0000 0.06619  0.97442  0.44369  Biso   1.000  C
  C3904    1.0000 0.06624  0.97445  0.44369  Biso   1.000  C
  C3905    1.0000 0.11814  0.07161  0.47762  Biso   1.000  C
  C3906    1.0000 0.11815  0.07165  0.47762  Biso   1.000  C
  C3907    1.0000 0.11818  0.07161  0.47762  Biso   1.000  C
  C3908    1.0000 0.54810  0.04839  0.84756  Biso   1.000  C
  C3909    1.0000 0.54809  0.04835  0.84756  Biso   1.000  C
  C3910    1.0000 0.02083  0.98661  0.44342  Biso   1.000  C
  C3911    1.0000 0.02081  0.98665  0.44342  Biso   1.000  C
  C3912    1.0000 0.02080  0.98661  0.44342  Biso   1.000  C
  C3913    1.0000 0.02084  0.98665  0.44342  Biso   1.000  C
  H2649    1.0000 0.41672  0.27408  0.93225  Biso   1.000  H
  H2650    1.0000 0.41669  0.27408  0.93225  Biso   1.000  H
  H2651    1.0000 0.35726  0.39462  0.96366  Biso   1.000  H
  H2652    1.0000 0.35721  0.39458  0.96366  Biso   1.000  H
  H2653    1.0000 0.35722  0.39462  0.96366  Biso   1.000  H
  H2654    1.0000 0.35725  0.39458  0.96366  Biso   1.000  H
  C3914    1.0000 0.39935  0.39381  0.02760  Biso   1.000  C
  C3915    1.0000 0.39930  0.39379  0.02756  Biso   1.000  C
  C3916    1.0000 0.39931  0.39381  0.02760  Biso   1.000  C
  C3917    1.0000 0.39933  0.39379  0.02756  Biso   1.000  C
  H2655    1.0000 0.53910  0.00298  0.77254  Biso   1.000  H
  H2656    1.0000 0.53905  0.00295  0.77254  Biso   1.000  H
  H2657    1.0000 0.53909  0.00295  0.77254  Biso   1.000  H
  H2658    1.0000 0.53906  0.00298  0.77254  Biso   1.000  H
  C3918    1.0000 0.60183  0.14508  0.88098  Biso   1.000  C
  C3919    1.0000 0.60178  0.14506  0.88094  Biso   1.000  C
  C3920    1.0000 0.60179  0.14508  0.88098  Biso   1.000  C
  C3921    1.0000 0.60182  0.14506  0.88094  Biso   1.000  C
  H2659    1.0000 0.62872  0.16440  0.82827  Biso   1.000  H
  H2660    1.0000 0.62866  0.16435  0.82823  Biso   1.000  H
  H2661    1.0000 0.62867  0.16436  0.82827  Biso   1.000  H
  H2662    1.0000 0.62870  0.16438  0.82823  Biso   1.000  H
  H2663    1.0000 0.62869  0.16435  0.82823  Biso   1.000  H
  H2664    1.0000 0.62871  0.16436  0.82827  Biso   1.000  H
  H2665    1.0000 0.62867  0.16438  0.82823  Biso   1.000  H
  H2666    1.0000 0.44375  0.37820  0.07988  Biso   1.000  H
  H2667    1.0000 0.44372  0.37820  0.07988  Biso   1.000  H
  H2668    1.0000 0.06403  0.93783  0.43250  Biso   1.000  H
  H2669    1.0000 0.06399  0.93783  0.43250  Biso   1.000  H
  C3922    1.0000 0.07274  0.08383  0.47731  Biso   1.000  C
  C3923    1.0000 0.07278  0.08383  0.47731  Biso   1.000  C
  H2670    1.0000 0.15077  0.10004  0.48912  Biso   1.000  H
  H2671    1.0000 0.15072  0.10000  0.48912  Biso   1.000  H
  H2672    1.0000 0.15076  0.10000  0.48912  Biso   1.000  H
  H2673    1.0000 0.15073  0.10004  0.48912  Biso   1.000  H
  C3924    1.0000 0.57162  0.10160  0.88814  Biso   1.000  C
  C3925    1.0000 0.57157  0.10156  0.88814  Biso   1.000  C
  C3926    1.0000 0.57161  0.10156  0.88814  Biso   1.000  C
  C3927    1.0000 0.57158  0.10160  0.88814  Biso   1.000  C
  C3928    1.0000 0.02405  0.04132  0.46023  Biso   1.000  C
  C3929    1.0000 0.02404  0.04130  0.46019  Biso   1.000  C
  C3930    1.0000 0.02406  0.04136  0.46023  Biso   1.000  C
  B304     1.0000 0.39284  0.44348  0.06819  Biso   1.000  B
  B305     1.0000 0.39281  0.44348  0.06819  Biso   1.000  B
  B306     1.0000 0.39282  0.44351  0.06819  Biso   1.000  B
  B307     1.0000 0.39285  0.44351  0.06819  Biso   1.000  B
  B308     1.0000 0.62652  0.20600  0.92737  Biso   1.000  B
  B309     1.0000 0.62650  0.20598  0.92734  Biso   1.000  B
  B310     1.0000 0.62651  0.20596  0.92737  Biso   1.000  B
  B311     1.0000 0.62655  0.20600  0.92737  Biso   1.000  B
  B312     1.0000 0.08016  0.14671  0.49690  Biso   1.000  B
  B313     1.0000 0.08012  0.14671  0.49690  Biso   1.000  B
  B314     1.0000 0.08017  0.14674  0.49690  Biso   1.000  B
  H2674    1.0000 0.56710  0.10818  0.92017  Biso   1.000  H
  H2675    1.0000 0.56713  0.10818  0.92017  Biso   1.000  H
  H2676    1.0000 0.99365  0.04942  0.46011  Biso   1.000  H
  H2677    1.0000 0.99369  0.04942  0.46011  Biso   1.000  H
  O564     1.0000 0.36073  0.47220  0.05471  Biso   1.000  O
  O565     1.0000 0.41113  0.45969  0.12028  Biso   1.000  O
  O566     1.0000 0.36072  0.47218  0.05467  Biso   1.000  O
  O567     1.0000 0.36077  0.47220  0.05471  Biso   1.000  O
  O568     1.0000 0.41117  0.45969  0.12028  Biso   1.000  O
  O569     1.0000 0.62364  0.21530  0.97408  Biso   1.000  O
  O570     1.0000 0.66061  0.24880  0.92246  Biso   1.000  O
  O571     1.0000 0.62359  0.21528  0.97404  Biso   1.000  O
  O572     1.0000 0.62359  0.21526  0.97408  Biso   1.000  O
  O573     1.0000 0.66060  0.24876  0.92246  Biso   1.000  O
  O574     1.0000 0.62362  0.21528  0.97404  Biso   1.000  O
  O575     1.0000 0.66064  0.24880  0.92246  Biso   1.000  O
  O576     1.0000 0.62363  0.21526  0.97408  Biso   1.000  O
  O577     1.0000 0.03437  0.16192  0.49381  Biso   1.000  O
  O578     1.0000 0.12476  0.18754  0.50581  Biso   1.000  O
  O579     1.0000 0.03433  0.16192  0.49381  Biso   1.000  O
  O580     1.0000 0.12475  0.18750  0.50581  Biso   1.000  O
  O581     1.0000 0.12480  0.18754  0.50581  Biso   1.000  O
  C3931    1.0000 0.36225  0.50648  0.10289  Biso   1.000  C
  C3932    1.0000 0.36222  0.50648  0.10289  Biso   1.000  C
  C3933    1.0000 0.36223  0.50652  0.10289  Biso   1.000  C
  C3934    1.0000 0.36226  0.50652  0.10289  Biso   1.000  C
  C3935    1.0000 0.39234  0.49989  0.14239  Biso   1.000  C
  C3936    1.0000 0.39235  0.49993  0.14239  Biso   1.000  C
  C3937    1.0000 0.39237  0.49989  0.14239  Biso   1.000  C
  C3938    1.0000 0.65513  0.27169  0.00409  Biso   1.000  C
  C3939    1.0000 0.65509  0.27169  0.00409  Biso   1.000  C
  C3940    1.0000 0.67634  0.28970  0.97149  Biso   1.000  C
  C3941    1.0000 0.67629  0.28968  0.97145  Biso   1.000  C
  C3942    1.0000 0.67629  0.28966  0.97149  Biso   1.000  C
  C3943    1.0000 0.67633  0.28968  0.97145  Biso   1.000  C
  C3944    1.0000 0.67633  0.28966  0.97149  Biso   1.000  C
  C3945    1.0000 0.05756  0.21793  0.50961  Biso   1.000  C
  C3946    1.0000 0.05755  0.21790  0.50961  Biso   1.000  C
  C3947    1.0000 0.05759  0.21793  0.50961  Biso   1.000  C
  C3948    1.0000 0.11148  0.23474  0.51724  Biso   1.000  C
  C3949    1.0000 0.11143  0.23472  0.51720  Biso   1.000  C
  C3950    1.0000 0.11144  0.23474  0.51724  Biso   1.000  C
  C3951    1.0000 0.11147  0.23472  0.51720  Biso   1.000  C
  C3952    1.0000 0.33723  0.54439  0.11458  Biso   1.000  C
  C3953    1.0000 0.33724  0.54442  0.11458  Biso   1.000  C
  C3954    1.0000 0.33727  0.54439  0.11458  Biso   1.000  C
  C3955    1.0000 0.39737  0.53121  0.19359  Biso   1.000  C
  C3956    1.0000 0.39733  0.53121  0.19359  Biso   1.000  C
  C3957    1.0000 0.66941  0.30801  0.05618  Biso   1.000  C
  C3958    1.0000 0.66944  0.30797  0.05618  Biso   1.000  C
  C3959    1.0000 0.66945  0.30801  0.05618  Biso   1.000  C
  C3960    1.0000 0.66940  0.30797  0.05618  Biso   1.000  C
  C3961    1.0000 0.71183  0.34379  0.99077  Biso   1.000  C
  C3962    1.0000 0.71180  0.34379  0.99077  Biso   1.000  C
  C3963    1.0000 0.03279  0.25594  0.51491  Biso   1.000  C
  C3964    1.0000 0.03274  0.25590  0.51491  Biso   1.000  C
  C3965    1.0000 0.03275  0.25594  0.51491  Biso   1.000  C
  C3966    1.0000 0.14059  0.28963  0.53021  Biso   1.000  C
  C3967    1.0000 0.14055  0.28963  0.53021  Biso   1.000  C
  H2678    1.0000 0.31714  0.54882  0.08821  Biso   1.000  H
  C3968    1.0000 0.34237  0.57570  0.16578  Biso   1.000  C
  H2679    1.0000 0.31712  0.54877  0.08817  Biso   1.000  H
  C3969    1.0000 0.34233  0.57570  0.16578  Biso   1.000  C
  H2680    1.0000 0.31713  0.54881  0.08817  Biso   1.000  H
  H2681    1.0000 0.31718  0.54882  0.08821  Biso   1.000  H
  C3970    1.0000 0.37235  0.56911  0.20528  Biso   1.000  C
  H2682    1.0000 0.41745  0.52672  0.22000  Biso   1.000  H
  C3971    1.0000 0.37234  0.56908  0.20528  Biso   1.000  C
  H2683    1.0000 0.41748  0.52672  0.22000  Biso   1.000  H
  C3972    1.0000 0.37238  0.56911  0.20528  Biso   1.000  C
  H2684    1.0000 0.65532  0.29598  0.07810  Biso   1.000  H
  C3973    1.0000 0.70492  0.36212  0.07551  Biso   1.000  C
  H2685    1.0000 0.65536  0.29598  0.07810  Biso   1.000  H
  C3974    1.0000 0.70493  0.36206  0.07547  Biso   1.000  C
  H2686    1.0000 0.65537  0.29602  0.07810  Biso   1.000  H
  C3975    1.0000 0.70496  0.36212  0.07551  Biso   1.000  C
  C3976    1.0000 0.70494  0.36210  0.07547  Biso   1.000  C
  C3977    1.0000 0.70490  0.36206  0.07547  Biso   1.000  C
  H2687    1.0000 0.65533  0.29602  0.07810  Biso   1.000  H
  H2688    1.0000 0.72592  0.35578  0.96885  Biso   1.000  H
  H2689    1.0000 0.72595  0.35578  0.96885  Biso   1.000  H
  C3978    1.0000 0.72603  0.38000  0.04278  Biso   1.000  C
  C3979    1.0000 0.72602  0.37997  0.04278  Biso   1.000  C
  H2690    1.0000 0.99665  0.24461  0.50980  Biso   1.000  H
  H2691    1.0000 0.99668  0.24461  0.50980  Biso   1.000  H
  C3980    1.0000 0.06176  0.31082  0.52793  Biso   1.000  C
  C3981    1.0000 0.06177  0.31086  0.52793  Biso   1.000  C
  C3982    1.0000 0.06179  0.31082  0.52793  Biso   1.000  C
  C3983    1.0000 0.11570  0.32766  0.53563  Biso   1.000  C
  H2692    1.0000 0.17658  0.30092  0.53532  Biso   1.000  H
  C3984    1.0000 0.11564  0.32760  0.53559  Biso   1.000  C
  H2693    1.0000 0.17654  0.30092  0.53532  Biso   1.000  H
  C3985    1.0000 0.11567  0.32766  0.53563  Biso   1.000  C
  H2694    1.0000 0.17659  0.30096  0.53532  Biso   1.000  H
  C3986    1.0000 0.11569  0.32764  0.53559  Biso   1.000  C
  C3987    1.0000 0.11565  0.32764  0.53559  Biso   1.000  C
  C3988    1.0000 0.31387  0.62053  0.18460  Biso   1.000  C
  C3989    1.0000 0.31382  0.62049  0.18460  Biso   1.000  C
  C3990    1.0000 0.31386  0.62049  0.18460  Biso   1.000  C
  C3991    1.0000 0.31383  0.62053  0.18460  Biso   1.000  C
  C3992    1.0000 0.37128  0.60162  0.25749  Biso   1.000  C
  C3993    1.0000 0.37123  0.60158  0.25749  Biso   1.000  C
  C3994    1.0000 0.37124  0.60162  0.25749  Biso   1.000  C
  C3995    1.0000 0.37127  0.60158  0.25749  Biso   1.000  C
  C3996    1.0000 0.72132  0.40132  0.13170  Biso   1.000  C
  C3997    1.0000 0.72135  0.40128  0.13170  Biso   1.000  C
  C3998    1.0000 0.72136  0.40132  0.13170  Biso   1.000  C
  C3999    1.0000 0.72131  0.40128  0.13170  Biso   1.000  C
  C4000    1.0000 0.76344  0.43991  0.07040  Biso   1.000  C
  C4001    1.0000 0.76347  0.43991  0.07040  Biso   1.000  C
  C4002    1.0000 0.03577  0.35434  0.52603  Biso   1.000  C
  C4003    1.0000 0.03581  0.35434  0.52603  Biso   1.000  C
  C4004    1.0000 0.14138  0.38734  0.54551  Biso   1.000  C
  C4005    1.0000 0.14137  0.38730  0.54551  Biso   1.000  C
  C4006    1.0000 0.14141  0.38734  0.54551  Biso   1.000  C
  C4007    1.0000 0.28424  0.59349  0.21319  Biso   1.000  C
  C4008    1.0000 0.28425  0.59353  0.21319  Biso   1.000  C
  C4009    1.0000 0.28427  0.59349  0.21319  Biso   1.000  C
  C4010    1.0000 0.35807  0.66981  0.22829  Biso   1.000  C
  H2695    1.0000 0.29294  0.62681  0.15788  Biso   1.000  H
  C4011    1.0000 0.35804  0.66981  0.22829  Biso   1.000  C
  H2696    1.0000 0.29293  0.62677  0.15788  Biso   1.000  H
  H2697    1.0000 0.29297  0.62681  0.15788  Biso   1.000  H
  C4012    1.0000 0.31295  0.58690  0.25338  Biso   1.000  C
  C4013    1.0000 0.38797  0.66249  0.26729  Biso   1.000  C
  H2698    1.0000 0.39217  0.59591  0.28472  Biso   1.000  H
  C4014    1.0000 0.38793  0.66249  0.26729  Biso   1.000  C
  H2699    1.0000 0.39213  0.59589  0.28468  Biso   1.000  H
  C4015    1.0000 0.38794  0.66253  0.26729  Biso   1.000  C
  H2700    1.0000 0.39215  0.59595  0.28472  Biso   1.000  H
  H2701    1.0000 0.39216  0.59589  0.28468  Biso   1.000  H
  C4016    1.0000 0.38798  0.66253  0.26729  Biso   1.000  C
  H2702    1.0000 0.39218  0.59595  0.28472  Biso   1.000  H
  C4017    1.0000 0.71353  0.45371  0.13201  Biso   1.000  C
  H2703    1.0000 0.70512  0.38641  0.15289  Biso   1.000  H
  C4018    1.0000 0.78023  0.41841  0.14599  Biso   1.000  C
  C4019    1.0000 0.71355  0.45369  0.13197  Biso   1.000  C
  H2704    1.0000 0.70515  0.38638  0.15289  Biso   1.000  H
  C4020    1.0000 0.78027  0.41841  0.14599  Biso   1.000  C
  C4021    1.0000 0.71356  0.45371  0.13201  Biso   1.000  C
  H2705    1.0000 0.70516  0.38641  0.15289  Biso   1.000  H
  C4022    1.0000 0.71351  0.45369  0.13197  Biso   1.000  C
  H2706    1.0000 0.70511  0.38638  0.15289  Biso   1.000  H
  C4023    1.0000 0.73602  0.47300  0.10068  Biso   1.000  C
  H2707    1.0000 0.77941  0.45461  0.04910  Biso   1.000  H
  C4024    1.0000 0.80194  0.43829  0.11458  Biso   1.000  C
  C4025    1.0000 0.73606  0.47300  0.10068  Biso   1.000  C
  H2708    1.0000 0.77945  0.45461  0.04910  Biso   1.000  H
  H2709    1.0000 0.99726  0.34232  0.51662  Biso   1.000  H
  H2710    1.0000 0.99729  0.34232  0.51662  Biso   1.000  H
  H2711    1.0000 0.99730  0.34236  0.51662  Biso   1.000  H
  H2712    1.0000 0.99727  0.34236  0.51662  Biso   1.000  H
  C4026    1.0000 0.06917  0.39852  0.58071  Biso   1.000  C
  C4027    1.0000 0.06258  0.37752  0.49330  Biso   1.000  C
  C4028    1.0000 0.06254  0.37752  0.49330  Biso   1.000  C
  C4029    1.0000 0.06918  0.39856  0.58071  Biso   1.000  C
  C4030    1.0000 0.06920  0.39852  0.58071  Biso   1.000  C
  C4031    1.0000 0.12309  0.41744  0.58873  Biso   1.000  C
  H2713    1.0000 0.18000  0.39994  0.55503  Biso   1.000  H
  C4032    1.0000 0.11649  0.39614  0.50101  Biso   1.000  C
  H2714    1.0000 0.17995  0.39992  0.55500  Biso   1.000  H
  C4033    1.0000 0.11645  0.39610  0.50101  Biso   1.000  C
  H2715    1.0000 0.17996  0.39994  0.55503  Biso   1.000  H
  C4034    1.0000 0.11646  0.39614  0.50101  Biso   1.000  C
  H2716    1.0000 0.17998  0.39992  0.55500  Biso   1.000  H
  C4035    1.0000 0.12312  0.41744  0.58873  Biso   1.000  C
  C4036    1.0000 0.22967  0.57680  0.20021  Biso   1.000  C
  C4037    1.0000 0.22962  0.57678  0.20017  Biso   1.000  C
  C4038    1.0000 0.22964  0.57684  0.20021  Biso   1.000  C
  C4039    1.0000 0.22966  0.57678  0.20017  Biso   1.000  C
  C4040    1.0000 0.22968  0.57684  0.20021  Biso   1.000  C
  C4041    1.0000 0.36837  0.72272  0.23119  Biso   1.000  C
  C4042    1.0000 0.36836  0.72268  0.23119  Biso   1.000  C
  C4043    1.0000 0.28717  0.56341  0.28049  Biso   1.000  C
  C4044    1.0000 0.28713  0.56341  0.28049  Biso   1.000  C
  C4045    1.0000 0.42807  0.70802  0.30919  Biso   1.000  C
  C4046    1.0000 0.42806  0.70799  0.30919  Biso   1.000  C
  C4047    1.0000 0.42810  0.70802  0.30919  Biso   1.000  C
  C4048    1.0000 0.68555  0.48101  0.15920  Biso   1.000  C
  C4049    1.0000 0.81253  0.41340  0.18530  Biso   1.000  C
  C4050    1.0000 0.81257  0.41340  0.18530  Biso   1.000  C
  C4051    1.0000 0.73044  0.51950  0.09650  Biso   1.000  C
  C4052    1.0000 0.73048  0.51950  0.09650  Biso   1.000  C
  C4053    1.0000 0.85593  0.45338  0.12268  Biso   1.000  C
  C4054    1.0000 0.85596  0.45338  0.12268  Biso   1.000  C
  C4055    1.0000 0.85597  0.45342  0.12268  Biso   1.000  C
  C4056    1.0000 0.85594  0.45342  0.12268  Biso   1.000  C
  C4057    1.0000 0.04918  0.42656  0.61754  Biso   1.000  C
  C4058    1.0000 0.04916  0.42651  0.61750  Biso   1.000  C
  C4059    1.0000 0.04921  0.42655  0.61750  Biso   1.000  C
  C4060    1.0000 0.04922  0.42656  0.61754  Biso   1.000  C
  C4061    1.0000 0.04917  0.42655  0.61750  Biso   1.000  C
  C4062    1.0000 0.02787  0.37993  0.45372  Biso   1.000  C
  C4063    1.0000 0.15710  0.46446  0.63354  Biso   1.000  C
  C4064    1.0000 0.15707  0.46441  0.63350  Biso   1.000  C
  C4065    1.0000 0.15708  0.46444  0.63350  Biso   1.000  C
  C4066    1.0000 0.15713  0.46446  0.63354  Biso   1.000  C
  C4067    1.0000 0.13567  0.41711  0.46921  Biso   1.000  C
  C4068    1.0000 0.13564  0.41711  0.46921  Biso   1.000  C
  C4069    1.0000 0.13568  0.41715  0.46921  Biso   1.000  C
  C4070    1.0000 0.13565  0.41715  0.46921  Biso   1.000  C
  C4071    1.0000 0.20377  0.55342  0.22732  Biso   1.000  C
  C4072    1.0000 0.20372  0.55341  0.22728  Biso   1.000  C
  C4073    1.0000 0.20376  0.55341  0.22728  Biso   1.000  C
  H2717    1.0000 0.21046  0.58132  0.17330  Biso   1.000  H
  H2718    1.0000 0.21042  0.58128  0.17330  Biso   1.000  H
  H2719    1.0000 0.21043  0.58132  0.17330  Biso   1.000  H
  H2720    1.0000 0.21045  0.58128  0.17330  Biso   1.000  H
  C4074    1.0000 0.40846  0.76821  0.27310  Biso   1.000  C
  C4075    1.0000 0.34236  0.73081  0.18739  Biso   1.000  C
  C4076    1.0000 0.40850  0.76821  0.27310  Biso   1.000  C
  C4077    1.0000 0.23246  0.54670  0.26740  Biso   1.000  C
  C4078    1.0000 0.23243  0.54670  0.26740  Biso   1.000  C
  C4079    1.0000 0.23244  0.54674  0.26740  Biso   1.000  C
  C4080    1.0000 0.23247  0.54674  0.26740  Biso   1.000  C
  H2721    1.0000 0.30635  0.55903  0.30729  Biso   1.000  H
  H2722    1.0000 0.30634  0.55899  0.30729  Biso   1.000  H
  H2723    1.0000 0.30639  0.55903  0.30729  Biso   1.000  H
  C4081    1.0000 0.43827  0.76083  0.31210  Biso   1.000  C
  C4082    1.0000 0.46290  0.70151  0.35082  Biso   1.000  C
  C4083    1.0000 0.43826  0.76079  0.31210  Biso   1.000  C
  C4084    1.0000 0.46285  0.70149  0.35078  Biso   1.000  C
  C4085    1.0000 0.46287  0.70155  0.35082  Biso   1.000  C
  C4086    1.0000 0.43830  0.76083  0.31210  Biso   1.000  C
  C4087    1.0000 0.46290  0.70153  0.35078  Biso   1.000  C
  C4088    1.0000 0.46291  0.70155  0.35082  Biso   1.000  C
  C4089    1.0000 0.46286  0.70153  0.35078  Biso   1.000  C
  C4090    1.0000 0.68004  0.52751  0.15502  Biso   1.000  C
  C4091    1.0000 0.66273  0.46029  0.19340  Biso   1.000  C
  C4092    1.0000 0.68006  0.52750  0.15498  Biso   1.000  C
  C4093    1.0000 0.66276  0.46029  0.19340  Biso   1.000  C
  C4094    1.0000 0.68007  0.52751  0.15502  Biso   1.000  C
  C4095    1.0000 0.66277  0.46033  0.19340  Biso   1.000  C
  C4096    1.0000 0.68003  0.52750  0.15498  Biso   1.000  C
  C4097    1.0000 0.66274  0.46033  0.19340  Biso   1.000  C
  H2724    1.0000 0.79806  0.40012  0.20629  Biso   1.000  H
  C4098    1.0000 0.86645  0.42849  0.19340  Biso   1.000  C
  H2725    1.0000 0.79805  0.40008  0.20629  Biso   1.000  H
  C4099    1.0000 0.86646  0.42852  0.19340  Biso   1.000  C
  C4100    1.0000 0.86642  0.42849  0.19340  Biso   1.000  C
  C4101    1.0000 0.70243  0.54669  0.12369  Biso   1.000  C
  C4102    1.0000 0.74745  0.53658  0.05800  Biso   1.000  C
  C4103    1.0000 0.70247  0.54669  0.12369  Biso   1.000  C
  C4104    1.0000 0.74743  0.53657  0.05796  Biso   1.000  C
  C4105    1.0000 0.74746  0.53662  0.05800  Biso   1.000  C
  C4106    1.0000 0.74744  0.53660  0.05796  Biso   1.000  C
  C4107    1.0000 0.88814  0.44850  0.16210  Biso   1.000  C
  H2726    1.0000 0.87043  0.46679  0.10180  Biso   1.000  H
  H2727    1.0000 0.87046  0.46679  0.10180  Biso   1.000  H
  C4108    1.0000 0.88818  0.44850  0.16210  Biso   1.000  C
  H2728    1.0000 0.87047  0.46683  0.10180  Biso   1.000  H
  H2729    1.0000 0.87044  0.46683  0.10180  Biso   1.000  H
  C4109    1.0000 0.99201  0.40266  0.61204  Biso   1.000  C
  C4110    1.0000 0.99200  0.40264  0.61200  Biso   1.000  C
  C4111    1.0000 0.99196  0.40264  0.61200  Biso   1.000  C
  C4112    1.0000 0.08328  0.47353  0.66231  Biso   1.000  C
  C4113    1.0000 0.08329  0.47356  0.66231  Biso   1.000  C
  C4114    1.0000 0.08331  0.47353  0.66231  Biso   1.000  C
  H2730    1.0000 0.99176  0.36742  0.44853  Biso   1.000  H
  H2731    1.0000 0.99178  0.36740  0.44849  Biso   1.000  H
  H2732    1.0000 0.99181  0.36746  0.44853  Biso   1.000  H
  H2733    1.0000 0.99175  0.36740  0.44849  Biso   1.000  H
  H2734    1.0000 0.99180  0.36742  0.44853  Biso   1.000  H
  H2735    1.0000 0.99177  0.36746  0.44853  Biso   1.000  H
  C4115    1.0000 0.04718  0.40083  0.42193  Biso   1.000  C
  C4116    1.0000 0.04713  0.40081  0.42189  Biso   1.000  C
  C4117    1.0000 0.04716  0.40081  0.42189  Biso   1.000  C
  C4118    1.0000 0.13720  0.49245  0.67033  Biso   1.000  C
  C4119    1.0000 0.21519  0.48906  0.64434  Biso   1.000  C
  C4120    1.0000 0.21517  0.48900  0.64430  Biso   1.000  C
  C4121    1.0000 0.21521  0.48904  0.64430  Biso   1.000  C
  C4122    1.0000 0.13723  0.49245  0.67033  Biso   1.000  C
  C4123    1.0000 0.21523  0.48906  0.64434  Biso   1.000  C
  C4124    1.0000 0.21518  0.48904  0.64430  Biso   1.000  C
  H2736    1.0000 0.17179  0.42962  0.47440  Biso   1.000  H
  C4125    1.0000 0.10107  0.41951  0.42960  Biso   1.000  C
  H2737    1.0000 0.17175  0.42962  0.47440  Biso   1.000  H
  C4126    1.0000 0.10103  0.41951  0.42960  Biso   1.000  C
  O582     1.0000 0.15194  0.53282  0.22391  Biso   1.000  O
  O583     1.0000 0.15193  0.53280  0.22387  Biso   1.000  O
  O584     1.0000 0.15196  0.53280  0.22387  Biso   1.000  O
  O585     1.0000 0.15198  0.53282  0.22391  Biso   1.000  O
  H2738    1.0000 0.41527  0.80352  0.27499  Biso   1.000  H
  H2739    1.0000 0.41530  0.80352  0.27499  Biso   1.000  H
  H2740    1.0000 0.33874  0.70101  0.15509  Biso   1.000  H
  H2741    1.0000 0.36407  0.76552  0.18921  Biso   1.000  H
  C4127    1.0000 0.28837  0.73190  0.18821  Biso   1.000  C
  H2742    1.0000 0.36406  0.76550  0.18917  Biso   1.000  H
  C4128    1.0000 0.28833  0.73190  0.18821  Biso   1.000  C
  C4129    1.0000 0.28834  0.73194  0.18821  Biso   1.000  C
  H2743    1.0000 0.33878  0.70101  0.15509  Biso   1.000  H
  C4130    1.0000 0.28838  0.73194  0.18821  Biso   1.000  C
  O586     1.0000 0.20125  0.52222  0.28990  Biso   1.000  O
  O587     1.0000 0.20128  0.52222  0.28990  Biso   1.000  O
  H2744    1.0000 0.46510  0.79133  0.34021  Biso   1.000  H
  H2745    1.0000 0.46506  0.79133  0.34021  Biso   1.000  H
  H2746    1.0000 0.49539  0.73394  0.36903  Biso   1.000  H
  H2747    1.0000 0.47176  0.66922  0.33541  Biso   1.000  H
  C4131    1.0000 0.43349  0.69472  0.38951  Biso   1.000  C
  H2748    1.0000 0.49538  0.73392  0.36899  Biso   1.000  H
  C4132    1.0000 0.43345  0.69472  0.38951  Biso   1.000  C
  H2749    1.0000 0.47180  0.66922  0.33541  Biso   1.000  H
  H2750    1.0000 0.49542  0.73394  0.36903  Biso   1.000  H
  H2751    1.0000 0.66124  0.54572  0.17322  Biso   1.000  H
  H2752    1.0000 0.66126  0.54570  0.17318  Biso   1.000  H
  H2753    1.0000 0.66127  0.54572  0.17322  Biso   1.000  H
  H2754    1.0000 0.66122  0.54570  0.17318  Biso   1.000  H
  H2755    1.0000 0.68564  0.44500  0.20811  Biso   1.000  H
  H2756    1.0000 0.66134  0.49122  0.22178  Biso   1.000  H
  C4133    1.0000 0.60672  0.41541  0.16369  Biso   1.000  C
  H2757    1.0000 0.68566  0.44498  0.20807  Biso   1.000  H
  H2758    1.0000 0.66136  0.49118  0.22178  Biso   1.000  H
  C4134    1.0000 0.60676  0.41541  0.16369  Biso   1.000  C
  H2759    1.0000 0.68569  0.44504  0.20811  Biso   1.000  H
  H2760    1.0000 0.66137  0.49122  0.22178  Biso   1.000  H
  H2761    1.0000 0.68563  0.44498  0.20807  Biso   1.000  H
  H2762    1.0000 0.66133  0.49118  0.22178  Biso   1.000  H
  H2763    1.0000 0.68565  0.44504  0.20811  Biso   1.000  H
  O588     1.0000 0.90595  0.42752  0.23030  Biso   1.000  O
  O589     1.0000 0.90599  0.42752  0.23030  Biso   1.000  O
  H2764    1.0000 0.69873  0.57780  0.12090  Biso   1.000  H
  H2765    1.0000 0.69877  0.57780  0.12090  Biso   1.000  H
  H2766    1.0000 0.74232  0.50419  0.02698  Biso   1.000  H
  H2767    1.0000 0.72715  0.55690  0.04840  Biso   1.000  H
  C4135    1.0000 0.80564  0.57330  0.08360  Biso   1.000  C
  H2768    1.0000 0.74236  0.50419  0.02698  Biso   1.000  H
  O590     1.0000 0.94366  0.46430  0.18011  Biso   1.000  O
  O591     1.0000 0.94365  0.46429  0.18007  Biso   1.000  O
  O592     1.0000 0.94362  0.46429  0.18007  Biso   1.000  O
  H2769    1.0000 0.98759  0.41333  0.64593  Biso   1.000  H
  H2770    1.0000 0.97879  0.36243  0.59403  Biso   1.000  H
  C4136    1.0000 0.96120  0.42584  0.58052  Biso   1.000  C
  H2771    1.0000 0.97878  0.36241  0.59400  Biso   1.000  H
  H2772    1.0000 0.98760  0.41336  0.64593  Biso   1.000  H
  H2773    1.0000 0.97880  0.36246  0.59403  Biso   1.000  H
  H2774    1.0000 0.97879  0.36244  0.59400  Biso   1.000  H
  H2775    1.0000 0.06989  0.49224  0.68702  Biso   1.000  H
  H2776    1.0000 0.06992  0.49224  0.68702  Biso   1.000  H
  O593     1.0000 0.02616  0.40794  0.38022  Biso   1.000  O
  O594     1.0000 0.02615  0.40790  0.38022  Biso   1.000  O
  O595     1.0000 0.02620  0.40794  0.38022  Biso   1.000  O
  H2777    1.0000 0.16002  0.52396  0.70034  Biso   1.000  H
  H2778    1.0000 0.15997  0.52394  0.70030  Biso   1.000  H
  H2779    1.0000 0.15998  0.52396  0.70034  Biso   1.000  H
  H2780    1.0000 0.16000  0.52394  0.70030  Biso   1.000  H
  H2781    1.0000 0.22499  0.52595  0.64612  Biso   1.000  H
  H2782    1.0000 0.22560  0.46615  0.61723  Biso   1.000  H
  C4137    1.0000 0.24190  0.49203  0.69624  Biso   1.000  C
  H2783    1.0000 0.22498  0.52592  0.64612  Biso   1.000  H
  H2784    1.0000 0.22557  0.46615  0.61723  Biso   1.000  H
  C4138    1.0000 0.24191  0.49207  0.69624  Biso   1.000  C
  H2785    1.0000 0.22502  0.52595  0.64612  Biso   1.000  H
  O596     1.0000 0.11558  0.43584  0.39462  Biso   1.000  O
  O597     1.0000 0.11552  0.43579  0.39459  Biso   1.000  O
  O598     1.0000 0.11557  0.43583  0.39459  Biso   1.000  O
  O599     1.0000 0.11556  0.43579  0.39459  Biso   1.000  O
  O600     1.0000 0.11553  0.43583  0.39459  Biso   1.000  O
  B315     1.0000 0.15076  0.51473  0.26210  Biso   1.000  B
  B316     1.0000 0.15072  0.51469  0.26210  Biso   1.000  B
  B317     1.0000 0.15075  0.51469  0.26210  Biso   1.000  B
  B318     1.0000 0.15073  0.51473  0.26210  Biso   1.000  B
  H2786    1.0000 0.26508  0.71662  0.15331  Biso   1.000  H
  H2787    1.0000 0.29129  0.76952  0.20691  Biso   1.000  H
  H2788    1.0000 0.27436  0.71021  0.20490  Biso   1.000  H
  H2789    1.0000 0.26503  0.71660  0.15327  Biso   1.000  H
  H2790    1.0000 0.29124  0.76950  0.20687  Biso   1.000  H
  H2791    1.0000 0.26504  0.71662  0.15331  Biso   1.000  H
  H2792    1.0000 0.29125  0.76952  0.20691  Biso   1.000  H
  H2793    1.0000 0.26507  0.71660  0.15327  Biso   1.000  H
  H2794    1.0000 0.29128  0.76950  0.20687  Biso   1.000  H
  H2795    1.0000 0.40396  0.66002  0.37239  Biso   1.000  H
  H2796    1.0000 0.42108  0.72462  0.40152  Biso   1.000  H
  H2797    1.0000 0.45730  0.69543  0.41840  Biso   1.000  H
  H2798    1.0000 0.45727  0.69543  0.41840  Biso   1.000  H
  H2799    1.0000 0.42109  0.72466  0.40152  Biso   1.000  H
  H2800    1.0000 0.40400  0.66002  0.37239  Biso   1.000  H
  H2801    1.0000 0.42112  0.72462  0.40152  Biso   1.000  H
  H2802    1.0000 0.59504  0.40001  0.18580  Biso   1.000  H
  H2803    1.0000 0.58293  0.43169  0.15320  Biso   1.000  H
  H2804    1.0000 0.60742  0.38652  0.13372  Biso   1.000  H
  H2805    1.0000 0.58297  0.43169  0.15320  Biso   1.000  H
  H2806    1.0000 0.60745  0.38650  0.13368  Biso   1.000  H
  H2807    1.0000 0.58298  0.43173  0.15320  Biso   1.000  H
  H2808    1.0000 0.60746  0.38652  0.13372  Biso   1.000  H
  H2809    1.0000 0.60741  0.38650  0.13368  Biso   1.000  H
  H2810    1.0000 0.58294  0.43173  0.15320  Biso   1.000  H
  B319     1.0000 0.94974  0.45141  0.22109  Biso   1.000  B
  B320     1.0000 0.94976  0.45137  0.22109  Biso   1.000  B
  B321     1.0000 0.94977  0.45141  0.22109  Biso   1.000  B
  B322     1.0000 0.94973  0.45137  0.22109  Biso   1.000  B
  H2811    1.0000 0.82235  0.56070  0.10641  Biso   1.000  H
  H2812    1.0000 0.82214  0.57139  0.05750  Biso   1.000  H
  H2813    1.0000 0.80914  0.61088  0.10308  Biso   1.000  H
  H2814    1.0000 0.82234  0.56068  0.10637  Biso   1.000  H
  H2815    1.0000 0.82236  0.56073  0.10641  Biso   1.000  H
  H2816    1.0000 0.82215  0.57142  0.05750  Biso   1.000  H
  H2817    1.0000 0.80915  0.61091  0.10308  Biso   1.000  H
  H2818    1.0000 0.94910  0.45142  0.60282  Biso   1.000  H
  H2819    1.0000 0.93139  0.39575  0.55263  Biso   1.000  H
  H2820    1.0000 0.98407  0.44462  0.56673  Biso   1.000  H
  H2821    1.0000 0.93137  0.39573  0.55260  Biso   1.000  H
  H2822    1.0000 0.98410  0.44462  0.56673  Biso   1.000  H
  H2823    1.0000 0.94911  0.45146  0.60282  Biso   1.000  H
  H2824    1.0000 0.93142  0.39575  0.55263  Biso   1.000  H
  H2825    1.0000 0.98411  0.44466  0.56673  Biso   1.000  H
  H2826    1.0000 0.98408  0.44466  0.56673  Biso   1.000  H
  B323     1.0000 0.06717  0.43321  0.36519  Biso   1.000  B
  B324     1.0000 0.06713  0.43321  0.36519  Biso   1.000  B
  H2827    1.0000 0.23459  0.45465  0.69302  Biso   1.000  H
  H2828    1.0000 0.22850  0.51132  0.72191  Biso   1.000  H
  H2829    1.0000 0.27930  0.51066  0.70654  Biso   1.000  H
  H2830    1.0000 0.22846  0.51132  0.72191  Biso   1.000  H
  H2831    1.0000 0.22851  0.51136  0.72191  Biso   1.000  H
  H2832    1.0000 0.27933  0.51066  0.70654  Biso   1.000  H
  H2833    1.0000 0.23463  0.45465  0.69302  Biso   1.000  H
  H2834    1.0000 0.22847  0.51136  0.72191  Biso   1.000  H
  C4139    1.0000 0.10065  0.48883  0.27252  Biso   1.000  C
  C4140    1.0000 0.10063  0.48878  0.27248  Biso   1.000  C
  C4141    1.0000 0.10067  0.48882  0.27248  Biso   1.000  C
  C4142    1.0000 0.10069  0.48883  0.27252  Biso   1.000  C
  C4143    1.0000 0.10064  0.48882  0.27248  Biso   1.000  C
  C4144    1.0000 0.00636  0.45511  0.25369  Biso   1.000  C
  C4145    1.0000 0.00632  0.45511  0.25369  Biso   1.000  C
  C4146    1.0000 0.06256  0.44944  0.32371  Biso   1.000  C
  C4147    1.0000 0.06255  0.44940  0.32371  Biso   1.000  C
  C4148    1.0000 0.06260  0.44944  0.32371  Biso   1.000  C
  C4149    1.0000 0.05053  0.47940  0.24289  Biso   1.000  C
  C4150    1.0000 0.05057  0.47940  0.24289  Biso   1.000  C
  C4151    1.0000 0.10675  0.47381  0.31291  Biso   1.000  C
  C4152    1.0000 0.10676  0.47384  0.31291  Biso   1.000  C
  C4153    1.0000 0.10679  0.47381  0.31291  Biso   1.000  C
  C4154    1.0000 0.01244  0.44012  0.29409  Biso   1.000  C
  C4155    1.0000 0.01243  0.44008  0.29409  Biso   1.000  C
  C4156    1.0000 0.01247  0.44012  0.29409  Biso   1.000  C
  H2835    1.0000 0.04655  0.48939  0.21590  Biso   1.000  H
  H2836    1.0000 0.04651  0.48939  0.21590  Biso   1.000  H
  H2837    1.0000 0.04652  0.48943  0.21590  Biso   1.000  H
  H2838    1.0000 0.04656  0.48943  0.21590  Biso   1.000  H
  H2839    1.0000 0.14026  0.48002  0.33270  Biso   1.000  H
  H2840    1.0000 0.14025  0.47999  0.33270  Biso   1.000  H
  H2841    1.0000 0.98285  0.42380  0.30129  Biso   1.000  H
  H2842    1.0000 0.98288  0.42380  0.30129  Biso   1.000  H
  H2843    1.0000 0.98289  0.42383  0.30129  Biso   1.000  H
  H2844    1.0000 0.98286  0.42383  0.30129  Biso   1.000  H
  C4157    1.0000 0.98773  0.56000  0.70597  Biso   1.000  C
  C4158    1.0000 0.93763  0.55064  0.67634  Biso   1.000  C
  C4159    1.0000 0.93760  0.55064  0.67634  Biso   1.000  C
  C4160    1.0000 0.93761  0.55068  0.67634  Biso   1.000  C
  C4161    1.0000 0.93764  0.55068  0.67634  Biso   1.000  C
  C4162    1.0000 0.99383  0.54497  0.74636  Biso   1.000  C
  C4163    1.0000 0.99380  0.54497  0.74636  Biso   1.000  C
  H2845    1.0000 0.01731  0.57629  0.69876  Biso   1.000  H
  H2846    1.0000 0.01732  0.57623  0.69873  Biso   1.000  H
  H2847    1.0000 0.01734  0.57629  0.69876  Biso   1.000  H
  H2848    1.0000 0.01730  0.57627  0.69873  Biso   1.000  H
  H2849    1.0000 0.01729  0.57623  0.69873  Biso   1.000  H
  H2850    1.0000 0.01733  0.57627  0.69873  Biso   1.000  H
  C4164    1.0000 0.89344  0.52628  0.68715  Biso   1.000  C
  C4165    1.0000 0.89339  0.52624  0.68715  Biso   1.000  C
  C4166    1.0000 0.89340  0.52628  0.68715  Biso   1.000  C
  C4167    1.0000 0.89343  0.52624  0.68715  Biso   1.000  C
  C4168    1.0000 0.98775  0.55997  0.70597  Biso   1.000  C
  B325     1.0000 0.93303  0.56687  0.63486  Biso   1.000  B
  C4169    1.0000 0.98771  0.55995  0.70593  Biso   1.000  C
  B326     1.0000 0.93301  0.56685  0.63483  Biso   1.000  B
  B327     1.0000 0.93298  0.56685  0.63483  Biso   1.000  B
  C4170    1.0000 0.98772  0.55997  0.70597  Biso   1.000  C
  C4171    1.0000 0.98774  0.55995  0.70593  Biso   1.000  C
  C4172    1.0000 0.98776  0.56000  0.70597  Biso   1.000  C
  C4173    1.0000 0.94966  0.52068  0.75717  Biso   1.000  C
  C4174    1.0000 0.94961  0.52066  0.75713  Biso   1.000  C
  C4175    1.0000 0.94962  0.52068  0.75717  Biso   1.000  C
  C4176    1.0000 0.94965  0.52066  0.75713  Biso   1.000  C
  B328     1.0000 0.05042  0.54867  0.77897  Biso   1.000  B
  B329     1.0000 0.05041  0.54865  0.77893  Biso   1.000  B
  B330     1.0000 0.05043  0.54871  0.77897  Biso   1.000  B
  C4177    1.0000 0.89951  0.51125  0.72754  Biso   1.000  C
  C4178    1.0000 0.89954  0.51125  0.72754  Biso   1.000  C
  C4179    1.0000 0.89952  0.51128  0.72754  Biso   1.000  C
  C4180    1.0000 0.89955  0.51128  0.72754  Biso   1.000  C
  H2851    1.0000 0.85993  0.52006  0.66736  Biso   1.000  H
  H2852    1.0000 0.85994  0.52009  0.66736  Biso   1.000  H
  H2853    1.0000 0.85989  0.52006  0.66736  Biso   1.000  H
  O601     1.0000 0.97403  0.59215  0.61984  Biso   1.000  O
  O602     1.0000 0.88461  0.56424  0.60543  Biso   1.000  O
  O603     1.0000 0.97399  0.59215  0.61984  Biso   1.000  O
  O604     1.0000 0.97400  0.59218  0.61984  Biso   1.000  O
  O605     1.0000 0.88462  0.56427  0.60543  Biso   1.000  O
  O606     1.0000 0.88458  0.56424  0.60543  Biso   1.000  O
  O607     1.0000 0.97404  0.59218  0.61984  Biso   1.000  O
  H2854    1.0000 0.95364  0.51069  0.78416  Biso   1.000  H
  H2855    1.0000 0.95363  0.51065  0.78416  Biso   1.000  H
  H2856    1.0000 0.95361  0.51069  0.78416  Biso   1.000  H
  O608     1.0000 0.05649  0.53578  0.81994  Biso   1.000  O
  O609     1.0000 0.09420  0.57256  0.76975  Biso   1.000  O
  O610     1.0000 0.05653  0.53578  0.81994  Biso   1.000  O
  O611     1.0000 0.09424  0.57256  0.76975  Biso   1.000  O
  O612     1.0000 0.09425  0.57260  0.76975  Biso   1.000  O
  O613     1.0000 0.09421  0.57260  0.76975  Biso   1.000  O
  B331     1.0000 0.84943  0.48535  0.73796  Biso   1.000  B
  B332     1.0000 0.84944  0.48539  0.73796  Biso   1.000  B
  B333     1.0000 0.84940  0.48539  0.73796  Biso   1.000  B
  B334     1.0000 0.84939  0.48535  0.73796  Biso   1.000  B
  C4181    1.0000 0.95302  0.59925  0.57813  Biso   1.000  C
  C4182    1.0000 0.95298  0.59925  0.57813  Biso   1.000  C
  C4183    1.0000 0.89913  0.58057  0.57046  Biso   1.000  C
  C4184    1.0000 0.89911  0.58055  0.57042  Biso   1.000  C
  C4185    1.0000 0.89908  0.58055  0.57042  Biso   1.000  C
  C4186    1.0000 0.89909  0.58057  0.57046  Biso   1.000  C
  C4187    1.0000 0.11201  0.55158  0.83795  Biso   1.000  C
  C4188    1.0000 0.11205  0.55158  0.83795  Biso   1.000  C
  C4189    1.0000 0.13370  0.57159  0.80666  Biso   1.000  C
  C4190    1.0000 0.13373  0.57156  0.80666  Biso   1.000  C
  C4191    1.0000 0.13374  0.57159  0.80666  Biso   1.000  C
  C4192    1.0000 0.13369  0.57156  0.80666  Biso   1.000  C
  O614     1.0000 0.79891  0.47786  0.71015  Biso   1.000  O
  O615     1.0000 0.79895  0.47786  0.71015  Biso   1.000  O
  O616     1.0000 0.84822  0.46727  0.77614  Biso   1.000  O
  O617     1.0000 0.84825  0.46727  0.77614  Biso   1.000  O
  C4193    1.0000 0.97232  0.62015  0.54633  Biso   1.000  C
  C4194    1.0000 0.97228  0.62015  0.54633  Biso   1.000  C
  C4195    1.0000 0.86452  0.58297  0.53084  Biso   1.000  C
  C4196    1.0000 0.86451  0.58293  0.53084  Biso   1.000  C
  C4197    1.0000 0.86449  0.58297  0.53084  Biso   1.000  C
  C4198    1.0000 0.14423  0.54670  0.87738  Biso   1.000  C
  C4199    1.0000 0.14424  0.54665  0.87734  Biso   1.000  C
  C4200    1.0000 0.14426  0.54670  0.87738  Biso   1.000  C
  C4201    1.0000 0.14422  0.54668  0.87734  Biso   1.000  C
  C4202    1.0000 0.14421  0.54665  0.87734  Biso   1.000  C
  C4203    1.0000 0.14425  0.54668  0.87734  Biso   1.000  C
  C4204    1.0000 0.18762  0.58668  0.81475  Biso   1.000  C
  C4205    1.0000 0.76773  0.45338  0.73265  Biso   1.000  C
  C4206    1.0000 0.76772  0.45334  0.73265  Biso   1.000  C
  C4207    1.0000 0.76769  0.45338  0.73265  Biso   1.000  C
  C4208    1.0000 0.79642  0.44666  0.77273  Biso   1.000  C
  C4209    1.0000 0.79639  0.44666  0.77273  Biso   1.000  C
  C4210    1.0000 0.93762  0.62257  0.50675  Biso   1.000  C
  C4211    1.0000 0.93760  0.62255  0.50671  Biso   1.000  C
  C4212    1.0000 0.93757  0.62255  0.50671  Biso   1.000  C
  H2857    1.0000 0.00840  0.63266  0.55152  Biso   1.000  H
  H2858    1.0000 0.00839  0.63262  0.55152  Biso   1.000  H
  C4213    1.0000 0.88370  0.60394  0.49905  Biso   1.000  C
  H2859    1.0000 0.82841  0.57046  0.52565  Biso   1.000  H
  H2860    1.0000 0.82839  0.57044  0.52561  Biso   1.000  H
  C4214    1.0000 0.88371  0.60398  0.49905  Biso   1.000  C
  H2861    1.0000 0.12973  0.53329  0.89825  Biso   1.000  H
  C4215    1.0000 0.19822  0.56179  0.88547  Biso   1.000  C
  H2862    1.0000 0.12972  0.53325  0.89825  Biso   1.000  H
  C4216    1.0000 0.19824  0.56177  0.88543  Biso   1.000  C
  C4217    1.0000 0.19826  0.56179  0.88547  Biso   1.000  C
  C4218    1.0000 0.19821  0.56177  0.88543  Biso   1.000  C
  C4219    1.0000 0.21993  0.58167  0.85406  Biso   1.000  C
  H2863    1.0000 0.20210  0.59996  0.79376  Biso   1.000  H
  H2864    1.0000 0.20214  0.59996  0.79376  Biso   1.000  H
  C4220    1.0000 0.21994  0.58171  0.85406  Biso   1.000  C
  H2865    1.0000 0.20215  0.60000  0.79376  Biso   1.000  H
  H2866    1.0000 0.20211  0.60000  0.79376  Biso   1.000  H
  C4221    1.0000 0.71303  0.43667  0.71956  Biso   1.000  C
  C4222    1.0000 0.71301  0.43665  0.71952  Biso   1.000  C
  C4223    1.0000 0.71298  0.43665  0.71952  Biso   1.000  C
  C4224    1.0000 0.77052  0.42328  0.79984  Biso   1.000  C
  C4225    1.0000 0.77051  0.42324  0.79984  Biso   1.000  C
  C4226    1.0000 0.77049  0.42328  0.79984  Biso   1.000  C
  C4227    1.0000 0.96442  0.64574  0.47403  Biso   1.000  C
  C4228    1.0000 0.96439  0.64574  0.47403  Biso   1.000  C
  C4229    1.0000 0.96440  0.64577  0.47403  Biso   1.000  C
  C4230    1.0000 0.96443  0.64577  0.47403  Biso   1.000  C
  C4231    1.0000 0.85882  0.61274  0.45455  Biso   1.000  C
  C4232    1.0000 0.85877  0.61272  0.45451  Biso   1.000  C
  C4233    1.0000 0.85883  0.61278  0.45455  Biso   1.000  C
  C4234    1.0000 0.85878  0.61274  0.45455  Biso   1.000  C
  C4235    1.0000 0.85880  0.61272  0.45451  Biso   1.000  C
  C4236    1.0000 0.23672  0.56017  0.92966  Biso   1.000  C
  C4237    1.0000 0.23676  0.56017  0.92966  Biso   1.000  C
  C4238    1.0000 0.23677  0.56021  0.92966  Biso   1.000  C
  C4239    1.0000 0.23673  0.56021  0.92966  Biso   1.000  C
  C4240    1.0000 0.27883  0.59876  0.86835  Biso   1.000  C
  C4241    1.0000 0.27884  0.59880  0.86835  Biso   1.000  C
  C4242    1.0000 0.68724  0.41318  0.74667  Biso   1.000  C
  C4243    1.0000 0.68719  0.41316  0.74663  Biso   1.000  C
  C4244    1.0000 0.68720  0.41318  0.74667  Biso   1.000  C
  C4245    1.0000 0.68723  0.41316  0.74663  Biso   1.000  C
  H2867    1.0000 0.69384  0.44106  0.69276  Biso   1.000  H
  H2868    1.0000 0.69379  0.44104  0.69272  Biso   1.000  H
  H2869    1.0000 0.69382  0.44109  0.69276  Biso   1.000  H
  H2870    1.0000 0.69381  0.44106  0.69276  Biso   1.000  H
  H2871    1.0000 0.69385  0.44109  0.69276  Biso   1.000  H
  C4246    1.0000 0.71595  0.40659  0.78687  Biso   1.000  C
  C4247    1.0000 0.71590  0.40653  0.78683  Biso   1.000  C
  C4248    1.0000 0.71592  0.40659  0.78687  Biso   1.000  C
  C4249    1.0000 0.71591  0.40657  0.78683  Biso   1.000  C
  C4250    1.0000 0.71593  0.40653  0.78683  Biso   1.000  C
  H2872    1.0000 0.78973  0.41877  0.82676  Biso   1.000  H
  H2873    1.0000 0.78974  0.41880  0.82676  Biso   1.000  H
  H2874    1.0000 0.78970  0.41877  0.82676  Biso   1.000  H
  C4251    1.0000 0.93103  0.60156  0.41934  Biso   1.000  C
  C4252    1.0000 0.93844  0.68926  0.47213  Biso   1.000  C
  C4253    1.0000 0.93098  0.60154  0.41931  Biso   1.000  C
  C4254    1.0000 0.93839  0.68923  0.47213  Biso   1.000  C
  C4255    1.0000 0.93099  0.60156  0.41934  Biso   1.000  C
  C4256    1.0000 0.93840  0.68926  0.47213  Biso   1.000  C
  C4257    1.0000 0.93101  0.60154  0.41931  Biso   1.000  C
  H2875    1.0000 0.00290  0.65776  0.48344  Biso   1.000  H
  H2876    1.0000 0.82020  0.60014  0.44502  Biso   1.000  H
  C4258    1.0000 0.87707  0.58264  0.41133  Biso   1.000  C
  C4259    1.0000 0.87711  0.58264  0.41133  Biso   1.000  C
  C4260    1.0000 0.88449  0.67243  0.46442  Biso   1.000  C
  C4261    1.0000 0.88450  0.67246  0.46442  Biso   1.000  C
  H2877    1.0000 0.82016  0.60014  0.44502  Biso   1.000  H
  C4262    1.0000 0.26413  0.52708  0.89937  Biso   1.000  C
  H2878    1.0000 0.22074  0.54547  0.95096  Biso   1.000  H
  C4263    1.0000 0.27412  0.62008  0.95727  Biso   1.000  C
  C4264    1.0000 0.26412  0.52706  0.89934  Biso   1.000  C
  C4265    1.0000 0.27416  0.62008  0.95727  Biso   1.000  C
  H2879    1.0000 0.22075  0.54551  0.95096  Biso   1.000  H
  C4266    1.0000 0.27417  0.62012  0.95727  Biso   1.000  C
  H2880    1.0000 0.22071  0.54547  0.95096  Biso   1.000  H
  C4267    1.0000 0.27413  0.62012  0.95727  Biso   1.000  C
  C4268    1.0000 0.28663  0.54637  0.86804  Biso   1.000  C
  H2881    1.0000 0.29503  0.61367  0.84717  Biso   1.000  H
  C4269    1.0000 0.29524  0.63796  0.92455  Biso   1.000  C
  H2882    1.0000 0.29502  0.61365  0.84713  Biso   1.000  H
  H2883    1.0000 0.29504  0.61371  0.84717  Biso   1.000  H
  C4270    1.0000 0.29525  0.63800  0.92455  Biso   1.000  C
  C4271    1.0000 0.62892  0.39846  0.74257  Biso   1.000  C
  C4272    1.0000 0.62890  0.39845  0.74253  Biso   1.000  C
  C4273    1.0000 0.62893  0.39850  0.74257  Biso   1.000  C
  C4274    1.0000 0.62887  0.39845  0.74253  Biso   1.000  C
  C4275    1.0000 0.68633  0.37955  0.81545  Biso   1.000  C
  C4276    1.0000 0.68634  0.37959  0.81545  Biso   1.000  C
  C4277    1.0000 0.68630  0.37959  0.81545  Biso   1.000  C
  C4278    1.0000 0.68629  0.37955  0.81545  Biso   1.000  C
  C4279    1.0000 0.95097  0.57352  0.38251  Biso   1.000  C
  C4280    1.0000 0.95101  0.57352  0.38251  Biso   1.000  C
  C4281    1.0000 0.95098  0.57355  0.38251  Biso   1.000  C
  C4282    1.0000 0.95102  0.57355  0.38251  Biso   1.000  C
  C4283    1.0000 0.96741  0.74414  0.48514  Biso   1.000  C
  C4284    1.0000 0.96742  0.74418  0.48514  Biso   1.000  C
  C4285    1.0000 0.84310  0.53562  0.36652  Biso   1.000  C
  C4286    1.0000 0.84306  0.53562  0.36652  Biso   1.000  C
  C4287    1.0000 0.84307  0.53566  0.36652  Biso   1.000  C
  C4288    1.0000 0.84311  0.53566  0.36652  Biso   1.000  C
  C4289    1.0000 0.85960  0.71045  0.46984  Biso   1.000  C
  C4290    1.0000 0.26972  0.48058  0.90356  Biso   1.000  C
  C4291    1.0000 0.26975  0.48058  0.90356  Biso   1.000  C
  C4292    1.0000 0.28836  0.65629  0.00928  Biso   1.000  C
  C4293    1.0000 0.28837  0.65632  0.00928  Biso   1.000  C
  C4294    1.0000 0.28832  0.65629  0.00928  Biso   1.000  C
  C4295    1.0000 0.31461  0.51907  0.84086  Biso   1.000  C
  C4296    1.0000 0.31464  0.51907  0.84086  Biso   1.000  C
  C4297    1.0000 0.31465  0.51911  0.84086  Biso   1.000  C
  C4298    1.0000 0.31462  0.51911  0.84086  Biso   1.000  C
  C4299    1.0000 0.33074  0.69207  0.94387  Biso   1.000  C
  C4300    1.0000 0.33075  0.69211  0.94387  Biso   1.000  C
  C4301    1.0000 0.61223  0.33759  0.73277  Biso   1.000  C
  C4302    1.0000 0.61220  0.33753  0.73273  Biso   1.000  C
  C4303    1.0000 0.61218  0.33757  0.73273  Biso   1.000  C
  C4304    1.0000 0.61221  0.33757  0.73273  Biso   1.000  C
  H2884    1.0000 0.60802  0.40417  0.71534  Biso   1.000  H
  C4305    1.0000 0.62785  0.43097  0.79477  Biso   1.000  C
  H2885    1.0000 0.60801  0.40413  0.71534  Biso   1.000  H
  C4306    1.0000 0.62780  0.43095  0.79473  Biso   1.000  C
  C4307    1.0000 0.62782  0.43100  0.79477  Biso   1.000  C
  H2886    1.0000 0.60798  0.40417  0.71534  Biso   1.000  H
  C4308    1.0000 0.62781  0.43097  0.79477  Biso   1.000  C
  C4309    1.0000 0.62783  0.43095  0.79473  Biso   1.000  C
  C4310    1.0000 0.62786  0.43100  0.79477  Biso   1.000  C
  C4311    1.0000 0.64212  0.33027  0.77177  Biso   1.000  C
  C4312    1.0000 0.64211  0.33026  0.77173  Biso   1.000  C
  C4313    1.0000 0.64207  0.33026  0.77173  Biso   1.000  C
  H2887    1.0000 0.70726  0.37327  0.84217  Biso   1.000  H
  C4314    1.0000 0.65782  0.42438  0.83427  Biso   1.000  C
  H2888    1.0000 0.70721  0.37325  0.84213  Biso   1.000  H
  C4315    1.0000 0.65781  0.42436  0.83423  Biso   1.000  C
  H2889    1.0000 0.70723  0.37331  0.84217  Biso   1.000  H
  H2890    1.0000 0.70722  0.37327  0.84217  Biso   1.000  H
  H2891    1.0000 0.70727  0.37331  0.84217  Biso   1.000  H
  C4316    1.0000 0.65786  0.42438  0.83427  Biso   1.000  C
  C4317    1.0000 0.91691  0.52655  0.33774  Biso   1.000  C
  C4318    1.0000 0.91686  0.52650  0.33771  Biso   1.000  C
  C4319    1.0000 0.91688  0.52655  0.33774  Biso   1.000  C
  C4320    1.0000 0.91687  0.52654  0.33771  Biso   1.000  C
  C4321    1.0000 0.91689  0.52650  0.33771  Biso   1.000  C
  C4322    1.0000 0.00815  0.59743  0.38801  Biso   1.000  C
  C4323    1.0000 0.00818  0.59743  0.38801  Biso   1.000  C
  C4324    1.0000 0.00819  0.59746  0.38801  Biso   1.000  C
  C4325    1.0000 0.00816  0.59746  0.38801  Biso   1.000  C
  C4326    1.0000 0.94263  0.78215  0.49045  Biso   1.000  C
  C4327    1.0000 0.94259  0.78213  0.49041  Biso   1.000  C
  C4328    1.0000 0.94261  0.78218  0.49045  Biso   1.000  C
  C4329    1.0000 0.94260  0.78215  0.49045  Biso   1.000  C
  C4330    1.0000 0.94262  0.78213  0.49041  Biso   1.000  C
  C4331    1.0000 0.94264  0.78218  0.49045  Biso   1.000  C
  H2892    1.0000 0.00351  0.75547  0.49025  Biso   1.000  H
  H2893    1.0000 0.00350  0.75545  0.49022  Biso   1.000  H
  C4332    1.0000 0.86296  0.50763  0.32973  Biso   1.000  C
  C4333    1.0000 0.86300  0.50763  0.32973  Biso   1.000  C
  C4334    1.0000 0.78500  0.51102  0.35571  Biso   1.000  C
  C4335    1.0000 0.78497  0.51102  0.35571  Biso   1.000  C
  C4336    1.0000 0.78498  0.51106  0.35571  Biso   1.000  C
  C4337    1.0000 0.78501  0.51106  0.35571  Biso   1.000  C
  C4338    1.0000 0.88871  0.76535  0.48282  Biso   1.000  C
  H2894    1.0000 0.82362  0.69916  0.46473  Biso   1.000  H
  H2895    1.0000 0.82361  0.69912  0.46473  Biso   1.000  H
  H2896    1.0000 0.82358  0.69916  0.46473  Biso   1.000  H
  C4339    1.0000 0.88868  0.76535  0.48282  Biso   1.000  C
  C4340    1.0000 0.29772  0.45339  0.87637  Biso   1.000  C
  C4341    1.0000 0.25271  0.46350  0.94205  Biso   1.000  C
  C4342    1.0000 0.29775  0.45337  0.87633  Biso   1.000  C
  C4343    1.0000 0.25274  0.46346  0.94205  Biso   1.000  C
  C4344    1.0000 0.29776  0.45339  0.87637  Biso   1.000  C
  C4345    1.0000 0.25275  0.46350  0.94205  Biso   1.000  C
  C4346    1.0000 0.29771  0.45337  0.87633  Biso   1.000  C
  C4347    1.0000 0.25270  0.46346  0.94205  Biso   1.000  C
  H2897    1.0000 0.27428  0.64430  0.03120  Biso   1.000  H
  C4348    1.0000 0.32385  0.71038  0.02857  Biso   1.000  C
  H2898    1.0000 0.27423  0.64428  0.03116  Biso   1.000  H
  C4349    1.0000 0.32386  0.71042  0.02857  Biso   1.000  C
  H2899    1.0000 0.27424  0.64430  0.03120  Biso   1.000  H
  C4350    1.0000 0.32382  0.71038  0.02857  Biso   1.000  C
  H2900    1.0000 0.27426  0.64428  0.03116  Biso   1.000  H
  C4351    1.0000 0.32012  0.47257  0.84504  Biso   1.000  C
  C4352    1.0000 0.33743  0.53979  0.80666  Biso   1.000  C
  C4353    1.0000 0.33742  0.53975  0.80666  Biso   1.000  C
  C4354    1.0000 0.34503  0.72839  0.99596  Biso   1.000  C
  H2901    1.0000 0.34484  0.70410  0.92195  Biso   1.000  H
  C4355    1.0000 0.34506  0.72839  0.99596  Biso   1.000  C
  H2902    1.0000 0.34486  0.70406  0.92195  Biso   1.000  H
  H2903    1.0000 0.34487  0.70410  0.92195  Biso   1.000  H
  H2904    1.0000 0.34483  0.70406  0.92195  Biso   1.000  H
  C4356    1.0000 0.57212  0.29206  0.69086  Biso   1.000  C
  C4357    1.0000 0.57208  0.29204  0.69083  Biso   1.000  C
  C4358    1.0000 0.57210  0.29210  0.69086  Biso   1.000  C
  C4359    1.0000 0.57209  0.29206  0.69086  Biso   1.000  C
  C4360    1.0000 0.57211  0.29204  0.69083  Biso   1.000  C
  C4361    1.0000 0.57213  0.29210  0.69086  Biso   1.000  C
  C4362    1.0000 0.60283  0.46887  0.80647  Biso   1.000  C
  C4363    1.0000 0.60281  0.46885  0.80643  Biso   1.000  C
  C4364    1.0000 0.60278  0.46885  0.80643  Biso   1.000  C
  C4365    1.0000 0.63182  0.27736  0.76886  Biso   1.000  C
  C4366    1.0000 0.63183  0.27740  0.76886  Biso   1.000  C
  C4367    1.0000 0.63179  0.27736  0.76886  Biso   1.000  C
  C4368    1.0000 0.66296  0.45569  0.88547  Biso   1.000  C
  C4369    1.0000 0.66291  0.45568  0.88543  Biso   1.000  C
  C4370    1.0000 0.66292  0.45569  0.88547  Biso   1.000  C
  C4371    1.0000 0.66295  0.45568  0.88543  Biso   1.000  C
  H2905    1.0000 0.93027  0.50784  0.31304  Biso   1.000  H
  H2906    1.0000 0.93031  0.50784  0.31304  Biso   1.000  H
  H2907    1.0000 0.01256  0.58676  0.35413  Biso   1.000  H
  H2908    1.0000 0.02137  0.63766  0.40602  Biso   1.000  H
  C4372    1.0000 0.03896  0.57424  0.41954  Biso   1.000  C
  H2909    1.0000 0.01259  0.58672  0.35413  Biso   1.000  H
  H2910    1.0000 0.02139  0.63762  0.40602  Biso   1.000  H
  C4373    1.0000 0.03900  0.57424  0.41954  Biso   1.000  C
  H2911    1.0000 0.01260  0.58676  0.35413  Biso   1.000  H
  H2912    1.0000 0.02140  0.63766  0.40602  Biso   1.000  H
  H2913    1.0000 0.01255  0.58672  0.35413  Biso   1.000  H
  H2914    1.0000 0.02136  0.63762  0.40602  Biso   1.000  H
  O618     1.0000 0.96583  0.83816  0.50625  Biso   1.000  O
  O619     1.0000 0.96581  0.83814  0.50621  Biso   1.000  O
  O620     1.0000 0.96578  0.83814  0.50621  Biso   1.000  O
  H2915    1.0000 0.84018  0.47612  0.29971  Biso   1.000  H
  H2916    1.0000 0.84014  0.47612  0.29971  Biso   1.000  H
  H2917    1.0000 0.77459  0.53393  0.38282  Biso   1.000  H
  H2918    1.0000 0.77517  0.47413  0.35393  Biso   1.000  H
  H2919    1.0000 0.77521  0.47413  0.35393  Biso   1.000  H
  C4374    1.0000 0.75829  0.50805  0.30382  Biso   1.000  C
  C4375    1.0000 0.75825  0.50801  0.30382  Biso   1.000  C
  H2920    1.0000 0.77518  0.47417  0.35393  Biso   1.000  H
  H2921    1.0000 0.77455  0.53393  0.38282  Biso   1.000  H
  C4376    1.0000 0.75826  0.50805  0.30382  Biso   1.000  C
  C4377    1.0000 0.75828  0.50801  0.30382  Biso   1.000  C
  H2922    1.0000 0.77522  0.47417  0.35393  Biso   1.000  H
  O621     1.0000 0.87543  0.81255  0.49424  Biso   1.000  O
  O622     1.0000 0.87540  0.81255  0.49424  Biso   1.000  O
  O623     1.0000 0.87541  0.81258  0.49424  Biso   1.000  O
  O624     1.0000 0.87544  0.81258  0.49424  Biso   1.000  O
  H2923    1.0000 0.30143  0.42228  0.87916  Biso   1.000  H
  H2924    1.0000 0.25784  0.49590  0.97307  Biso   1.000  H
  H2925    1.0000 0.27301  0.44318  0.95166  Biso   1.000  H
  C4378    1.0000 0.19451  0.42678  0.91645  Biso   1.000  C
  H2926    1.0000 0.27305  0.44318  0.95166  Biso   1.000  H
  C4379    1.0000 0.19455  0.42678  0.91645  Biso   1.000  C
  O625     1.0000 0.33959  0.75128  0.07760  Biso   1.000  O
  O626     1.0000 0.33956  0.75132  0.07760  Biso   1.000  O
  O627     1.0000 0.33955  0.75128  0.07760  Biso   1.000  O
  O628     1.0000 0.33960  0.75132  0.07760  Biso   1.000  O
  H2927    1.0000 0.33892  0.45437  0.82684  Biso   1.000  H
  H2928    1.0000 0.31452  0.55508  0.79194  Biso   1.000  H
  H2929    1.0000 0.33882  0.50887  0.77827  Biso   1.000  H
  C4380    1.0000 0.39344  0.58467  0.83636  Biso   1.000  C
  H2930    1.0000 0.31451  0.55504  0.79194  Biso   1.000  H
  H2931    1.0000 0.33881  0.50885  0.77823  Biso   1.000  H
  H2932    1.0000 0.31455  0.55508  0.79194  Biso   1.000  H
  H2933    1.0000 0.33883  0.50890  0.77827  Biso   1.000  H
  O629     1.0000 0.37656  0.78478  0.02598  Biso   1.000  O
  O630     1.0000 0.37657  0.78482  0.02598  Biso   1.000  O
  O631     1.0000 0.37652  0.78478  0.02598  Biso   1.000  O
  C4381    1.0000 0.53729  0.29857  0.64923  Biso   1.000  C
  C4382    1.0000 0.53728  0.29853  0.64923  Biso   1.000  C
  C4383    1.0000 0.56193  0.23925  0.68796  Biso   1.000  C
  C4384    1.0000 0.56188  0.23924  0.68792  Biso   1.000  C
  C4385    1.0000 0.56190  0.23929  0.68796  Biso   1.000  C
  C4386    1.0000 0.56189  0.23925  0.68796  Biso   1.000  C
  C4387    1.0000 0.56191  0.23924  0.68792  Biso   1.000  C
  C4388    1.0000 0.56194  0.23929  0.68796  Biso   1.000  C
  H2934    1.0000 0.58271  0.47337  0.78005  Biso   1.000  H
  C4389    1.0000 0.60782  0.50019  0.85766  Biso   1.000  C
  H2935    1.0000 0.58275  0.47337  0.78005  Biso   1.000  H
  C4390    1.0000 0.60786  0.50019  0.85766  Biso   1.000  C
  C4391    1.0000 0.59170  0.23187  0.72696  Biso   1.000  C
  C4392    1.0000 0.59173  0.23187  0.72696  Biso   1.000  C
  C4393    1.0000 0.65783  0.26927  0.81266  Biso   1.000  C
  C4394    1.0000 0.65779  0.26927  0.81266  Biso   1.000  C
  C4395    1.0000 0.63794  0.49360  0.89717  Biso   1.000  C
  H2936    1.0000 0.68305  0.45126  0.91184  Biso   1.000  H
  C4396    1.0000 0.63793  0.49356  0.89717  Biso   1.000  C
  H2937    1.0000 0.68301  0.45126  0.91184  Biso   1.000  H
  H2938    1.0000 0.68302  0.45129  0.91184  Biso   1.000  H
  H2939    1.0000 0.68306  0.45129  0.91184  Biso   1.000  H
  H2940    1.0000 0.05106  0.54866  0.39723  Biso   1.000  H
  H2941    1.0000 0.06877  0.60433  0.44742  Biso   1.000  H
  H2942    1.0000 0.01609  0.55546  0.43332  Biso   1.000  H
  H2943    1.0000 0.05108  0.54862  0.39723  Biso   1.000  H
  H2944    1.0000 0.06881  0.60433  0.44742  Biso   1.000  H
  H2945    1.0000 0.01608  0.55542  0.43332  Biso   1.000  H
  H2946    1.0000 0.05109  0.54866  0.39723  Biso   1.000  H
  H2947    1.0000 0.05105  0.54862  0.39723  Biso   1.000  H
  B335     1.0000 0.92004  0.85337  0.50315  Biso   1.000  B
  B336     1.0000 0.92001  0.85332  0.50311  Biso   1.000  B
  B337     1.0000 0.91999  0.85336  0.50311  Biso   1.000  B
  B338     1.0000 0.92000  0.85337  0.50315  Biso   1.000  B
  B339     1.0000 0.92002  0.85336  0.50311  Biso   1.000  B
  H2948    1.0000 0.76557  0.54543  0.30703  Biso   1.000  H
  H2949    1.0000 0.76560  0.54543  0.30703  Biso   1.000  H
  H2950    1.0000 0.77169  0.48876  0.27814  Biso   1.000  H
  H2951    1.0000 0.72090  0.48942  0.29352  Biso   1.000  H
  H2952    1.0000 0.77167  0.48870  0.27810  Biso   1.000  H
  H2953    1.0000 0.72086  0.48942  0.29352  Biso   1.000  H
  H2954    1.0000 0.72087  0.48946  0.29352  Biso   1.000  H
  H2955    1.0000 0.77165  0.48874  0.27810  Biso   1.000  H
  H2956    1.0000 0.77166  0.48876  0.27814  Biso   1.000  H
  H2957    1.0000 0.72091  0.48946  0.29352  Biso   1.000  H
  H2958    1.0000 0.77168  0.48874  0.27810  Biso   1.000  H
  H2959    1.0000 0.17780  0.43939  0.89364  Biso   1.000  H
  H2960    1.0000 0.17801  0.42869  0.94256  Biso   1.000  H
  H2961    1.0000 0.19101  0.38920  0.89697  Biso   1.000  H
  H2962    1.0000 0.17783  0.43935  0.89364  Biso   1.000  H
  H2963    1.0000 0.17804  0.42866  0.94256  Biso   1.000  H
  H2964    1.0000 0.19103  0.38915  0.89693  Biso   1.000  H
  H2965    1.0000 0.17784  0.43939  0.89364  Biso   1.000  H
  H2966    1.0000 0.17805  0.42869  0.94256  Biso   1.000  H
  H2967    1.0000 0.19105  0.38920  0.89697  Biso   1.000  H
  H2968    1.0000 0.19100  0.38919  0.89693  Biso   1.000  H
  H2969    1.0000 0.17779  0.43935  0.89364  Biso   1.000  H
  H2970    1.0000 0.17800  0.42866  0.94256  Biso   1.000  H
  H2971    1.0000 0.19099  0.38915  0.89693  Biso   1.000  H
  H2972    1.0000 0.19104  0.38919  0.89693  Biso   1.000  H
  B340     1.0000 0.37368  0.79408  0.07268  Biso   1.000  B
  B341     1.0000 0.37365  0.79412  0.07268  Biso   1.000  B
  B342     1.0000 0.37364  0.79408  0.07268  Biso   1.000  B
  B343     1.0000 0.37369  0.79412  0.07268  Biso   1.000  B
  H2973    1.0000 0.40511  0.60007  0.81425  Biso   1.000  H
  H2974    1.0000 0.41723  0.56839  0.84686  Biso   1.000  H
  H2975    1.0000 0.39273  0.61356  0.86634  Biso   1.000  H
  H2976    1.0000 0.40515  0.60007  0.81425  Biso   1.000  H
  H2977    1.0000 0.41722  0.56835  0.84686  Biso   1.000  H
  H2978    1.0000 0.41726  0.56839  0.84686  Biso   1.000  H
  H2979    1.0000 0.39274  0.61360  0.86634  Biso   1.000  H
  H2980    1.0000 0.39270  0.61356  0.86634  Biso   1.000  H
  C4397    1.0000 0.56671  0.30536  0.61054  Biso   1.000  C
  H2981    1.0000 0.52839  0.33087  0.66465  Biso   1.000  H
  H2982    1.0000 0.50477  0.26614  0.63103  Biso   1.000  H
  H2983    1.0000 0.50480  0.26614  0.63103  Biso   1.000  H
  H2984    1.0000 0.52843  0.33087  0.66465  Biso   1.000  H
  C4398    1.0000 0.56667  0.30536  0.61054  Biso   1.000  C
  H2985    1.0000 0.53509  0.20875  0.65984  Biso   1.000  H
  H2986    1.0000 0.53506  0.20875  0.65984  Biso   1.000  H
  O632     1.0000 0.58906  0.54039  0.87978  Biso   1.000  O
  O633     1.0000 0.58901  0.54037  0.87974  Biso   1.000  O
  O634     1.0000 0.58903  0.54039  0.87978  Biso   1.000  O
  O635     1.0000 0.58905  0.54037  0.87974  Biso   1.000  O
  H2987    1.0000 0.58493  0.19656  0.72506  Biso   1.000  H
  H2988    1.0000 0.58488  0.19654  0.72502  Biso   1.000  H
  H2989    1.0000 0.58490  0.19660  0.72506  Biso   1.000  H
  H2990    1.0000 0.58489  0.19656  0.72506  Biso   1.000  H
  H2991    1.0000 0.58491  0.19654  0.72502  Biso   1.000  H
  H2992    1.0000 0.58494  0.19660  0.72506  Biso   1.000  H
  H2993    1.0000 0.66141  0.29907  0.84496  Biso   1.000  H
  H2994    1.0000 0.63612  0.23456  0.81084  Biso   1.000  H
  C4399    1.0000 0.71182  0.26818  0.81185  Biso   1.000  C
  H2995    1.0000 0.66145  0.29907  0.84496  Biso   1.000  H
  C4400    1.0000 0.71181  0.26814  0.81185  Biso   1.000  C
  H2996    1.0000 0.63608  0.23456  0.81084  Biso   1.000  H
  C4401    1.0000 0.71179  0.26818  0.81185  Biso   1.000  C
  O636     1.0000 0.63942  0.52788  0.94534  Biso   1.000  O
  O637     1.0000 0.63946  0.52788  0.94534  Biso   1.000  O
  C4402    1.0000 0.92742  0.91625  0.52275  Biso   1.000  C
  C4403    1.0000 0.92745  0.91625  0.52275  Biso   1.000  C
  C4404    1.0000 0.39836  0.85500  0.11908  Biso   1.000  C
  H2997    1.0000 0.54289  0.30465  0.58165  Biso   1.000  H
  H2998    1.0000 0.57907  0.27546  0.59854  Biso   1.000  H
  H2999    1.0000 0.59623  0.34006  0.62766  Biso   1.000  H
  H3000    1.0000 0.57911  0.27546  0.59854  Biso   1.000  H
  H3001    1.0000 0.59618  0.34005  0.62762  Biso   1.000  H
  H3002    1.0000 0.59619  0.34006  0.62766  Biso   1.000  H
  H3003    1.0000 0.59622  0.34005  0.62762  Biso   1.000  H
  B344     1.0000 0.60735  0.55660  0.93187  Biso   1.000  B
  B345     1.0000 0.60734  0.55657  0.93187  Biso   1.000  B
  B346     1.0000 0.60731  0.55660  0.93187  Biso   1.000  B
  H3004    1.0000 0.70890  0.23056  0.79314  Biso   1.000  H
  H3005    1.0000 0.73511  0.28346  0.84674  Biso   1.000  H
  H3006    1.0000 0.72583  0.28987  0.79516  Biso   1.000  H
  H3007    1.0000 0.72579  0.28987  0.79516  Biso   1.000  H
  H3008    1.0000 0.73512  0.28350  0.84674  Biso   1.000  H
  C4405    1.0000 0.97614  0.95876  0.53983  Biso   1.000  C
  C4406    1.0000 0.88205  0.92847  0.52244  Biso   1.000  C
  C4407    1.0000 0.88201  0.92843  0.52244  Biso   1.000  C
  C4408    1.0000 0.88202  0.92847  0.52244  Biso   1.000  C
  C4409    1.0000 0.97610  0.95876  0.53983  Biso   1.000  C
  C4410    1.0000 0.88204  0.92843  0.52244  Biso   1.000  C
  C4411    1.0000 0.42857  0.89848  0.11191  Biso   1.000  C
  C4412    1.0000 0.39169  0.86479  0.16698  Biso   1.000  C
  C4413    1.0000 0.42857  0.89850  0.11187  Biso   1.000  C
  C4414    1.0000 0.39166  0.86483  0.16698  Biso   1.000  C
  C4415    1.0000 0.42858  0.89852  0.11191  Biso   1.000  C
  C4416    1.0000 0.39166  0.86479  0.16698  Biso   1.000  C
  C4417    1.0000 0.42856  0.89847  0.11187  Biso   1.000  C
  C4418    1.0000 0.39170  0.86483  0.16698  Biso   1.000  C
  C4419    1.0000 0.60085  0.60627  0.97245  Biso   1.000  C
  C4420    1.0000 0.60086  0.60631  0.97245  Biso   1.000  C
  C4421    1.0000 0.60081  0.60627  0.97245  Biso   1.000  C
  C4422    1.0000 0.97936  0.01347  0.55663  Biso   1.000  C
  C4423    1.0000 0.97935  0.01343  0.55663  Biso   1.000  C
  C4424    1.0000 0.97940  0.01347  0.55663  Biso   1.000  C
  H3009    1.0000 0.00651  0.95066  0.53994  Biso   1.000  H
  H3010    1.0000 0.00654  0.95066  0.53994  Biso   1.000  H
  H3011    1.0000 0.84943  0.90004  0.51094  Biso   1.000  H
  C4425    1.0000 0.88535  0.98317  0.53925  Biso   1.000  C
  C4426    1.0000 0.88534  0.98314  0.53925  Biso   1.000  C
  H3012    1.0000 0.84944  0.90008  0.51094  Biso   1.000  H
  H3013    1.0000 0.84939  0.90004  0.51094  Biso   1.000  H
  C4427    1.0000 0.88531  0.98317  0.53925  Biso   1.000  C
  C4428    1.0000 0.45209  0.95169  0.15250  Biso   1.000  C
  H3014    1.0000 0.43310  0.89190  0.07988  Biso   1.000  H
  C4429    1.0000 0.45210  0.95173  0.15250  Biso   1.000  C
  H3015    1.0000 0.43306  0.89190  0.07988  Biso   1.000  H
  C4430    1.0000 0.45206  0.95169  0.15250  Biso   1.000  C
  C4431    1.0000 0.41519  0.91802  0.20761  Biso   1.000  C
  H3016    1.0000 0.37148  0.83568  0.17179  Biso   1.000  H
  H3017    1.0000 0.37149  0.83572  0.17179  Biso   1.000  H
  H3018    1.0000 0.37144  0.83568  0.17179  Biso   1.000  H
  C4432    1.0000 0.57166  0.63359  0.95545  Biso   1.000  C
  C4433    1.0000 0.57163  0.63359  0.95545  Biso   1.000  C
  C4434    1.0000 0.62344  0.62379  0.02508  Biso   1.000  C
  C4435    1.0000 0.62345  0.62382  0.02508  Biso   1.000  C
  C4436    1.0000 0.62348  0.62379  0.02508  Biso   1.000  C
  C4437    1.0000 0.93395  0.02565  0.55632  Biso   1.000  C
  C4438    1.0000 0.93399  0.02565  0.55632  Biso   1.000  C
  B347     1.0000 0.03280  0.05828  0.57716  Biso   1.000  B
  B348     1.0000 0.03275  0.05826  0.57712  Biso   1.000  B
  B349     1.0000 0.03275  0.05824  0.57716  Biso   1.000  B
  B350     1.0000 0.03276  0.05828  0.57716  Biso   1.000  B
  B351     1.0000 0.03278  0.05826  0.57712  Biso   1.000  B
  B352     1.0000 0.03279  0.05824  0.57716  Biso   1.000  B
  B353     1.0000 0.83413  0.99626  0.53754  Biso   1.000  B
  B354     1.0000 0.83410  0.99626  0.53754  Biso   1.000  B
  C4439    1.0000 0.44540  0.96151  0.20029  Biso   1.000  C
  B355     1.0000 0.48389  0.99870  0.14239  Biso   1.000  B
  B356     1.0000 0.48390  0.99874  0.14239  Biso   1.000  B
  C4440    1.0000 0.44536  0.96151  0.20029  Biso   1.000  C
  B357     1.0000 0.48385  0.99870  0.14239  Biso   1.000  B
  B358     1.0000 0.40699  0.92641  0.25710  Biso   1.000  B
  B359     1.0000 0.40700  0.92645  0.25710  Biso   1.000  B
  B360     1.0000 0.40696  0.92641  0.25710  Biso   1.000  B
  H3019    1.0000 0.55644  0.62189  0.92017  Biso   1.000  H
  C4441    1.0000 0.56517  0.67851  0.99128  Biso   1.000  C
  C4442    1.0000 0.56516  0.67847  0.99128  Biso   1.000  C
  C4443    1.0000 0.56514  0.67851  0.99128  Biso   1.000  C
  C4444    1.0000 0.61696  0.66868  0.06079  Biso   1.000  C
  H3020    1.0000 0.64294  0.60546  0.03639  Biso   1.000  H
  C4445    1.0000 0.61694  0.66872  0.06079  Biso   1.000  C
  H3021    1.0000 0.64295  0.60550  0.03639  Biso   1.000  H
  C4446    1.0000 0.61693  0.66868  0.06079  Biso   1.000  C
  H3022    1.0000 0.64297  0.60546  0.03639  Biso   1.000  H
  C4447    1.0000 0.61697  0.66872  0.06079  Biso   1.000  C
  H3023    1.0000 0.93617  0.06225  0.56756  Biso   1.000  H
  H3024    1.0000 0.93615  0.06223  0.56752  Biso   1.000  H
  H3025    1.0000 0.93616  0.06227  0.56752  Biso   1.000  H
  H3026    1.0000 0.93620  0.06225  0.56756  Biso   1.000  H
  O638     1.0000 0.04538  0.11488  0.59695  Biso   1.000  O
  O639     1.0000 0.08139  0.04827  0.57913  Biso   1.000  O
  O640     1.0000 0.04537  0.11484  0.59695  Biso   1.000  O
  O641     1.0000 0.08136  0.04827  0.57913  Biso   1.000  O
  O642     1.0000 0.08135  0.04823  0.57913  Biso   1.000  O
  O643     1.0000 0.04535  0.11488  0.59695  Biso   1.000  O
  O644     1.0000 0.08138  0.04823  0.57913  Biso   1.000  O
  O645     1.0000 0.78632  0.95465  0.52213  Biso   1.000  O
  O646     1.0000 0.83427  0.05045  0.55783  Biso   1.000  O
  O647     1.0000 0.83426  0.05042  0.55783  Biso   1.000  O
  H3027    1.0000 0.46110  0.99710  0.22751  Biso   1.000  H
  H3028    1.0000 0.46109  0.99712  0.22748  Biso   1.000  H
  H3029    1.0000 0.46111  0.99713  0.22751  Biso   1.000  H
  H3030    1.0000 0.46105  0.99708  0.22748  Biso   1.000  H
  H3031    1.0000 0.46108  0.99708  0.22748  Biso   1.000  H
  O648     1.0000 0.49490  0.99639  0.09921  Biso   1.000  O
  O649     1.0000 0.49486  0.99641  0.09917  Biso   1.000  O
  O650     1.0000 0.49487  0.99639  0.09921  Biso   1.000  O
  O651     1.0000 0.49485  0.99637  0.09917  Biso   1.000  O
  O652     1.0000 0.49490  0.99641  0.09917  Biso   1.000  O
  O653     1.0000 0.50624  0.05530  0.18220  Biso   1.000  O
  O654     1.0000 0.50620  0.05530  0.18220  Biso   1.000  O
  O655     1.0000 0.37889  0.88680  0.26961  Biso   1.000  O
  O656     1.0000 0.42309  0.97909  0.30199  Biso   1.000  O
  O657     1.0000 0.37890  0.88684  0.26961  Biso   1.000  O
  O658     1.0000 0.42310  0.97913  0.30199  Biso   1.000  O
  O659     1.0000 0.37885  0.88680  0.26961  Biso   1.000  O
  O660     1.0000 0.42306  0.97909  0.30199  Biso   1.000  O
  B361     1.0000 0.53146  0.70728  0.97036  Biso   1.000  B
  B362     1.0000 0.53147  0.70732  0.97036  Biso   1.000  B
  B363     1.0000 0.53143  0.70728  0.97036  Biso   1.000  B
  C4448    1.0000 0.58776  0.69598  0.04391  Biso   1.000  C
  C4449    1.0000 0.58772  0.69600  0.04387  Biso   1.000  C
  C4450    1.0000 0.58777  0.69602  0.04391  Biso   1.000  C
  C4451    1.0000 0.58775  0.69596  0.04387  Biso   1.000  C
  C4452    1.0000 0.58776  0.69600  0.04387  Biso   1.000  C
  C4453    1.0000 0.58771  0.69596  0.04387  Biso   1.000  C
  B364     1.0000 0.64397  0.68959  0.11609  Biso   1.000  B
  B365     1.0000 0.64394  0.68962  0.11609  Biso   1.000  B
  B366     1.0000 0.64393  0.68959  0.11609  Biso   1.000  B
  B367     1.0000 0.64398  0.68962  0.11609  Biso   1.000  B
  C4454    1.0000 0.09849  0.14076  0.61155  Biso   1.000  C
  C4455    1.0000 0.09845  0.14076  0.61155  Biso   1.000  C
  C4456    1.0000 0.11999  0.09976  0.60024  Biso   1.000  C
  C4457    1.0000 0.11996  0.09976  0.60024  Biso   1.000  C
  C4458    1.0000 0.11995  0.09972  0.60024  Biso   1.000  C
  C4459    1.0000 0.11998  0.09972  0.60024  Biso   1.000  C
  C4460    1.0000 0.75215  0.98295  0.53154  Biso   1.000  C
  C4461    1.0000 0.75211  0.98295  0.53154  Biso   1.000  C
  C4462    1.0000 0.75212  0.98298  0.53154  Biso   1.000  C
  C4463    1.0000 0.75216  0.98298  0.53154  Biso   1.000  C
  C4464    1.0000 0.78135  0.03934  0.55152  Biso   1.000  C
  C4465    1.0000 0.78138  0.03934  0.55152  Biso   1.000  C
  C4466    1.0000 0.52290  0.04798  0.10568  Biso   1.000  C
  C4467    1.0000 0.52291  0.04802  0.10568  Biso   1.000  C
  C4468    1.0000 0.52293  0.04798  0.10568  Biso   1.000  C
  C4469    1.0000 0.52965  0.08291  0.15641  Biso   1.000  C
  C4470    1.0000 0.52960  0.08286  0.15637  Biso   1.000  C
  C4471    1.0000 0.52962  0.08291  0.15641  Biso   1.000  C
  C4472    1.0000 0.52964  0.08290  0.15637  Biso   1.000  C
  C4473    1.0000 0.52961  0.08290  0.15637  Biso   1.000  C
  C4474    1.0000 0.37742  0.91020  0.31872  Biso   1.000  C
  C4475    1.0000 0.37739  0.91024  0.31872  Biso   1.000  C
  C4476    1.0000 0.37738  0.91020  0.31872  Biso   1.000  C
  C4477    1.0000 0.37743  0.91024  0.31872  Biso   1.000  C
  C4478    1.0000 0.40522  0.96690  0.33800  Biso   1.000  C
  C4479    1.0000 0.40519  0.96694  0.33800  Biso   1.000  C
  C4480    1.0000 0.40518  0.96690  0.33800  Biso   1.000  C
  C4481    1.0000 0.40523  0.96694  0.33800  Biso   1.000  C
  O661     1.0000 0.50995  0.69060  0.91808  Biso   1.000  O
  O662     1.0000 0.50993  0.69055  0.91804  Biso   1.000  O
  O663     1.0000 0.50994  0.69059  0.91804  Biso   1.000  O
  O664     1.0000 0.52055  0.75149  0.00328  Biso   1.000  O
  O665     1.0000 0.52058  0.75149  0.00328  Biso   1.000  O
  H3032    1.0000 0.58347  0.72600  0.06780  Biso   1.000  H
  H3033    1.0000 0.58343  0.72600  0.06780  Biso   1.000  H
  O666     1.0000 0.64086  0.73370  0.15730  Biso   1.000  O
  O667     1.0000 0.67657  0.66609  0.13809  Biso   1.000  O
  O668     1.0000 0.64087  0.73374  0.15730  Biso   1.000  O
  O669     1.0000 0.67655  0.66613  0.13809  Biso   1.000  O
  O670     1.0000 0.67654  0.66609  0.13809  Biso   1.000  O
  O671     1.0000 0.64090  0.73370  0.15730  Biso   1.000  O
  O672     1.0000 0.67658  0.66613  0.13809  Biso   1.000  O
  C4482    1.0000 0.13129  0.19638  0.63343  Biso   1.000  C
  C4483    1.0000 0.13128  0.19634  0.63343  Biso   1.000  C
  C4484    1.0000 0.13126  0.19638  0.63343  Biso   1.000  C
  C4485    1.0000 0.17419  0.11425  0.61093  Biso   1.000  C
  C4486    1.0000 0.17415  0.11425  0.61093  Biso   1.000  C
  C4487    1.0000 0.69824  0.96466  0.52344  Biso   1.000  C
  C4488    1.0000 0.69820  0.96466  0.52344  Biso   1.000  C
  C4489    1.0000 0.75658  0.07745  0.56364  Biso   1.000  C
  C4490    1.0000 0.75654  0.07745  0.56364  Biso   1.000  C
  C4491    1.0000 0.54172  0.07008  0.07438  Biso   1.000  C
  C4492    1.0000 0.54167  0.07006  0.07435  Biso   1.000  C
  C4493    1.0000 0.54173  0.07012  0.07438  Biso   1.000  C
  C4494    1.0000 0.54171  0.07006  0.07435  Biso   1.000  C
  C4495    1.0000 0.55522  0.13989  0.17581  Biso   1.000  C
  C4496    1.0000 0.55525  0.13989  0.17581  Biso   1.000  C
  C4497    1.0000 0.35389  0.88976  0.34881  Biso   1.000  C
  C4498    1.0000 0.35390  0.88980  0.34881  Biso   1.000  C
  C4499    1.0000 0.35393  0.88980  0.34881  Biso   1.000  C
  C4500    1.0000 0.40947  0.00303  0.38742  Biso   1.000  C
  C4501    1.0000 0.40941  0.00298  0.38738  Biso   1.000  C
  C4502    1.0000 0.40943  0.00303  0.38742  Biso   1.000  C
  C4503    1.0000 0.40946  0.00301  0.38738  Biso   1.000  C
  C4504    1.0000 0.40945  0.00298  0.38738  Biso   1.000  C
  C4505    1.0000 0.40942  0.00301  0.38738  Biso   1.000  C
  C4506    1.0000 0.48396  0.72558  0.91638  Biso   1.000  C
  C4507    1.0000 0.48392  0.72556  0.91634  Biso   1.000  C
  C4508    1.0000 0.48397  0.72562  0.91638  Biso   1.000  C
  C4509    1.0000 0.48393  0.72558  0.91638  Biso   1.000  C
  C4510    1.0000 0.48395  0.72556  0.91634  Biso   1.000  C
  C4511    1.0000 0.49069  0.76111  0.96688  Biso   1.000  C
  C4512    1.0000 0.49063  0.76106  0.96684  Biso   1.000  C
  C4513    1.0000 0.49065  0.76111  0.96688  Biso   1.000  C
  C4514    1.0000 0.49064  0.76109  0.96684  Biso   1.000  C
  C4515    1.0000 0.49067  0.76106  0.96684  Biso   1.000  C
  C4516    1.0000 0.67148  0.73821  0.20230  Biso   1.000  C
  C4517    1.0000 0.67145  0.73821  0.20230  Biso   1.000  C
  C4518    1.0000 0.69308  0.69731  0.19080  Biso   1.000  C
  C4519    1.0000 0.69304  0.69731  0.19080  Biso   1.000  C
  H3034    1.0000 0.11700  0.22378  0.64094  Biso   1.000  H
  C4520    1.0000 0.18561  0.21089  0.64416  Biso   1.000  C
  H3035    1.0000 0.11697  0.22378  0.64094  Biso   1.000  H
  C4521    1.0000 0.18555  0.21083  0.64412  Biso   1.000  C
  H3036    1.0000 0.11696  0.22374  0.64094  Biso   1.000  H
  C4522    1.0000 0.18560  0.21085  0.64416  Biso   1.000  C
  C4523    1.0000 0.18556  0.21087  0.64412  Biso   1.000  C
  C4524    1.0000 0.18557  0.21089  0.64416  Biso   1.000  C
  C4525    1.0000 0.18558  0.21083  0.64412  Biso   1.000  C
  H3037    1.0000 0.11699  0.22374  0.64094  Biso   1.000  H
  C4526    1.0000 0.20700  0.16989  0.63285  Biso   1.000  C
  H3038    1.0000 0.18860  0.08687  0.60346  Biso   1.000  H
  C4527    1.0000 0.20696  0.16985  0.63285  Biso   1.000  C
  H3039    1.0000 0.18855  0.08685  0.60342  Biso   1.000  H
  H3040    1.0000 0.18855  0.08684  0.60346  Biso   1.000  H
  C4528    1.0000 0.20697  0.16989  0.63285  Biso   1.000  C
  H3041    1.0000 0.18856  0.08687  0.60346  Biso   1.000  H
  C4529    1.0000 0.20699  0.16985  0.63285  Biso   1.000  C
  H3042    1.0000 0.18858  0.08685  0.60342  Biso   1.000  H
  H3043    1.0000 0.18859  0.08684  0.60346  Biso   1.000  H
  H3044    1.0000 0.67862  0.92695  0.51004  Biso   1.000  H
  H3045    1.0000 0.67863  0.92699  0.51004  Biso   1.000  H
  C4530    1.0000 0.67335  0.00275  0.53553  Biso   1.000  C
  C4531    1.0000 0.67334  0.00271  0.53553  Biso   1.000  C
  C4532    1.0000 0.67338  0.00275  0.53553  Biso   1.000  C
  C4533    1.0000 0.70256  0.05917  0.55555  Biso   1.000  C
  H3046    1.0000 0.77608  0.11527  0.57704  Biso   1.000  H
  C4534    1.0000 0.70255  0.05913  0.55555  Biso   1.000  C
  H3047    1.0000 0.77607  0.11524  0.57704  Biso   1.000  H
  C4535    1.0000 0.70259  0.05917  0.55555  Biso   1.000  C
  C4536    1.0000 0.56732  0.12717  0.09379  Biso   1.000  C
  H3048    1.0000 0.53721  0.04677  0.04038  Biso   1.000  H
  C4537    1.0000 0.56733  0.12721  0.09379  Biso   1.000  C
  H3049    1.0000 0.53722  0.04681  0.04038  Biso   1.000  H
  C4538    1.0000 0.56735  0.12717  0.09379  Biso   1.000  C
  H3050    1.0000 0.55976  0.16332  0.20982  Biso   1.000  H
  C4539    1.0000 0.57401  0.16205  0.14448  Biso   1.000  C
  H3051    1.0000 0.55971  0.16330  0.20978  Biso   1.000  H
  H3052    1.0000 0.55972  0.16332  0.20982  Biso   1.000  H
  C4540    1.0000 0.57402  0.16209  0.14448  Biso   1.000  C
  H3053    1.0000 0.55975  0.16330  0.20978  Biso   1.000  H
  C4541    1.0000 0.57405  0.16205  0.14448  Biso   1.000  C
  H3054    1.0000 0.33531  0.85192  0.33591  Biso   1.000  H
  C4542    1.0000 0.35823  0.92590  0.39830  Biso   1.000  C
  H3055    1.0000 0.33532  0.85196  0.33591  Biso   1.000  H
  C4543    1.0000 0.35820  0.92593  0.39830  Biso   1.000  C
  H3056    1.0000 0.33527  0.85192  0.33591  Biso   1.000  H
  C4544    1.0000 0.35819  0.92590  0.39830  Biso   1.000  C
  C4545    1.0000 0.35824  0.92593  0.39830  Biso   1.000  C
  C4546    1.0000 0.38601  0.98252  0.41759  Biso   1.000  C
  C4547    1.0000 0.38602  0.98256  0.41759  Biso   1.000  C
  H3057    1.0000 0.42804  0.04091  0.40040  Biso   1.000  H
  H3058    1.0000 0.42807  0.04091  0.40040  Biso   1.000  H
  C4548    1.0000 0.45446  0.73001  0.87498  Biso   1.000  C
  C4549    1.0000 0.45443  0.72995  0.87494  Biso   1.000  C
  C4550    1.0000 0.45441  0.72999  0.87494  Biso   1.000  C
  C4551    1.0000 0.45444  0.72999  0.87494  Biso   1.000  C
  C4552    1.0000 0.46789  0.80099  0.97598  Biso   1.000  C
  C4553    1.0000 0.46784  0.80097  0.97594  Biso   1.000  C
  C4554    1.0000 0.46785  0.80099  0.97598  Biso   1.000  C
  C4555    1.0000 0.46788  0.80097  0.97594  Biso   1.000  C
  C4556    1.0000 0.68299  0.77539  0.25362  Biso   1.000  C
  C4557    1.0000 0.68295  0.77541  0.25358  Biso   1.000  C
  C4558    1.0000 0.68296  0.77543  0.25362  Biso   1.000  C
  C4559    1.0000 0.68298  0.77538  0.25358  Biso   1.000  C
  C4560    1.0000 0.68299  0.77541  0.25358  Biso   1.000  C
  C4561    1.0000 0.68300  0.77543  0.25362  Biso   1.000  C
  C4562    1.0000 0.68294  0.77538  0.25358  Biso   1.000  C
  C4563    1.0000 0.72608  0.69360  0.23042  Biso   1.000  C
  C4564    1.0000 0.72608  0.69362  0.23038  Biso   1.000  C
  C4565    1.0000 0.72607  0.69358  0.23038  Biso   1.000  C
  C4566    1.0000 0.22571  0.27005  0.67084  Biso   1.000  C
  C4567    1.0000 0.22568  0.27005  0.67084  Biso   1.000  C
  C4568    1.0000 0.22569  0.27009  0.67084  Biso   1.000  C
  C4569    1.0000 0.27000  0.19315  0.64993  Biso   1.000  C
  C4570    1.0000 0.26997  0.19315  0.64993  Biso   1.000  C
  C4571    1.0000 0.26998  0.19318  0.64993  Biso   1.000  C
  C4572    1.0000 0.61302  0.98337  0.52724  Biso   1.000  C
  C4573    1.0000 0.66659  0.09399  0.56945  Biso   1.000  C
  C4574    1.0000 0.66654  0.09393  0.56941  Biso   1.000  C
  C4575    1.0000 0.66655  0.09395  0.56945  Biso   1.000  C
  C4576    1.0000 0.66658  0.09397  0.56941  Biso   1.000  C
  C4577    1.0000 0.66657  0.09393  0.56941  Biso   1.000  C
  C4578    1.0000 0.66658  0.09395  0.56945  Biso   1.000  C
  C4579    1.0000 0.66655  0.09397  0.56941  Biso   1.000  C
  C4580    1.0000 0.58860  0.15088  0.06188  Biso   1.000  C
  C4581    1.0000 0.58864  0.15088  0.06188  Biso   1.000  C
  C4582    1.0000 0.60214  0.22310  0.15889  Biso   1.000  C
  C4583    1.0000 0.60211  0.22310  0.15889  Biso   1.000  C
  C4584    1.0000 0.33360  0.90610  0.43060  Biso   1.000  C
  C4585    1.0000 0.33361  0.90613  0.43060  Biso   1.000  C
  C4586    1.0000 0.33357  0.90613  0.43060  Biso   1.000  C
  C4587    1.0000 0.38717  0.01672  0.47282  Biso   1.000  C
  C4588    1.0000 0.38713  0.01672  0.47282  Biso   1.000  C
  H3059    1.0000 0.44994  0.70619  0.84124  Biso   1.000  H
  C4589    1.0000 0.43164  0.76988  0.88415  Biso   1.000  C
  C4590    1.0000 0.43167  0.76988  0.88415  Biso   1.000  C
  H3060    1.0000 0.44993  0.70615  0.84124  Biso   1.000  H
  H3061    1.0000 0.44990  0.70619  0.84124  Biso   1.000  H
  C4591    1.0000 0.43835  0.80538  0.93466  Biso   1.000  C
  C4592    1.0000 0.43836  0.80541  0.93466  Biso   1.000  C
  C4593    1.0000 0.43831  0.80538  0.93466  Biso   1.000  C
  H3062    1.0000 0.47226  0.82468  0.00967  Biso   1.000  H
  H3063    1.0000 0.47223  0.82471  0.00967  Biso   1.000  H
  H3064    1.0000 0.47222  0.82468  0.00967  Biso   1.000  H
  H3065    1.0000 0.47227  0.82471  0.00967  Biso   1.000  H
  H3066    1.0000 0.66859  0.80279  0.26129  Biso   1.000  H
  C4594    1.0000 0.71610  0.77160  0.29320  Biso   1.000  C
  H3067    1.0000 0.66856  0.80283  0.26129  Biso   1.000  H
  C4595    1.0000 0.71608  0.77163  0.29320  Biso   1.000  C
  H3068    1.0000 0.66855  0.80279  0.26129  Biso   1.000  H
  C4596    1.0000 0.71607  0.77160  0.29320  Biso   1.000  C
  H3069    1.0000 0.66860  0.80283  0.26129  Biso   1.000  H
  C4597    1.0000 0.73759  0.73069  0.28169  Biso   1.000  C
  H3070    1.0000 0.74047  0.66619  0.22271  Biso   1.000  H
  C4598    1.0000 0.73757  0.73073  0.28169  Biso   1.000  C
  H3071    1.0000 0.74047  0.66621  0.22267  Biso   1.000  H
  C4599    1.0000 0.73756  0.73069  0.28169  Biso   1.000  C
  H3072    1.0000 0.74048  0.66623  0.22271  Biso   1.000  H
  H3073    1.0000 0.74046  0.66617  0.22267  Biso   1.000  H
  H3074    1.0000 0.74051  0.66619  0.22271  Biso   1.000  H
  C4600    1.0000 0.73760  0.73073  0.28169  Biso   1.000  C
  C4601    1.0000 0.26121  0.27335  0.63924  Biso   1.000  C
  H3075    1.0000 0.21082  0.29927  0.67936  Biso   1.000  H
  C4602    1.0000 0.26260  0.26939  0.71836  Biso   1.000  C
  C4603    1.0000 0.26117  0.27335  0.63924  Biso   1.000  C
  H3076    1.0000 0.21077  0.29925  0.67932  Biso   1.000  H
  C4604    1.0000 0.26259  0.26937  0.71832  Biso   1.000  C
  H3077    1.0000 0.21079  0.29927  0.67936  Biso   1.000  H
  C4605    1.0000 0.26259  0.26935  0.71836  Biso   1.000  C
  C4606    1.0000 0.26255  0.26937  0.71832  Biso   1.000  C
  H3078    1.0000 0.21081  0.29925  0.67932  Biso   1.000  H
  C4607    1.0000 0.28188  0.23196  0.62545  Biso   1.000  C
  H3079    1.0000 0.28550  0.16457  0.64125  Biso   1.000  H
  C4608    1.0000 0.28409  0.22848  0.70686  Biso   1.000  C
  H3080    1.0000 0.28546  0.16457  0.64125  Biso   1.000  H
  C4609    1.0000 0.28408  0.22845  0.70686  Biso   1.000  C
  C4610    1.0000 0.61418  0.01756  0.58247  Biso   1.000  C
  C4611    1.0000 0.61415  0.01756  0.58247  Biso   1.000  C
  C4612    1.0000 0.61414  0.01752  0.58247  Biso   1.000  C
  C4613    1.0000 0.61417  0.01752  0.58247  Biso   1.000  C
  H3081    1.0000 0.59363  0.94327  0.51194  Biso   1.000  H
  H3082    1.0000 0.59360  0.94327  0.51194  Biso   1.000  H
  C4614    1.0000 0.59506  0.01296  0.49792  Biso   1.000  C
  C4615    1.0000 0.59503  0.01296  0.49792  Biso   1.000  C
  C4616    1.0000 0.59505  0.01292  0.49792  Biso   1.000  C
  C4617    1.0000 0.64197  0.07419  0.60175  Biso   1.000  C
  C4618    1.0000 0.64196  0.07415  0.60175  Biso   1.000  C
  C4619    1.0000 0.64200  0.07419  0.60175  Biso   1.000  C
  C4620    1.0000 0.62257  0.06983  0.51853  Biso   1.000  C
  H3083    1.0000 0.68506  0.13425  0.58494  Biso   1.000  H
  C4621    1.0000 0.62254  0.06983  0.51853  Biso   1.000  C
  C4622    1.0000 0.62258  0.06987  0.51853  Biso   1.000  C
  H3084    1.0000 0.68510  0.13425  0.58494  Biso   1.000  H
  C4623    1.0000 0.62255  0.06987  0.51853  Biso   1.000  C
  C4624    1.0000 0.64602  0.18790  0.09549  Biso   1.000  C
  H3085    1.0000 0.58350  0.12419  0.02679  Biso   1.000  H
  C4625    1.0000 0.56184  0.19470  0.06540  Biso   1.000  C
  C4626    1.0000 0.56181  0.19470  0.06540  Biso   1.000  C
  H3086    1.0000 0.58354  0.12419  0.02679  Biso   1.000  H
  C4627    1.0000 0.64606  0.18790  0.09549  Biso   1.000  C
  C4628    1.0000 0.65144  0.22511  0.14499  Biso   1.000  C
  H3087    1.0000 0.60733  0.24920  0.19429  Biso   1.000  H
  C4629    1.0000 0.56852  0.23020  0.11590  Biso   1.000  C
  C4630    1.0000 0.65139  0.22507  0.14499  Biso   1.000  C
  C4631    1.0000 0.56856  0.23020  0.11590  Biso   1.000  C
  H3088    1.0000 0.60736  0.24920  0.19429  Biso   1.000  H
  C4632    1.0000 0.65143  0.22507  0.14499  Biso   1.000  C
  C4633    1.0000 0.65140  0.22511  0.14499  Biso   1.000  C
  C4634    1.0000 0.29763  0.94092  0.44451  Biso   1.000  C
  C4635    1.0000 0.29761  0.94095  0.44451  Biso   1.000  C
  C4636    1.0000 0.29760  0.94092  0.44451  Biso   1.000  C
  C4637    1.0000 0.37762  0.93025  0.48153  Biso   1.000  C
  H3089    1.0000 0.31513  0.86583  0.41511  Biso   1.000  H
  C4638    1.0000 0.37761  0.93023  0.48149  Biso   1.000  C
  H3090    1.0000 0.31510  0.86583  0.41511  Biso   1.000  H
  C4639    1.0000 0.32685  0.99733  0.46453  Biso   1.000  C
  C4640    1.0000 0.32681  0.99735  0.46449  Biso   1.000  C
  C4641    1.0000 0.32681  0.99733  0.46453  Biso   1.000  C
  C4642    1.0000 0.32680  0.99731  0.46449  Biso   1.000  C
  C4643    1.0000 0.32684  0.99735  0.46449  Biso   1.000  C
  C4644    1.0000 0.40513  0.98712  0.50213  Biso   1.000  C
  C4645    1.0000 0.40513  0.98714  0.50209  Biso   1.000  C
  C4646    1.0000 0.40514  0.98716  0.50213  Biso   1.000  C
  C4647    1.0000 0.40508  0.98711  0.50209  Biso   1.000  C
  C4648    1.0000 0.40510  0.98712  0.50213  Biso   1.000  C
  C4649    1.0000 0.40512  0.98711  0.50209  Biso   1.000  C
  H3091    1.0000 0.40656  0.05681  0.48811  Biso   1.000  H
  H3092    1.0000 0.40652  0.05681  0.48811  Biso   1.000  H
  H3093    1.0000 0.40657  0.05685  0.48811  Biso   1.000  H
  C4650    1.0000 0.39805  0.77698  0.84117  Biso   1.000  C
  C4651    1.0000 0.39801  0.77698  0.84117  Biso   1.000  C
  C4652    1.0000 0.41159  0.84920  0.93818  Biso   1.000  C
  C4653    1.0000 0.41154  0.84918  0.93814  Biso   1.000  C
  C4654    1.0000 0.41156  0.84920  0.93818  Biso   1.000  C
  C4655    1.0000 0.73019  0.80694  0.35013  Biso   1.000  C
  C4656    1.0000 0.73018  0.80692  0.35009  Biso   1.000  C
  C4657    1.0000 0.73021  0.80692  0.35009  Biso   1.000  C
  C4658    1.0000 0.73023  0.80694  0.35013  Biso   1.000  C
  C4659    1.0000 0.77448  0.73003  0.32921  Biso   1.000  C
  C4660    1.0000 0.77452  0.73003  0.32921  Biso   1.000  C
  C4661    1.0000 0.27110  0.31317  0.62073  Biso   1.000  C
  C4662    1.0000 0.27106  0.31317  0.62073  Biso   1.000  C
  C4663    1.0000 0.27109  0.31313  0.62073  Biso   1.000  C
  C4664    1.0000 0.27411  0.30648  0.76964  Biso   1.000  C
  C4665    1.0000 0.27408  0.30648  0.76964  Biso   1.000  C
  C4666    1.0000 0.27410  0.30644  0.76964  Biso   1.000  C
  C4667    1.0000 0.31259  0.23027  0.59315  Biso   1.000  C
  C4668    1.0000 0.31258  0.23025  0.59312  Biso   1.000  C
  C4669    1.0000 0.31258  0.23023  0.59315  Biso   1.000  C
  C4670    1.0000 0.31254  0.23025  0.59312  Biso   1.000  C
  C4671    1.0000 0.31720  0.22469  0.74644  Biso   1.000  C
  C4672    1.0000 0.31719  0.22465  0.74644  Biso   1.000  C
  C4673    1.0000 0.31717  0.22469  0.74644  Biso   1.000  C
  C4674    1.0000 0.59072  0.99705  0.61263  Biso   1.000  C
  C4675    1.0000 0.59073  0.99709  0.61263  Biso   1.000  C
  C4676    1.0000 0.55522  0.98536  0.45025  Biso   1.000  C
  C4677    1.0000 0.55521  0.98534  0.45021  Biso   1.000  C
  C4678    1.0000 0.55518  0.98534  0.45021  Biso   1.000  C
  C4679    1.0000 0.64630  0.11032  0.65125  Biso   1.000  C
  C4680    1.0000 0.64627  0.11032  0.65125  Biso   1.000  C
  C4681    1.0000 0.64626  0.11028  0.65125  Biso   1.000  C
  C4682    1.0000 0.64629  0.11028  0.65125  Biso   1.000  C
  C4683    1.0000 0.61007  0.09904  0.49153  Biso   1.000  C
  C4684    1.0000 0.61003  0.09904  0.49153  Biso   1.000  C
  C4685    1.0000 0.69033  0.18777  0.08039  Biso   1.000  C
  C4686    1.0000 0.69029  0.18777  0.08039  Biso   1.000  C
  C4687    1.0000 0.69030  0.18781  0.08039  Biso   1.000  C
  C4688    1.0000 0.69034  0.18781  0.08039  Biso   1.000  C
  C4689    1.0000 0.53230  0.19909  0.02408  Biso   1.000  C
  C4690    1.0000 0.53234  0.19909  0.02408  Biso   1.000  C
  C4691    1.0000 0.70133  0.26220  0.17930  Biso   1.000  C
  C4692    1.0000 0.70136  0.26220  0.17930  Biso   1.000  C
  C4693    1.0000 0.54574  0.27008  0.12508  Biso   1.000  C
  C4694    1.0000 0.54570  0.27008  0.12508  Biso   1.000  C
  C4695    1.0000 0.54571  0.27011  0.12508  Biso   1.000  C
  C4696    1.0000 0.54575  0.27011  0.12508  Biso   1.000  C
  C4697    1.0000 0.24362  0.92263  0.43641  Biso   1.000  C
  C4698    1.0000 0.24358  0.92263  0.43641  Biso   1.000  C
  C4699    1.0000 0.39013  0.90104  0.50852  Biso   1.000  C
  C4700    1.0000 0.39009  0.90104  0.50852  Biso   1.000  C
  C4701    1.0000 0.30196  0.03542  0.47661  Biso   1.000  C
  C4702    1.0000 0.44497  0.01472  0.54981  Biso   1.000  C
  C4703    1.0000 0.44493  0.01472  0.54981  Biso   1.000  C
  C4704    1.0000 0.34875  0.77497  0.85507  Biso   1.000  C
  H3094    1.0000 0.39286  0.75088  0.80577  Biso   1.000  H
  C4705    1.0000 0.42618  0.83803  0.85557  Biso   1.000  C
  C4706    1.0000 0.34874  0.77495  0.85503  Biso   1.000  C
  H3095    1.0000 0.39282  0.75087  0.80573  Biso   1.000  H
  C4707    1.0000 0.42612  0.83798  0.85553  Biso   1.000  C
  C4708    1.0000 0.34876  0.77501  0.85507  Biso   1.000  C
  H3096    1.0000 0.39283  0.75088  0.80577  Biso   1.000  H
  C4709    1.0000 0.42614  0.83803  0.85557  Biso   1.000  C
  C4710    1.0000 0.34870  0.77495  0.85503  Biso   1.000  C
  C4711    1.0000 0.42613  0.83801  0.85553  Biso   1.000  C
  C4712    1.0000 0.34872  0.77497  0.85507  Biso   1.000  C
  H3097    1.0000 0.39285  0.75087  0.80573  Biso   1.000  H
  C4713    1.0000 0.42616  0.83798  0.85553  Biso   1.000  C
  H3098    1.0000 0.41665  0.87590  0.97327  Biso   1.000  H
  C4714    1.0000 0.35413  0.81218  0.90456  Biso   1.000  C
  C4715    1.0000 0.35417  0.81218  0.90456  Biso   1.000  C
  H3099    1.0000 0.41669  0.87590  0.97327  Biso   1.000  H
  C4716    1.0000 0.43288  0.87291  0.90627  Biso   1.000  C
  C4717    1.0000 0.43283  0.87287  0.90627  Biso   1.000  C
  C4718    1.0000 0.43284  0.87291  0.90627  Biso   1.000  C
  C4719    1.0000 0.43287  0.87287  0.90627  Biso   1.000  C
  C4720    1.0000 0.71831  0.76812  0.37460  Biso   1.000  C
  H3100    1.0000 0.71469  0.83552  0.35880  Biso   1.000  H
  C4721    1.0000 0.79319  0.83019  0.36721  Biso   1.000  C
  C4722    1.0000 0.71828  0.76812  0.37460  Biso   1.000  C
  H3101    1.0000 0.71470  0.83555  0.35880  Biso   1.000  H
  C4723    1.0000 0.79320  0.83023  0.36721  Biso   1.000  C
  C4724    1.0000 0.79322  0.83019  0.36721  Biso   1.000  C
  C4725    1.0000 0.73898  0.72673  0.36082  Biso   1.000  C
  H3102    1.0000 0.78937  0.70081  0.32069  Biso   1.000  H
  C4726    1.0000 0.81459  0.78919  0.35590  Biso   1.000  C
  C4727    1.0000 0.81460  0.78923  0.35590  Biso   1.000  C
  C4728    1.0000 0.73902  0.72673  0.36082  Biso   1.000  C
  H3103    1.0000 0.78941  0.70081  0.32069  Biso   1.000  H
  C4729    1.0000 0.30171  0.31137  0.58843  Biso   1.000  C
  C4730    1.0000 0.25150  0.35958  0.63583  Biso   1.000  C
  C4731    1.0000 0.30167  0.31137  0.58843  Biso   1.000  C
  C4732    1.0000 0.25149  0.35954  0.63583  Biso   1.000  C
  C4733    1.0000 0.30166  0.31133  0.58843  Biso   1.000  C
  C4734    1.0000 0.25146  0.35958  0.63583  Biso   1.000  C
  C4735    1.0000 0.30170  0.31133  0.58843  Biso   1.000  C
  H3104    1.0000 0.25972  0.33389  0.77734  Biso   1.000  H
  C4736    1.0000 0.30711  0.30277  0.80925  Biso   1.000  C
  H3105    1.0000 0.25968  0.33385  0.77734  Biso   1.000  H
  H3106    1.0000 0.25969  0.33389  0.77734  Biso   1.000  H
  C4737    1.0000 0.30708  0.30277  0.80925  Biso   1.000  C
  H3107    1.0000 0.25971  0.33385  0.77734  Biso   1.000  H
  C4738    1.0000 0.32238  0.26998  0.57464  Biso   1.000  C
  C4739    1.0000 0.33411  0.18457  0.57735  Biso   1.000  C
  C4740    1.0000 0.32237  0.26994  0.57464  Biso   1.000  C
  C4741    1.0000 0.33406  0.18455  0.57731  Biso   1.000  C
  C4742    1.0000 0.33406  0.18453  0.57735  Biso   1.000  C
  C4743    1.0000 0.33407  0.18457  0.57735  Biso   1.000  C
  C4744    1.0000 0.33410  0.18455  0.57731  Biso   1.000  C
  C4745    1.0000 0.33410  0.18453  0.57735  Biso   1.000  C
  C4746    1.0000 0.32871  0.26187  0.79775  Biso   1.000  C
  H3108    1.0000 0.33160  0.19729  0.73877  Biso   1.000  H
  H3109    1.0000 0.33159  0.19727  0.73873  Biso   1.000  H
  H3110    1.0000 0.33160  0.19725  0.73877  Biso   1.000  H
  C4747    1.0000 0.32868  0.26187  0.79775  Biso   1.000  C
  H3111    1.0000 0.33156  0.19727  0.73873  Biso   1.000  H
  C4748    1.0000 0.59497  0.03318  0.66205  Biso   1.000  C
  C4749    1.0000 0.59496  0.03314  0.66205  Biso   1.000  C
  C4750    1.0000 0.59501  0.03318  0.66205  Biso   1.000  C
  H3112    1.0000 0.57215  0.95917  0.59966  Biso   1.000  H
  H3113    1.0000 0.57211  0.95915  0.59962  Biso   1.000  H
  H3114    1.0000 0.57212  0.95917  0.59966  Biso   1.000  H
  H3115    1.0000 0.57214  0.95915  0.59962  Biso   1.000  H
  C4751    1.0000 0.53012  0.92406  0.42244  Biso   1.000  C
  C4752    1.0000 0.53008  0.92406  0.42244  Biso   1.000  C
  C4753    1.0000 0.54265  0.01466  0.42314  Biso   1.000  C
  C4754    1.0000 0.54264  0.01462  0.42314  Biso   1.000  C
  C4755    1.0000 0.54268  0.01466  0.42314  Biso   1.000  C
  C4756    1.0000 0.62278  0.08988  0.68134  Biso   1.000  C
  C4757    1.0000 0.62277  0.08984  0.68134  Biso   1.000  C
  C4758    1.0000 0.62281  0.08988  0.68134  Biso   1.000  C
  H3116    1.0000 0.66488  0.14816  0.66414  Biso   1.000  H
  C4759    1.0000 0.57005  0.07146  0.44382  Biso   1.000  C
  C4760    1.0000 0.64147  0.15967  0.50993  Biso   1.000  C
  C4761    1.0000 0.57004  0.07142  0.44382  Biso   1.000  C
  C4762    1.0000 0.64146  0.15964  0.50993  Biso   1.000  C
  C4763    1.0000 0.57008  0.07146  0.44382  Biso   1.000  C
  C4764    1.0000 0.64150  0.15967  0.50993  Biso   1.000  C
  C4765    1.0000 0.74024  0.22490  0.11478  Biso   1.000  C
  C4766    1.0000 0.68491  0.14699  0.02698  Biso   1.000  C
  C4767    1.0000 0.74020  0.22490  0.11478  Biso   1.000  C
  C4768    1.0000 0.68495  0.14699  0.02698  Biso   1.000  C
  H3117    1.0000 0.52794  0.17540  0.99038  Biso   1.000  H
  H3118    1.0000 0.52792  0.17539  0.99035  Biso   1.000  H
  H3119    1.0000 0.52793  0.17537  0.99038  Biso   1.000  H
  H3120    1.0000 0.52789  0.17539  0.99035  Biso   1.000  H
  C4769    1.0000 0.50950  0.23897  0.03318  Biso   1.000  C
  C4770    1.0000 0.50951  0.23901  0.03318  Biso   1.000  C
  C4771    1.0000 0.50954  0.23897  0.03318  Biso   1.000  C
  C4772    1.0000 0.74575  0.26211  0.16419  Biso   1.000  C
  C4773    1.0000 0.70876  0.29642  0.23561  Biso   1.000  C
  C4774    1.0000 0.74570  0.26207  0.16419  Biso   1.000  C
  C4775    1.0000 0.70872  0.29639  0.23561  Biso   1.000  C
  C4776    1.0000 0.70873  0.29642  0.23561  Biso   1.000  C
  C4777    1.0000 0.74574  0.26207  0.16419  Biso   1.000  C
  C4778    1.0000 0.70875  0.29639  0.23561  Biso   1.000  C
  C4779    1.0000 0.74571  0.26211  0.16419  Biso   1.000  C
  C4780    1.0000 0.51623  0.27450  0.08368  Biso   1.000  C
  H3121    1.0000 0.55025  0.29389  0.15881  Biso   1.000  H
  C4781    1.0000 0.51622  0.27446  0.08368  Biso   1.000  C
  H3122    1.0000 0.55021  0.29387  0.15877  Biso   1.000  H
  H3123    1.0000 0.55023  0.29393  0.15881  Biso   1.000  H
  H3124    1.0000 0.55024  0.29387  0.15877  Biso   1.000  H
  H3125    1.0000 0.55026  0.29393  0.15881  Biso   1.000  H
  C4782    1.0000 0.21885  0.96074  0.44853  Biso   1.000  C
  C4783    1.0000 0.21881  0.96076  0.44849  Biso   1.000  C
  C4784    1.0000 0.21881  0.96074  0.44853  Biso   1.000  C
  C4785    1.0000 0.21880  0.96072  0.44849  Biso   1.000  C
  H3126    1.0000 0.22411  0.88481  0.42301  Biso   1.000  H
  H3127    1.0000 0.22412  0.88485  0.42301  Biso   1.000  H
  H3128    1.0000 0.22408  0.88481  0.42301  Biso   1.000  H
  C4786    1.0000 0.43015  0.92862  0.55624  Biso   1.000  C
  C4787    1.0000 0.35873  0.84041  0.49013  Biso   1.000  C
  C4788    1.0000 0.43011  0.92864  0.55620  Biso   1.000  C
  C4789    1.0000 0.35869  0.84043  0.49009  Biso   1.000  C
  C4790    1.0000 0.43012  0.92866  0.55624  Biso   1.000  C
  C4791    1.0000 0.35870  0.84045  0.49013  Biso   1.000  C
  C4792    1.0000 0.43010  0.92860  0.55620  Biso   1.000  C
  C4793    1.0000 0.43011  0.92862  0.55624  Biso   1.000  C
  C4794    1.0000 0.35869  0.84041  0.49013  Biso   1.000  C
  C4795    1.0000 0.43014  0.92864  0.55620  Biso   1.000  C
  C4796    1.0000 0.35872  0.84043  0.49009  Biso   1.000  C
  C4797    1.0000 0.43016  0.92866  0.55624  Biso   1.000  C
  C4798    1.0000 0.35874  0.84045  0.49013  Biso   1.000  C
  C4799    1.0000 0.24805  0.01713  0.46852  Biso   1.000  C
  C4800    1.0000 0.24804  0.01710  0.46852  Biso   1.000  C
  C4801    1.0000 0.24808  0.01713  0.46852  Biso   1.000  C
  H3129    1.0000 0.32158  0.07313  0.49001  Biso   1.000  H
  H3130    1.0000 0.32154  0.07313  0.49001  Biso   1.000  H
  C4802    1.0000 0.45755  0.98542  0.57692  Biso   1.000  C
  C4803    1.0000 0.45752  0.98546  0.57692  Biso   1.000  C
  C4804    1.0000 0.45751  0.98542  0.57692  Biso   1.000  C
  C4805    1.0000 0.45756  0.98546  0.57692  Biso   1.000  C
  C4806    1.0000 0.47008  0.07602  0.57761  Biso   1.000  C
  C4807    1.0000 0.47004  0.07602  0.57761  Biso   1.000  C
  C4808    1.0000 0.47005  0.07606  0.57761  Biso   1.000  C
  C4809    1.0000 0.47009  0.07606  0.57761  Biso   1.000  C
  C4810    1.0000 0.29883  0.73788  0.82076  Biso   1.000  C
  C4811    1.0000 0.29887  0.73788  0.82076  Biso   1.000  C
  C4812    1.0000 0.44494  0.86019  0.82424  Biso   1.000  C
  C4813    1.0000 0.44498  0.86019  0.82424  Biso   1.000  C
  C4814    1.0000 0.30987  0.81231  0.91967  Biso   1.000  C
  C4815    1.0000 0.30986  0.81227  0.91967  Biso   1.000  C
  C4816    1.0000 0.30983  0.81231  0.91967  Biso   1.000  C
  C4817    1.0000 0.45847  0.93000  0.92567  Biso   1.000  C
  C4818    1.0000 0.45846  0.92996  0.92567  Biso   1.000  C
  C4819    1.0000 0.45843  0.93000  0.92567  Biso   1.000  C
  C4820    1.0000 0.68760  0.76981  0.40690  Biso   1.000  C
  C4821    1.0000 0.68758  0.76985  0.40690  Biso   1.000  C
  C4822    1.0000 0.68757  0.76981  0.40690  Biso   1.000  C
  C4823    1.0000 0.68761  0.76985  0.40690  Biso   1.000  C
  C4824    1.0000 0.82601  0.88583  0.38913  Biso   1.000  C
  C4825    1.0000 0.82599  0.88581  0.38909  Biso   1.000  C
  C4826    1.0000 0.82604  0.88583  0.38913  Biso   1.000  C
  C4827    1.0000 0.72909  0.68691  0.37933  Biso   1.000  C
  C4828    1.0000 0.72909  0.68693  0.37929  Biso   1.000  C
  C4829    1.0000 0.72908  0.68689  0.37929  Biso   1.000  C
  C4830    1.0000 0.86890  0.80370  0.36662  Biso   1.000  C
  C4831    1.0000 0.86890  0.80372  0.36659  Biso   1.000  C
  C4832    1.0000 0.86891  0.80374  0.36662  Biso   1.000  C
  H3131    1.0000 0.30831  0.33797  0.57604  Biso   1.000  H
  H3132    1.0000 0.30827  0.33797  0.57604  Biso   1.000  H
  H3133    1.0000 0.30826  0.33793  0.57604  Biso   1.000  H
  H3134    1.0000 0.30830  0.33793  0.57604  Biso   1.000  H
  H3135    1.0000 0.21511  0.34576  0.63463  Biso   1.000  H
  H3136    1.0000 0.25280  0.37599  0.61186  Biso   1.000  H
  C4833    1.0000 0.28653  0.40377  0.69125  Biso   1.000  C
  H3137    1.0000 0.21507  0.34576  0.63463  Biso   1.000  H
  H3138    1.0000 0.25278  0.37594  0.61182  Biso   1.000  H
  C4834    1.0000 0.28649  0.40377  0.69125  Biso   1.000  C
  H3139    1.0000 0.25279  0.37596  0.61186  Biso   1.000  H
  C4835    1.0000 0.28648  0.40374  0.69125  Biso   1.000  C
  H3140    1.0000 0.25275  0.37598  0.61182  Biso   1.000  H
  C4836    1.0000 0.28652  0.40374  0.69125  Biso   1.000  C
  H3141    1.0000 0.25279  0.37598  0.61182  Biso   1.000  H
  O673     1.0000 0.32362  0.33399  0.86196  Biso   1.000  O
  O674     1.0000 0.32361  0.33395  0.86196  Biso   1.000  O
  O675     1.0000 0.32358  0.33399  0.86196  Biso   1.000  O
  H3142    1.0000 0.34288  0.26878  0.55303  Biso   1.000  H
  H3143    1.0000 0.34287  0.26874  0.55303  Biso   1.000  H
  H3144    1.0000 0.34400  0.18198  0.54684  Biso   1.000  H
  H3145    1.0000 0.30648  0.14948  0.56814  Biso   1.000  H
  C4837    1.0000 0.38230  0.19408  0.62034  Biso   1.000  C
  H3146    1.0000 0.34396  0.18194  0.54684  Biso   1.000  H
  H3147    1.0000 0.30647  0.14944  0.56814  Biso   1.000  H
  C4838    1.0000 0.38226  0.19405  0.62034  Biso   1.000  C
  H3148    1.0000 0.34397  0.18198  0.54684  Biso   1.000  H
  H3149    1.0000 0.30644  0.14948  0.56814  Biso   1.000  H
  C4839    1.0000 0.38227  0.19408  0.62034  Biso   1.000  C
  H3150    1.0000 0.34399  0.18194  0.54684  Biso   1.000  H
  C4840    1.0000 0.38229  0.19405  0.62034  Biso   1.000  C
  O676     1.0000 0.35933  0.26638  0.84275  Biso   1.000  O
  O677     1.0000 0.35929  0.26638  0.84275  Biso   1.000  O
  O678     1.0000 0.57710  0.02099  0.69807  Biso   1.000  O
  O679     1.0000 0.57704  0.02094  0.69803  Biso   1.000  O
  O680     1.0000 0.57706  0.02096  0.69807  Biso   1.000  O
  O681     1.0000 0.57709  0.02097  0.69803  Biso   1.000  O
  O682     1.0000 0.57708  0.02094  0.69803  Biso   1.000  O
  O683     1.0000 0.57709  0.02096  0.69807  Biso   1.000  O
  O684     1.0000 0.57705  0.02097  0.69803  Biso   1.000  O
  H3151    1.0000 0.55630  0.90763  0.42682  Biso   1.000  H
  H3152    1.0000 0.51452  0.91246  0.38573  Biso   1.000  H
  C4841    1.0000 0.48783  0.90517  0.44425  Biso   1.000  C
  H3153    1.0000 0.51451  0.91242  0.38573  Biso   1.000  H
  C4842    1.0000 0.48780  0.90511  0.44421  Biso   1.000  C
  H3154    1.0000 0.55631  0.90767  0.42682  Biso   1.000  H
  H3155    1.0000 0.51448  0.91246  0.38573  Biso   1.000  H
  H3156    1.0000 0.55627  0.90763  0.42682  Biso   1.000  H
  C4843    1.0000 0.48778  0.90515  0.44421  Biso   1.000  C
  C4844    1.0000 0.48779  0.90517  0.44425  Biso   1.000  C
  C4845    1.0000 0.48781  0.90515  0.44421  Biso   1.000  C
  H3157    1.0000 0.51602  0.99614  0.39123  Biso   1.000  H
  H3158    1.0000 0.51603  0.99617  0.39123  Biso   1.000  H
  H3159    1.0000 0.51598  0.99614  0.39123  Biso   1.000  H
  O685     1.0000 0.62130  0.11328  0.73044  Biso   1.000  O
  O686     1.0000 0.62127  0.11328  0.73044  Biso   1.000  O
  O687     1.0000 0.62126  0.11324  0.73044  Biso   1.000  O
  O688     1.0000 0.62129  0.11324  0.73044  Biso   1.000  O
  H3160    1.0000 0.56175  0.09104  0.42573  Biso   1.000  H
  H3161    1.0000 0.56176  0.09107  0.42573  Biso   1.000  H
  H3162    1.0000 0.67897  0.16665  0.52143  Biso   1.000  H
  H3163    1.0000 0.63427  0.16976  0.48173  Biso   1.000  H
  C4846    1.0000 0.62619  0.19525  0.55543  Biso   1.000  C
  H3164    1.0000 0.63424  0.16976  0.48173  Biso   1.000  H
  C4847    1.0000 0.62615  0.19525  0.55543  Biso   1.000  C
  H3165    1.0000 0.67896  0.16662  0.52143  Biso   1.000  H
  H3166    1.0000 0.63426  0.16973  0.48173  Biso   1.000  H
  C4848    1.0000 0.62614  0.19522  0.55543  Biso   1.000  C
  H3167    1.0000 0.67900  0.16665  0.52143  Biso   1.000  H
  C4849    1.0000 0.62618  0.19522  0.55543  Biso   1.000  C
  H3168    1.0000 0.76994  0.22482  0.10471  Biso   1.000  H
  H3169    1.0000 0.76992  0.22476  0.10467  Biso   1.000  H
  H3170    1.0000 0.76993  0.22480  0.10467  Biso   1.000  H
  H3171    1.0000 0.71702  0.15928  0.01920  Biso   1.000  H
  H3172    1.0000 0.65593  0.14578  0.00158  Biso   1.000  H
  C4850    1.0000 0.67451  0.08788  0.02319  Biso   1.000  C
  H3173    1.0000 0.65589  0.14578  0.00158  Biso   1.000  H
  H3174    1.0000 0.71703  0.15931  0.01920  Biso   1.000  H
  H3175    1.0000 0.71705  0.15928  0.01920  Biso   1.000  H
  C4851    1.0000 0.67455  0.08788  0.02319  Biso   1.000  C
  O689     1.0000 0.47964  0.24859  0.99677  Biso   1.000  O
  O690     1.0000 0.47961  0.24859  0.99677  Biso   1.000  O
  H3176    1.0000 0.77904  0.28691  0.18720  Biso   1.000  H
  H3177    1.0000 0.77907  0.28691  0.18720  Biso   1.000  H
  H3178    1.0000 0.74557  0.31010  0.25652  Biso   1.000  H
  H3179    1.0000 0.68746  0.27411  0.24831  Biso   1.000  H
  C4852    1.0000 0.69145  0.34471  0.23801  Biso   1.000  C
  H3180    1.0000 0.74552  0.31008  0.25648  Biso   1.000  H
  H3181    1.0000 0.68743  0.27411  0.24831  Biso   1.000  H
  H3182    1.0000 0.74554  0.31014  0.25652  Biso   1.000  H
  H3183    1.0000 0.74556  0.31008  0.25648  Biso   1.000  H
  H3184    1.0000 0.74558  0.31014  0.25652  Biso   1.000  H
  O691     1.0000 0.49024  0.30948  0.08198  Biso   1.000  O
  O692     1.0000 0.49020  0.30948  0.08198  Biso   1.000  O
  O693     1.0000 0.49021  0.30951  0.08198  Biso   1.000  O
  O694     1.0000 0.49025  0.30951  0.08198  Biso   1.000  O
  O695     1.0000 0.16592  0.94963  0.44222  Biso   1.000  O
  O696     1.0000 0.16593  0.94966  0.44222  Biso   1.000  O
  O697     1.0000 0.16589  0.94963  0.44222  Biso   1.000  O
  H3185    1.0000 0.43844  0.90905  0.57432  Biso   1.000  H
  H3186    1.0000 0.43840  0.90905  0.57432  Biso   1.000  H
  H3187    1.0000 0.32123  0.83343  0.47863  Biso   1.000  H
  H3188    1.0000 0.36592  0.83032  0.51832  Biso   1.000  H
  C4853    1.0000 0.37401  0.80483  0.44462  Biso   1.000  C
  H3189    1.0000 0.32120  0.83346  0.47863  Biso   1.000  H
  H3190    1.0000 0.36593  0.83036  0.51832  Biso   1.000  H
  C4854    1.0000 0.37402  0.80486  0.44462  Biso   1.000  C
  H3191    1.0000 0.32119  0.83343  0.47863  Biso   1.000  H
  H3192    1.0000 0.36588  0.83032  0.51832  Biso   1.000  H
  H3193    1.0000 0.32124  0.83346  0.47863  Biso   1.000  H
  O698     1.0000 0.21388  0.04543  0.47793  Biso   1.000  O
  O699     1.0000 0.21383  0.04541  0.47789  Biso   1.000  O
  O700     1.0000 0.21384  0.04543  0.47793  Biso   1.000  O
  O701     1.0000 0.21386  0.04541  0.47789  Biso   1.000  O
  H3194    1.0000 0.48418  0.00395  0.60883  Biso   1.000  H
  H3195    1.0000 0.48417  0.00391  0.60883  Biso   1.000  H
  H3196    1.0000 0.48567  0.08762  0.61433  Biso   1.000  H
  H3197    1.0000 0.44389  0.09245  0.57324  Biso   1.000  H
  C4855    1.0000 0.51237  0.09491  0.55581  Biso   1.000  C
  H3198    1.0000 0.48564  0.08762  0.61433  Biso   1.000  H
  H3199    1.0000 0.44383  0.09240  0.57320  Biso   1.000  H
  C4856    1.0000 0.51233  0.09491  0.55581  Biso   1.000  C
  H3200    1.0000 0.48568  0.08766  0.61433  Biso   1.000  H
  H3201    1.0000 0.44385  0.09245  0.57324  Biso   1.000  H
  C4857    1.0000 0.51238  0.09495  0.55581  Biso   1.000  C
  H3202    1.0000 0.44388  0.09243  0.57320  Biso   1.000  H
  H3203    1.0000 0.44387  0.09240  0.57320  Biso   1.000  H
  H3204    1.0000 0.44384  0.09243  0.57320  Biso   1.000  H
  C4858    1.0000 0.29143  0.70366  0.76445  Biso   1.000  C
  C4859    1.0000 0.25445  0.73797  0.83586  Biso   1.000  C
  C4860    1.0000 0.25446  0.73801  0.83586  Biso   1.000  C
  C4861    1.0000 0.29144  0.70369  0.76445  Biso   1.000  C
  C4862    1.0000 0.25441  0.73797  0.83586  Biso   1.000  C
  C4863    1.0000 0.29139  0.70366  0.76445  Biso   1.000  C
  H3205    1.0000 0.44043  0.83677  0.79024  Biso   1.000  H
  C4864    1.0000 0.47054  0.91717  0.84365  Biso   1.000  C
  C4865    1.0000 0.47055  0.91720  0.84365  Biso   1.000  C
  C4866    1.0000 0.47058  0.91720  0.84365  Biso   1.000  C
  C4867    1.0000 0.25995  0.77518  0.88528  Biso   1.000  C
  C4868    1.0000 0.31528  0.85309  0.97307  Biso   1.000  C
  C4869    1.0000 0.25994  0.77516  0.88524  Biso   1.000  C
  C4870    1.0000 0.31524  0.85309  0.97307  Biso   1.000  C
  C4871    1.0000 0.25996  0.77522  0.88528  Biso   1.000  C
  C4872    1.0000 0.31525  0.85312  0.97307  Biso   1.000  C
  C4873    1.0000 0.25991  0.77516  0.88524  Biso   1.000  C
  C4874    1.0000 0.31529  0.85312  0.97307  Biso   1.000  C
  H3206    1.0000 0.46298  0.95331  0.95967  Biso   1.000  H
  C4875    1.0000 0.47730  0.95210  0.89438  Biso   1.000  C
  H3207    1.0000 0.46297  0.95327  0.95967  Biso   1.000  H
  C4876    1.0000 0.47724  0.95204  0.89434  Biso   1.000  C
  C4877    1.0000 0.47726  0.95210  0.89438  Biso   1.000  C
  H3208    1.0000 0.46295  0.95331  0.95967  Biso   1.000  H
  C4878    1.0000 0.47725  0.95208  0.89434  Biso   1.000  C
  C4879    1.0000 0.67781  0.73010  0.42541  Biso   1.000  C
  C4880    1.0000 0.66608  0.81551  0.42270  Biso   1.000  C
  C4881    1.0000 0.67779  0.73014  0.42541  Biso   1.000  C
  C4882    1.0000 0.66609  0.81555  0.42270  Biso   1.000  C
  C4883    1.0000 0.66612  0.81551  0.42270  Biso   1.000  C
  C4884    1.0000 0.67782  0.73014  0.42541  Biso   1.000  C
  C4885    1.0000 0.67778  0.73010  0.42541  Biso   1.000  C
  H3209    1.0000 0.81160  0.91321  0.39660  Biso   1.000  H
  C4886    1.0000 0.88020  0.90032  0.39981  Biso   1.000  C
  H3210    1.0000 0.81161  0.91325  0.39660  Biso   1.000  H
  C4887    1.0000 0.88021  0.90036  0.39981  Biso   1.000  C
  H3211    1.0000 0.81163  0.91321  0.39660  Biso   1.000  H
  C4888    1.0000 0.88024  0.90032  0.39981  Biso   1.000  C
  C4889    1.0000 0.69848  0.68871  0.41163  Biso   1.000  C
  C4890    1.0000 0.74869  0.64050  0.36422  Biso   1.000  C
  C4891    1.0000 0.69848  0.68873  0.41159  Biso   1.000  C
  C4892    1.0000 0.74866  0.64052  0.36418  Biso   1.000  C
  C4893    1.0000 0.69849  0.68875  0.41163  Biso   1.000  C
  C4894    1.0000 0.74867  0.64054  0.36422  Biso   1.000  C
  C4895    1.0000 0.69851  0.68869  0.41159  Biso   1.000  C
  C4896    1.0000 0.74868  0.64048  0.36418  Biso   1.000  C
  C4897    1.0000 0.69852  0.68871  0.41163  Biso   1.000  C
  C4898    1.0000 0.74869  0.64052  0.36418  Biso   1.000  C
  C4899    1.0000 0.74870  0.64054  0.36422  Biso   1.000  C
  C4900    1.0000 0.69847  0.68869  0.41159  Biso   1.000  C
  C4901    1.0000 0.74865  0.64048  0.36418  Biso   1.000  C
  C4902    1.0000 0.90170  0.85932  0.38851  Biso   1.000  C
  H3212    1.0000 0.88319  0.77630  0.35911  Biso   1.000  H
  H3213    1.0000 0.88320  0.77634  0.35911  Biso   1.000  H
  H3214    1.0000 0.88323  0.77630  0.35911  Biso   1.000  H
  H3215    1.0000 0.32101  0.42187  0.69094  Biso   1.000  H
  H3216    1.0000 0.28961  0.38607  0.71375  Biso   1.000  H
  H3217    1.0000 0.27084  0.43069  0.70357  Biso   1.000  H
  H3218    1.0000 0.27079  0.43067  0.70353  Biso   1.000  H
  H3219    1.0000 0.32100  0.42184  0.69094  Biso   1.000  H
  H3220    1.0000 0.27079  0.43065  0.70357  Biso   1.000  H
  H3221    1.0000 0.32097  0.42187  0.69094  Biso   1.000  H
  H3222    1.0000 0.28958  0.38607  0.71375  Biso   1.000  H
  H3223    1.0000 0.27080  0.43069  0.70357  Biso   1.000  H
  H3224    1.0000 0.27082  0.43067  0.70353  Biso   1.000  H
  H3225    1.0000 0.27083  0.43065  0.70357  Biso   1.000  H
  B368     1.0000 0.35623  0.31050  0.88396  Biso   1.000  B
  B369     1.0000 0.35622  0.31046  0.88396  Biso   1.000  B
  B370     1.0000 0.35619  0.31050  0.88396  Biso   1.000  B
  H3226    1.0000 0.41028  0.18985  0.60655  Biso   1.000  H
  H3227    1.0000 0.37281  0.16737  0.63366  Biso   1.000  H
  H3228    1.0000 0.39399  0.23077  0.64784  Biso   1.000  H
  H3229    1.0000 0.37276  0.16735  0.63362  Biso   1.000  H
  H3230    1.0000 0.37276  0.16733  0.63366  Biso   1.000  H
  H3231    1.0000 0.39398  0.23073  0.64784  Biso   1.000  H
  H3232    1.0000 0.41029  0.18989  0.60655  Biso   1.000  H
  H3233    1.0000 0.39396  0.23077  0.64784  Biso   1.000  H
  H3234    1.0000 0.37277  0.16737  0.63366  Biso   1.000  H
  H3235    1.0000 0.37280  0.16735  0.63362  Biso   1.000  H
  H3236    1.0000 0.37280  0.16733  0.63366  Biso   1.000  H
  B371     1.0000 0.59320  0.07367  0.74295  Biso   1.000  B
  B372     1.0000 0.59316  0.07367  0.74295  Biso   1.000  B
  B373     1.0000 0.59315  0.07363  0.74295  Biso   1.000  B
  B374     1.0000 0.59319  0.07363  0.74295  Biso   1.000  B
  H3237    1.0000 0.46382  0.92415  0.44243  Biso   1.000  H
  H3238    1.0000 0.50393  0.91354  0.47972  Biso   1.000  H
  H3239    1.0000 0.46892  0.86583  0.42442  Biso   1.000  H
  H3240    1.0000 0.50389  0.91354  0.47972  Biso   1.000  H
  H3241    1.0000 0.46888  0.86583  0.42442  Biso   1.000  H
  H3242    1.0000 0.50390  0.91358  0.47972  Biso   1.000  H
  H3243    1.0000 0.46889  0.86586  0.42442  Biso   1.000  H
  H3244    1.0000 0.46378  0.92415  0.44243  Biso   1.000  H
  H3245    1.0000 0.50394  0.91358  0.47972  Biso   1.000  H
  H3246    1.0000 0.46893  0.86586  0.42442  Biso   1.000  H
  H3247    1.0000 0.64988  0.20236  0.58785  Biso   1.000  H
  H3248    1.0000 0.62846  0.22986  0.55443  Biso   1.000  H
  H3249    1.0000 0.59068  0.17546  0.55226  Biso   1.000  H
  H3250    1.0000 0.59066  0.17545  0.55222  Biso   1.000  H
  H3251    1.0000 0.62845  0.22982  0.55443  Biso   1.000  H
  H3252    1.0000 0.59067  0.17543  0.55226  Biso   1.000  H
  H3253    1.0000 0.62850  0.22986  0.55443  Biso   1.000  H
  H3254    1.0000 0.66694  0.06229  0.98798  Biso   1.000  H
  H3255    1.0000 0.66690  0.06227  0.98794  Biso   1.000  H
  H3256    1.0000 0.66691  0.06229  0.98798  Biso   1.000  H
  H3257    1.0000 0.66693  0.06227  0.98794  Biso   1.000  H
  H3258    1.0000 0.64511  0.07727  0.03457  Biso   1.000  H
  H3259    1.0000 0.70531  0.08780  0.04460  Biso   1.000  H
  H3260    1.0000 0.70530  0.08778  0.04456  Biso   1.000  H
  H3261    1.0000 0.64512  0.07731  0.03457  Biso   1.000  H
  H3262    1.0000 0.70533  0.08778  0.04456  Biso   1.000  H
  H3263    1.0000 0.70535  0.08780  0.04460  Biso   1.000  H
  B375     1.0000 0.46873  0.29280  0.02969  Biso   1.000  B
  H3264    1.0000 0.70486  0.35961  0.21621  Biso   1.000  H
  H3265    1.0000 0.70508  0.37322  0.27302  Biso   1.000  H
  H3266    1.0000 0.65354  0.33181  0.22620  Biso   1.000  H
  H3267    1.0000 0.70483  0.35961  0.21621  Biso   1.000  H
  H3268    1.0000 0.70503  0.37321  0.27298  Biso   1.000  H
  H3269    1.0000 0.70505  0.37322  0.27302  Biso   1.000  H
  H3270    1.0000 0.70507  0.37321  0.27298  Biso   1.000  H
  H3271    1.0000 0.65357  0.33181  0.22620  Biso   1.000  H
  B376     1.0000 0.16606  0.00382  0.46251  Biso   1.000  B
  B377     1.0000 0.16603  0.00382  0.46251  Biso   1.000  B
  H3272    1.0000 0.35031  0.79772  0.41221  Biso   1.000  H
  H3273    1.0000 0.37173  0.77023  0.44563  Biso   1.000  H
  H3274    1.0000 0.40952  0.82462  0.44780  Biso   1.000  H
  H3275    1.0000 0.37169  0.77024  0.44559  Biso   1.000  H
  H3276    1.0000 0.40949  0.82465  0.44780  Biso   1.000  H
  H3277    1.0000 0.37170  0.77023  0.44563  Biso   1.000  H
  H3278    1.0000 0.35027  0.79772  0.41221  Biso   1.000  H
  H3279    1.0000 0.37168  0.77021  0.44559  Biso   1.000  H
  H3280    1.0000 0.40948  0.82462  0.44780  Biso   1.000  H
  H3281    1.0000 0.37173  0.77024  0.44559  Biso   1.000  H
  H3282    1.0000 0.40953  0.82465  0.44780  Biso   1.000  H
  H3283    1.0000 0.49627  0.08654  0.52033  Biso   1.000  H
  H3284    1.0000 0.53637  0.07593  0.55763  Biso   1.000  H
  H3285    1.0000 0.53127  0.13426  0.57564  Biso   1.000  H
  H3286    1.0000 0.49625  0.08652  0.52030  Biso   1.000  H
  H3287    1.0000 0.53634  0.07593  0.55763  Biso   1.000  H
  H3288    1.0000 0.53125  0.13420  0.57560  Biso   1.000  H
  H3289    1.0000 0.53130  0.13424  0.57560  Biso   1.000  H
  H3290    1.0000 0.49630  0.08654  0.52033  Biso   1.000  H
  H3291    1.0000 0.53131  0.13426  0.57564  Biso   1.000  H
  H3292    1.0000 0.53126  0.13424  0.57560  Biso   1.000  H
  H3293    1.0000 0.31273  0.72597  0.75174  Biso   1.000  H
  H3294    1.0000 0.25462  0.68998  0.74353  Biso   1.000  H
  C4903    1.0000 0.30874  0.65538  0.76205  Biso   1.000  C
  H3295    1.0000 0.25461  0.68994  0.74353  Biso   1.000  H
  C4904    1.0000 0.30870  0.65538  0.76205  Biso   1.000  C
  H3296    1.0000 0.31269  0.72597  0.75174  Biso   1.000  H
  H3297    1.0000 0.22112  0.71317  0.81286  Biso   1.000  H
  H3298    1.0000 0.22116  0.71317  0.81286  Biso   1.000  H
  O702     1.0000 0.49395  0.94478  0.81785  Biso   1.000  O
  O703     1.0000 0.49392  0.94478  0.81785  Biso   1.000  O
  H3299    1.0000 0.23025  0.77527  0.89535  Biso   1.000  H
  H3300    1.0000 0.23021  0.77527  0.89535  Biso   1.000  H
  H3301    1.0000 0.23026  0.77530  0.89535  Biso   1.000  H
  C4905    1.0000 0.32565  0.91220  0.97687  Biso   1.000  C
  H3302    1.0000 0.28318  0.84080  0.98086  Biso   1.000  H
  H3303    1.0000 0.34426  0.85430  0.99848  Biso   1.000  H
  C4906    1.0000 0.32568  0.91220  0.97687  Biso   1.000  C
  H3304    1.0000 0.28313  0.84077  0.98086  Biso   1.000  H
  H3305    1.0000 0.34425  0.85428  0.99844  Biso   1.000  H
  H3306    1.0000 0.28314  0.84080  0.98086  Biso   1.000  H
  H3307    1.0000 0.28317  0.84077  0.98086  Biso   1.000  H
  O704     1.0000 0.50529  0.00369  0.90085  Biso   1.000  O
  O705     1.0000 0.50528  0.00365  0.90085  Biso   1.000  O
  O706     1.0000 0.50533  0.00369  0.90085  Biso   1.000  O
  H3308    1.0000 0.65731  0.73130  0.44702  Biso   1.000  H
  H3309    1.0000 0.65729  0.73134  0.44702  Biso   1.000  H
  H3310    1.0000 0.65732  0.73134  0.44702  Biso   1.000  H
  H3311    1.0000 0.65619  0.81810  0.45322  Biso   1.000  H
  H3312    1.0000 0.69371  0.85060  0.43192  Biso   1.000  H
  C4907    1.0000 0.61789  0.80600  0.37971  Biso   1.000  C
  H3313    1.0000 0.65620  0.81814  0.45322  Biso   1.000  H
  H3314    1.0000 0.69369  0.85064  0.43192  Biso   1.000  H
  C4908    1.0000 0.61790  0.80603  0.37971  Biso   1.000  C
  H3315    1.0000 0.65623  0.81814  0.45322  Biso   1.000  H
  H3316    1.0000 0.69372  0.85064  0.43192  Biso   1.000  H
  H3317    1.0000 0.65622  0.81810  0.45322  Biso   1.000  H
  C4909    1.0000 0.61793  0.80600  0.37971  Biso   1.000  C
  O707     1.0000 0.91880  0.95181  0.42092  Biso   1.000  O
  O708     1.0000 0.91881  0.95185  0.42092  Biso   1.000  O
  O709     1.0000 0.91883  0.95181  0.42092  Biso   1.000  O
  H3318    1.0000 0.69189  0.66212  0.42402  Biso   1.000  H
  H3319    1.0000 0.69190  0.66215  0.42402  Biso   1.000  H
  H3320    1.0000 0.69192  0.66212  0.42402  Biso   1.000  H
  H3321    1.0000 0.78509  0.65433  0.36542  Biso   1.000  H
  H3322    1.0000 0.74739  0.62409  0.38820  Biso   1.000  H
  C4910    1.0000 0.71367  0.59631  0.30880  Biso   1.000  C
  H3323    1.0000 0.78507  0.65431  0.36539  Biso   1.000  H
  H3324    1.0000 0.74736  0.62412  0.38820  Biso   1.000  H
  C4911    1.0000 0.71368  0.59634  0.30880  Biso   1.000  C
  H3325    1.0000 0.78512  0.65433  0.36542  Biso   1.000  H
  C4912    1.0000 0.71370  0.59631  0.30880  Biso   1.000  C
  H3326    1.0000 0.74740  0.62412  0.38820  Biso   1.000  H
  H3327    1.0000 0.74735  0.62409  0.38820  Biso   1.000  H
  O710     1.0000 0.95481  0.88520  0.40311  Biso   1.000  O
  O711     1.0000 0.95478  0.88524  0.40311  Biso   1.000  O
  O712     1.0000 0.95482  0.88524  0.40311  Biso   1.000  O
  O713     1.0000 0.95477  0.88520  0.40311  Biso   1.000  O
  C4913    1.0000 0.38323  0.33140  0.93926  Biso   1.000  C
  C4914    1.0000 0.38322  0.33136  0.93926  Biso   1.000  C
  C4915    1.0000 0.38319  0.33140  0.93926  Biso   1.000  C
  C4916    1.0000 0.58501  0.08206  0.79245  Biso   1.000  C
  C4917    1.0000 0.58497  0.08206  0.79245  Biso   1.000  C
  C4918    1.0000 0.58502  0.08210  0.79245  Biso   1.000  C
  C4919    1.0000 0.58498  0.08210  0.79245  Biso   1.000  C
  C4920    1.0000 0.43502  0.32157  0.00878  Biso   1.000  C
  C4921    1.0000 0.43503  0.32161  0.00878  Biso   1.000  C
  C4922    1.0000 0.11485  0.01691  0.46081  Biso   1.000  C
  C4923    1.0000 0.11486  0.01694  0.46081  Biso   1.000  C
  H3328    1.0000 0.29511  0.62686  0.72704  Biso   1.000  H
  H3329    1.0000 0.29533  0.64047  0.78385  Biso   1.000  H
  H3330    1.0000 0.34662  0.66828  0.77386  Biso   1.000  H
  H3331    1.0000 0.34666  0.66828  0.77386  Biso   1.000  H
  H3332    1.0000 0.29529  0.64047  0.78385  Biso   1.000  H
  B378     1.0000 0.51631  0.00138  0.85766  Biso   1.000  B
  B379     1.0000 0.51627  0.00138  0.85766  Biso   1.000  B
  B380     1.0000 0.51626  0.00135  0.85766  Biso   1.000  B
  B381     1.0000 0.51630  0.00135  0.85766  Biso   1.000  B
  H3333    1.0000 0.29485  0.91228  0.95545  Biso   1.000  H
  H3334    1.0000 0.35508  0.92281  0.96548  Biso   1.000  H
  H3335    1.0000 0.29488  0.91228  0.95545  Biso   1.000  H
  H3336    1.0000 0.35506  0.92276  0.96544  Biso   1.000  H
  H3337    1.0000 0.35503  0.92279  0.96544  Biso   1.000  H
  H3338    1.0000 0.35505  0.92281  0.96548  Biso   1.000  H
  H3339    1.0000 0.35507  0.92279  0.96544  Biso   1.000  H
  H3340    1.0000 0.33325  0.93779  0.01207  Biso   1.000  H
  H3341    1.0000 0.33328  0.93779  0.01207  Biso   1.000  H
  H3342    1.0000 0.58992  0.81023  0.39350  Biso   1.000  H
  H3343    1.0000 0.62738  0.83271  0.36639  Biso   1.000  H
  H3344    1.0000 0.60620  0.76931  0.35222  Biso   1.000  H
  H3345    1.0000 0.58988  0.81023  0.39350  Biso   1.000  H
  H3346    1.0000 0.62739  0.83275  0.36639  Biso   1.000  H
  H3347    1.0000 0.60617  0.76935  0.35222  Biso   1.000  H
  H3348    1.0000 0.60616  0.76931  0.35222  Biso   1.000  H
  H3349    1.0000 0.62742  0.83271  0.36639  Biso   1.000  H
  H3350    1.0000 0.60621  0.76935  0.35222  Biso   1.000  H
  B382     1.0000 0.96740  0.94180  0.42290  Biso   1.000  B
  B383     1.0000 0.96741  0.94184  0.42290  Biso   1.000  B
  B384     1.0000 0.96743  0.94180  0.42290  Biso   1.000  B
  H3351    1.0000 0.67919  0.57821  0.30911  Biso   1.000  H
  H3352    1.0000 0.71058  0.61401  0.28630  Biso   1.000  H
  H3353    1.0000 0.72936  0.56939  0.29649  Biso   1.000  H
  H3354    1.0000 0.67916  0.57824  0.30911  Biso   1.000  H
  H3355    1.0000 0.71055  0.61401  0.28630  Biso   1.000  H
  H3356    1.0000 0.72937  0.56943  0.29649  Biso   1.000  H
  H3357    1.0000 0.67915  0.57821  0.30911  Biso   1.000  H
  H3358    1.0000 0.72939  0.56939  0.29649  Biso   1.000  H
  H3359    1.0000 0.67920  0.57824  0.30911  Biso   1.000  H
  C4924    1.0000 0.41243  0.30410  0.95615  Biso   1.000  C
  C4925    1.0000 0.37675  0.37630  0.97497  Biso   1.000  C
  C4926    1.0000 0.41242  0.30406  0.95615  Biso   1.000  C
  C4927    1.0000 0.37671  0.37630  0.97497  Biso   1.000  C
  C4928    1.0000 0.37670  0.37626  0.97497  Biso   1.000  C
  C4929    1.0000 0.41240  0.30410  0.95615  Biso   1.000  C
  C4930    1.0000 0.37674  0.37626  0.97497  Biso   1.000  C
  C4931    1.0000 0.55479  0.03857  0.79977  Biso   1.000  C
  C4932    1.0000 0.55478  0.03855  0.79973  Biso   1.000  C
  C4933    1.0000 0.60850  0.13529  0.83307  Biso   1.000  C
  C4934    1.0000 0.60849  0.13527  0.83303  Biso   1.000  C
  C4935    1.0000 0.60849  0.13525  0.83307  Biso   1.000  C
  C4936    1.0000 0.60854  0.13529  0.83307  Biso   1.000  C
  C4937    1.0000 0.42853  0.36649  0.04460  Biso   1.000  C
  C4938    1.0000 0.42852  0.36647  0.04456  Biso   1.000  C
  C4939    1.0000 0.06624  0.97444  0.44373  Biso   1.000  C
  C4940    1.0000 0.06620  0.97445  0.44369  Biso   1.000  C
  C4941    1.0000 0.06620  0.97444  0.44373  Biso   1.000  C
  C4942    1.0000 0.06619  0.97442  0.44369  Biso   1.000  C
  C4943    1.0000 0.06624  0.97445  0.44369  Biso   1.000  C
  C4944    1.0000 0.11814  0.07161  0.47762  Biso   1.000  C
  C4945    1.0000 0.11815  0.07165  0.47762  Biso   1.000  C
  C4946    1.0000 0.11818  0.07161  0.47762  Biso   1.000  C
  C4947    1.0000 0.54810  0.04839  0.84756  Biso   1.000  C
  C4948    1.0000 0.54809  0.04835  0.84756  Biso   1.000  C
  C4949    1.0000 0.02083  0.98661  0.44342  Biso   1.000  C
  C4950    1.0000 0.02081  0.98665  0.44342  Biso   1.000  C
  C4951    1.0000 0.02080  0.98661  0.44342  Biso   1.000  C
  C4952    1.0000 0.02084  0.98665  0.44342  Biso   1.000  C
  H3360    1.0000 0.41672  0.27408  0.93225  Biso   1.000  H
  H3361    1.0000 0.41669  0.27408  0.93225  Biso   1.000  H
  H3362    1.0000 0.35726  0.39462  0.96366  Biso   1.000  H
  H3363    1.0000 0.35721  0.39458  0.96366  Biso   1.000  H
  H3364    1.0000 0.35722  0.39462  0.96366  Biso   1.000  H
  H3365    1.0000 0.35725  0.39458  0.96366  Biso   1.000  H
  C4953    1.0000 0.39935  0.39381  0.02760  Biso   1.000  C
  C4954    1.0000 0.39930  0.39379  0.02756  Biso   1.000  C
  C4955    1.0000 0.39931  0.39381  0.02760  Biso   1.000  C
  C4956    1.0000 0.39933  0.39379  0.02756  Biso   1.000  C
  H3366    1.0000 0.53910  0.00298  0.77254  Biso   1.000  H
  H3367    1.0000 0.53905  0.00295  0.77254  Biso   1.000  H
  H3368    1.0000 0.53909  0.00295  0.77254  Biso   1.000  H
  H3369    1.0000 0.53906  0.00298  0.77254  Biso   1.000  H
  C4957    1.0000 0.60183  0.14508  0.88098  Biso   1.000  C
  C4958    1.0000 0.60178  0.14506  0.88094  Biso   1.000  C
  C4959    1.0000 0.60179  0.14508  0.88098  Biso   1.000  C
  C4960    1.0000 0.60182  0.14506  0.88094  Biso   1.000  C
  H3370    1.0000 0.62872  0.16440  0.82827  Biso   1.000  H
  H3371    1.0000 0.62866  0.16435  0.82823  Biso   1.000  H
  H3372    1.0000 0.62867  0.16436  0.82827  Biso   1.000  H
  H3373    1.0000 0.62870  0.16438  0.82823  Biso   1.000  H
  H3374    1.0000 0.62869  0.16435  0.82823  Biso   1.000  H
  H3375    1.0000 0.62871  0.16436  0.82827  Biso   1.000  H
  H3376    1.0000 0.62867  0.16438  0.82823  Biso   1.000  H
  H3377    1.0000 0.44375  0.37820  0.07988  Biso   1.000  H
  H3378    1.0000 0.44372  0.37820  0.07988  Biso   1.000  H
  H3379    1.0000 0.06403  0.93783  0.43250  Biso   1.000  H
  H3380    1.0000 0.06399  0.93783  0.43250  Biso   1.000  H
  C4961    1.0000 0.07274  0.08383  0.47731  Biso   1.000  C
  C4962    1.0000 0.07278  0.08383  0.47731  Biso   1.000  C
  H3381    1.0000 0.15077  0.10004  0.48912  Biso   1.000  H
  H3382    1.0000 0.15072  0.10000  0.48912  Biso   1.000  H
  H3383    1.0000 0.15076  0.10000  0.48912  Biso   1.000  H
  H3384    1.0000 0.15073  0.10004  0.48912  Biso   1.000  H
  C4963    1.0000 0.57162  0.10160  0.88814  Biso   1.000  C
  C4964    1.0000 0.57157  0.10156  0.88814  Biso   1.000  C
  C4965    1.0000 0.57161  0.10156  0.88814  Biso   1.000  C
  C4966    1.0000 0.57158  0.10160  0.88814  Biso   1.000  C
  C4967    1.0000 0.02405  0.04132  0.46023  Biso   1.000  C
  C4968    1.0000 0.02404  0.04130  0.46019  Biso   1.000  C
  C4969    1.0000 0.02406  0.04136  0.46023  Biso   1.000  C
  B385     1.0000 0.39284  0.44348  0.06819  Biso   1.000  B
  B386     1.0000 0.39281  0.44348  0.06819  Biso   1.000  B
  B387     1.0000 0.39282  0.44351  0.06819  Biso   1.000  B
  B388     1.0000 0.39285  0.44351  0.06819  Biso   1.000  B
  B389     1.0000 0.62652  0.20600  0.92737  Biso   1.000  B
  B390     1.0000 0.62650  0.20598  0.92734  Biso   1.000  B
  B391     1.0000 0.62651  0.20596  0.92737  Biso   1.000  B
  B392     1.0000 0.62655  0.20600  0.92737  Biso   1.000  B
  B393     1.0000 0.08016  0.14671  0.49690  Biso   1.000  B
  B394     1.0000 0.08012  0.14671  0.49690  Biso   1.000  B
  B395     1.0000 0.08017  0.14674  0.49690  Biso   1.000  B
  H3385    1.0000 0.56710  0.10818  0.92017  Biso   1.000  H
  H3386    1.0000 0.56713  0.10818  0.92017  Biso   1.000  H
  H3387    1.0000 0.99365  0.04942  0.46011  Biso   1.000  H
  H3388    1.0000 0.99369  0.04942  0.46011  Biso   1.000  H
  O714     1.0000 0.36073  0.47220  0.05471  Biso   1.000  O
  O715     1.0000 0.41113  0.45969  0.12028  Biso   1.000  O
  O716     1.0000 0.36072  0.47218  0.05467  Biso   1.000  O
  O717     1.0000 0.36077  0.47220  0.05471  Biso   1.000  O
  O718     1.0000 0.41117  0.45969  0.12028  Biso   1.000  O
  O719     1.0000 0.62364  0.21530  0.97408  Biso   1.000  O
  O720     1.0000 0.66061  0.24880  0.92246  Biso   1.000  O
  O721     1.0000 0.62359  0.21528  0.97404  Biso   1.000  O
  O722     1.0000 0.62359  0.21526  0.97408  Biso   1.000  O
  O723     1.0000 0.66060  0.24876  0.92246  Biso   1.000  O
  O724     1.0000 0.62362  0.21528  0.97404  Biso   1.000  O
  O725     1.0000 0.66064  0.24880  0.92246  Biso   1.000  O
  O726     1.0000 0.62363  0.21526  0.97408  Biso   1.000  O
  O727     1.0000 0.03437  0.16192  0.49381  Biso   1.000  O
  O728     1.0000 0.12476  0.18754  0.50581  Biso   1.000  O
  O729     1.0000 0.03433  0.16192  0.49381  Biso   1.000  O
  O730     1.0000 0.12475  0.18750  0.50581  Biso   1.000  O
  O731     1.0000 0.12480  0.18754  0.50581  Biso   1.000  O
  C4970    1.0000 0.36225  0.50648  0.10289  Biso   1.000  C
  C4971    1.0000 0.36222  0.50648  0.10289  Biso   1.000  C
  C4972    1.0000 0.36223  0.50652  0.10289  Biso   1.000  C
  C4973    1.0000 0.36226  0.50652  0.10289  Biso   1.000  C
  C4974    1.0000 0.39234  0.49989  0.14239  Biso   1.000  C
  C4975    1.0000 0.39235  0.49993  0.14239  Biso   1.000  C
  C4976    1.0000 0.39237  0.49989  0.14239  Biso   1.000  C
  C4977    1.0000 0.65513  0.27169  0.00409  Biso   1.000  C
  C4978    1.0000 0.65509  0.27169  0.00409  Biso   1.000  C
  C4979    1.0000 0.67634  0.28970  0.97149  Biso   1.000  C
  C4980    1.0000 0.67629  0.28968  0.97145  Biso   1.000  C
  C4981    1.0000 0.67629  0.28966  0.97149  Biso   1.000  C
  C4982    1.0000 0.67633  0.28968  0.97145  Biso   1.000  C
  C4983    1.0000 0.67633  0.28966  0.97149  Biso   1.000  C
  C4984    1.0000 0.05756  0.21793  0.50961  Biso   1.000  C
  C4985    1.0000 0.05755  0.21790  0.50961  Biso   1.000  C
  C4986    1.0000 0.05759  0.21793  0.50961  Biso   1.000  C
  C4987    1.0000 0.11148  0.23474  0.51724  Biso   1.000  C
  C4988    1.0000 0.11143  0.23472  0.51720  Biso   1.000  C
  C4989    1.0000 0.11144  0.23474  0.51724  Biso   1.000  C
  C4990    1.0000 0.11147  0.23472  0.51720  Biso   1.000  C
  C4991    1.0000 0.33723  0.54439  0.11458  Biso   1.000  C
  C4992    1.0000 0.33724  0.54442  0.11458  Biso   1.000  C
  C4993    1.0000 0.33727  0.54439  0.11458  Biso   1.000  C
  C4994    1.0000 0.39737  0.53121  0.19359  Biso   1.000  C
  C4995    1.0000 0.39733  0.53121  0.19359  Biso   1.000  C
  C4996    1.0000 0.66941  0.30801  0.05618  Biso   1.000  C
  C4997    1.0000 0.66944  0.30797  0.05618  Biso   1.000  C
  C4998    1.0000 0.66945  0.30801  0.05618  Biso   1.000  C
  C4999    1.0000 0.66940  0.30797  0.05618  Biso   1.000  C
  C5000    1.0000 0.71183  0.34379  0.99077  Biso   1.000  C
  C5001    1.0000 0.71180  0.34379  0.99077  Biso   1.000  C
  C5002    1.0000 0.03279  0.25594  0.51491  Biso   1.000  C
  C5003    1.0000 0.03274  0.25590  0.51491  Biso   1.000  C
  C5004    1.0000 0.03275  0.25594  0.51491  Biso   1.000  C
  C5005    1.0000 0.14059  0.28963  0.53021  Biso   1.000  C
  C5006    1.0000 0.14055  0.28963  0.53021  Biso   1.000  C
  H3389    1.0000 0.31714  0.54882  0.08821  Biso   1.000  H
  C5007    1.0000 0.34237  0.57570  0.16578  Biso   1.000  C
  H3390    1.0000 0.31712  0.54877  0.08817  Biso   1.000  H
  C5008    1.0000 0.34233  0.57570  0.16578  Biso   1.000  C
  H3391    1.0000 0.31713  0.54881  0.08817  Biso   1.000  H
  H3392    1.0000 0.31718  0.54882  0.08821  Biso   1.000  H
  C5009    1.0000 0.37235  0.56911  0.20528  Biso   1.000  C
  H3393    1.0000 0.41745  0.52672  0.22000  Biso   1.000  H
  C5010    1.0000 0.37234  0.56908  0.20528  Biso   1.000  C
  H3394    1.0000 0.41748  0.52672  0.22000  Biso   1.000  H
  C5011    1.0000 0.37238  0.56911  0.20528  Biso   1.000  C
  H3395    1.0000 0.65532  0.29598  0.07810  Biso   1.000  H
  C5012    1.0000 0.70492  0.36212  0.07551  Biso   1.000  C
  H3396    1.0000 0.65536  0.29598  0.07810  Biso   1.000  H
  C5013    1.0000 0.70493  0.36206  0.07547  Biso   1.000  C
  H3397    1.0000 0.65537  0.29602  0.07810  Biso   1.000  H
  C5014    1.0000 0.70496  0.36212  0.07551  Biso   1.000  C
  C5015    1.0000 0.70494  0.36210  0.07547  Biso   1.000  C
  C5016    1.0000 0.70490  0.36206  0.07547  Biso   1.000  C
  H3398    1.0000 0.65533  0.29602  0.07810  Biso   1.000  H
  H3399    1.0000 0.72592  0.35578  0.96885  Biso   1.000  H
  H3400    1.0000 0.72595  0.35578  0.96885  Biso   1.000  H
  C5017    1.0000 0.72603  0.38000  0.04278  Biso   1.000  C
  C5018    1.0000 0.72602  0.37997  0.04278  Biso   1.000  C
  H3401    1.0000 0.99665  0.24461  0.50980  Biso   1.000  H
  H3402    1.0000 0.99668  0.24461  0.50980  Biso   1.000  H
  C5019    1.0000 0.06176  0.31082  0.52793  Biso   1.000  C
  C5020    1.0000 0.06177  0.31086  0.52793  Biso   1.000  C
  C5021    1.0000 0.06179  0.31082  0.52793  Biso   1.000  C
  C5022    1.0000 0.11570  0.32766  0.53563  Biso   1.000  C
  H3403    1.0000 0.17658  0.30092  0.53532  Biso   1.000  H
  C5023    1.0000 0.11564  0.32760  0.53559  Biso   1.000  C
  H3404    1.0000 0.17654  0.30092  0.53532  Biso   1.000  H
  C5024    1.0000 0.11567  0.32766  0.53563  Biso   1.000  C
  H3405    1.0000 0.17659  0.30096  0.53532  Biso   1.000  H
  C5025    1.0000 0.11569  0.32764  0.53559  Biso   1.000  C
  C5026    1.0000 0.11565  0.32764  0.53559  Biso   1.000  C
  C5027    1.0000 0.31387  0.62053  0.18460  Biso   1.000  C
  C5028    1.0000 0.31382  0.62049  0.18460  Biso   1.000  C
  C5029    1.0000 0.31386  0.62049  0.18460  Biso   1.000  C
  C5030    1.0000 0.31383  0.62053  0.18460  Biso   1.000  C
  C5031    1.0000 0.37128  0.60162  0.25749  Biso   1.000  C
  C5032    1.0000 0.37123  0.60158  0.25749  Biso   1.000  C
  C5033    1.0000 0.37124  0.60162  0.25749  Biso   1.000  C
  C5034    1.0000 0.37127  0.60158  0.25749  Biso   1.000  C
  C5035    1.0000 0.72132  0.40132  0.13170  Biso   1.000  C
  C5036    1.0000 0.72135  0.40128  0.13170  Biso   1.000  C
  C5037    1.0000 0.72136  0.40132  0.13170  Biso   1.000  C
  C5038    1.0000 0.72131  0.40128  0.13170  Biso   1.000  C
  C5039    1.0000 0.76344  0.43991  0.07040  Biso   1.000  C
  C5040    1.0000 0.76347  0.43991  0.07040  Biso   1.000  C
  C5041    1.0000 0.03577  0.35434  0.52603  Biso   1.000  C
  C5042    1.0000 0.03581  0.35434  0.52603  Biso   1.000  C
  C5043    1.0000 0.14138  0.38734  0.54551  Biso   1.000  C
  C5044    1.0000 0.14137  0.38730  0.54551  Biso   1.000  C
  C5045    1.0000 0.14141  0.38734  0.54551  Biso   1.000  C
  C5046    1.0000 0.28424  0.59349  0.21319  Biso   1.000  C
  C5047    1.0000 0.28425  0.59353  0.21319  Biso   1.000  C
  C5048    1.0000 0.28427  0.59349  0.21319  Biso   1.000  C
  C5049    1.0000 0.35807  0.66981  0.22829  Biso   1.000  C
  H3406    1.0000 0.29294  0.62681  0.15788  Biso   1.000  H
  C5050    1.0000 0.35804  0.66981  0.22829  Biso   1.000  C
  H3407    1.0000 0.29293  0.62677  0.15788  Biso   1.000  H
  H3408    1.0000 0.29297  0.62681  0.15788  Biso   1.000  H
  C5051    1.0000 0.31295  0.58690  0.25338  Biso   1.000  C
  C5052    1.0000 0.38797  0.66249  0.26729  Biso   1.000  C
  H3409    1.0000 0.39217  0.59591  0.28472  Biso   1.000  H
  C5053    1.0000 0.38793  0.66249  0.26729  Biso   1.000  C
  H3410    1.0000 0.39213  0.59589  0.28468  Biso   1.000  H
  C5054    1.0000 0.38794  0.66253  0.26729  Biso   1.000  C
  H3411    1.0000 0.39215  0.59595  0.28472  Biso   1.000  H
  H3412    1.0000 0.39216  0.59589  0.28468  Biso   1.000  H
  C5055    1.0000 0.38798  0.66253  0.26729  Biso   1.000  C
  H3413    1.0000 0.39218  0.59595  0.28472  Biso   1.000  H
  C5056    1.0000 0.71353  0.45371  0.13201  Biso   1.000  C
  H3414    1.0000 0.70512  0.38641  0.15289  Biso   1.000  H
  C5057    1.0000 0.78023  0.41841  0.14599  Biso   1.000  C
  C5058    1.0000 0.71355  0.45369  0.13197  Biso   1.000  C
  H3415    1.0000 0.70515  0.38638  0.15289  Biso   1.000  H
  C5059    1.0000 0.78027  0.41841  0.14599  Biso   1.000  C
  C5060    1.0000 0.71356  0.45371  0.13201  Biso   1.000  C
  H3416    1.0000 0.70516  0.38641  0.15289  Biso   1.000  H
  C5061    1.0000 0.71351  0.45369  0.13197  Biso   1.000  C
  H3417    1.0000 0.70511  0.38638  0.15289  Biso   1.000  H
  C5062    1.0000 0.73602  0.47300  0.10068  Biso   1.000  C
  H3418    1.0000 0.77941  0.45461  0.04910  Biso   1.000  H
  C5063    1.0000 0.80194  0.43829  0.11458  Biso   1.000  C
  C5064    1.0000 0.73606  0.47300  0.10068  Biso   1.000  C
  H3419    1.0000 0.77945  0.45461  0.04910  Biso   1.000  H
  H3420    1.0000 0.99726  0.34232  0.51662  Biso   1.000  H
  H3421    1.0000 0.99729  0.34232  0.51662  Biso   1.000  H
  H3422    1.0000 0.99730  0.34236  0.51662  Biso   1.000  H
  H3423    1.0000 0.99727  0.34236  0.51662  Biso   1.000  H
  C5065    1.0000 0.06917  0.39852  0.58071  Biso   1.000  C
  C5066    1.0000 0.06258  0.37752  0.49330  Biso   1.000  C
  C5067    1.0000 0.06254  0.37752  0.49330  Biso   1.000  C
  C5068    1.0000 0.06918  0.39856  0.58071  Biso   1.000  C
  C5069    1.0000 0.06920  0.39852  0.58071  Biso   1.000  C
  C5070    1.0000 0.12309  0.41744  0.58873  Biso   1.000  C
  H3424    1.0000 0.18000  0.39994  0.55503  Biso   1.000  H
  C5071    1.0000 0.11649  0.39614  0.50101  Biso   1.000  C
  H3425    1.0000 0.17995  0.39992  0.55500  Biso   1.000  H
  C5072    1.0000 0.11645  0.39610  0.50101  Biso   1.000  C
  H3426    1.0000 0.17996  0.39994  0.55503  Biso   1.000  H
  C5073    1.0000 0.11646  0.39614  0.50101  Biso   1.000  C
  H3427    1.0000 0.17998  0.39992  0.55500  Biso   1.000  H
  C5074    1.0000 0.12312  0.41744  0.58873  Biso   1.000  C
  C5075    1.0000 0.22967  0.57680  0.20021  Biso   1.000  C
  C5076    1.0000 0.22962  0.57678  0.20017  Biso   1.000  C
  C5077    1.0000 0.22964  0.57684  0.20021  Biso   1.000  C
  C5078    1.0000 0.22966  0.57678  0.20017  Biso   1.000  C
  C5079    1.0000 0.22968  0.57684  0.20021  Biso   1.000  C
  C5080    1.0000 0.36837  0.72272  0.23119  Biso   1.000  C
  C5081    1.0000 0.36836  0.72268  0.23119  Biso   1.000  C
  C5082    1.0000 0.28717  0.56341  0.28049  Biso   1.000  C
  C5083    1.0000 0.28713  0.56341  0.28049  Biso   1.000  C
  C5084    1.0000 0.42807  0.70802  0.30919  Biso   1.000  C
  C5085    1.0000 0.42806  0.70799  0.30919  Biso   1.000  C
  C5086    1.0000 0.42810  0.70802  0.30919  Biso   1.000  C
  C5087    1.0000 0.68555  0.48101  0.15920  Biso   1.000  C
  C5088    1.0000 0.81253  0.41340  0.18530  Biso   1.000  C
  C5089    1.0000 0.81257  0.41340  0.18530  Biso   1.000  C
  C5090    1.0000 0.73044  0.51950  0.09650  Biso   1.000  C
  C5091    1.0000 0.73048  0.51950  0.09650  Biso   1.000  C
  C5092    1.0000 0.85593  0.45338  0.12268  Biso   1.000  C
  C5093    1.0000 0.85596  0.45338  0.12268  Biso   1.000  C
  C5094    1.0000 0.85597  0.45342  0.12268  Biso   1.000  C
  C5095    1.0000 0.85594  0.45342  0.12268  Biso   1.000  C
  C5096    1.0000 0.04918  0.42656  0.61754  Biso   1.000  C
  C5097    1.0000 0.04916  0.42651  0.61750  Biso   1.000  C
  C5098    1.0000 0.04921  0.42655  0.61750  Biso   1.000  C
  C5099    1.0000 0.04922  0.42656  0.61754  Biso   1.000  C
  C5100    1.0000 0.04917  0.42655  0.61750  Biso   1.000  C
  C5101    1.0000 0.02787  0.37993  0.45372  Biso   1.000  C
  C5102    1.0000 0.15710  0.46446  0.63354  Biso   1.000  C
  C5103    1.0000 0.15707  0.46441  0.63350  Biso   1.000  C
  C5104    1.0000 0.15708  0.46444  0.63350  Biso   1.000  C
  C5105    1.0000 0.15713  0.46446  0.63354  Biso   1.000  C
  C5106    1.0000 0.13567  0.41711  0.46921  Biso   1.000  C
  C5107    1.0000 0.13564  0.41711  0.46921  Biso   1.000  C
  C5108    1.0000 0.13568  0.41715  0.46921  Biso   1.000  C
  C5109    1.0000 0.13565  0.41715  0.46921  Biso   1.000  C
  C5110    1.0000 0.20377  0.55342  0.22732  Biso   1.000  C
  C5111    1.0000 0.20372  0.55341  0.22728  Biso   1.000  C
  C5112    1.0000 0.20376  0.55341  0.22728  Biso   1.000  C
  H3428    1.0000 0.21046  0.58132  0.17330  Biso   1.000  H
  H3429    1.0000 0.21042  0.58128  0.17330  Biso   1.000  H
  H3430    1.0000 0.21043  0.58132  0.17330  Biso   1.000  H
  H3431    1.0000 0.21045  0.58128  0.17330  Biso   1.000  H
  C5113    1.0000 0.40846  0.76821  0.27310  Biso   1.000  C
  C5114    1.0000 0.34236  0.73081  0.18739  Biso   1.000  C
  C5115    1.0000 0.40850  0.76821  0.27310  Biso   1.000  C
  C5116    1.0000 0.23246  0.54670  0.26740  Biso   1.000  C
  C5117    1.0000 0.23243  0.54670  0.26740  Biso   1.000  C
  C5118    1.0000 0.23244  0.54674  0.26740  Biso   1.000  C
  C5119    1.0000 0.23247  0.54674  0.26740  Biso   1.000  C
  H3432    1.0000 0.30635  0.55903  0.30729  Biso   1.000  H
  H3433    1.0000 0.30634  0.55899  0.30729  Biso   1.000  H
  H3434    1.0000 0.30639  0.55903  0.30729  Biso   1.000  H
  C5120    1.0000 0.43827  0.76083  0.31210  Biso   1.000  C
  C5121    1.0000 0.46290  0.70151  0.35082  Biso   1.000  C
  C5122    1.0000 0.43826  0.76079  0.31210  Biso   1.000  C
  C5123    1.0000 0.46285  0.70149  0.35078  Biso   1.000  C
  C5124    1.0000 0.46287  0.70155  0.35082  Biso   1.000  C
  C5125    1.0000 0.43830  0.76083  0.31210  Biso   1.000  C
  C5126    1.0000 0.46290  0.70153  0.35078  Biso   1.000  C
  C5127    1.0000 0.46291  0.70155  0.35082  Biso   1.000  C
  C5128    1.0000 0.46286  0.70153  0.35078  Biso   1.000  C
  C5129    1.0000 0.68004  0.52751  0.15502  Biso   1.000  C
  C5130    1.0000 0.66273  0.46029  0.19340  Biso   1.000  C
  C5131    1.0000 0.68006  0.52750  0.15498  Biso   1.000  C
  C5132    1.0000 0.66276  0.46029  0.19340  Biso   1.000  C
  C5133    1.0000 0.68007  0.52751  0.15502  Biso   1.000  C
  C5134    1.0000 0.66277  0.46033  0.19340  Biso   1.000  C
  C5135    1.0000 0.68003  0.52750  0.15498  Biso   1.000  C
  C5136    1.0000 0.66274  0.46033  0.19340  Biso   1.000  C
  H3435    1.0000 0.79806  0.40012  0.20629  Biso   1.000  H
  C5137    1.0000 0.86645  0.42849  0.19340  Biso   1.000  C
  H3436    1.0000 0.79805  0.40008  0.20629  Biso   1.000  H
  C5138    1.0000 0.86646  0.42852  0.19340  Biso   1.000  C
  C5139    1.0000 0.86642  0.42849  0.19340  Biso   1.000  C
  C5140    1.0000 0.70243  0.54669  0.12369  Biso   1.000  C
  C5141    1.0000 0.74745  0.53658  0.05800  Biso   1.000  C
  C5142    1.0000 0.70247  0.54669  0.12369  Biso   1.000  C
  C5143    1.0000 0.74743  0.53657  0.05796  Biso   1.000  C
  C5144    1.0000 0.74746  0.53662  0.05800  Biso   1.000  C
  C5145    1.0000 0.74744  0.53660  0.05796  Biso   1.000  C
  C5146    1.0000 0.88814  0.44850  0.16210  Biso   1.000  C
  H3437    1.0000 0.87043  0.46679  0.10180  Biso   1.000  H
  H3438    1.0000 0.87046  0.46679  0.10180  Biso   1.000  H
  C5147    1.0000 0.88818  0.44850  0.16210  Biso   1.000  C
  H3439    1.0000 0.87047  0.46683  0.10180  Biso   1.000  H
  H3440    1.0000 0.87044  0.46683  0.10180  Biso   1.000  H
  C5148    1.0000 0.99201  0.40266  0.61204  Biso   1.000  C
  C5149    1.0000 0.99200  0.40264  0.61200  Biso   1.000  C
  C5150    1.0000 0.99196  0.40264  0.61200  Biso   1.000  C
  C5151    1.0000 0.08328  0.47353  0.66231  Biso   1.000  C
  C5152    1.0000 0.08329  0.47356  0.66231  Biso   1.000  C
  C5153    1.0000 0.08331  0.47353  0.66231  Biso   1.000  C
  H3441    1.0000 0.99176  0.36742  0.44853  Biso   1.000  H
  H3442    1.0000 0.99178  0.36740  0.44849  Biso   1.000  H
  H3443    1.0000 0.99181  0.36746  0.44853  Biso   1.000  H
  H3444    1.0000 0.99175  0.36740  0.44849  Biso   1.000  H
  H3445    1.0000 0.99180  0.36742  0.44853  Biso   1.000  H
  H3446    1.0000 0.99177  0.36746  0.44853  Biso   1.000  H
  C5154    1.0000 0.04718  0.40083  0.42193  Biso   1.000  C
  C5155    1.0000 0.04713  0.40081  0.42189  Biso   1.000  C
  C5156    1.0000 0.04716  0.40081  0.42189  Biso   1.000  C
  C5157    1.0000 0.13720  0.49245  0.67033  Biso   1.000  C
  C5158    1.0000 0.21519  0.48906  0.64434  Biso   1.000  C
  C5159    1.0000 0.21517  0.48900  0.64430  Biso   1.000  C
  C5160    1.0000 0.21521  0.48904  0.64430  Biso   1.000  C
  C5161    1.0000 0.13723  0.49245  0.67033  Biso   1.000  C
  C5162    1.0000 0.21523  0.48906  0.64434  Biso   1.000  C
  C5163    1.0000 0.21518  0.48904  0.64430  Biso   1.000  C
  H3447    1.0000 0.17179  0.42962  0.47440  Biso   1.000  H
  C5164    1.0000 0.10107  0.41951  0.42960  Biso   1.000  C
  H3448    1.0000 0.17175  0.42962  0.47440  Biso   1.000  H
  C5165    1.0000 0.10103  0.41951  0.42960  Biso   1.000  C
  O732     1.0000 0.15194  0.53282  0.22391  Biso   1.000  O
  O733     1.0000 0.15193  0.53280  0.22387  Biso   1.000  O
  O734     1.0000 0.15196  0.53280  0.22387  Biso   1.000  O
  O735     1.0000 0.15198  0.53282  0.22391  Biso   1.000  O
  H3449    1.0000 0.41527  0.80352  0.27499  Biso   1.000  H
  H3450    1.0000 0.41530  0.80352  0.27499  Biso   1.000  H
  H3451    1.0000 0.33874  0.70101  0.15509  Biso   1.000  H
  H3452    1.0000 0.36407  0.76552  0.18921  Biso   1.000  H
  C5166    1.0000 0.28837  0.73190  0.18821  Biso   1.000  C
  H3453    1.0000 0.36406  0.76550  0.18917  Biso   1.000  H
  C5167    1.0000 0.28833  0.73190  0.18821  Biso   1.000  C
  C5168    1.0000 0.28834  0.73194  0.18821  Biso   1.000  C
  H3454    1.0000 0.33878  0.70101  0.15509  Biso   1.000  H
  C5169    1.0000 0.28838  0.73194  0.18821  Biso   1.000  C
  O736     1.0000 0.20125  0.52222  0.28990  Biso   1.000  O
  O737     1.0000 0.20128  0.52222  0.28990  Biso   1.000  O
  H3455    1.0000 0.46510  0.79133  0.34021  Biso   1.000  H
  H3456    1.0000 0.46506  0.79133  0.34021  Biso   1.000  H
  H3457    1.0000 0.49539  0.73394  0.36903  Biso   1.000  H
  H3458    1.0000 0.47176  0.66922  0.33541  Biso   1.000  H
  C5170    1.0000 0.43349  0.69472  0.38951  Biso   1.000  C
  H3459    1.0000 0.49538  0.73392  0.36899  Biso   1.000  H
  C5171    1.0000 0.43345  0.69472  0.38951  Biso   1.000  C
  H3460    1.0000 0.47180  0.66922  0.33541  Biso   1.000  H
  H3461    1.0000 0.49542  0.73394  0.36903  Biso   1.000  H
  H3462    1.0000 0.66124  0.54572  0.17322  Biso   1.000  H
  H3463    1.0000 0.66126  0.54570  0.17318  Biso   1.000  H
  H3464    1.0000 0.66127  0.54572  0.17322  Biso   1.000  H
  H3465    1.0000 0.66122  0.54570  0.17318  Biso   1.000  H
  H3466    1.0000 0.68564  0.44500  0.20811  Biso   1.000  H
  H3467    1.0000 0.66134  0.49122  0.22178  Biso   1.000  H
  C5172    1.0000 0.60672  0.41541  0.16369  Biso   1.000  C
  H3468    1.0000 0.68566  0.44498  0.20807  Biso   1.000  H
  H3469    1.0000 0.66136  0.49118  0.22178  Biso   1.000  H
  C5173    1.0000 0.60676  0.41541  0.16369  Biso   1.000  C
  H3470    1.0000 0.68569  0.44504  0.20811  Biso   1.000  H
  H3471    1.0000 0.66137  0.49122  0.22178  Biso   1.000  H
  H3472    1.0000 0.68563  0.44498  0.20807  Biso   1.000  H
  H3473    1.0000 0.66133  0.49118  0.22178  Biso   1.000  H
  H3474    1.0000 0.68565  0.44504  0.20811  Biso   1.000  H
  O738     1.0000 0.90595  0.42752  0.23030  Biso   1.000  O
  O739     1.0000 0.90599  0.42752  0.23030  Biso   1.000  O
  H3475    1.0000 0.69873  0.57780  0.12090  Biso   1.000  H
  H3476    1.0000 0.69877  0.57780  0.12090  Biso   1.000  H
  H3477    1.0000 0.74232  0.50419  0.02698  Biso   1.000  H
  H3478    1.0000 0.72715  0.55690  0.04840  Biso   1.000  H
  C5174    1.0000 0.80564  0.57330  0.08360  Biso   1.000  C
  H3479    1.0000 0.74236  0.50419  0.02698  Biso   1.000  H
  O740     1.0000 0.94366  0.46430  0.18011  Biso   1.000  O
  O741     1.0000 0.94365  0.46429  0.18007  Biso   1.000  O
  O742     1.0000 0.94362  0.46429  0.18007  Biso   1.000  O
  H3480    1.0000 0.98759  0.41333  0.64593  Biso   1.000  H
  H3481    1.0000 0.97879  0.36243  0.59403  Biso   1.000  H
  C5175    1.0000 0.96120  0.42584  0.58052  Biso   1.000  C
  H3482    1.0000 0.97878  0.36241  0.59400  Biso   1.000  H
  H3483    1.0000 0.98760  0.41336  0.64593  Biso   1.000  H
  H3484    1.0000 0.97880  0.36246  0.59403  Biso   1.000  H
  H3485    1.0000 0.97879  0.36244  0.59400  Biso   1.000  H
  H3486    1.0000 0.06989  0.49224  0.68702  Biso   1.000  H
  H3487    1.0000 0.06992  0.49224  0.68702  Biso   1.000  H
  O743     1.0000 0.02616  0.40794  0.38022  Biso   1.000  O
  O744     1.0000 0.02615  0.40790  0.38022  Biso   1.000  O
  O745     1.0000 0.02620  0.40794  0.38022  Biso   1.000  O
  H3488    1.0000 0.16002  0.52396  0.70034  Biso   1.000  H
  H3489    1.0000 0.15997  0.52394  0.70030  Biso   1.000  H
  H3490    1.0000 0.15998  0.52396  0.70034  Biso   1.000  H
  H3491    1.0000 0.16000  0.52394  0.70030  Biso   1.000  H
  H3492    1.0000 0.22499  0.52595  0.64612  Biso   1.000  H
  H3493    1.0000 0.22560  0.46615  0.61723  Biso   1.000  H
  C5176    1.0000 0.24190  0.49203  0.69624  Biso   1.000  C
  H3494    1.0000 0.22498  0.52592  0.64612  Biso   1.000  H
  H3495    1.0000 0.22557  0.46615  0.61723  Biso   1.000  H
  C5177    1.0000 0.24191  0.49207  0.69624  Biso   1.000  C
  H3496    1.0000 0.22502  0.52595  0.64612  Biso   1.000  H
  O746     1.0000 0.11558  0.43584  0.39462  Biso   1.000  O
  O747     1.0000 0.11552  0.43579  0.39459  Biso   1.000  O
  O748     1.0000 0.11557  0.43583  0.39459  Biso   1.000  O
  O749     1.0000 0.11556  0.43579  0.39459  Biso   1.000  O
  O750     1.0000 0.11553  0.43583  0.39459  Biso   1.000  O
  B396     1.0000 0.15076  0.51473  0.26210  Biso   1.000  B
  B397     1.0000 0.15072  0.51469  0.26210  Biso   1.000  B
  B398     1.0000 0.15075  0.51469  0.26210  Biso   1.000  B
  B399     1.0000 0.15073  0.51473  0.26210  Biso   1.000  B
  H3497    1.0000 0.26508  0.71662  0.15331  Biso   1.000  H
  H3498    1.0000 0.29129  0.76952  0.20691  Biso   1.000  H
  H3499    1.0000 0.27436  0.71021  0.20490  Biso   1.000  H
  H3500    1.0000 0.26503  0.71660  0.15327  Biso   1.000  H
  H3501    1.0000 0.29124  0.76950  0.20687  Biso   1.000  H
  H3502    1.0000 0.26504  0.71662  0.15331  Biso   1.000  H
  H3503    1.0000 0.29125  0.76952  0.20691  Biso   1.000  H
  H3504    1.0000 0.26507  0.71660  0.15327  Biso   1.000  H
  H3505    1.0000 0.29128  0.76950  0.20687  Biso   1.000  H
  H3506    1.0000 0.40396  0.66002  0.37239  Biso   1.000  H
  H3507    1.0000 0.42108  0.72462  0.40152  Biso   1.000  H
  H3508    1.0000 0.45730  0.69543  0.41840  Biso   1.000  H
  H3509    1.0000 0.45727  0.69543  0.41840  Biso   1.000  H
  H3510    1.0000 0.42109  0.72466  0.40152  Biso   1.000  H
  H3511    1.0000 0.40400  0.66002  0.37239  Biso   1.000  H
  H3512    1.0000 0.42112  0.72462  0.40152  Biso   1.000  H
  H3513    1.0000 0.59504  0.40001  0.18580  Biso   1.000  H
  H3514    1.0000 0.58293  0.43169  0.15320  Biso   1.000  H
  H3515    1.0000 0.60742  0.38652  0.13372  Biso   1.000  H
  H3516    1.0000 0.58297  0.43169  0.15320  Biso   1.000  H
  H3517    1.0000 0.60745  0.38650  0.13368  Biso   1.000  H
  H3518    1.0000 0.58298  0.43173  0.15320  Biso   1.000  H
  H3519    1.0000 0.60746  0.38652  0.13372  Biso   1.000  H
  H3520    1.0000 0.60741  0.38650  0.13368  Biso   1.000  H
  H3521    1.0000 0.58294  0.43173  0.15320  Biso   1.000  H
  B400     1.0000 0.94974  0.45141  0.22109  Biso   1.000  B
  B401     1.0000 0.94976  0.45137  0.22109  Biso   1.000  B
  B402     1.0000 0.94977  0.45141  0.22109  Biso   1.000  B
  B403     1.0000 0.94973  0.45137  0.22109  Biso   1.000  B
  H3522    1.0000 0.82235  0.56070  0.10641  Biso   1.000  H
  H3523    1.0000 0.82214  0.57139  0.05750  Biso   1.000  H
  H3524    1.0000 0.80914  0.61088  0.10308  Biso   1.000  H
  H3525    1.0000 0.82234  0.56068  0.10637  Biso   1.000  H
  H3526    1.0000 0.82236  0.56073  0.10641  Biso   1.000  H
  H3527    1.0000 0.82215  0.57142  0.05750  Biso   1.000  H
  H3528    1.0000 0.80915  0.61091  0.10308  Biso   1.000  H
  H3529    1.0000 0.94910  0.45142  0.60282  Biso   1.000  H
  H3530    1.0000 0.93139  0.39575  0.55263  Biso   1.000  H
  H3531    1.0000 0.98407  0.44462  0.56673  Biso   1.000  H
  H3532    1.0000 0.93137  0.39573  0.55260  Biso   1.000  H
  H3533    1.0000 0.98410  0.44462  0.56673  Biso   1.000  H
  H3534    1.0000 0.94911  0.45146  0.60282  Biso   1.000  H
  H3535    1.0000 0.93142  0.39575  0.55263  Biso   1.000  H
  H3536    1.0000 0.98411  0.44466  0.56673  Biso   1.000  H
  H3537    1.0000 0.98408  0.44466  0.56673  Biso   1.000  H
  B404     1.0000 0.06717  0.43321  0.36519  Biso   1.000  B
  B405     1.0000 0.06713  0.43321  0.36519  Biso   1.000  B
  H3538    1.0000 0.23459  0.45465  0.69302  Biso   1.000  H
  H3539    1.0000 0.22850  0.51132  0.72191  Biso   1.000  H
  H3540    1.0000 0.27930  0.51066  0.70654  Biso   1.000  H
  H3541    1.0000 0.22846  0.51132  0.72191  Biso   1.000  H
  H3542    1.0000 0.22851  0.51136  0.72191  Biso   1.000  H
  H3543    1.0000 0.27933  0.51066  0.70654  Biso   1.000  H
  H3544    1.0000 0.23463  0.45465  0.69302  Biso   1.000  H
  H3545    1.0000 0.22847  0.51136  0.72191  Biso   1.000  H
  C5178    1.0000 0.10065  0.48883  0.27252  Biso   1.000  C
  C5179    1.0000 0.10063  0.48878  0.27248  Biso   1.000  C
  C5180    1.0000 0.10067  0.48882  0.27248  Biso   1.000  C
  C5181    1.0000 0.10069  0.48883  0.27252  Biso   1.000  C
  C5182    1.0000 0.10064  0.48882  0.27248  Biso   1.000  C
  C5183    1.0000 0.00636  0.45511  0.25369  Biso   1.000  C
  C5184    1.0000 0.00632  0.45511  0.25369  Biso   1.000  C
  C5185    1.0000 0.06256  0.44944  0.32371  Biso   1.000  C
  C5186    1.0000 0.06255  0.44940  0.32371  Biso   1.000  C
  C5187    1.0000 0.06260  0.44944  0.32371  Biso   1.000  C
  C5188    1.0000 0.05053  0.47940  0.24289  Biso   1.000  C
  C5189    1.0000 0.05057  0.47940  0.24289  Biso   1.000  C
  C5190    1.0000 0.10675  0.47381  0.31291  Biso   1.000  C
  C5191    1.0000 0.10676  0.47384  0.31291  Biso   1.000  C
  C5192    1.0000 0.10679  0.47381  0.31291  Biso   1.000  C
  C5193    1.0000 0.01244  0.44012  0.29409  Biso   1.000  C
  C5194    1.0000 0.01243  0.44008  0.29409  Biso   1.000  C
  C5195    1.0000 0.01247  0.44012  0.29409  Biso   1.000  C
  H3546    1.0000 0.04655  0.48939  0.21590  Biso   1.000  H
  H3547    1.0000 0.04651  0.48939  0.21590  Biso   1.000  H
  H3548    1.0000 0.04652  0.48943  0.21590  Biso   1.000  H
  H3549    1.0000 0.04656  0.48943  0.21590  Biso   1.000  H
  H3550    1.0000 0.14026  0.48002  0.33270  Biso   1.000  H
  H3551    1.0000 0.14025  0.47999  0.33270  Biso   1.000  H
  H3552    1.0000 0.98285  0.42380  0.30129  Biso   1.000  H
  H3553    1.0000 0.98288  0.42380  0.30129  Biso   1.000  H
  H3554    1.0000 0.98289  0.42383  0.30129  Biso   1.000  H
  H3555    1.0000 0.98286  0.42383  0.30129  Biso   1.000  H
  C5196    1.0000 0.98773  0.56000  0.70597  Biso   1.000  C
  C5197    1.0000 0.93763  0.55064  0.67634  Biso   1.000  C
  C5198    1.0000 0.93760  0.55064  0.67634  Biso   1.000  C
  C5199    1.0000 0.93761  0.55068  0.67634  Biso   1.000  C
  C5200    1.0000 0.93764  0.55068  0.67634  Biso   1.000  C
  C5201    1.0000 0.99383  0.54497  0.74636  Biso   1.000  C
  C5202    1.0000 0.99380  0.54497  0.74636  Biso   1.000  C
  H3556    1.0000 0.01731  0.57629  0.69876  Biso   1.000  H
  H3557    1.0000 0.01732  0.57623  0.69873  Biso   1.000  H
  H3558    1.0000 0.01734  0.57629  0.69876  Biso   1.000  H
  H3559    1.0000 0.01730  0.57627  0.69873  Biso   1.000  H
  H3560    1.0000 0.01729  0.57623  0.69873  Biso   1.000  H
  H3561    1.0000 0.01733  0.57627  0.69873  Biso   1.000  H
  C5203    1.0000 0.89344  0.52628  0.68715  Biso   1.000  C
  C5204    1.0000 0.89339  0.52624  0.68715  Biso   1.000  C
  C5205    1.0000 0.89340  0.52628  0.68715  Biso   1.000  C
  C5206    1.0000 0.89343  0.52624  0.68715  Biso   1.000  C
  C5207    1.0000 0.98775  0.55997  0.70597  Biso   1.000  C
  B406     1.0000 0.93303  0.56687  0.63486  Biso   1.000  B
  C5208    1.0000 0.98771  0.55995  0.70593  Biso   1.000  C
  B407     1.0000 0.93301  0.56685  0.63483  Biso   1.000  B
  B408     1.0000 0.93298  0.56685  0.63483  Biso   1.000  B
  C5209    1.0000 0.98772  0.55997  0.70597  Biso   1.000  C
  C5210    1.0000 0.98774  0.55995  0.70593  Biso   1.000  C
  C5211    1.0000 0.98776  0.56000  0.70597  Biso   1.000  C
  C5212    1.0000 0.94966  0.52068  0.75717  Biso   1.000  C
  C5213    1.0000 0.94961  0.52066  0.75713  Biso   1.000  C
  C5214    1.0000 0.94962  0.52068  0.75717  Biso   1.000  C
  C5215    1.0000 0.94965  0.52066  0.75713  Biso   1.000  C
  B409     1.0000 0.05042  0.54867  0.77897  Biso   1.000  B
  B410     1.0000 0.05041  0.54865  0.77893  Biso   1.000  B
  B411     1.0000 0.05043  0.54871  0.77897  Biso   1.000  B
  C5216    1.0000 0.89954  0.51125  0.72754  Biso   1.000  C
  C5217    1.0000 0.89951  0.51125  0.72754  Biso   1.000  C
  C5218    1.0000 0.89952  0.51128  0.72754  Biso   1.000  C
  C5219    1.0000 0.89955  0.51128  0.72754  Biso   1.000  C
  H3562    1.0000 0.85993  0.52006  0.66736  Biso   1.000  H
  H3563    1.0000 0.85994  0.52009  0.66736  Biso   1.000  H
  H3564    1.0000 0.85989  0.52006  0.66736  Biso   1.000  H
  O751     1.0000 0.97403  0.59215  0.61984  Biso   1.000  O
  O752     1.0000 0.88461  0.56424  0.60543  Biso   1.000  O
  O753     1.0000 0.97399  0.59215  0.61984  Biso   1.000  O
  O754     1.0000 0.97400  0.59218  0.61984  Biso   1.000  O
  O755     1.0000 0.88462  0.56427  0.60543  Biso   1.000  O
  O756     1.0000 0.88458  0.56424  0.60543  Biso   1.000  O
  O757     1.0000 0.97404  0.59218  0.61984  Biso   1.000  O
  H3565    1.0000 0.95364  0.51069  0.78416  Biso   1.000  H
  H3566    1.0000 0.95363  0.51065  0.78416  Biso   1.000  H
  H3567    1.0000 0.95361  0.51069  0.78416  Biso   1.000  H
  O758     1.0000 0.05649  0.53578  0.81994  Biso   1.000  O
  O759     1.0000 0.09420  0.57256  0.76975  Biso   1.000  O
  O760     1.0000 0.05653  0.53578  0.81994  Biso   1.000  O
  O761     1.0000 0.09424  0.57256  0.76975  Biso   1.000  O
  O762     1.0000 0.09425  0.57260  0.76975  Biso   1.000  O
  O763     1.0000 0.09421  0.57260  0.76975  Biso   1.000  O
  B412     1.0000 0.84943  0.48535  0.73796  Biso   1.000  B
  B413     1.0000 0.84944  0.48539  0.73796  Biso   1.000  B
  B414     1.0000 0.84940  0.48539  0.73796  Biso   1.000  B
  B415     1.0000 0.84939  0.48535  0.73796  Biso   1.000  B
  C5220    1.0000 0.95302  0.59925  0.57813  Biso   1.000  C
  C5221    1.0000 0.95298  0.59925  0.57813  Biso   1.000  C
  C5222    1.0000 0.89913  0.58057  0.57046  Biso   1.000  C
  C5223    1.0000 0.89911  0.58055  0.57042  Biso   1.000  C
  C5224    1.0000 0.89908  0.58055  0.57042  Biso   1.000  C
  C5225    1.0000 0.89909  0.58057  0.57046  Biso   1.000  C
  C5226    1.0000 0.11201  0.55158  0.83795  Biso   1.000  C
  C5227    1.0000 0.11205  0.55158  0.83795  Biso   1.000  C
  C5228    1.0000 0.13370  0.57159  0.80666  Biso   1.000  C
  C5229    1.0000 0.13373  0.57156  0.80666  Biso   1.000  C
  C5230    1.0000 0.13374  0.57159  0.80666  Biso   1.000  C
  C5231    1.0000 0.13369  0.57156  0.80666  Biso   1.000  C
  O764     1.0000 0.79891  0.47786  0.71015  Biso   1.000  O
  O765     1.0000 0.79895  0.47786  0.71015  Biso   1.000  O
  O766     1.0000 0.84822  0.46727  0.77614  Biso   1.000  O
  O767     1.0000 0.84825  0.46727  0.77614  Biso   1.000  O
  C5232    1.0000 0.97232  0.62015  0.54633  Biso   1.000  C
  C5233    1.0000 0.97228  0.62015  0.54633  Biso   1.000  C
  C5234    1.0000 0.86452  0.58297  0.53084  Biso   1.000  C
  C5235    1.0000 0.86451  0.58293  0.53084  Biso   1.000  C
  C5236    1.0000 0.86449  0.58297  0.53084  Biso   1.000  C
  C5237    1.0000 0.14423  0.54670  0.87738  Biso   1.000  C
  C5238    1.0000 0.14424  0.54665  0.87734  Biso   1.000  C
  C5239    1.0000 0.14426  0.54670  0.87738  Biso   1.000  C
  C5240    1.0000 0.14422  0.54668  0.87734  Biso   1.000  C
  C5241    1.0000 0.14421  0.54665  0.87734  Biso   1.000  C
  C5242    1.0000 0.14425  0.54668  0.87734  Biso   1.000  C
  C5243    1.0000 0.18762  0.58668  0.81475  Biso   1.000  C
  C5244    1.0000 0.76773  0.45338  0.73265  Biso   1.000  C
  C5245    1.0000 0.76772  0.45334  0.73265  Biso   1.000  C
  C5246    1.0000 0.76769  0.45338  0.73265  Biso   1.000  C
  C5247    1.0000 0.79642  0.44666  0.77273  Biso   1.000  C
  C5248    1.0000 0.79639  0.44666  0.77273  Biso   1.000  C
  C5249    1.0000 0.93762  0.62257  0.50675  Biso   1.000  C
  C5250    1.0000 0.93760  0.62255  0.50671  Biso   1.000  C
  C5251    1.0000 0.93757  0.62255  0.50671  Biso   1.000  C
  H3568    1.0000 0.00840  0.63266  0.55152  Biso   1.000  H
  H3569    1.0000 0.00839  0.63262  0.55152  Biso   1.000  H
  C5252    1.0000 0.88370  0.60394  0.49905  Biso   1.000  C
  H3570    1.0000 0.82841  0.57046  0.52565  Biso   1.000  H
  H3571    1.0000 0.82839  0.57044  0.52561  Biso   1.000  H
  C5253    1.0000 0.88371  0.60398  0.49905  Biso   1.000  C
  H3572    1.0000 0.12973  0.53329  0.89825  Biso   1.000  H
  C5254    1.0000 0.19822  0.56179  0.88547  Biso   1.000  C
  H3573    1.0000 0.12972  0.53325  0.89825  Biso   1.000  H
  C5255    1.0000 0.19824  0.56177  0.88543  Biso   1.000  C
  C5256    1.0000 0.19826  0.56179  0.88547  Biso   1.000  C
  C5257    1.0000 0.19821  0.56177  0.88543  Biso   1.000  C
  C5258    1.0000 0.21993  0.58167  0.85406  Biso   1.000  C
  H3574    1.0000 0.20210  0.59996  0.79376  Biso   1.000  H
  H3575    1.0000 0.20214  0.59996  0.79376  Biso   1.000  H
  C5259    1.0000 0.21994  0.58171  0.85406  Biso   1.000  C
  H3576    1.0000 0.20215  0.60000  0.79376  Biso   1.000  H
  H3577    1.0000 0.20211  0.60000  0.79376  Biso   1.000  H
  C5260    1.0000 0.71303  0.43667  0.71956  Biso   1.000  C
  C5261    1.0000 0.71301  0.43665  0.71952  Biso   1.000  C
  C5262    1.0000 0.71298  0.43665  0.71952  Biso   1.000  C
  C5263    1.0000 0.77052  0.42328  0.79984  Biso   1.000  C
  C5264    1.0000 0.77051  0.42324  0.79984  Biso   1.000  C
  C5265    1.0000 0.77049  0.42328  0.79984  Biso   1.000  C
  C5266    1.0000 0.96442  0.64574  0.47403  Biso   1.000  C
  C5267    1.0000 0.96439  0.64574  0.47403  Biso   1.000  C
  C5268    1.0000 0.96440  0.64577  0.47403  Biso   1.000  C
  C5269    1.0000 0.96443  0.64577  0.47403  Biso   1.000  C
  C5270    1.0000 0.85882  0.61274  0.45455  Biso   1.000  C
  C5271    1.0000 0.85877  0.61272  0.45451  Biso   1.000  C
  C5272    1.0000 0.85883  0.61278  0.45455  Biso   1.000  C
  C5273    1.0000 0.85878  0.61274  0.45455  Biso   1.000  C
  C5274    1.0000 0.85880  0.61272  0.45451  Biso   1.000  C
  C5275    1.0000 0.23672  0.56017  0.92966  Biso   1.000  C
  C5276    1.0000 0.23676  0.56017  0.92966  Biso   1.000  C
  C5277    1.0000 0.23677  0.56021  0.92966  Biso   1.000  C
  C5278    1.0000 0.23673  0.56021  0.92966  Biso   1.000  C
  C5279    1.0000 0.27883  0.59876  0.86835  Biso   1.000  C
  C5280    1.0000 0.27884  0.59880  0.86835  Biso   1.000  C
  C5281    1.0000 0.68724  0.41318  0.74667  Biso   1.000  C
  C5282    1.0000 0.68719  0.41316  0.74663  Biso   1.000  C
  C5283    1.0000 0.68720  0.41318  0.74667  Biso   1.000  C
  C5284    1.0000 0.68723  0.41316  0.74663  Biso   1.000  C
  H3578    1.0000 0.69384  0.44106  0.69276  Biso   1.000  H
  H3579    1.0000 0.69379  0.44104  0.69272  Biso   1.000  H
  H3580    1.0000 0.69382  0.44109  0.69276  Biso   1.000  H
  H3581    1.0000 0.69381  0.44106  0.69276  Biso   1.000  H
  H3582    1.0000 0.69385  0.44109  0.69276  Biso   1.000  H
  C5285    1.0000 0.71595  0.40659  0.78687  Biso   1.000  C
  C5286    1.0000 0.71590  0.40653  0.78683  Biso   1.000  C
  C5287    1.0000 0.71592  0.40659  0.78687  Biso   1.000  C
  C5288    1.0000 0.71591  0.40657  0.78683  Biso   1.000  C
  C5289    1.0000 0.71593  0.40653  0.78683  Biso   1.000  C
  H3583    1.0000 0.78973  0.41877  0.82676  Biso   1.000  H
  H3584    1.0000 0.78974  0.41880  0.82676  Biso   1.000  H
  H3585    1.0000 0.78970  0.41877  0.82676  Biso   1.000  H
  C5290    1.0000 0.93103  0.60156  0.41934  Biso   1.000  C
  C5291    1.0000 0.93844  0.68926  0.47213  Biso   1.000  C
  C5292    1.0000 0.93098  0.60154  0.41931  Biso   1.000  C
  C5293    1.0000 0.93839  0.68923  0.47213  Biso   1.000  C
  C5294    1.0000 0.93099  0.60156  0.41934  Biso   1.000  C
  C5295    1.0000 0.93840  0.68926  0.47213  Biso   1.000  C
  C5296    1.0000 0.93101  0.60154  0.41931  Biso   1.000  C
  H3586    1.0000 0.00290  0.65776  0.48344  Biso   1.000  H
  H3587    1.0000 0.82020  0.60014  0.44502  Biso   1.000  H
  C5297    1.0000 0.87711  0.58264  0.41133  Biso   1.000  C
  C5298    1.0000 0.88449  0.67243  0.46442  Biso   1.000  C
  C5299    1.0000 0.87707  0.58264  0.41133  Biso   1.000  C
  C5300    1.0000 0.88450  0.67246  0.46442  Biso   1.000  C
  H3588    1.0000 0.82016  0.60014  0.44502  Biso   1.000  H
  C5301    1.0000 0.26413  0.52708  0.89937  Biso   1.000  C
  H3589    1.0000 0.22074  0.54547  0.95096  Biso   1.000  H
  C5302    1.0000 0.27412  0.62008  0.95727  Biso   1.000  C
  C5303    1.0000 0.26412  0.52706  0.89934  Biso   1.000  C
  C5304    1.0000 0.27416  0.62008  0.95727  Biso   1.000  C
  H3590    1.0000 0.22075  0.54551  0.95096  Biso   1.000  H
  C5305    1.0000 0.27417  0.62012  0.95727  Biso   1.000  C
  H3591    1.0000 0.22071  0.54547  0.95096  Biso   1.000  H
  C5306    1.0000 0.27413  0.62012  0.95727  Biso   1.000  C
  C5307    1.0000 0.28663  0.54637  0.86804  Biso   1.000  C
  H3592    1.0000 0.29503  0.61367  0.84717  Biso   1.000  H
  C5308    1.0000 0.29524  0.63796  0.92455  Biso   1.000  C
  H3593    1.0000 0.29502  0.61365  0.84713  Biso   1.000  H
  H3594    1.0000 0.29504  0.61371  0.84717  Biso   1.000  H
  C5309    1.0000 0.29525  0.63800  0.92455  Biso   1.000  C
  C5310    1.0000 0.62892  0.39846  0.74257  Biso   1.000  C
  C5311    1.0000 0.62890  0.39845  0.74253  Biso   1.000  C
  C5312    1.0000 0.62893  0.39850  0.74257  Biso   1.000  C
  C5313    1.0000 0.62887  0.39845  0.74253  Biso   1.000  C
  C5314    1.0000 0.68633  0.37955  0.81545  Biso   1.000  C
  C5315    1.0000 0.68634  0.37959  0.81545  Biso   1.000  C
  C5316    1.0000 0.68630  0.37959  0.81545  Biso   1.000  C
  C5317    1.0000 0.68629  0.37955  0.81545  Biso   1.000  C
  C5318    1.0000 0.95101  0.57352  0.38251  Biso   1.000  C
  C5319    1.0000 0.95097  0.57352  0.38251  Biso   1.000  C
  C5320    1.0000 0.95098  0.57355  0.38251  Biso   1.000  C
  C5321    1.0000 0.95102  0.57355  0.38251  Biso   1.000  C
  C5322    1.0000 0.96741  0.74414  0.48514  Biso   1.000  C
  C5323    1.0000 0.96742  0.74418  0.48514  Biso   1.000  C
  C5324    1.0000 0.84310  0.53562  0.36652  Biso   1.000  C
  C5325    1.0000 0.84306  0.53562  0.36652  Biso   1.000  C
  C5326    1.0000 0.84307  0.53566  0.36652  Biso   1.000  C
  C5327    1.0000 0.84311  0.53566  0.36652  Biso   1.000  C
  C5328    1.0000 0.85960  0.71045  0.46984  Biso   1.000  C
  C5329    1.0000 0.26972  0.48058  0.90356  Biso   1.000  C
  C5330    1.0000 0.26975  0.48058  0.90356  Biso   1.000  C
  C5331    1.0000 0.28836  0.65629  0.00928  Biso   1.000  C
  C5332    1.0000 0.28837  0.65632  0.00928  Biso   1.000  C
  C5333    1.0000 0.28832  0.65629  0.00928  Biso   1.000  C
  C5334    1.0000 0.31461  0.51907  0.84086  Biso   1.000  C
  C5335    1.0000 0.31464  0.51907  0.84086  Biso   1.000  C
  C5336    1.0000 0.31465  0.51911  0.84086  Biso   1.000  C
  C5337    1.0000 0.31462  0.51911  0.84086  Biso   1.000  C
  C5338    1.0000 0.33074  0.69207  0.94387  Biso   1.000  C
  C5339    1.0000 0.33075  0.69211  0.94387  Biso   1.000  C
  C5340    1.0000 0.61223  0.33759  0.73277  Biso   1.000  C
  C5341    1.0000 0.61220  0.33753  0.73273  Biso   1.000  C
  C5342    1.0000 0.61218  0.33757  0.73273  Biso   1.000  C
  C5343    1.0000 0.61221  0.33757  0.73273  Biso   1.000  C
  H3595    1.0000 0.60802  0.40417  0.71534  Biso   1.000  H
  C5344    1.0000 0.62785  0.43097  0.79477  Biso   1.000  C
  H3596    1.0000 0.60801  0.40413  0.71534  Biso   1.000  H
  C5345    1.0000 0.62780  0.43095  0.79473  Biso   1.000  C
  C5346    1.0000 0.62782  0.43100  0.79477  Biso   1.000  C
  H3597    1.0000 0.60798  0.40417  0.71534  Biso   1.000  H
  C5347    1.0000 0.62781  0.43097  0.79477  Biso   1.000  C
  C5348    1.0000 0.62783  0.43095  0.79473  Biso   1.000  C
  C5349    1.0000 0.62786  0.43100  0.79477  Biso   1.000  C
  C5350    1.0000 0.64212  0.33027  0.77177  Biso   1.000  C
  C5351    1.0000 0.64211  0.33026  0.77173  Biso   1.000  C
  C5352    1.0000 0.64207  0.33026  0.77173  Biso   1.000  C
  H3598    1.0000 0.70726  0.37327  0.84217  Biso   1.000  H
  C5353    1.0000 0.65782  0.42438  0.83427  Biso   1.000  C
  H3599    1.0000 0.70721  0.37325  0.84213  Biso   1.000  H
  C5354    1.0000 0.65781  0.42436  0.83423  Biso   1.000  C
  H3600    1.0000 0.70723  0.37331  0.84217  Biso   1.000  H
  H3601    1.0000 0.70722  0.37327  0.84217  Biso   1.000  H
  H3602    1.0000 0.70727  0.37331  0.84217  Biso   1.000  H
  C5355    1.0000 0.65786  0.42438  0.83427  Biso   1.000  C
  C5356    1.0000 0.91691  0.52655  0.33774  Biso   1.000  C
  C5357    1.0000 0.91686  0.52650  0.33771  Biso   1.000  C
  C5358    1.0000 0.91688  0.52655  0.33774  Biso   1.000  C
  C5359    1.0000 0.91687  0.52654  0.33771  Biso   1.000  C
  C5360    1.0000 0.91689  0.52650  0.33771  Biso   1.000  C
  C5361    1.0000 0.00815  0.59743  0.38801  Biso   1.000  C
  C5362    1.0000 0.00818  0.59743  0.38801  Biso   1.000  C
  C5363    1.0000 0.00819  0.59746  0.38801  Biso   1.000  C
  C5364    1.0000 0.00816  0.59746  0.38801  Biso   1.000  C
  C5365    1.0000 0.94263  0.78215  0.49045  Biso   1.000  C
  C5366    1.0000 0.94259  0.78213  0.49041  Biso   1.000  C
  C5367    1.0000 0.94261  0.78218  0.49045  Biso   1.000  C
  C5368    1.0000 0.94260  0.78215  0.49045  Biso   1.000  C
  C5369    1.0000 0.94262  0.78213  0.49041  Biso   1.000  C
  C5370    1.0000 0.94264  0.78218  0.49045  Biso   1.000  C
  H3603    1.0000 0.00351  0.75547  0.49025  Biso   1.000  H
  H3604    1.0000 0.00350  0.75545  0.49022  Biso   1.000  H
  C5371    1.0000 0.86300  0.50763  0.32973  Biso   1.000  C
  C5372    1.0000 0.78500  0.51102  0.35571  Biso   1.000  C
  C5373    1.0000 0.86296  0.50763  0.32973  Biso   1.000  C
  C5374    1.0000 0.78497  0.51102  0.35571  Biso   1.000  C
  C5375    1.0000 0.78498  0.51106  0.35571  Biso   1.000  C
  C5376    1.0000 0.78501  0.51106  0.35571  Biso   1.000  C
  C5377    1.0000 0.88871  0.76535  0.48282  Biso   1.000  C
  H3605    1.0000 0.82362  0.69916  0.46473  Biso   1.000  H
  H3606    1.0000 0.82361  0.69912  0.46473  Biso   1.000  H
  H3607    1.0000 0.82358  0.69916  0.46473  Biso   1.000  H
  C5378    1.0000 0.88868  0.76535  0.48282  Biso   1.000  C
  C5379    1.0000 0.29772  0.45339  0.87637  Biso   1.000  C
  C5380    1.0000 0.25271  0.46350  0.94205  Biso   1.000  C
  C5381    1.0000 0.29775  0.45337  0.87633  Biso   1.000  C
  C5382    1.0000 0.25274  0.46346  0.94205  Biso   1.000  C
  C5383    1.0000 0.29776  0.45339  0.87637  Biso   1.000  C
  C5384    1.0000 0.25275  0.46350  0.94205  Biso   1.000  C
  C5385    1.0000 0.29771  0.45337  0.87633  Biso   1.000  C
  C5386    1.0000 0.25270  0.46346  0.94205  Biso   1.000  C
  H3608    1.0000 0.27428  0.64430  0.03120  Biso   1.000  H
  C5387    1.0000 0.32385  0.71038  0.02857  Biso   1.000  C
  H3609    1.0000 0.27423  0.64428  0.03116  Biso   1.000  H
  C5388    1.0000 0.32386  0.71042  0.02857  Biso   1.000  C
  H3610    1.0000 0.27424  0.64430  0.03120  Biso   1.000  H
  C5389    1.0000 0.32382  0.71038  0.02857  Biso   1.000  C
  H3611    1.0000 0.27426  0.64428  0.03116  Biso   1.000  H
  C5390    1.0000 0.32012  0.47257  0.84504  Biso   1.000  C
  C5391    1.0000 0.33743  0.53979  0.80666  Biso   1.000  C
  C5392    1.0000 0.33742  0.53975  0.80666  Biso   1.000  C
  C5393    1.0000 0.34503  0.72839  0.99596  Biso   1.000  C
  H3612    1.0000 0.34484  0.70410  0.92195  Biso   1.000  H
  C5394    1.0000 0.34506  0.72839  0.99596  Biso   1.000  C
  H3613    1.0000 0.34486  0.70406  0.92195  Biso   1.000  H
  H3614    1.0000 0.34487  0.70410  0.92195  Biso   1.000  H
  H3615    1.0000 0.34483  0.70406  0.92195  Biso   1.000  H
  C5395    1.0000 0.57212  0.29206  0.69086  Biso   1.000  C
  C5396    1.0000 0.57208  0.29204  0.69083  Biso   1.000  C
  C5397    1.0000 0.57210  0.29210  0.69086  Biso   1.000  C
  C5398    1.0000 0.57209  0.29206  0.69086  Biso   1.000  C
  C5399    1.0000 0.57211  0.29204  0.69083  Biso   1.000  C
  C5400    1.0000 0.57213  0.29210  0.69086  Biso   1.000  C
  C5401    1.0000 0.60283  0.46887  0.80647  Biso   1.000  C
  C5402    1.0000 0.60281  0.46885  0.80643  Biso   1.000  C
  C5403    1.0000 0.60278  0.46885  0.80643  Biso   1.000  C
  C5404    1.0000 0.63182  0.27736  0.76886  Biso   1.000  C
  C5405    1.0000 0.63183  0.27740  0.76886  Biso   1.000  C
  C5406    1.0000 0.63179  0.27736  0.76886  Biso   1.000  C
  C5407    1.0000 0.66296  0.45569  0.88547  Biso   1.000  C
  C5408    1.0000 0.66291  0.45568  0.88543  Biso   1.000  C
  C5409    1.0000 0.66292  0.45569  0.88547  Biso   1.000  C
  C5410    1.0000 0.66295  0.45568  0.88543  Biso   1.000  C
  H3616    1.0000 0.93031  0.50784  0.31304  Biso   1.000  H
  H3617    1.0000 0.93027  0.50784  0.31304  Biso   1.000  H
  H3618    1.0000 0.01256  0.58676  0.35413  Biso   1.000  H
  H3619    1.0000 0.02137  0.63766  0.40602  Biso   1.000  H
  C5411    1.0000 0.03896  0.57424  0.41954  Biso   1.000  C
  H3620    1.0000 0.01259  0.58672  0.35413  Biso   1.000  H
  H3621    1.0000 0.02139  0.63762  0.40602  Biso   1.000  H
  C5412    1.0000 0.03900  0.57424  0.41954  Biso   1.000  C
  H3622    1.0000 0.01260  0.58676  0.35413  Biso   1.000  H
  H3623    1.0000 0.02140  0.63766  0.40602  Biso   1.000  H
  H3624    1.0000 0.01255  0.58672  0.35413  Biso   1.000  H
  H3625    1.0000 0.02136  0.63762  0.40602  Biso   1.000  H
  O768     1.0000 0.96583  0.83816  0.50625  Biso   1.000  O
  O769     1.0000 0.96581  0.83814  0.50621  Biso   1.000  O
  O770     1.0000 0.96578  0.83814  0.50621  Biso   1.000  O
  H3626    1.0000 0.84018  0.47612  0.29971  Biso   1.000  H
  H3627    1.0000 0.84014  0.47612  0.29971  Biso   1.000  H
  H3628    1.0000 0.77459  0.53393  0.38282  Biso   1.000  H
  H3629    1.0000 0.77521  0.47413  0.35393  Biso   1.000  H
  C5413    1.0000 0.75829  0.50805  0.30382  Biso   1.000  C
  H3630    1.0000 0.77517  0.47413  0.35393  Biso   1.000  H
  C5414    1.0000 0.75825  0.50801  0.30382  Biso   1.000  C
  H3631    1.0000 0.77518  0.47417  0.35393  Biso   1.000  H
  H3632    1.0000 0.77455  0.53393  0.38282  Biso   1.000  H
  C5415    1.0000 0.75826  0.50805  0.30382  Biso   1.000  C
  C5416    1.0000 0.75828  0.50801  0.30382  Biso   1.000  C
  H3633    1.0000 0.77522  0.47417  0.35393  Biso   1.000  H
  O771     1.0000 0.87543  0.81255  0.49424  Biso   1.000  O
  O772     1.0000 0.87540  0.81255  0.49424  Biso   1.000  O
  O773     1.0000 0.87541  0.81258  0.49424  Biso   1.000  O
  O774     1.0000 0.87544  0.81258  0.49424  Biso   1.000  O
  H3634    1.0000 0.30143  0.42228  0.87916  Biso   1.000  H
  H3635    1.0000 0.25784  0.49590  0.97307  Biso   1.000  H
  H3636    1.0000 0.27301  0.44318  0.95166  Biso   1.000  H
  C5417    1.0000 0.19451  0.42678  0.91645  Biso   1.000  C
  H3637    1.0000 0.27305  0.44318  0.95166  Biso   1.000  H
  C5418    1.0000 0.19455  0.42678  0.91645  Biso   1.000  C
  O775     1.0000 0.33959  0.75128  0.07760  Biso   1.000  O
  O776     1.0000 0.33956  0.75132  0.07760  Biso   1.000  O
  O777     1.0000 0.33955  0.75128  0.07760  Biso   1.000  O
  O778     1.0000 0.33960  0.75132  0.07760  Biso   1.000  O
  H3638    1.0000 0.33892  0.45437  0.82684  Biso   1.000  H
  H3639    1.0000 0.31452  0.55508  0.79194  Biso   1.000  H
  H3640    1.0000 0.33882  0.50887  0.77827  Biso   1.000  H
  C5419    1.0000 0.39344  0.58467  0.83636  Biso   1.000  C
  H3641    1.0000 0.31451  0.55504  0.79194  Biso   1.000  H
  H3642    1.0000 0.33881  0.50885  0.77823  Biso   1.000  H
  H3643    1.0000 0.31455  0.55508  0.79194  Biso   1.000  H
  H3644    1.0000 0.33883  0.50890  0.77827  Biso   1.000  H
  O779     1.0000 0.37656  0.78478  0.02598  Biso   1.000  O
  O780     1.0000 0.37657  0.78482  0.02598  Biso   1.000  O
  O781     1.0000 0.37652  0.78478  0.02598  Biso   1.000  O
  C5420    1.0000 0.53729  0.29857  0.64923  Biso   1.000  C
  C5421    1.0000 0.53728  0.29853  0.64923  Biso   1.000  C
  C5422    1.0000 0.56193  0.23925  0.68796  Biso   1.000  C
  C5423    1.0000 0.56188  0.23924  0.68792  Biso   1.000  C
  C5424    1.0000 0.56190  0.23929  0.68796  Biso   1.000  C
  C5425    1.0000 0.56189  0.23925  0.68796  Biso   1.000  C
  C5426    1.0000 0.56191  0.23924  0.68792  Biso   1.000  C
  C5427    1.0000 0.56194  0.23929  0.68796  Biso   1.000  C
  H3645    1.0000 0.58275  0.47337  0.78005  Biso   1.000  H
  C5428    1.0000 0.60786  0.50019  0.85766  Biso   1.000  C
  H3646    1.0000 0.58271  0.47337  0.78005  Biso   1.000  H
  C5429    1.0000 0.60782  0.50019  0.85766  Biso   1.000  C
  C5430    1.0000 0.59173  0.23187  0.72696  Biso   1.000  C
  C5431    1.0000 0.59170  0.23187  0.72696  Biso   1.000  C
  C5432    1.0000 0.65783  0.26927  0.81266  Biso   1.000  C
  C5433    1.0000 0.65779  0.26927  0.81266  Biso   1.000  C
  C5434    1.0000 0.63794  0.49360  0.89717  Biso   1.000  C
  H3647    1.0000 0.68305  0.45126  0.91184  Biso   1.000  H
  C5435    1.0000 0.63793  0.49356  0.89717  Biso   1.000  C
  H3648    1.0000 0.68301  0.45126  0.91184  Biso   1.000  H
  H3649    1.0000 0.68302  0.45129  0.91184  Biso   1.000  H
  H3650    1.0000 0.68306  0.45129  0.91184  Biso   1.000  H
  H3651    1.0000 0.05106  0.54866  0.39723  Biso   1.000  H
  H3652    1.0000 0.06877  0.60433  0.44742  Biso   1.000  H
  H3653    1.0000 0.01609  0.55546  0.43332  Biso   1.000  H
  H3654    1.0000 0.05108  0.54862  0.39723  Biso   1.000  H
  H3655    1.0000 0.06881  0.60433  0.44742  Biso   1.000  H
  H3656    1.0000 0.01608  0.55542  0.43332  Biso   1.000  H
  H3657    1.0000 0.05109  0.54866  0.39723  Biso   1.000  H
  H3658    1.0000 0.05105  0.54862  0.39723  Biso   1.000  H
  B416     1.0000 0.92004  0.85337  0.50315  Biso   1.000  B
  B417     1.0000 0.92001  0.85332  0.50311  Biso   1.000  B
  B418     1.0000 0.91999  0.85336  0.50311  Biso   1.000  B
  B419     1.0000 0.92000  0.85337  0.50315  Biso   1.000  B
  B420     1.0000 0.92002  0.85336  0.50311  Biso   1.000  B
  H3659    1.0000 0.76560  0.54543  0.30703  Biso   1.000  H
  H3660    1.0000 0.77169  0.48876  0.27814  Biso   1.000  H
  H3661    1.0000 0.72090  0.48942  0.29352  Biso   1.000  H
  H3662    1.0000 0.76557  0.54543  0.30703  Biso   1.000  H
  H3663    1.0000 0.77167  0.48870  0.27810  Biso   1.000  H
  H3664    1.0000 0.72086  0.48942  0.29352  Biso   1.000  H
  H3665    1.0000 0.72087  0.48946  0.29352  Biso   1.000  H
  H3666    1.0000 0.77165  0.48874  0.27810  Biso   1.000  H
  H3667    1.0000 0.77166  0.48876  0.27814  Biso   1.000  H
  H3668    1.0000 0.72091  0.48946  0.29352  Biso   1.000  H
  H3669    1.0000 0.77168  0.48874  0.27810  Biso   1.000  H
  H3670    1.0000 0.17780  0.43939  0.89364  Biso   1.000  H
  H3671    1.0000 0.17801  0.42869  0.94256  Biso   1.000  H
  H3672    1.0000 0.19101  0.38920  0.89697  Biso   1.000  H
  H3673    1.0000 0.17783  0.43935  0.89364  Biso   1.000  H
  H3674    1.0000 0.17804  0.42866  0.94256  Biso   1.000  H
  H3675    1.0000 0.19103  0.38915  0.89693  Biso   1.000  H
  H3676    1.0000 0.17784  0.43939  0.89364  Biso   1.000  H
  H3677    1.0000 0.17805  0.42869  0.94256  Biso   1.000  H
  H3678    1.0000 0.19105  0.38920  0.89697  Biso   1.000  H
  H3679    1.0000 0.19100  0.38919  0.89693  Biso   1.000  H
  H3680    1.0000 0.17779  0.43935  0.89364  Biso   1.000  H
  H3681    1.0000 0.17800  0.42866  0.94256  Biso   1.000  H
  H3682    1.0000 0.19099  0.38915  0.89693  Biso   1.000  H
  H3683    1.0000 0.19104  0.38919  0.89693  Biso   1.000  H
  B421     1.0000 0.37368  0.79408  0.07268  Biso   1.000  B
  B422     1.0000 0.37365  0.79412  0.07268  Biso   1.000  B
  B423     1.0000 0.37364  0.79408  0.07268  Biso   1.000  B
  B424     1.0000 0.37369  0.79412  0.07268  Biso   1.000  B
  H3684    1.0000 0.40511  0.60007  0.81425  Biso   1.000  H
  H3685    1.0000 0.41723  0.56839  0.84686  Biso   1.000  H
  H3686    1.0000 0.39273  0.61356  0.86634  Biso   1.000  H
  H3687    1.0000 0.40515  0.60007  0.81425  Biso   1.000  H
  H3688    1.0000 0.41722  0.56835  0.84686  Biso   1.000  H
  H3689    1.0000 0.41726  0.56839  0.84686  Biso   1.000  H
  H3690    1.0000 0.39274  0.61360  0.86634  Biso   1.000  H
  H3691    1.0000 0.39270  0.61356  0.86634  Biso   1.000  H
  C5436    1.0000 0.56671  0.30536  0.61054  Biso   1.000  C
  H3692    1.0000 0.52839  0.33087  0.66465  Biso   1.000  H
  H3693    1.0000 0.50480  0.26614  0.63103  Biso   1.000  H
  H3694    1.0000 0.52843  0.33087  0.66465  Biso   1.000  H
  H3695    1.0000 0.50477  0.26614  0.63103  Biso   1.000  H
  C5437    1.0000 0.56667  0.30536  0.61054  Biso   1.000  C
  H3696    1.0000 0.53509  0.20875  0.65984  Biso   1.000  H
  H3697    1.0000 0.53506  0.20875  0.65984  Biso   1.000  H
  O782     1.0000 0.58906  0.54039  0.87978  Biso   1.000  O
  O783     1.0000 0.58901  0.54037  0.87974  Biso   1.000  O
  O784     1.0000 0.58903  0.54039  0.87978  Biso   1.000  O
  O785     1.0000 0.58905  0.54037  0.87974  Biso   1.000  O
  H3698    1.0000 0.58493  0.19656  0.72506  Biso   1.000  H
  H3699    1.0000 0.58488  0.19654  0.72502  Biso   1.000  H
  H3700    1.0000 0.58490  0.19660  0.72506  Biso   1.000  H
  H3701    1.0000 0.58489  0.19656  0.72506  Biso   1.000  H
  H3702    1.0000 0.58491  0.19654  0.72502  Biso   1.000  H
  H3703    1.0000 0.58494  0.19660  0.72506  Biso   1.000  H
  H3704    1.0000 0.66141  0.29907  0.84496  Biso   1.000  H
  H3705    1.0000 0.63612  0.23456  0.81084  Biso   1.000  H
  H3706    1.0000 0.66145  0.29907  0.84496  Biso   1.000  H
  C5438    1.0000 0.71182  0.26818  0.81185  Biso   1.000  C
  C5439    1.0000 0.71181  0.26814  0.81185  Biso   1.000  C
  H3707    1.0000 0.63608  0.23456  0.81084  Biso   1.000  H
  C5440    1.0000 0.71179  0.26818  0.81185  Biso   1.000  C
  O786     1.0000 0.63946  0.52788  0.94534  Biso   1.000  O
  O787     1.0000 0.63942  0.52788  0.94534  Biso   1.000  O
  C5441    1.0000 0.92745  0.91625  0.52275  Biso   1.000  C
  C5442    1.0000 0.92742  0.91625  0.52275  Biso   1.000  C
  C5443    1.0000 0.39836  0.85500  0.11908  Biso   1.000  C
  H3708    1.0000 0.54289  0.30465  0.58165  Biso   1.000  H
  H3709    1.0000 0.59623  0.34006  0.62766  Biso   1.000  H
  H3710    1.0000 0.57911  0.27546  0.59854  Biso   1.000  H
  H3711    1.0000 0.59618  0.34005  0.62762  Biso   1.000  H
  H3712    1.0000 0.57907  0.27546  0.59854  Biso   1.000  H
  H3713    1.0000 0.59619  0.34006  0.62766  Biso   1.000  H
  H3714    1.0000 0.59622  0.34005  0.62762  Biso   1.000  H
  B425     1.0000 0.60735  0.55660  0.93187  Biso   1.000  B
  B426     1.0000 0.60734  0.55657  0.93187  Biso   1.000  B
  B427     1.0000 0.60731  0.55660  0.93187  Biso   1.000  B
  H3715    1.0000 0.70890  0.23056  0.79314  Biso   1.000  H
  H3716    1.0000 0.73511  0.28346  0.84674  Biso   1.000  H
  H3717    1.0000 0.72583  0.28987  0.79516  Biso   1.000  H
  H3718    1.0000 0.72579  0.28987  0.79516  Biso   1.000  H
  H3719    1.0000 0.73512  0.28350  0.84674  Biso   1.000  H
  C5444    1.0000 0.97614  0.95876  0.53983  Biso   1.000  C
  C5445    1.0000 0.88205  0.92847  0.52244  Biso   1.000  C
  C5446    1.0000 0.88201  0.92843  0.52244  Biso   1.000  C
  C5447    1.0000 0.88202  0.92847  0.52244  Biso   1.000  C
  C5448    1.0000 0.97610  0.95876  0.53983  Biso   1.000  C
  C5449    1.0000 0.88204  0.92843  0.52244  Biso   1.000  C
  C5450    1.0000 0.42857  0.89848  0.11191  Biso   1.000  C
  C5451    1.0000 0.39169  0.86479  0.16698  Biso   1.000  C
  C5452    1.0000 0.42857  0.89850  0.11187  Biso   1.000  C
  C5453    1.0000 0.39166  0.86483  0.16698  Biso   1.000  C
  C5454    1.0000 0.42858  0.89852  0.11191  Biso   1.000  C
  C5455    1.0000 0.39166  0.86479  0.16698  Biso   1.000  C
  C5456    1.0000 0.42856  0.89847  0.11187  Biso   1.000  C
  C5457    1.0000 0.39170  0.86483  0.16698  Biso   1.000  C
  C5458    1.0000 0.60085  0.60627  0.97245  Biso   1.000  C
  C5459    1.0000 0.60086  0.60631  0.97245  Biso   1.000  C
  C5460    1.0000 0.60081  0.60627  0.97245  Biso   1.000  C
  C5461    1.0000 0.97936  0.01347  0.55663  Biso   1.000  C
  C5462    1.0000 0.97935  0.01343  0.55663  Biso   1.000  C
  C5463    1.0000 0.97940  0.01347  0.55663  Biso   1.000  C
  H3720    1.0000 0.00651  0.95066  0.53994  Biso   1.000  H
  H3721    1.0000 0.00654  0.95066  0.53994  Biso   1.000  H
  H3722    1.0000 0.84943  0.90004  0.51094  Biso   1.000  H
  C5464    1.0000 0.88535  0.98317  0.53925  Biso   1.000  C
  C5465    1.0000 0.88534  0.98314  0.53925  Biso   1.000  C
  H3723    1.0000 0.84944  0.90008  0.51094  Biso   1.000  H
  H3724    1.0000 0.84939  0.90004  0.51094  Biso   1.000  H
  C5466    1.0000 0.88531  0.98317  0.53925  Biso   1.000  C
  C5467    1.0000 0.45209  0.95169  0.15250  Biso   1.000  C
  H3725    1.0000 0.43310  0.89190  0.07988  Biso   1.000  H
  C5468    1.0000 0.45210  0.95173  0.15250  Biso   1.000  C
  H3726    1.0000 0.43306  0.89190  0.07988  Biso   1.000  H
  C5469    1.0000 0.45206  0.95169  0.15250  Biso   1.000  C
  C5470    1.0000 0.41519  0.91802  0.20761  Biso   1.000  C
  H3727    1.0000 0.37148  0.83568  0.17179  Biso   1.000  H
  H3728    1.0000 0.37149  0.83572  0.17179  Biso   1.000  H
  H3729    1.0000 0.37144  0.83568  0.17179  Biso   1.000  H
  C5471    1.0000 0.57166  0.63359  0.95545  Biso   1.000  C
  C5472    1.0000 0.57163  0.63359  0.95545  Biso   1.000  C
  C5473    1.0000 0.62344  0.62379  0.02508  Biso   1.000  C
  C5474    1.0000 0.62345  0.62382  0.02508  Biso   1.000  C
  C5475    1.0000 0.62348  0.62379  0.02508  Biso   1.000  C
  C5476    1.0000 0.93395  0.02565  0.55632  Biso   1.000  C
  C5477    1.0000 0.93399  0.02565  0.55632  Biso   1.000  C
  B428     1.0000 0.03280  0.05828  0.57716  Biso   1.000  B
  B429     1.0000 0.03275  0.05826  0.57712  Biso   1.000  B
  B430     1.0000 0.03275  0.05824  0.57716  Biso   1.000  B
  B431     1.0000 0.03276  0.05828  0.57716  Biso   1.000  B
  B432     1.0000 0.03278  0.05826  0.57712  Biso   1.000  B
  B433     1.0000 0.03279  0.05824  0.57716  Biso   1.000  B
  B434     1.0000 0.83413  0.99626  0.53754  Biso   1.000  B
  B435     1.0000 0.83410  0.99626  0.53754  Biso   1.000  B
  C5478    1.0000 0.44540  0.96151  0.20029  Biso   1.000  C
  B436     1.0000 0.48389  0.99870  0.14239  Biso   1.000  B
  B437     1.0000 0.48390  0.99874  0.14239  Biso   1.000  B
  C5479    1.0000 0.44536  0.96151  0.20029  Biso   1.000  C
  B438     1.0000 0.48385  0.99870  0.14239  Biso   1.000  B
  B439     1.0000 0.40699  0.92641  0.25710  Biso   1.000  B
  B440     1.0000 0.40700  0.92645  0.25710  Biso   1.000  B
  B441     1.0000 0.40696  0.92641  0.25710  Biso   1.000  B
  H3730    1.0000 0.55644  0.62189  0.92017  Biso   1.000  H
  C5480    1.0000 0.56517  0.67851  0.99128  Biso   1.000  C
  C5481    1.0000 0.56516  0.67847  0.99128  Biso   1.000  C
  C5482    1.0000 0.56514  0.67851  0.99128  Biso   1.000  C
  C5483    1.0000 0.61696  0.66868  0.06079  Biso   1.000  C
  H3731    1.0000 0.64294  0.60546  0.03639  Biso   1.000  H
  C5484    1.0000 0.61694  0.66872  0.06079  Biso   1.000  C
  H3732    1.0000 0.64295  0.60550  0.03639  Biso   1.000  H
  C5485    1.0000 0.61693  0.66868  0.06079  Biso   1.000  C
  H3733    1.0000 0.64297  0.60546  0.03639  Biso   1.000  H
  C5486    1.0000 0.61697  0.66872  0.06079  Biso   1.000  C
  H3734    1.0000 0.93617  0.06225  0.56756  Biso   1.000  H
  H3735    1.0000 0.93615  0.06223  0.56752  Biso   1.000  H
  H3736    1.0000 0.93616  0.06227  0.56752  Biso   1.000  H
  H3737    1.0000 0.93620  0.06225  0.56756  Biso   1.000  H
  O788     1.0000 0.04538  0.11488  0.59695  Biso   1.000  O
  O789     1.0000 0.08139  0.04827  0.57913  Biso   1.000  O
  O790     1.0000 0.04537  0.11484  0.59695  Biso   1.000  O
  O791     1.0000 0.08136  0.04827  0.57913  Biso   1.000  O
  O792     1.0000 0.08135  0.04823  0.57913  Biso   1.000  O
  O793     1.0000 0.04535  0.11488  0.59695  Biso   1.000  O
  O794     1.0000 0.08138  0.04823  0.57913  Biso   1.000  O
  O795     1.0000 0.78632  0.95465  0.52213  Biso   1.000  O
  O796     1.0000 0.83427  0.05045  0.55783  Biso   1.000  O
  O797     1.0000 0.83426  0.05042  0.55783  Biso   1.000  O
  H3738    1.0000 0.46110  0.99710  0.22751  Biso   1.000  H
  H3739    1.0000 0.46109  0.99712  0.22748  Biso   1.000  H
  H3740    1.0000 0.46111  0.99713  0.22751  Biso   1.000  H
  H3741    1.0000 0.46105  0.99708  0.22748  Biso   1.000  H
  H3742    1.0000 0.46108  0.99708  0.22748  Biso   1.000  H
  O798     1.0000 0.49490  0.99639  0.09921  Biso   1.000  O
  O799     1.0000 0.49486  0.99641  0.09917  Biso   1.000  O
  O800     1.0000 0.49487  0.99639  0.09921  Biso   1.000  O
  O801     1.0000 0.49485  0.99637  0.09917  Biso   1.000  O
  O802     1.0000 0.49490  0.99641  0.09917  Biso   1.000  O
  O803     1.0000 0.50624  0.05530  0.18220  Biso   1.000  O
  O804     1.0000 0.50620  0.05530  0.18220  Biso   1.000  O
  O805     1.0000 0.37889  0.88680  0.26961  Biso   1.000  O
  O806     1.0000 0.42309  0.97909  0.30199  Biso   1.000  O
  O807     1.0000 0.37890  0.88684  0.26961  Biso   1.000  O
  O808     1.0000 0.42310  0.97913  0.30199  Biso   1.000  O
  O809     1.0000 0.37885  0.88680  0.26961  Biso   1.000  O
  O810     1.0000 0.42306  0.97909  0.30199  Biso   1.000  O
  B442     1.0000 0.53146  0.70728  0.97036  Biso   1.000  B
  B443     1.0000 0.53147  0.70732  0.97036  Biso   1.000  B
  B444     1.0000 0.53143  0.70728  0.97036  Biso   1.000  B
  C5487    1.0000 0.58776  0.69598  0.04391  Biso   1.000  C
  C5488    1.0000 0.58772  0.69600  0.04387  Biso   1.000  C
  C5489    1.0000 0.58777  0.69602  0.04391  Biso   1.000  C
  C5490    1.0000 0.58775  0.69596  0.04387  Biso   1.000  C
  C5491    1.0000 0.58776  0.69600  0.04387  Biso   1.000  C
  C5492    1.0000 0.58771  0.69596  0.04387  Biso   1.000  C
  B445     1.0000 0.64397  0.68959  0.11609  Biso   1.000  B
  B446     1.0000 0.64394  0.68962  0.11609  Biso   1.000  B
  B447     1.0000 0.64393  0.68959  0.11609  Biso   1.000  B
  B448     1.0000 0.64398  0.68962  0.11609  Biso   1.000  B
  C5493    1.0000 0.09849  0.14076  0.61155  Biso   1.000  C
  C5494    1.0000 0.09845  0.14076  0.61155  Biso   1.000  C
  C5495    1.0000 0.11999  0.09976  0.60024  Biso   1.000  C
  C5496    1.0000 0.11996  0.09976  0.60024  Biso   1.000  C
  C5497    1.0000 0.11995  0.09972  0.60024  Biso   1.000  C
  C5498    1.0000 0.11998  0.09972  0.60024  Biso   1.000  C
  C5499    1.0000 0.75215  0.98295  0.53154  Biso   1.000  C
  C5500    1.0000 0.75211  0.98295  0.53154  Biso   1.000  C
  C5501    1.0000 0.75212  0.98298  0.53154  Biso   1.000  C
  C5502    1.0000 0.75216  0.98298  0.53154  Biso   1.000  C
  C5503    1.0000 0.78135  0.03934  0.55152  Biso   1.000  C
  C5504    1.0000 0.78138  0.03934  0.55152  Biso   1.000  C
  C5505    1.0000 0.52290  0.04798  0.10568  Biso   1.000  C
  C5506    1.0000 0.52291  0.04802  0.10568  Biso   1.000  C
  C5507    1.0000 0.52293  0.04798  0.10568  Biso   1.000  C
  C5508    1.0000 0.52965  0.08291  0.15641  Biso   1.000  C
  C5509    1.0000 0.52960  0.08286  0.15637  Biso   1.000  C
  C5510    1.0000 0.52962  0.08291  0.15641  Biso   1.000  C
  C5511    1.0000 0.52964  0.08290  0.15637  Biso   1.000  C
  C5512    1.0000 0.52961  0.08290  0.15637  Biso   1.000  C
  C5513    1.0000 0.37742  0.91020  0.31872  Biso   1.000  C
  C5514    1.0000 0.37739  0.91024  0.31872  Biso   1.000  C
  C5515    1.0000 0.37738  0.91020  0.31872  Biso   1.000  C
  C5516    1.0000 0.37743  0.91024  0.31872  Biso   1.000  C
  C5517    1.0000 0.40522  0.96690  0.33800  Biso   1.000  C
  C5518    1.0000 0.40519  0.96694  0.33800  Biso   1.000  C
  C5519    1.0000 0.40518  0.96690  0.33800  Biso   1.000  C
  C5520    1.0000 0.40523  0.96694  0.33800  Biso   1.000  C
  O811     1.0000 0.50995  0.69060  0.91808  Biso   1.000  O
  O812     1.0000 0.50993  0.69055  0.91804  Biso   1.000  O
  O813     1.0000 0.50994  0.69059  0.91804  Biso   1.000  O
  O814     1.0000 0.52055  0.75149  0.00328  Biso   1.000  O
  O815     1.0000 0.52058  0.75149  0.00328  Biso   1.000  O
  H3743    1.0000 0.58347  0.72600  0.06780  Biso   1.000  H
  H3744    1.0000 0.58343  0.72600  0.06780  Biso   1.000  H
  O816     1.0000 0.64086  0.73370  0.15730  Biso   1.000  O
  O817     1.0000 0.67657  0.66609  0.13809  Biso   1.000  O
  O818     1.0000 0.64087  0.73374  0.15730  Biso   1.000  O
  O819     1.0000 0.67655  0.66613  0.13809  Biso   1.000  O
  O820     1.0000 0.67654  0.66609  0.13809  Biso   1.000  O
  O821     1.0000 0.64090  0.73370  0.15730  Biso   1.000  O
  O822     1.0000 0.67658  0.66613  0.13809  Biso   1.000  O
  C5521    1.0000 0.13129  0.19638  0.63343  Biso   1.000  C
  C5522    1.0000 0.13128  0.19634  0.63343  Biso   1.000  C
  C5523    1.0000 0.13126  0.19638  0.63343  Biso   1.000  C
  C5524    1.0000 0.17419  0.11425  0.61093  Biso   1.000  C
  C5525    1.0000 0.17415  0.11425  0.61093  Biso   1.000  C
  C5526    1.0000 0.69824  0.96466  0.52344  Biso   1.000  C
  C5527    1.0000 0.69820  0.96466  0.52344  Biso   1.000  C
  C5528    1.0000 0.75658  0.07745  0.56364  Biso   1.000  C
  C5529    1.0000 0.75654  0.07745  0.56364  Biso   1.000  C
  C5530    1.0000 0.54172  0.07008  0.07438  Biso   1.000  C
  C5531    1.0000 0.54167  0.07006  0.07435  Biso   1.000  C
  C5532    1.0000 0.54173  0.07012  0.07438  Biso   1.000  C
  C5533    1.0000 0.54171  0.07006  0.07435  Biso   1.000  C
  C5534    1.0000 0.55522  0.13989  0.17581  Biso   1.000  C
  C5535    1.0000 0.55525  0.13989  0.17581  Biso   1.000  C
  C5536    1.0000 0.35389  0.88976  0.34881  Biso   1.000  C
  C5537    1.0000 0.35390  0.88980  0.34881  Biso   1.000  C
  C5538    1.0000 0.35393  0.88980  0.34881  Biso   1.000  C
  C5539    1.0000 0.40947  0.00303  0.38742  Biso   1.000  C
  C5540    1.0000 0.40941  0.00298  0.38738  Biso   1.000  C
  C5541    1.0000 0.40943  0.00303  0.38742  Biso   1.000  C
  C5542    1.0000 0.40946  0.00301  0.38738  Biso   1.000  C
  C5543    1.0000 0.40945  0.00298  0.38738  Biso   1.000  C
  C5544    1.0000 0.40942  0.00301  0.38738  Biso   1.000  C
  C5545    1.0000 0.48396  0.72558  0.91638  Biso   1.000  C
  C5546    1.0000 0.48392  0.72556  0.91634  Biso   1.000  C
  C5547    1.0000 0.48397  0.72562  0.91638  Biso   1.000  C
  C5548    1.0000 0.48393  0.72558  0.91638  Biso   1.000  C
  C5549    1.0000 0.48395  0.72556  0.91634  Biso   1.000  C
  C5550    1.0000 0.49069  0.76111  0.96688  Biso   1.000  C
  C5551    1.0000 0.49063  0.76106  0.96684  Biso   1.000  C
  C5552    1.0000 0.49065  0.76111  0.96688  Biso   1.000  C
  C5553    1.0000 0.49064  0.76109  0.96684  Biso   1.000  C
  C5554    1.0000 0.49067  0.76106  0.96684  Biso   1.000  C
  C5555    1.0000 0.67148  0.73821  0.20230  Biso   1.000  C
  C5556    1.0000 0.67145  0.73821  0.20230  Biso   1.000  C
  C5557    1.0000 0.69308  0.69731  0.19080  Biso   1.000  C
  C5558    1.0000 0.69304  0.69731  0.19080  Biso   1.000  C
  H3745    1.0000 0.11700  0.22378  0.64094  Biso   1.000  H
  C5559    1.0000 0.18561  0.21089  0.64416  Biso   1.000  C
  H3746    1.0000 0.11697  0.22378  0.64094  Biso   1.000  H
  C5560    1.0000 0.18555  0.21083  0.64412  Biso   1.000  C
  H3747    1.0000 0.11696  0.22374  0.64094  Biso   1.000  H
  C5561    1.0000 0.18560  0.21085  0.64416  Biso   1.000  C
  C5562    1.0000 0.18556  0.21087  0.64412  Biso   1.000  C
  C5563    1.0000 0.18557  0.21089  0.64416  Biso   1.000  C
  C5564    1.0000 0.18558  0.21083  0.64412  Biso   1.000  C
  H3748    1.0000 0.11699  0.22374  0.64094  Biso   1.000  H
  C5565    1.0000 0.20700  0.16989  0.63285  Biso   1.000  C
  H3749    1.0000 0.18860  0.08687  0.60346  Biso   1.000  H
  C5566    1.0000 0.20696  0.16985  0.63285  Biso   1.000  C
  H3750    1.0000 0.18855  0.08685  0.60342  Biso   1.000  H
  H3751    1.0000 0.18855  0.08684  0.60346  Biso   1.000  H
  C5567    1.0000 0.20697  0.16989  0.63285  Biso   1.000  C
  H3752    1.0000 0.18856  0.08687  0.60346  Biso   1.000  H
  C5568    1.0000 0.20699  0.16985  0.63285  Biso   1.000  C
  H3753    1.0000 0.18858  0.08685  0.60342  Biso   1.000  H
  H3754    1.0000 0.18859  0.08684  0.60346  Biso   1.000  H
  H3755    1.0000 0.67862  0.92695  0.51004  Biso   1.000  H
  H3756    1.0000 0.67863  0.92699  0.51004  Biso   1.000  H
  C5569    1.0000 0.67335  0.00275  0.53553  Biso   1.000  C
  C5570    1.0000 0.67334  0.00271  0.53553  Biso   1.000  C
  C5571    1.0000 0.67338  0.00275  0.53553  Biso   1.000  C
  C5572    1.0000 0.70256  0.05917  0.55555  Biso   1.000  C
  H3757    1.0000 0.77608  0.11527  0.57704  Biso   1.000  H
  C5573    1.0000 0.70255  0.05913  0.55555  Biso   1.000  C
  H3758    1.0000 0.77607  0.11524  0.57704  Biso   1.000  H
  C5574    1.0000 0.70259  0.05917  0.55555  Biso   1.000  C
  C5575    1.0000 0.56732  0.12717  0.09379  Biso   1.000  C
  H3759    1.0000 0.53721  0.04677  0.04038  Biso   1.000  H
  C5576    1.0000 0.56733  0.12721  0.09379  Biso   1.000  C
  H3760    1.0000 0.53722  0.04681  0.04038  Biso   1.000  H
  C5577    1.0000 0.56735  0.12717  0.09379  Biso   1.000  C
  H3761    1.0000 0.55976  0.16332  0.20982  Biso   1.000  H
  C5578    1.0000 0.57401  0.16205  0.14448  Biso   1.000  C
  H3762    1.0000 0.55971  0.16330  0.20978  Biso   1.000  H
  H3763    1.0000 0.55972  0.16332  0.20982  Biso   1.000  H
  C5579    1.0000 0.57402  0.16209  0.14448  Biso   1.000  C
  H3764    1.0000 0.55975  0.16330  0.20978  Biso   1.000  H
  C5580    1.0000 0.57405  0.16205  0.14448  Biso   1.000  C
  H3765    1.0000 0.33531  0.85192  0.33591  Biso   1.000  H
  C5581    1.0000 0.35823  0.92590  0.39830  Biso   1.000  C
  H3766    1.0000 0.33532  0.85196  0.33591  Biso   1.000  H
  C5582    1.0000 0.35820  0.92593  0.39830  Biso   1.000  C
  H3767    1.0000 0.33527  0.85192  0.33591  Biso   1.000  H
  C5583    1.0000 0.35819  0.92590  0.39830  Biso   1.000  C
  C5584    1.0000 0.35824  0.92593  0.39830  Biso   1.000  C
  C5585    1.0000 0.38601  0.98252  0.41759  Biso   1.000  C
  C5586    1.0000 0.38602  0.98256  0.41759  Biso   1.000  C
  H3768    1.0000 0.42804  0.04091  0.40040  Biso   1.000  H
  H3769    1.0000 0.42807  0.04091  0.40040  Biso   1.000  H
  C5587    1.0000 0.45446  0.73001  0.87498  Biso   1.000  C
  C5588    1.0000 0.45443  0.72995  0.87494  Biso   1.000  C
  C5589    1.0000 0.45441  0.72999  0.87494  Biso   1.000  C
  C5590    1.0000 0.45444  0.72999  0.87494  Biso   1.000  C
  C5591    1.0000 0.46789  0.80099  0.97598  Biso   1.000  C
  C5592    1.0000 0.46784  0.80097  0.97594  Biso   1.000  C
  C5593    1.0000 0.46785  0.80099  0.97598  Biso   1.000  C
  C5594    1.0000 0.46788  0.80097  0.97594  Biso   1.000  C
  C5595    1.0000 0.68299  0.77539  0.25362  Biso   1.000  C
  C5596    1.0000 0.68295  0.77541  0.25358  Biso   1.000  C
  C5597    1.0000 0.68296  0.77543  0.25362  Biso   1.000  C
  C5598    1.0000 0.68298  0.77538  0.25358  Biso   1.000  C
  C5599    1.0000 0.68299  0.77541  0.25358  Biso   1.000  C
  C5600    1.0000 0.68300  0.77543  0.25362  Biso   1.000  C
  C5601    1.0000 0.68294  0.77538  0.25358  Biso   1.000  C
  C5602    1.0000 0.72608  0.69360  0.23042  Biso   1.000  C
  C5603    1.0000 0.72608  0.69362  0.23038  Biso   1.000  C
  C5604    1.0000 0.72607  0.69358  0.23038  Biso   1.000  C
  C5605    1.0000 0.22571  0.27005  0.67084  Biso   1.000  C
  C5606    1.0000 0.22568  0.27005  0.67084  Biso   1.000  C
  C5607    1.0000 0.22569  0.27009  0.67084  Biso   1.000  C
  C5608    1.0000 0.27000  0.19315  0.64993  Biso   1.000  C
  C5609    1.0000 0.26997  0.19315  0.64993  Biso   1.000  C
  C5610    1.0000 0.26998  0.19318  0.64993  Biso   1.000  C
  C5611    1.0000 0.61302  0.98337  0.52724  Biso   1.000  C
  C5612    1.0000 0.66659  0.09399  0.56945  Biso   1.000  C
  C5613    1.0000 0.66654  0.09393  0.56941  Biso   1.000  C
  C5614    1.0000 0.66655  0.09395  0.56945  Biso   1.000  C
  C5615    1.0000 0.66658  0.09397  0.56941  Biso   1.000  C
  C5616    1.0000 0.66657  0.09393  0.56941  Biso   1.000  C
  C5617    1.0000 0.66658  0.09395  0.56945  Biso   1.000  C
  C5618    1.0000 0.66655  0.09397  0.56941  Biso   1.000  C
  C5619    1.0000 0.58860  0.15088  0.06188  Biso   1.000  C
  C5620    1.0000 0.58864  0.15088  0.06188  Biso   1.000  C
  C5621    1.0000 0.60214  0.22310  0.15889  Biso   1.000  C
  C5622    1.0000 0.60211  0.22310  0.15889  Biso   1.000  C
  C5623    1.0000 0.33360  0.90610  0.43060  Biso   1.000  C
  C5624    1.0000 0.33361  0.90613  0.43060  Biso   1.000  C
  C5625    1.0000 0.33357  0.90613  0.43060  Biso   1.000  C
  C5626    1.0000 0.38717  0.01672  0.47282  Biso   1.000  C
  C5627    1.0000 0.38713  0.01672  0.47282  Biso   1.000  C
  H3770    1.0000 0.44994  0.70619  0.84124  Biso   1.000  H
  C5628    1.0000 0.43167  0.76988  0.88415  Biso   1.000  C
  H3771    1.0000 0.44993  0.70615  0.84124  Biso   1.000  H
  C5629    1.0000 0.43164  0.76988  0.88415  Biso   1.000  C
  H3772    1.0000 0.44990  0.70619  0.84124  Biso   1.000  H
  C5630    1.0000 0.43835  0.80538  0.93466  Biso   1.000  C
  C5631    1.0000 0.43836  0.80541  0.93466  Biso   1.000  C
  C5632    1.0000 0.43831  0.80538  0.93466  Biso   1.000  C
  H3773    1.0000 0.47226  0.82468  0.00967  Biso   1.000  H
  H3774    1.0000 0.47223  0.82471  0.00967  Biso   1.000  H
  H3775    1.0000 0.47222  0.82468  0.00967  Biso   1.000  H
  H3776    1.0000 0.47227  0.82471  0.00967  Biso   1.000  H
  H3777    1.0000 0.66859  0.80279  0.26129  Biso   1.000  H
  C5633    1.0000 0.71610  0.77160  0.29320  Biso   1.000  C
  H3778    1.0000 0.66856  0.80283  0.26129  Biso   1.000  H
  C5634    1.0000 0.71608  0.77163  0.29320  Biso   1.000  C
  H3779    1.0000 0.66855  0.80279  0.26129  Biso   1.000  H
  C5635    1.0000 0.71607  0.77160  0.29320  Biso   1.000  C
  H3780    1.0000 0.66860  0.80283  0.26129  Biso   1.000  H
  C5636    1.0000 0.73759  0.73069  0.28169  Biso   1.000  C
  H3781    1.0000 0.74047  0.66619  0.22271  Biso   1.000  H
  C5637    1.0000 0.73757  0.73073  0.28169  Biso   1.000  C
  H3782    1.0000 0.74047  0.66621  0.22267  Biso   1.000  H
  C5638    1.0000 0.73756  0.73069  0.28169  Biso   1.000  C
  H3783    1.0000 0.74048  0.66623  0.22271  Biso   1.000  H
  H3784    1.0000 0.74046  0.66617  0.22267  Biso   1.000  H
  H3785    1.0000 0.74051  0.66619  0.22271  Biso   1.000  H
  C5639    1.0000 0.73760  0.73073  0.28169  Biso   1.000  C
  C5640    1.0000 0.26121  0.27335  0.63924  Biso   1.000  C
  H3786    1.0000 0.21082  0.29927  0.67936  Biso   1.000  H
  C5641    1.0000 0.26260  0.26939  0.71836  Biso   1.000  C
  C5642    1.0000 0.26117  0.27335  0.63924  Biso   1.000  C
  H3787    1.0000 0.21077  0.29925  0.67932  Biso   1.000  H
  C5643    1.0000 0.26259  0.26937  0.71832  Biso   1.000  C
  H3788    1.0000 0.21079  0.29927  0.67936  Biso   1.000  H
  C5644    1.0000 0.26259  0.26935  0.71836  Biso   1.000  C
  C5645    1.0000 0.26255  0.26937  0.71832  Biso   1.000  C
  H3789    1.0000 0.21081  0.29925  0.67932  Biso   1.000  H
  C5646    1.0000 0.28188  0.23196  0.62545  Biso   1.000  C
  H3790    1.0000 0.28550  0.16457  0.64125  Biso   1.000  H
  C5647    1.0000 0.28409  0.22848  0.70686  Biso   1.000  C
  H3791    1.0000 0.28546  0.16457  0.64125  Biso   1.000  H
  C5648    1.0000 0.28408  0.22845  0.70686  Biso   1.000  C
  C5649    1.0000 0.61418  0.01756  0.58247  Biso   1.000  C
  C5650    1.0000 0.61415  0.01756  0.58247  Biso   1.000  C
  C5651    1.0000 0.61414  0.01752  0.58247  Biso   1.000  C
  C5652    1.0000 0.61417  0.01752  0.58247  Biso   1.000  C
  H3792    1.0000 0.59363  0.94327  0.51194  Biso   1.000  H
  H3793    1.0000 0.59360  0.94327  0.51194  Biso   1.000  H
  C5653    1.0000 0.59506  0.01296  0.49792  Biso   1.000  C
  C5654    1.0000 0.59503  0.01296  0.49792  Biso   1.000  C
  C5655    1.0000 0.59505  0.01292  0.49792  Biso   1.000  C
  C5656    1.0000 0.64197  0.07419  0.60175  Biso   1.000  C
  C5657    1.0000 0.64196  0.07415  0.60175  Biso   1.000  C
  C5658    1.0000 0.64200  0.07419  0.60175  Biso   1.000  C
  C5659    1.0000 0.62257  0.06983  0.51853  Biso   1.000  C
  H3794    1.0000 0.68506  0.13425  0.58494  Biso   1.000  H
  C5660    1.0000 0.62254  0.06983  0.51853  Biso   1.000  C
  C5661    1.0000 0.62258  0.06987  0.51853  Biso   1.000  C
  H3795    1.0000 0.68510  0.13425  0.58494  Biso   1.000  H
  C5662    1.0000 0.62255  0.06987  0.51853  Biso   1.000  C
  C5663    1.0000 0.64602  0.18790  0.09549  Biso   1.000  C
  H3796    1.0000 0.58350  0.12419  0.02679  Biso   1.000  H
  C5664    1.0000 0.56184  0.19470  0.06540  Biso   1.000  C
  C5665    1.0000 0.56181  0.19470  0.06540  Biso   1.000  C
  H3797    1.0000 0.58354  0.12419  0.02679  Biso   1.000  H
  C5666    1.0000 0.64606  0.18790  0.09549  Biso   1.000  C
  C5667    1.0000 0.65144  0.22511  0.14499  Biso   1.000  C
  H3798    1.0000 0.60733  0.24920  0.19429  Biso   1.000  H
  C5668    1.0000 0.56852  0.23020  0.11590  Biso   1.000  C
  C5669    1.0000 0.65139  0.22507  0.14499  Biso   1.000  C
  C5670    1.0000 0.56856  0.23020  0.11590  Biso   1.000  C
  H3799    1.0000 0.60736  0.24920  0.19429  Biso   1.000  H
  C5671    1.0000 0.65143  0.22507  0.14499  Biso   1.000  C
  C5672    1.0000 0.65140  0.22511  0.14499  Biso   1.000  C
  C5673    1.0000 0.29763  0.94092  0.44451  Biso   1.000  C
  C5674    1.0000 0.29761  0.94095  0.44451  Biso   1.000  C
  C5675    1.0000 0.29760  0.94092  0.44451  Biso   1.000  C
  C5676    1.0000 0.37762  0.93025  0.48153  Biso   1.000  C
  H3800    1.0000 0.31513  0.86583  0.41511  Biso   1.000  H
  C5677    1.0000 0.37761  0.93023  0.48149  Biso   1.000  C
  H3801    1.0000 0.31510  0.86583  0.41511  Biso   1.000  H
  C5678    1.0000 0.32685  0.99733  0.46453  Biso   1.000  C
  C5679    1.0000 0.32681  0.99735  0.46449  Biso   1.000  C
  C5680    1.0000 0.32681  0.99733  0.46453  Biso   1.000  C
  C5681    1.0000 0.32680  0.99731  0.46449  Biso   1.000  C
  C5682    1.0000 0.32684  0.99735  0.46449  Biso   1.000  C
  C5683    1.0000 0.40513  0.98712  0.50213  Biso   1.000  C
  C5684    1.0000 0.40513  0.98714  0.50209  Biso   1.000  C
  C5685    1.0000 0.40514  0.98716  0.50213  Biso   1.000  C
  C5686    1.0000 0.40508  0.98711  0.50209  Biso   1.000  C
  C5687    1.0000 0.40510  0.98712  0.50213  Biso   1.000  C
  C5688    1.0000 0.40512  0.98711  0.50209  Biso   1.000  C
  H3802    1.0000 0.40656  0.05681  0.48811  Biso   1.000  H
  H3803    1.0000 0.40652  0.05681  0.48811  Biso   1.000  H
  H3804    1.0000 0.40657  0.05685  0.48811  Biso   1.000  H
  C5689    1.0000 0.39805  0.77698  0.84117  Biso   1.000  C
  C5690    1.0000 0.39801  0.77698  0.84117  Biso   1.000  C
  C5691    1.0000 0.41159  0.84920  0.93818  Biso   1.000  C
  C5692    1.0000 0.41154  0.84918  0.93814  Biso   1.000  C
  C5693    1.0000 0.41156  0.84920  0.93818  Biso   1.000  C
  C5694    1.0000 0.73019  0.80694  0.35013  Biso   1.000  C
  C5695    1.0000 0.73018  0.80692  0.35009  Biso   1.000  C
  C5696    1.0000 0.73021  0.80692  0.35009  Biso   1.000  C
  C5697    1.0000 0.73023  0.80694  0.35013  Biso   1.000  C
  C5698    1.0000 0.77448  0.73003  0.32921  Biso   1.000  C
  C5699    1.0000 0.77452  0.73003  0.32921  Biso   1.000  C
  C5700    1.0000 0.27110  0.31317  0.62073  Biso   1.000  C
  C5701    1.0000 0.27106  0.31317  0.62073  Biso   1.000  C
  C5702    1.0000 0.27109  0.31313  0.62073  Biso   1.000  C
  C5703    1.0000 0.27411  0.30648  0.76964  Biso   1.000  C
  C5704    1.0000 0.27408  0.30648  0.76964  Biso   1.000  C
  C5705    1.0000 0.27410  0.30644  0.76964  Biso   1.000  C
  C5706    1.0000 0.31259  0.23027  0.59315  Biso   1.000  C
  C5707    1.0000 0.31258  0.23025  0.59312  Biso   1.000  C
  C5708    1.0000 0.31258  0.23023  0.59315  Biso   1.000  C
  C5709    1.0000 0.31254  0.23025  0.59312  Biso   1.000  C
  C5710    1.0000 0.31720  0.22469  0.74644  Biso   1.000  C
  C5711    1.0000 0.31719  0.22465  0.74644  Biso   1.000  C
  C5712    1.0000 0.31717  0.22469  0.74644  Biso   1.000  C
  C5713    1.0000 0.59072  0.99705  0.61263  Biso   1.000  C
  C5714    1.0000 0.59073  0.99709  0.61263  Biso   1.000  C
  C5715    1.0000 0.55522  0.98536  0.45025  Biso   1.000  C
  C5716    1.0000 0.55521  0.98534  0.45021  Biso   1.000  C
  C5717    1.0000 0.55518  0.98534  0.45021  Biso   1.000  C
  C5718    1.0000 0.64630  0.11032  0.65125  Biso   1.000  C
  C5719    1.0000 0.64627  0.11032  0.65125  Biso   1.000  C
  C5720    1.0000 0.64626  0.11028  0.65125  Biso   1.000  C
  C5721    1.0000 0.64629  0.11028  0.65125  Biso   1.000  C
  C5722    1.0000 0.61007  0.09904  0.49153  Biso   1.000  C
  C5723    1.0000 0.61003  0.09904  0.49153  Biso   1.000  C
  C5724    1.0000 0.69033  0.18777  0.08039  Biso   1.000  C
  C5725    1.0000 0.69029  0.18777  0.08039  Biso   1.000  C
  C5726    1.0000 0.69030  0.18781  0.08039  Biso   1.000  C
  C5727    1.0000 0.69034  0.18781  0.08039  Biso   1.000  C
  C5728    1.0000 0.53230  0.19909  0.02408  Biso   1.000  C
  C5729    1.0000 0.53234  0.19909  0.02408  Biso   1.000  C
  C5730    1.0000 0.70133  0.26220  0.17930  Biso   1.000  C
  C5731    1.0000 0.70136  0.26220  0.17930  Biso   1.000  C
  C5732    1.0000 0.54574  0.27008  0.12508  Biso   1.000  C
  C5733    1.0000 0.54570  0.27008  0.12508  Biso   1.000  C
  C5734    1.0000 0.54571  0.27011  0.12508  Biso   1.000  C
  C5735    1.0000 0.54575  0.27011  0.12508  Biso   1.000  C
  C5736    1.0000 0.24362  0.92263  0.43641  Biso   1.000  C
  C5737    1.0000 0.24358  0.92263  0.43641  Biso   1.000  C
  C5738    1.0000 0.39013  0.90104  0.50852  Biso   1.000  C
  C5739    1.0000 0.39009  0.90104  0.50852  Biso   1.000  C
  C5740    1.0000 0.30196  0.03542  0.47661  Biso   1.000  C
  C5741    1.0000 0.44497  0.01472  0.54981  Biso   1.000  C
  C5742    1.0000 0.44493  0.01472  0.54981  Biso   1.000  C
  C5743    1.0000 0.34875  0.77497  0.85507  Biso   1.000  C
  H3805    1.0000 0.39286  0.75088  0.80577  Biso   1.000  H
  C5744    1.0000 0.42618  0.83803  0.85557  Biso   1.000  C
  C5745    1.0000 0.34874  0.77495  0.85503  Biso   1.000  C
  H3806    1.0000 0.39282  0.75087  0.80573  Biso   1.000  H
  C5746    1.0000 0.42612  0.83798  0.85553  Biso   1.000  C
  C5747    1.0000 0.34876  0.77501  0.85507  Biso   1.000  C
  H3807    1.0000 0.39283  0.75088  0.80577  Biso   1.000  H
  C5748    1.0000 0.42614  0.83803  0.85557  Biso   1.000  C
  C5749    1.0000 0.34870  0.77495  0.85503  Biso   1.000  C
  C5750    1.0000 0.42613  0.83801  0.85553  Biso   1.000  C
  C5751    1.0000 0.34872  0.77497  0.85507  Biso   1.000  C
  H3808    1.0000 0.39285  0.75087  0.80573  Biso   1.000  H
  C5752    1.0000 0.42616  0.83798  0.85553  Biso   1.000  C
  H3809    1.0000 0.41665  0.87590  0.97327  Biso   1.000  H
  C5753    1.0000 0.35417  0.81218  0.90456  Biso   1.000  C
  H3810    1.0000 0.41669  0.87590  0.97327  Biso   1.000  H
  C5754    1.0000 0.43288  0.87291  0.90627  Biso   1.000  C
  C5755    1.0000 0.35413  0.81218  0.90456  Biso   1.000  C
  C5756    1.0000 0.43283  0.87287  0.90627  Biso   1.000  C
  C5757    1.0000 0.43284  0.87291  0.90627  Biso   1.000  C
  C5758    1.0000 0.43287  0.87287  0.90627  Biso   1.000  C
  C5759    1.0000 0.71831  0.76812  0.37460  Biso   1.000  C
  H3811    1.0000 0.71469  0.83552  0.35880  Biso   1.000  H
  C5760    1.0000 0.79319  0.83019  0.36721  Biso   1.000  C
  C5761    1.0000 0.71828  0.76812  0.37460  Biso   1.000  C
  H3812    1.0000 0.71470  0.83555  0.35880  Biso   1.000  H
  C5762    1.0000 0.79320  0.83023  0.36721  Biso   1.000  C
  C5763    1.0000 0.79322  0.83019  0.36721  Biso   1.000  C
  C5764    1.0000 0.73898  0.72673  0.36082  Biso   1.000  C
  H3813    1.0000 0.78937  0.70081  0.32069  Biso   1.000  H
  C5765    1.0000 0.81459  0.78919  0.35590  Biso   1.000  C
  C5766    1.0000 0.81460  0.78923  0.35590  Biso   1.000  C
  C5767    1.0000 0.73902  0.72673  0.36082  Biso   1.000  C
  H3814    1.0000 0.78941  0.70081  0.32069  Biso   1.000  H
  C5768    1.0000 0.30171  0.31137  0.58843  Biso   1.000  C
  C5769    1.0000 0.25150  0.35958  0.63583  Biso   1.000  C
  C5770    1.0000 0.30167  0.31137  0.58843  Biso   1.000  C
  C5771    1.0000 0.25149  0.35954  0.63583  Biso   1.000  C
  C5772    1.0000 0.30166  0.31133  0.58843  Biso   1.000  C
  C5773    1.0000 0.25146  0.35958  0.63583  Biso   1.000  C
  C5774    1.0000 0.30170  0.31133  0.58843  Biso   1.000  C
  H3815    1.0000 0.25972  0.33389  0.77734  Biso   1.000  H
  C5775    1.0000 0.30711  0.30277  0.80925  Biso   1.000  C
  H3816    1.0000 0.25968  0.33385  0.77734  Biso   1.000  H
  H3817    1.0000 0.25969  0.33389  0.77734  Biso   1.000  H
  C5776    1.0000 0.30708  0.30277  0.80925  Biso   1.000  C
  H3818    1.0000 0.25971  0.33385  0.77734  Biso   1.000  H
  C5777    1.0000 0.32238  0.26998  0.57464  Biso   1.000  C
  C5778    1.0000 0.33411  0.18457  0.57735  Biso   1.000  C
  C5779    1.0000 0.32237  0.26994  0.57464  Biso   1.000  C
  C5780    1.0000 0.33406  0.18455  0.57731  Biso   1.000  C
  C5781    1.0000 0.33406  0.18453  0.57735  Biso   1.000  C
  C5782    1.0000 0.33407  0.18457  0.57735  Biso   1.000  C
  C5783    1.0000 0.33410  0.18455  0.57731  Biso   1.000  C
  C5784    1.0000 0.33410  0.18453  0.57735  Biso   1.000  C
  C5785    1.0000 0.32871  0.26187  0.79775  Biso   1.000  C
  H3819    1.0000 0.33160  0.19729  0.73877  Biso   1.000  H
  H3820    1.0000 0.33159  0.19727  0.73873  Biso   1.000  H
  H3821    1.0000 0.33160  0.19725  0.73877  Biso   1.000  H
  C5786    1.0000 0.32868  0.26187  0.79775  Biso   1.000  C
  H3822    1.0000 0.33156  0.19727  0.73873  Biso   1.000  H
  C5787    1.0000 0.59497  0.03318  0.66205  Biso   1.000  C
  C5788    1.0000 0.59496  0.03314  0.66205  Biso   1.000  C
  C5789    1.0000 0.59501  0.03318  0.66205  Biso   1.000  C
  H3823    1.0000 0.57215  0.95917  0.59966  Biso   1.000  H
  H3824    1.0000 0.57211  0.95915  0.59962  Biso   1.000  H
  H3825    1.0000 0.57212  0.95917  0.59966  Biso   1.000  H
  H3826    1.0000 0.57214  0.95915  0.59962  Biso   1.000  H
  C5790    1.0000 0.53012  0.92406  0.42244  Biso   1.000  C
  C5791    1.0000 0.53008  0.92406  0.42244  Biso   1.000  C
  C5792    1.0000 0.54265  0.01466  0.42314  Biso   1.000  C
  C5793    1.0000 0.54264  0.01462  0.42314  Biso   1.000  C
  C5794    1.0000 0.54268  0.01466  0.42314  Biso   1.000  C
  C5795    1.0000 0.62278  0.08988  0.68134  Biso   1.000  C
  C5796    1.0000 0.62277  0.08984  0.68134  Biso   1.000  C
  C5797    1.0000 0.62281  0.08988  0.68134  Biso   1.000  C
  H3827    1.0000 0.66488  0.14816  0.66414  Biso   1.000  H
  C5798    1.0000 0.57005  0.07146  0.44382  Biso   1.000  C
  C5799    1.0000 0.64147  0.15967  0.50993  Biso   1.000  C
  C5800    1.0000 0.57004  0.07142  0.44382  Biso   1.000  C
  C5801    1.0000 0.64146  0.15964  0.50993  Biso   1.000  C
  C5802    1.0000 0.57008  0.07146  0.44382  Biso   1.000  C
  C5803    1.0000 0.64150  0.15967  0.50993  Biso   1.000  C
  C5804    1.0000 0.74024  0.22490  0.11478  Biso   1.000  C
  C5805    1.0000 0.68491  0.14699  0.02698  Biso   1.000  C
  C5806    1.0000 0.74020  0.22490  0.11478  Biso   1.000  C
  C5807    1.0000 0.68495  0.14699  0.02698  Biso   1.000  C
  H3828    1.0000 0.52794  0.17540  0.99038  Biso   1.000  H
  H3829    1.0000 0.52792  0.17539  0.99035  Biso   1.000  H
  H3830    1.0000 0.52793  0.17537  0.99038  Biso   1.000  H
  H3831    1.0000 0.52789  0.17539  0.99035  Biso   1.000  H
  C5808    1.0000 0.50950  0.23897  0.03318  Biso   1.000  C
  C5809    1.0000 0.50951  0.23901  0.03318  Biso   1.000  C
  C5810    1.0000 0.50954  0.23897  0.03318  Biso   1.000  C
  C5811    1.0000 0.74575  0.26211  0.16419  Biso   1.000  C
  C5812    1.0000 0.70876  0.29642  0.23561  Biso   1.000  C
  C5813    1.0000 0.74570  0.26207  0.16419  Biso   1.000  C
  C5814    1.0000 0.70872  0.29639  0.23561  Biso   1.000  C
  C5815    1.0000 0.70873  0.29642  0.23561  Biso   1.000  C
  C5816    1.0000 0.74574  0.26207  0.16419  Biso   1.000  C
  C5817    1.0000 0.70875  0.29639  0.23561  Biso   1.000  C
  C5818    1.0000 0.74571  0.26211  0.16419  Biso   1.000  C
  C5819    1.0000 0.51623  0.27450  0.08368  Biso   1.000  C
  H3832    1.0000 0.55025  0.29389  0.15881  Biso   1.000  H
  C5820    1.0000 0.51622  0.27446  0.08368  Biso   1.000  C
  H3833    1.0000 0.55021  0.29387  0.15877  Biso   1.000  H
  H3834    1.0000 0.55023  0.29393  0.15881  Biso   1.000  H
  H3835    1.0000 0.55024  0.29387  0.15877  Biso   1.000  H
  H3836    1.0000 0.55026  0.29393  0.15881  Biso   1.000  H
  C5821    1.0000 0.21885  0.96074  0.44853  Biso   1.000  C
  C5822    1.0000 0.21881  0.96076  0.44849  Biso   1.000  C
  C5823    1.0000 0.21881  0.96074  0.44853  Biso   1.000  C
  C5824    1.0000 0.21880  0.96072  0.44849  Biso   1.000  C
  H3837    1.0000 0.22411  0.88481  0.42301  Biso   1.000  H
  H3838    1.0000 0.22412  0.88485  0.42301  Biso   1.000  H
  H3839    1.0000 0.22408  0.88481  0.42301  Biso   1.000  H
  C5825    1.0000 0.43015  0.92862  0.55624  Biso   1.000  C
  C5826    1.0000 0.35873  0.84041  0.49013  Biso   1.000  C
  C5827    1.0000 0.43011  0.92864  0.55620  Biso   1.000  C
  C5828    1.0000 0.35869  0.84043  0.49009  Biso   1.000  C
  C5829    1.0000 0.43012  0.92866  0.55624  Biso   1.000  C
  C5830    1.0000 0.35870  0.84045  0.49013  Biso   1.000  C
  C5831    1.0000 0.43010  0.92860  0.55620  Biso   1.000  C
  C5832    1.0000 0.43011  0.92862  0.55624  Biso   1.000  C
  C5833    1.0000 0.35869  0.84041  0.49013  Biso   1.000  C
  C5834    1.0000 0.43014  0.92864  0.55620  Biso   1.000  C
  C5835    1.0000 0.35872  0.84043  0.49009  Biso   1.000  C
  C5836    1.0000 0.43016  0.92866  0.55624  Biso   1.000  C
  C5837    1.0000 0.35874  0.84045  0.49013  Biso   1.000  C
  C5838    1.0000 0.24805  0.01713  0.46852  Biso   1.000  C
  C5839    1.0000 0.24804  0.01710  0.46852  Biso   1.000  C
  C5840    1.0000 0.24808  0.01713  0.46852  Biso   1.000  C
  H3840    1.0000 0.32158  0.07313  0.49001  Biso   1.000  H
  H3841    1.0000 0.32154  0.07313  0.49001  Biso   1.000  H
  C5841    1.0000 0.45755  0.98542  0.57692  Biso   1.000  C
  C5842    1.0000 0.45752  0.98546  0.57692  Biso   1.000  C
  C5843    1.0000 0.45751  0.98542  0.57692  Biso   1.000  C
  C5844    1.0000 0.45756  0.98546  0.57692  Biso   1.000  C
  C5845    1.0000 0.47008  0.07602  0.57761  Biso   1.000  C
  C5846    1.0000 0.47004  0.07602  0.57761  Biso   1.000  C
  C5847    1.0000 0.47005  0.07606  0.57761  Biso   1.000  C
  C5848    1.0000 0.47009  0.07606  0.57761  Biso   1.000  C
  C5849    1.0000 0.29883  0.73788  0.82076  Biso   1.000  C
  C5850    1.0000 0.29887  0.73788  0.82076  Biso   1.000  C
  C5851    1.0000 0.44498  0.86019  0.82424  Biso   1.000  C
  C5852    1.0000 0.44494  0.86019  0.82424  Biso   1.000  C
  C5853    1.0000 0.30987  0.81231  0.91967  Biso   1.000  C
  C5854    1.0000 0.30986  0.81227  0.91967  Biso   1.000  C
  C5855    1.0000 0.30983  0.81231  0.91967  Biso   1.000  C
  C5856    1.0000 0.45847  0.93000  0.92567  Biso   1.000  C
  C5857    1.0000 0.45846  0.92996  0.92567  Biso   1.000  C
  C5858    1.0000 0.45843  0.93000  0.92567  Biso   1.000  C
  C5859    1.0000 0.68760  0.76981  0.40690  Biso   1.000  C
  C5860    1.0000 0.68758  0.76985  0.40690  Biso   1.000  C
  C5861    1.0000 0.68757  0.76981  0.40690  Biso   1.000  C
  C5862    1.0000 0.68761  0.76985  0.40690  Biso   1.000  C
  C5863    1.0000 0.82601  0.88583  0.38913  Biso   1.000  C
  C5864    1.0000 0.82599  0.88581  0.38909  Biso   1.000  C
  C5865    1.0000 0.82604  0.88583  0.38913  Biso   1.000  C
  C5866    1.0000 0.72909  0.68691  0.37933  Biso   1.000  C
  C5867    1.0000 0.72909  0.68693  0.37929  Biso   1.000  C
  C5868    1.0000 0.72908  0.68689  0.37929  Biso   1.000  C
  C5869    1.0000 0.86890  0.80370  0.36662  Biso   1.000  C
  C5870    1.0000 0.86890  0.80372  0.36659  Biso   1.000  C
  C5871    1.0000 0.86891  0.80374  0.36662  Biso   1.000  C
  H3842    1.0000 0.30831  0.33797  0.57604  Biso   1.000  H
  H3843    1.0000 0.30827  0.33797  0.57604  Biso   1.000  H
  H3844    1.0000 0.30826  0.33793  0.57604  Biso   1.000  H
  H3845    1.0000 0.30830  0.33793  0.57604  Biso   1.000  H
  H3846    1.0000 0.21511  0.34576  0.63463  Biso   1.000  H
  H3847    1.0000 0.25280  0.37599  0.61186  Biso   1.000  H
  C5872    1.0000 0.28653  0.40377  0.69125  Biso   1.000  C
  H3848    1.0000 0.21507  0.34576  0.63463  Biso   1.000  H
  H3849    1.0000 0.25278  0.37594  0.61182  Biso   1.000  H
  C5873    1.0000 0.28649  0.40377  0.69125  Biso   1.000  C
  H3850    1.0000 0.25279  0.37596  0.61186  Biso   1.000  H
  C5874    1.0000 0.28648  0.40374  0.69125  Biso   1.000  C
  H3851    1.0000 0.25275  0.37598  0.61182  Biso   1.000  H
  C5875    1.0000 0.28652  0.40374  0.69125  Biso   1.000  C
  H3852    1.0000 0.25279  0.37598  0.61182  Biso   1.000  H
  O823     1.0000 0.32362  0.33399  0.86196  Biso   1.000  O
  O824     1.0000 0.32361  0.33395  0.86196  Biso   1.000  O
  O825     1.0000 0.32358  0.33399  0.86196  Biso   1.000  O
  H3853    1.0000 0.34288  0.26878  0.55303  Biso   1.000  H
  H3854    1.0000 0.34287  0.26874  0.55303  Biso   1.000  H
  H3855    1.0000 0.34400  0.18198  0.54684  Biso   1.000  H
  H3856    1.0000 0.30648  0.14948  0.56814  Biso   1.000  H
  C5876    1.0000 0.38230  0.19408  0.62034  Biso   1.000  C
  H3857    1.0000 0.34396  0.18194  0.54684  Biso   1.000  H
  H3858    1.0000 0.30647  0.14944  0.56814  Biso   1.000  H
  C5877    1.0000 0.38226  0.19405  0.62034  Biso   1.000  C
  H3859    1.0000 0.34397  0.18198  0.54684  Biso   1.000  H
  H3860    1.0000 0.30644  0.14948  0.56814  Biso   1.000  H
  C5878    1.0000 0.38227  0.19408  0.62034  Biso   1.000  C
  H3861    1.0000 0.34399  0.18194  0.54684  Biso   1.000  H
  C5879    1.0000 0.38229  0.19405  0.62034  Biso   1.000  C
  O826     1.0000 0.35933  0.26638  0.84275  Biso   1.000  O
  O827     1.0000 0.35929  0.26638  0.84275  Biso   1.000  O
  O828     1.0000 0.57710  0.02099  0.69807  Biso   1.000  O
  O829     1.0000 0.57704  0.02094  0.69803  Biso   1.000  O
  O830     1.0000 0.57706  0.02096  0.69807  Biso   1.000  O
  O831     1.0000 0.57709  0.02097  0.69803  Biso   1.000  O
  O832     1.0000 0.57708  0.02094  0.69803  Biso   1.000  O
  O833     1.0000 0.57709  0.02096  0.69807  Biso   1.000  O
  O834     1.0000 0.57705  0.02097  0.69803  Biso   1.000  O
  H3862    1.0000 0.51452  0.91246  0.38573  Biso   1.000  H
  H3863    1.0000 0.55630  0.90763  0.42682  Biso   1.000  H
  C5880    1.0000 0.48783  0.90517  0.44425  Biso   1.000  C
  H3864    1.0000 0.51451  0.91242  0.38573  Biso   1.000  H
  C5881    1.0000 0.48780  0.90511  0.44421  Biso   1.000  C
  H3865    1.0000 0.55631  0.90767  0.42682  Biso   1.000  H
  H3866    1.0000 0.51448  0.91246  0.38573  Biso   1.000  H
  H3867    1.0000 0.55627  0.90763  0.42682  Biso   1.000  H
  C5882    1.0000 0.48778  0.90515  0.44421  Biso   1.000  C
  C5883    1.0000 0.48779  0.90517  0.44425  Biso   1.000  C
  C5884    1.0000 0.48781  0.90515  0.44421  Biso   1.000  C
  H3868    1.0000 0.51602  0.99614  0.39123  Biso   1.000  H
  H3869    1.0000 0.51603  0.99617  0.39123  Biso   1.000  H
  H3870    1.0000 0.51598  0.99614  0.39123  Biso   1.000  H
  O835     1.0000 0.62130  0.11328  0.73044  Biso   1.000  O
  O836     1.0000 0.62127  0.11328  0.73044  Biso   1.000  O
  O837     1.0000 0.62126  0.11324  0.73044  Biso   1.000  O
  O838     1.0000 0.62129  0.11324  0.73044  Biso   1.000  O
  H3871    1.0000 0.56175  0.09104  0.42573  Biso   1.000  H
  H3872    1.0000 0.56176  0.09107  0.42573  Biso   1.000  H
  H3873    1.0000 0.67897  0.16665  0.52143  Biso   1.000  H
  H3874    1.0000 0.63427  0.16976  0.48173  Biso   1.000  H
  C5885    1.0000 0.62619  0.19525  0.55543  Biso   1.000  C
  H3875    1.0000 0.63424  0.16976  0.48173  Biso   1.000  H
  C5886    1.0000 0.62615  0.19525  0.55543  Biso   1.000  C
  H3876    1.0000 0.67896  0.16662  0.52143  Biso   1.000  H
  H3877    1.0000 0.63426  0.16973  0.48173  Biso   1.000  H
  C5887    1.0000 0.62614  0.19522  0.55543  Biso   1.000  C
  H3878    1.0000 0.67900  0.16665  0.52143  Biso   1.000  H
  C5888    1.0000 0.62618  0.19522  0.55543  Biso   1.000  C
  H3879    1.0000 0.76994  0.22482  0.10471  Biso   1.000  H
  H3880    1.0000 0.76992  0.22476  0.10467  Biso   1.000  H
  H3881    1.0000 0.76993  0.22480  0.10467  Biso   1.000  H
  H3882    1.0000 0.71702  0.15928  0.01920  Biso   1.000  H
  H3883    1.0000 0.65593  0.14578  0.00158  Biso   1.000  H
  C5889    1.0000 0.67451  0.08788  0.02319  Biso   1.000  C
  H3884    1.0000 0.65589  0.14578  0.00158  Biso   1.000  H
  H3885    1.0000 0.71703  0.15931  0.01920  Biso   1.000  H
  H3886    1.0000 0.71705  0.15928  0.01920  Biso   1.000  H
  C5890    1.0000 0.67455  0.08788  0.02319  Biso   1.000  C
  O839     1.0000 0.47964  0.24859  0.99677  Biso   1.000  O
  O840     1.0000 0.47961  0.24859  0.99677  Biso   1.000  O
  H3887    1.0000 0.77904  0.28691  0.18720  Biso   1.000  H
  H3888    1.0000 0.77907  0.28691  0.18720  Biso   1.000  H
  H3889    1.0000 0.74557  0.31010  0.25652  Biso   1.000  H
  H3890    1.0000 0.68746  0.27411  0.24831  Biso   1.000  H
  C5891    1.0000 0.69145  0.34471  0.23801  Biso   1.000  C
  H3891    1.0000 0.74552  0.31008  0.25648  Biso   1.000  H
  H3892    1.0000 0.68743  0.27411  0.24831  Biso   1.000  H
  H3893    1.0000 0.74554  0.31014  0.25652  Biso   1.000  H
  H3894    1.0000 0.74556  0.31008  0.25648  Biso   1.000  H
  H3895    1.0000 0.74558  0.31014  0.25652  Biso   1.000  H
  O841     1.0000 0.49024  0.30948  0.08198  Biso   1.000  O
  O842     1.0000 0.49020  0.30948  0.08198  Biso   1.000  O
  O843     1.0000 0.49021  0.30951  0.08198  Biso   1.000  O
  O844     1.0000 0.49025  0.30951  0.08198  Biso   1.000  O
  O845     1.0000 0.16592  0.94963  0.44222  Biso   1.000  O
  O846     1.0000 0.16593  0.94966  0.44222  Biso   1.000  O
  O847     1.0000 0.16589  0.94963  0.44222  Biso   1.000  O
  H3896    1.0000 0.43844  0.90905  0.57432  Biso   1.000  H
  H3897    1.0000 0.43840  0.90905  0.57432  Biso   1.000  H
  H3898    1.0000 0.32123  0.83343  0.47863  Biso   1.000  H
  H3899    1.0000 0.36592  0.83032  0.51832  Biso   1.000  H
  C5892    1.0000 0.37401  0.80483  0.44462  Biso   1.000  C
  H3900    1.0000 0.32120  0.83346  0.47863  Biso   1.000  H
  H3901    1.0000 0.36593  0.83036  0.51832  Biso   1.000  H
  C5893    1.0000 0.37402  0.80486  0.44462  Biso   1.000  C
  H3902    1.0000 0.32119  0.83343  0.47863  Biso   1.000  H
  H3903    1.0000 0.36588  0.83032  0.51832  Biso   1.000  H
  H3904    1.0000 0.32124  0.83346  0.47863  Biso   1.000  H
  O848     1.0000 0.21388  0.04543  0.47793  Biso   1.000  O
  O849     1.0000 0.21383  0.04541  0.47789  Biso   1.000  O
  O850     1.0000 0.21384  0.04543  0.47793  Biso   1.000  O
  O851     1.0000 0.21386  0.04541  0.47789  Biso   1.000  O
  H3905    1.0000 0.48418  0.00395  0.60883  Biso   1.000  H
  H3906    1.0000 0.48417  0.00391  0.60883  Biso   1.000  H
  H3907    1.0000 0.48567  0.08762  0.61433  Biso   1.000  H
  H3908    1.0000 0.44389  0.09245  0.57324  Biso   1.000  H
  C5894    1.0000 0.51237  0.09491  0.55581  Biso   1.000  C
  H3909    1.0000 0.48564  0.08762  0.61433  Biso   1.000  H
  H3910    1.0000 0.44383  0.09240  0.57320  Biso   1.000  H
  C5895    1.0000 0.51233  0.09491  0.55581  Biso   1.000  C
  H3911    1.0000 0.48568  0.08766  0.61433  Biso   1.000  H
  H3912    1.0000 0.44385  0.09245  0.57324  Biso   1.000  H
  C5896    1.0000 0.51238  0.09495  0.55581  Biso   1.000  C
  H3913    1.0000 0.44388  0.09243  0.57320  Biso   1.000  H
  H3914    1.0000 0.44387  0.09240  0.57320  Biso   1.000  H
  H3915    1.0000 0.44384  0.09243  0.57320  Biso   1.000  H
  C5897    1.0000 0.25445  0.73797  0.83586  Biso   1.000  C
  C5898    1.0000 0.29143  0.70366  0.76445  Biso   1.000  C
  C5899    1.0000 0.25446  0.73801  0.83586  Biso   1.000  C
  C5900    1.0000 0.29144  0.70369  0.76445  Biso   1.000  C
  C5901    1.0000 0.25441  0.73797  0.83586  Biso   1.000  C
  C5902    1.0000 0.29139  0.70366  0.76445  Biso   1.000  C
  H3916    1.0000 0.44043  0.83677  0.79024  Biso   1.000  H
  C5903    1.0000 0.47054  0.91717  0.84365  Biso   1.000  C
  C5904    1.0000 0.47055  0.91720  0.84365  Biso   1.000  C
  C5905    1.0000 0.47058  0.91720  0.84365  Biso   1.000  C
  C5906    1.0000 0.25995  0.77518  0.88528  Biso   1.000  C
  C5907    1.0000 0.31528  0.85309  0.97307  Biso   1.000  C
  C5908    1.0000 0.25994  0.77516  0.88524  Biso   1.000  C
  C5909    1.0000 0.31524  0.85309  0.97307  Biso   1.000  C
  C5910    1.0000 0.25996  0.77522  0.88528  Biso   1.000  C
  C5911    1.0000 0.31525  0.85312  0.97307  Biso   1.000  C
  C5912    1.0000 0.25991  0.77516  0.88524  Biso   1.000  C
  C5913    1.0000 0.31529  0.85312  0.97307  Biso   1.000  C
  H3917    1.0000 0.46298  0.95331  0.95967  Biso   1.000  H
  C5914    1.0000 0.47730  0.95210  0.89438  Biso   1.000  C
  H3918    1.0000 0.46297  0.95327  0.95967  Biso   1.000  H
  C5915    1.0000 0.47724  0.95204  0.89434  Biso   1.000  C
  C5916    1.0000 0.47726  0.95210  0.89438  Biso   1.000  C
  H3919    1.0000 0.46295  0.95331  0.95967  Biso   1.000  H
  C5917    1.0000 0.47725  0.95208  0.89434  Biso   1.000  C
  C5918    1.0000 0.67781  0.73010  0.42541  Biso   1.000  C
  C5919    1.0000 0.66608  0.81551  0.42270  Biso   1.000  C
  C5920    1.0000 0.67779  0.73014  0.42541  Biso   1.000  C
  C5921    1.0000 0.66609  0.81555  0.42270  Biso   1.000  C
  C5922    1.0000 0.66612  0.81551  0.42270  Biso   1.000  C
  C5923    1.0000 0.67782  0.73014  0.42541  Biso   1.000  C
  C5924    1.0000 0.67778  0.73010  0.42541  Biso   1.000  C
  H3920    1.0000 0.81160  0.91321  0.39660  Biso   1.000  H
  C5925    1.0000 0.88020  0.90032  0.39981  Biso   1.000  C
  H3921    1.0000 0.81161  0.91325  0.39660  Biso   1.000  H
  C5926    1.0000 0.88021  0.90036  0.39981  Biso   1.000  C
  H3922    1.0000 0.81163  0.91321  0.39660  Biso   1.000  H
  C5927    1.0000 0.88024  0.90032  0.39981  Biso   1.000  C
  C5928    1.0000 0.69848  0.68871  0.41163  Biso   1.000  C
  C5929    1.0000 0.74869  0.64050  0.36422  Biso   1.000  C
  C5930    1.0000 0.69848  0.68873  0.41159  Biso   1.000  C
  C5931    1.0000 0.74866  0.64052  0.36418  Biso   1.000  C
  C5932    1.0000 0.69849  0.68875  0.41163  Biso   1.000  C
  C5933    1.0000 0.74867  0.64054  0.36422  Biso   1.000  C
  C5934    1.0000 0.69851  0.68869  0.41159  Biso   1.000  C
  C5935    1.0000 0.74868  0.64048  0.36418  Biso   1.000  C
  C5936    1.0000 0.69852  0.68871  0.41163  Biso   1.000  C
  C5937    1.0000 0.74869  0.64052  0.36418  Biso   1.000  C
  C5938    1.0000 0.74870  0.64054  0.36422  Biso   1.000  C
  C5939    1.0000 0.69847  0.68869  0.41159  Biso   1.000  C
  C5940    1.0000 0.74865  0.64048  0.36418  Biso   1.000  C
  C5941    1.0000 0.90170  0.85932  0.38851  Biso   1.000  C
  H3923    1.0000 0.88319  0.77630  0.35911  Biso   1.000  H
  H3924    1.0000 0.88320  0.77634  0.35911  Biso   1.000  H
  H3925    1.0000 0.88323  0.77630  0.35911  Biso   1.000  H
  H3926    1.0000 0.32101  0.42187  0.69094  Biso   1.000  H
  H3927    1.0000 0.28961  0.38607  0.71375  Biso   1.000  H
  H3928    1.0000 0.27084  0.43069  0.70357  Biso   1.000  H
  H3929    1.0000 0.27079  0.43067  0.70353  Biso   1.000  H
  H3930    1.0000 0.32100  0.42184  0.69094  Biso   1.000  H
  H3931    1.0000 0.27079  0.43065  0.70357  Biso   1.000  H
  H3932    1.0000 0.32097  0.42187  0.69094  Biso   1.000  H
  H3933    1.0000 0.28958  0.38607  0.71375  Biso   1.000  H
  H3934    1.0000 0.27080  0.43069  0.70357  Biso   1.000  H
  H3935    1.0000 0.27082  0.43067  0.70353  Biso   1.000  H
  H3936    1.0000 0.27083  0.43065  0.70357  Biso   1.000  H
  B449     1.0000 0.35623  0.31050  0.88396  Biso   1.000  B
  B450     1.0000 0.35622  0.31046  0.88396  Biso   1.000  B
  B451     1.0000 0.35619  0.31050  0.88396  Biso   1.000  B
  H3937    1.0000 0.41028  0.18985  0.60655  Biso   1.000  H
  H3938    1.0000 0.37281  0.16737  0.63366  Biso   1.000  H
  H3939    1.0000 0.39399  0.23077  0.64784  Biso   1.000  H
  H3940    1.0000 0.37276  0.16735  0.63362  Biso   1.000  H
  H3941    1.0000 0.37276  0.16733  0.63366  Biso   1.000  H
  H3942    1.0000 0.39398  0.23073  0.64784  Biso   1.000  H
  H3943    1.0000 0.41029  0.18989  0.60655  Biso   1.000  H
  H3944    1.0000 0.39396  0.23077  0.64784  Biso   1.000  H
  H3945    1.0000 0.37277  0.16737  0.63366  Biso   1.000  H
  H3946    1.0000 0.37280  0.16735  0.63362  Biso   1.000  H
  H3947    1.0000 0.37280  0.16733  0.63366  Biso   1.000  H
  B452     1.0000 0.59320  0.07367  0.74295  Biso   1.000  B
  B453     1.0000 0.59316  0.07367  0.74295  Biso   1.000  B
  B454     1.0000 0.59315  0.07363  0.74295  Biso   1.000  B
  B455     1.0000 0.59319  0.07363  0.74295  Biso   1.000  B
  H3948    1.0000 0.46382  0.92415  0.44243  Biso   1.000  H
  H3949    1.0000 0.50393  0.91354  0.47972  Biso   1.000  H
  H3950    1.0000 0.46892  0.86583  0.42442  Biso   1.000  H
  H3951    1.0000 0.50389  0.91354  0.47972  Biso   1.000  H
  H3952    1.0000 0.46888  0.86583  0.42442  Biso   1.000  H
  H3953    1.0000 0.50390  0.91358  0.47972  Biso   1.000  H
  H3954    1.0000 0.46889  0.86586  0.42442  Biso   1.000  H
  H3955    1.0000 0.46378  0.92415  0.44243  Biso   1.000  H
  H3956    1.0000 0.50394  0.91358  0.47972  Biso   1.000  H
  H3957    1.0000 0.46893  0.86586  0.42442  Biso   1.000  H
  H3958    1.0000 0.64988  0.20236  0.58785  Biso   1.000  H
  H3959    1.0000 0.62846  0.22986  0.55443  Biso   1.000  H
  H3960    1.0000 0.59068  0.17546  0.55226  Biso   1.000  H
  H3961    1.0000 0.59066  0.17545  0.55222  Biso   1.000  H
  H3962    1.0000 0.62845  0.22982  0.55443  Biso   1.000  H
  H3963    1.0000 0.59067  0.17543  0.55226  Biso   1.000  H
  H3964    1.0000 0.62850  0.22986  0.55443  Biso   1.000  H
  H3965    1.0000 0.66694  0.06229  0.98798  Biso   1.000  H
  H3966    1.0000 0.66690  0.06227  0.98794  Biso   1.000  H
  H3967    1.0000 0.66691  0.06229  0.98798  Biso   1.000  H
  H3968    1.0000 0.66693  0.06227  0.98794  Biso   1.000  H
  H3969    1.0000 0.64511  0.07727  0.03457  Biso   1.000  H
  H3970    1.0000 0.70531  0.08780  0.04460  Biso   1.000  H
  H3971    1.0000 0.70530  0.08778  0.04456  Biso   1.000  H
  H3972    1.0000 0.64512  0.07731  0.03457  Biso   1.000  H
  H3973    1.0000 0.70533  0.08778  0.04456  Biso   1.000  H
  H3974    1.0000 0.70535  0.08780  0.04460  Biso   1.000  H
  B456     1.0000 0.46873  0.29280  0.02969  Biso   1.000  B
  H3975    1.0000 0.70486  0.35961  0.21621  Biso   1.000  H
  H3976    1.0000 0.70508  0.37322  0.27302  Biso   1.000  H
  H3977    1.0000 0.65354  0.33181  0.22620  Biso   1.000  H
  H3978    1.0000 0.70483  0.35961  0.21621  Biso   1.000  H
  H3979    1.0000 0.70503  0.37321  0.27298  Biso   1.000  H
  H3980    1.0000 0.70505  0.37322  0.27302  Biso   1.000  H
  H3981    1.0000 0.70507  0.37321  0.27298  Biso   1.000  H
  H3982    1.0000 0.65357  0.33181  0.22620  Biso   1.000  H
  B457     1.0000 0.16606  0.00382  0.46251  Biso   1.000  B
  B458     1.0000 0.16603  0.00382  0.46251  Biso   1.000  B
  H3983    1.0000 0.35031  0.79772  0.41221  Biso   1.000  H
  H3984    1.0000 0.37173  0.77023  0.44563  Biso   1.000  H
  H3985    1.0000 0.40952  0.82462  0.44780  Biso   1.000  H
  H3986    1.0000 0.37169  0.77024  0.44559  Biso   1.000  H
  H3987    1.0000 0.40949  0.82465  0.44780  Biso   1.000  H
  H3988    1.0000 0.37170  0.77023  0.44563  Biso   1.000  H
  H3989    1.0000 0.35027  0.79772  0.41221  Biso   1.000  H
  H3990    1.0000 0.37168  0.77021  0.44559  Biso   1.000  H
  H3991    1.0000 0.40948  0.82462  0.44780  Biso   1.000  H
  H3992    1.0000 0.37173  0.77024  0.44559  Biso   1.000  H
  H3993    1.0000 0.40953  0.82465  0.44780  Biso   1.000  H
  H3994    1.0000 0.49627  0.08654  0.52033  Biso   1.000  H
  H3995    1.0000 0.53637  0.07593  0.55763  Biso   1.000  H
  H3996    1.0000 0.53127  0.13426  0.57564  Biso   1.000  H
  H3997    1.0000 0.49625  0.08652  0.52030  Biso   1.000  H
  H3998    1.0000 0.53634  0.07593  0.55763  Biso   1.000  H
  H3999    1.0000 0.53125  0.13420  0.57560  Biso   1.000  H
  H4000    1.0000 0.53130  0.13424  0.57560  Biso   1.000  H
  H4001    1.0000 0.49630  0.08654  0.52033  Biso   1.000  H
  H4002    1.0000 0.53131  0.13426  0.57564  Biso   1.000  H
  H4003    1.0000 0.53126  0.13424  0.57560  Biso   1.000  H
  H4004    1.0000 0.22116  0.71317  0.81286  Biso   1.000  H
  H4005    1.0000 0.22112  0.71317  0.81286  Biso   1.000  H
  H4006    1.0000 0.31273  0.72597  0.75174  Biso   1.000  H
  H4007    1.0000 0.25462  0.68998  0.74353  Biso   1.000  H
  C5942    1.0000 0.30874  0.65538  0.76205  Biso   1.000  C
  H4008    1.0000 0.25461  0.68994  0.74353  Biso   1.000  H
  C5943    1.0000 0.30870  0.65538  0.76205  Biso   1.000  C
  H4009    1.0000 0.31269  0.72597  0.75174  Biso   1.000  H
  O852     1.0000 0.49395  0.94478  0.81785  Biso   1.000  O
  O853     1.0000 0.49392  0.94478  0.81785  Biso   1.000  O
  H4010    1.0000 0.23025  0.77527  0.89535  Biso   1.000  H
  H4011    1.0000 0.23021  0.77527  0.89535  Biso   1.000  H
  H4012    1.0000 0.23026  0.77530  0.89535  Biso   1.000  H
  H4013    1.0000 0.28318  0.84080  0.98086  Biso   1.000  H
  H4014    1.0000 0.34426  0.85430  0.99848  Biso   1.000  H
  C5944    1.0000 0.32568  0.91220  0.97687  Biso   1.000  C
  H4015    1.0000 0.28313  0.84077  0.98086  Biso   1.000  H
  H4016    1.0000 0.34425  0.85428  0.99844  Biso   1.000  H
  C5945    1.0000 0.32565  0.91220  0.97687  Biso   1.000  C
  H4017    1.0000 0.28314  0.84080  0.98086  Biso   1.000  H
  H4018    1.0000 0.28317  0.84077  0.98086  Biso   1.000  H
  O854     1.0000 0.50529  0.00369  0.90085  Biso   1.000  O
  O855     1.0000 0.50528  0.00365  0.90085  Biso   1.000  O
  O856     1.0000 0.50533  0.00369  0.90085  Biso   1.000  O
  H4019    1.0000 0.65731  0.73130  0.44702  Biso   1.000  H
  H4020    1.0000 0.65729  0.73134  0.44702  Biso   1.000  H
  H4021    1.0000 0.65732  0.73134  0.44702  Biso   1.000  H
  H4022    1.0000 0.65619  0.81810  0.45322  Biso   1.000  H
  H4023    1.0000 0.69371  0.85060  0.43192  Biso   1.000  H
  C5946    1.0000 0.61789  0.80600  0.37971  Biso   1.000  C
  H4024    1.0000 0.65620  0.81814  0.45322  Biso   1.000  H
  H4025    1.0000 0.69369  0.85064  0.43192  Biso   1.000  H
  C5947    1.0000 0.61790  0.80603  0.37971  Biso   1.000  C
  H4026    1.0000 0.65623  0.81814  0.45322  Biso   1.000  H
  H4027    1.0000 0.69372  0.85064  0.43192  Biso   1.000  H
  H4028    1.0000 0.65622  0.81810  0.45322  Biso   1.000  H
  C5948    1.0000 0.61793  0.80600  0.37971  Biso   1.000  C
  O857     1.0000 0.91880  0.95181  0.42092  Biso   1.000  O
  O858     1.0000 0.91881  0.95185  0.42092  Biso   1.000  O
  O859     1.0000 0.91883  0.95181  0.42092  Biso   1.000  O
  H4029    1.0000 0.69189  0.66212  0.42402  Biso   1.000  H
  H4030    1.0000 0.69190  0.66215  0.42402  Biso   1.000  H
  H4031    1.0000 0.69192  0.66212  0.42402  Biso   1.000  H
  H4032    1.0000 0.78509  0.65433  0.36542  Biso   1.000  H
  H4033    1.0000 0.74739  0.62409  0.38820  Biso   1.000  H
  C5949    1.0000 0.71367  0.59631  0.30880  Biso   1.000  C
  H4034    1.0000 0.78507  0.65431  0.36539  Biso   1.000  H
  H4035    1.0000 0.74736  0.62412  0.38820  Biso   1.000  H
  C5950    1.0000 0.71368  0.59634  0.30880  Biso   1.000  C
  H4036    1.0000 0.78512  0.65433  0.36542  Biso   1.000  H
  C5951    1.0000 0.71370  0.59631  0.30880  Biso   1.000  C
  H4037    1.0000 0.74740  0.62412  0.38820  Biso   1.000  H
  H4038    1.0000 0.74735  0.62409  0.38820  Biso   1.000  H
  O860     1.0000 0.95481  0.88520  0.40311  Biso   1.000  O
  O861     1.0000 0.95478  0.88524  0.40311  Biso   1.000  O
  O862     1.0000 0.95482  0.88524  0.40311  Biso   1.000  O
  O863     1.0000 0.95477  0.88520  0.40311  Biso   1.000  O
  C5952    1.0000 0.38323  0.33140  0.93926  Biso   1.000  C
  C5953    1.0000 0.38322  0.33136  0.93926  Biso   1.000  C
  C5954    1.0000 0.38319  0.33140  0.93926  Biso   1.000  C
  C5955    1.0000 0.58501  0.08206  0.79245  Biso   1.000  C
  C5956    1.0000 0.58497  0.08206  0.79245  Biso   1.000  C
  C5957    1.0000 0.58502  0.08210  0.79245  Biso   1.000  C
  C5958    1.0000 0.58498  0.08210  0.79245  Biso   1.000  C
  C5959    1.0000 0.43502  0.32157  0.00878  Biso   1.000  C
  C5960    1.0000 0.43503  0.32161  0.00878  Biso   1.000  C
  C5961    1.0000 0.11485  0.01691  0.46081  Biso   1.000  C
  C5962    1.0000 0.11486  0.01694  0.46081  Biso   1.000  C
  H4039    1.0000 0.29511  0.62686  0.72704  Biso   1.000  H
  H4040    1.0000 0.29533  0.64047  0.78385  Biso   1.000  H
  H4041    1.0000 0.34666  0.66828  0.77386  Biso   1.000  H
  H4042    1.0000 0.34662  0.66828  0.77386  Biso   1.000  H
  H4043    1.0000 0.29529  0.64047  0.78385  Biso   1.000  H
  B459     1.0000 0.51631  0.00138  0.85766  Biso   1.000  B
  B460     1.0000 0.51627  0.00138  0.85766  Biso   1.000  B
  B461     1.0000 0.51626  0.00135  0.85766  Biso   1.000  B
  B462     1.0000 0.51630  0.00135  0.85766  Biso   1.000  B
  H4044    1.0000 0.29485  0.91228  0.95545  Biso   1.000  H
  H4045    1.0000 0.35508  0.92281  0.96548  Biso   1.000  H
  H4046    1.0000 0.29488  0.91228  0.95545  Biso   1.000  H
  H4047    1.0000 0.35506  0.92276  0.96544  Biso   1.000  H
  H4048    1.0000 0.35503  0.92279  0.96544  Biso   1.000  H
  H4049    1.0000 0.35505  0.92281  0.96548  Biso   1.000  H
  H4050    1.0000 0.35507  0.92279  0.96544  Biso   1.000  H
  H4051    1.0000 0.33325  0.93779  0.01207  Biso   1.000  H
  H4052    1.0000 0.33328  0.93779  0.01207  Biso   1.000  H
  H4053    1.0000 0.58992  0.81023  0.39350  Biso   1.000  H
  H4054    1.0000 0.62738  0.83271  0.36639  Biso   1.000  H
  H4055    1.0000 0.60620  0.76931  0.35222  Biso   1.000  H
  H4056    1.0000 0.58988  0.81023  0.39350  Biso   1.000  H
  H4057    1.0000 0.62739  0.83275  0.36639  Biso   1.000  H
  H4058    1.0000 0.60617  0.76935  0.35222  Biso   1.000  H
  H4059    1.0000 0.60616  0.76931  0.35222  Biso   1.000  H
  H4060    1.0000 0.62742  0.83271  0.36639  Biso   1.000  H
  H4061    1.0000 0.60621  0.76935  0.35222  Biso   1.000  H
  B463     1.0000 0.96740  0.94180  0.42290  Biso   1.000  B
  B464     1.0000 0.96741  0.94184  0.42290  Biso   1.000  B
  B465     1.0000 0.96743  0.94180  0.42290  Biso   1.000  B
  H4062    1.0000 0.67919  0.57821  0.30911  Biso   1.000  H
  H4063    1.0000 0.71058  0.61401  0.28630  Biso   1.000  H
  H4064    1.0000 0.72936  0.56939  0.29649  Biso   1.000  H
  H4065    1.0000 0.67916  0.57824  0.30911  Biso   1.000  H
  H4066    1.0000 0.71055  0.61401  0.28630  Biso   1.000  H
  H4067    1.0000 0.72937  0.56943  0.29649  Biso   1.000  H
  H4068    1.0000 0.67915  0.57821  0.30911  Biso   1.000  H
  H4069    1.0000 0.72939  0.56939  0.29649  Biso   1.000  H
  H4070    1.0000 0.67920  0.57824  0.30911  Biso   1.000  H
  C5963    1.0000 0.41243  0.30410  0.95615  Biso   1.000  C
  C5964    1.0000 0.37675  0.37630  0.97497  Biso   1.000  C
  C5965    1.0000 0.41242  0.30406  0.95615  Biso   1.000  C
  C5966    1.0000 0.37671  0.37630  0.97497  Biso   1.000  C
  C5967    1.0000 0.37670  0.37626  0.97497  Biso   1.000  C
  C5968    1.0000 0.41240  0.30410  0.95615  Biso   1.000  C
  C5969    1.0000 0.37674  0.37626  0.97497  Biso   1.000  C
  C5970    1.0000 0.55479  0.03857  0.79977  Biso   1.000  C
  C5971    1.0000 0.55478  0.03855  0.79973  Biso   1.000  C
  C5972    1.0000 0.60850  0.13529  0.83307  Biso   1.000  C
  C5973    1.0000 0.60849  0.13527  0.83303  Biso   1.000  C
  C5974    1.0000 0.60849  0.13525  0.83307  Biso   1.000  C
  C5975    1.0000 0.60854  0.13529  0.83307  Biso   1.000  C
  C5976    1.0000 0.42853  0.36649  0.04460  Biso   1.000  C
  C5977    1.0000 0.42852  0.36647  0.04456  Biso   1.000  C
  C5978    1.0000 0.06624  0.97444  0.44373  Biso   1.000  C
  C5979    1.0000 0.06620  0.97445  0.44369  Biso   1.000  C
  C5980    1.0000 0.06620  0.97444  0.44373  Biso   1.000  C
  C5981    1.0000 0.06619  0.97442  0.44369  Biso   1.000  C
  C5982    1.0000 0.06624  0.97445  0.44369  Biso   1.000  C
  C5983    1.0000 0.11814  0.07161  0.47762  Biso   1.000  C
  C5984    1.0000 0.11815  0.07165  0.47762  Biso   1.000  C
  C5985    1.0000 0.11818  0.07161  0.47762  Biso   1.000  C
  C5986    1.0000 0.54810  0.04839  0.84756  Biso   1.000  C
  C5987    1.0000 0.54809  0.04835  0.84756  Biso   1.000  C
  C5988    1.0000 0.02083  0.98661  0.44342  Biso   1.000  C
  C5989    1.0000 0.02081  0.98665  0.44342  Biso   1.000  C
  C5990    1.0000 0.02080  0.98661  0.44342  Biso   1.000  C
  C5991    1.0000 0.02084  0.98665  0.44342  Biso   1.000  C
  H4071    1.0000 0.41672  0.27408  0.93225  Biso   1.000  H
  H4072    1.0000 0.41669  0.27408  0.93225  Biso   1.000  H
  H4073    1.0000 0.35726  0.39462  0.96366  Biso   1.000  H
  H4074    1.0000 0.35721  0.39458  0.96366  Biso   1.000  H
  H4075    1.0000 0.35722  0.39462  0.96366  Biso   1.000  H
  H4076    1.0000 0.35725  0.39458  0.96366  Biso   1.000  H
  C5992    1.0000 0.39935  0.39381  0.02760  Biso   1.000  C
  C5993    1.0000 0.39930  0.39379  0.02756  Biso   1.000  C
  C5994    1.0000 0.39931  0.39381  0.02760  Biso   1.000  C
  C5995    1.0000 0.39933  0.39379  0.02756  Biso   1.000  C
  H4077    1.0000 0.53910  0.00298  0.77254  Biso   1.000  H
  H4078    1.0000 0.53905  0.00295  0.77254  Biso   1.000  H
  H4079    1.0000 0.53909  0.00295  0.77254  Biso   1.000  H
  H4080    1.0000 0.53906  0.00298  0.77254  Biso   1.000  H
  C5996    1.0000 0.60183  0.14508  0.88098  Biso   1.000  C
  C5997    1.0000 0.60178  0.14506  0.88094  Biso   1.000  C
  C5998    1.0000 0.60179  0.14508  0.88098  Biso   1.000  C
  C5999    1.0000 0.60182  0.14506  0.88094  Biso   1.000  C
  H4081    1.0000 0.62872  0.16440  0.82827  Biso   1.000  H
  H4082    1.0000 0.62866  0.16435  0.82823  Biso   1.000  H
  H4083    1.0000 0.62867  0.16436  0.82827  Biso   1.000  H
  H4084    1.0000 0.62870  0.16438  0.82823  Biso   1.000  H
  H4085    1.0000 0.62869  0.16435  0.82823  Biso   1.000  H
  H4086    1.0000 0.62871  0.16436  0.82827  Biso   1.000  H
  H4087    1.0000 0.62867  0.16438  0.82823  Biso   1.000  H
  H4088    1.0000 0.44375  0.37820  0.07988  Biso   1.000  H
  H4089    1.0000 0.44372  0.37820  0.07988  Biso   1.000  H
  H4090    1.0000 0.06403  0.93783  0.43250  Biso   1.000  H
  H4091    1.0000 0.06399  0.93783  0.43250  Biso   1.000  H
  C6000    1.0000 0.07274  0.08383  0.47731  Biso   1.000  C
  C6001    1.0000 0.07278  0.08383  0.47731  Biso   1.000  C
  H4092    1.0000 0.15077  0.10004  0.48912  Biso   1.000  H
  H4093    1.0000 0.15072  0.10000  0.48912  Biso   1.000  H
  H4094    1.0000 0.15076  0.10000  0.48912  Biso   1.000  H
  H4095    1.0000 0.15073  0.10004  0.48912  Biso   1.000  H
  C6002    1.0000 0.57162  0.10160  0.88814  Biso   1.000  C
  C6003    1.0000 0.57157  0.10156  0.88814  Biso   1.000  C
  C6004    1.0000 0.57161  0.10156  0.88814  Biso   1.000  C
  C6005    1.0000 0.57158  0.10160  0.88814  Biso   1.000  C
  C6006    1.0000 0.02405  0.04132  0.46023  Biso   1.000  C
  C6007    1.0000 0.02404  0.04130  0.46019  Biso   1.000  C
  C6008    1.0000 0.02406  0.04136  0.46023  Biso   1.000  C
  B466     1.0000 0.39284  0.44348  0.06819  Biso   1.000  B
  B467     1.0000 0.39281  0.44348  0.06819  Biso   1.000  B
  B468     1.0000 0.39282  0.44351  0.06819  Biso   1.000  B
  B469     1.0000 0.39285  0.44351  0.06819  Biso   1.000  B
  B470     1.0000 0.62652  0.20600  0.92737  Biso   1.000  B
  B471     1.0000 0.62650  0.20598  0.92734  Biso   1.000  B
  B472     1.0000 0.62651  0.20596  0.92737  Biso   1.000  B
  B473     1.0000 0.62655  0.20600  0.92737  Biso   1.000  B
  B474     1.0000 0.08016  0.14671  0.49690  Biso   1.000  B
  B475     1.0000 0.08012  0.14671  0.49690  Biso   1.000  B
  B476     1.0000 0.08017  0.14674  0.49690  Biso   1.000  B
  H4096    1.0000 0.56710  0.10818  0.92017  Biso   1.000  H
  H4097    1.0000 0.56713  0.10818  0.92017  Biso   1.000  H
  H4098    1.0000 0.99365  0.04942  0.46011  Biso   1.000  H
  H4099    1.0000 0.99369  0.04942  0.46011  Biso   1.000  H
  O864     1.0000 0.36073  0.47220  0.05471  Biso   1.000  O
  O865     1.0000 0.41113  0.45969  0.12028  Biso   1.000  O
  O866     1.0000 0.36072  0.47218  0.05467  Biso   1.000  O
  O867     1.0000 0.36077  0.47220  0.05471  Biso   1.000  O
  O868     1.0000 0.41117  0.45969  0.12028  Biso   1.000  O
  O869     1.0000 0.62364  0.21530  0.97408  Biso   1.000  O
  O870     1.0000 0.66061  0.24880  0.92246  Biso   1.000  O
  O871     1.0000 0.62359  0.21528  0.97404  Biso   1.000  O
  O872     1.0000 0.62359  0.21526  0.97408  Biso   1.000  O
  O873     1.0000 0.66060  0.24876  0.92246  Biso   1.000  O
  O874     1.0000 0.62362  0.21528  0.97404  Biso   1.000  O
  O875     1.0000 0.66064  0.24880  0.92246  Biso   1.000  O
  O876     1.0000 0.62363  0.21526  0.97408  Biso   1.000  O
  O877     1.0000 0.03437  0.16192  0.49381  Biso   1.000  O
  O878     1.0000 0.12476  0.18754  0.50581  Biso   1.000  O
  O879     1.0000 0.03433  0.16192  0.49381  Biso   1.000  O
  O880     1.0000 0.12475  0.18750  0.50581  Biso   1.000  O
  O881     1.0000 0.12480  0.18754  0.50581  Biso   1.000  O
  C6009    1.0000 0.36225  0.50648  0.10289  Biso   1.000  C
  C6010    1.0000 0.36222  0.50648  0.10289  Biso   1.000  C
  C6011    1.0000 0.36223  0.50652  0.10289  Biso   1.000  C
  C6012    1.0000 0.36226  0.50652  0.10289  Biso   1.000  C
  C6013    1.0000 0.39234  0.49989  0.14239  Biso   1.000  C
  C6014    1.0000 0.39235  0.49993  0.14239  Biso   1.000  C
  C6015    1.0000 0.39237  0.49989  0.14239  Biso   1.000  C
  C6016    1.0000 0.65513  0.27169  0.00409  Biso   1.000  C
  C6017    1.0000 0.65509  0.27169  0.00409  Biso   1.000  C
  C6018    1.0000 0.67634  0.28970  0.97149  Biso   1.000  C
  C6019    1.0000 0.67629  0.28968  0.97145  Biso   1.000  C
  C6020    1.0000 0.67629  0.28966  0.97149  Biso   1.000  C
  C6021    1.0000 0.67633  0.28968  0.97145  Biso   1.000  C
  C6022    1.0000 0.67633  0.28966  0.97149  Biso   1.000  C
  C6023    1.0000 0.05756  0.21793  0.50961  Biso   1.000  C
  C6024    1.0000 0.05755  0.21790  0.50961  Biso   1.000  C
  C6025    1.0000 0.05759  0.21793  0.50961  Biso   1.000  C
  C6026    1.0000 0.11148  0.23474  0.51724  Biso   1.000  C
  C6027    1.0000 0.11143  0.23472  0.51720  Biso   1.000  C
  C6028    1.0000 0.11144  0.23474  0.51724  Biso   1.000  C
  C6029    1.0000 0.11147  0.23472  0.51720  Biso   1.000  C
  C6030    1.0000 0.33723  0.54439  0.11458  Biso   1.000  C
  C6031    1.0000 0.33724  0.54442  0.11458  Biso   1.000  C
  C6032    1.0000 0.33727  0.54439  0.11458  Biso   1.000  C
  C6033    1.0000 0.39737  0.53121  0.19359  Biso   1.000  C
  C6034    1.0000 0.39733  0.53121  0.19359  Biso   1.000  C
  C6035    1.0000 0.66941  0.30801  0.05618  Biso   1.000  C
  C6036    1.0000 0.66944  0.30797  0.05618  Biso   1.000  C
  C6037    1.0000 0.66945  0.30801  0.05618  Biso   1.000  C
  C6038    1.0000 0.66940  0.30797  0.05618  Biso   1.000  C
  C6039    1.0000 0.71183  0.34379  0.99077  Biso   1.000  C
  C6040    1.0000 0.71180  0.34379  0.99077  Biso   1.000  C
  C6041    1.0000 0.03279  0.25594  0.51491  Biso   1.000  C
  C6042    1.0000 0.03274  0.25590  0.51491  Biso   1.000  C
  C6043    1.0000 0.03275  0.25594  0.51491  Biso   1.000  C
  C6044    1.0000 0.14059  0.28963  0.53021  Biso   1.000  C
  C6045    1.0000 0.14055  0.28963  0.53021  Biso   1.000  C
  H4100    1.0000 0.31714  0.54882  0.08821  Biso   1.000  H
  C6046    1.0000 0.34237  0.57570  0.16578  Biso   1.000  C
  H4101    1.0000 0.31712  0.54877  0.08817  Biso   1.000  H
  C6047    1.0000 0.34233  0.57570  0.16578  Biso   1.000  C
  H4102    1.0000 0.31713  0.54881  0.08817  Biso   1.000  H
  H4103    1.0000 0.31718  0.54882  0.08821  Biso   1.000  H
  C6048    1.0000 0.37235  0.56911  0.20528  Biso   1.000  C
  H4104    1.0000 0.41745  0.52672  0.22000  Biso   1.000  H
  C6049    1.0000 0.37234  0.56908  0.20528  Biso   1.000  C
  H4105    1.0000 0.41748  0.52672  0.22000  Biso   1.000  H
  C6050    1.0000 0.37238  0.56911  0.20528  Biso   1.000  C
  H4106    1.0000 0.65532  0.29598  0.07810  Biso   1.000  H
  C6051    1.0000 0.70492  0.36212  0.07551  Biso   1.000  C
  H4107    1.0000 0.65536  0.29598  0.07810  Biso   1.000  H
  C6052    1.0000 0.70493  0.36206  0.07547  Biso   1.000  C
  H4108    1.0000 0.65537  0.29602  0.07810  Biso   1.000  H
  C6053    1.0000 0.70496  0.36212  0.07551  Biso   1.000  C
  C6054    1.0000 0.70494  0.36210  0.07547  Biso   1.000  C
  C6055    1.0000 0.70490  0.36206  0.07547  Biso   1.000  C
  H4109    1.0000 0.65533  0.29602  0.07810  Biso   1.000  H
  H4110    1.0000 0.72592  0.35578  0.96885  Biso   1.000  H
  H4111    1.0000 0.72595  0.35578  0.96885  Biso   1.000  H
  C6056    1.0000 0.72603  0.38000  0.04278  Biso   1.000  C
  C6057    1.0000 0.72602  0.37997  0.04278  Biso   1.000  C
  H4112    1.0000 0.99665  0.24461  0.50980  Biso   1.000  H
  H4113    1.0000 0.99668  0.24461  0.50980  Biso   1.000  H
  C6058    1.0000 0.06176  0.31082  0.52793  Biso   1.000  C
  C6059    1.0000 0.06177  0.31086  0.52793  Biso   1.000  C
  C6060    1.0000 0.06179  0.31082  0.52793  Biso   1.000  C
  C6061    1.0000 0.11570  0.32766  0.53563  Biso   1.000  C
  H4114    1.0000 0.17658  0.30092  0.53532  Biso   1.000  H
  C6062    1.0000 0.11564  0.32760  0.53559  Biso   1.000  C
  H4115    1.0000 0.17654  0.30092  0.53532  Biso   1.000  H
  C6063    1.0000 0.11567  0.32766  0.53563  Biso   1.000  C
  H4116    1.0000 0.17659  0.30096  0.53532  Biso   1.000  H
  C6064    1.0000 0.11569  0.32764  0.53559  Biso   1.000  C
  C6065    1.0000 0.11565  0.32764  0.53559  Biso   1.000  C
  C6066    1.0000 0.31387  0.62053  0.18460  Biso   1.000  C
  C6067    1.0000 0.31382  0.62049  0.18460  Biso   1.000  C
  C6068    1.0000 0.31386  0.62049  0.18460  Biso   1.000  C
  C6069    1.0000 0.31383  0.62053  0.18460  Biso   1.000  C
  C6070    1.0000 0.37128  0.60162  0.25749  Biso   1.000  C
  C6071    1.0000 0.37123  0.60158  0.25749  Biso   1.000  C
  C6072    1.0000 0.37124  0.60162  0.25749  Biso   1.000  C
  C6073    1.0000 0.37127  0.60158  0.25749  Biso   1.000  C
  C6074    1.0000 0.72132  0.40132  0.13170  Biso   1.000  C
  C6075    1.0000 0.72135  0.40128  0.13170  Biso   1.000  C
  C6076    1.0000 0.72136  0.40132  0.13170  Biso   1.000  C
  C6077    1.0000 0.72131  0.40128  0.13170  Biso   1.000  C
  C6078    1.0000 0.76344  0.43991  0.07040  Biso   1.000  C
  C6079    1.0000 0.76347  0.43991  0.07040  Biso   1.000  C
  C6080    1.0000 0.03577  0.35434  0.52603  Biso   1.000  C
  C6081    1.0000 0.03581  0.35434  0.52603  Biso   1.000  C
  C6082    1.0000 0.14138  0.38734  0.54551  Biso   1.000  C
  C6083    1.0000 0.14137  0.38730  0.54551  Biso   1.000  C
  C6084    1.0000 0.14141  0.38734  0.54551  Biso   1.000  C
  C6085    1.0000 0.28424  0.59349  0.21319  Biso   1.000  C
  C6086    1.0000 0.28425  0.59353  0.21319  Biso   1.000  C
  C6087    1.0000 0.28427  0.59349  0.21319  Biso   1.000  C
  C6088    1.0000 0.35807  0.66981  0.22829  Biso   1.000  C
  H4117    1.0000 0.29294  0.62681  0.15788  Biso   1.000  H
  C6089    1.0000 0.35804  0.66981  0.22829  Biso   1.000  C
  H4118    1.0000 0.29293  0.62677  0.15788  Biso   1.000  H
  H4119    1.0000 0.29297  0.62681  0.15788  Biso   1.000  H
  C6090    1.0000 0.31295  0.58690  0.25338  Biso   1.000  C
  C6091    1.0000 0.38797  0.66249  0.26729  Biso   1.000  C
  H4120    1.0000 0.39217  0.59591  0.28472  Biso   1.000  H
  C6092    1.0000 0.38793  0.66249  0.26729  Biso   1.000  C
  H4121    1.0000 0.39213  0.59589  0.28468  Biso   1.000  H
  C6093    1.0000 0.38794  0.66253  0.26729  Biso   1.000  C
  H4122    1.0000 0.39215  0.59595  0.28472  Biso   1.000  H
  H4123    1.0000 0.39216  0.59589  0.28468  Biso   1.000  H
  C6094    1.0000 0.38798  0.66253  0.26729  Biso   1.000  C
  H4124    1.0000 0.39218  0.59595  0.28472  Biso   1.000  H
  C6095    1.0000 0.71353  0.45371  0.13201  Biso   1.000  C
  H4125    1.0000 0.70512  0.38641  0.15289  Biso   1.000  H
  C6096    1.0000 0.78023  0.41841  0.14599  Biso   1.000  C
  C6097    1.0000 0.71355  0.45369  0.13197  Biso   1.000  C
  H4126    1.0000 0.70515  0.38638  0.15289  Biso   1.000  H
  C6098    1.0000 0.78027  0.41841  0.14599  Biso   1.000  C
  C6099    1.0000 0.71356  0.45371  0.13201  Biso   1.000  C
  H4127    1.0000 0.70516  0.38641  0.15289  Biso   1.000  H
  C6100    1.0000 0.71351  0.45369  0.13197  Biso   1.000  C
  H4128    1.0000 0.70511  0.38638  0.15289  Biso   1.000  H
  C6101    1.0000 0.73602  0.47300  0.10068  Biso   1.000  C
  H4129    1.0000 0.77941  0.45461  0.04910  Biso   1.000  H
  C6102    1.0000 0.80194  0.43829  0.11458  Biso   1.000  C
  C6103    1.0000 0.73606  0.47300  0.10068  Biso   1.000  C
  H4130    1.0000 0.77945  0.45461  0.04910  Biso   1.000  H
  H4131    1.0000 0.99726  0.34232  0.51662  Biso   1.000  H
  H4132    1.0000 0.99729  0.34232  0.51662  Biso   1.000  H
  H4133    1.0000 0.99730  0.34236  0.51662  Biso   1.000  H
  H4134    1.0000 0.99727  0.34236  0.51662  Biso   1.000  H
  C6104    1.0000 0.06917  0.39852  0.58071  Biso   1.000  C
  C6105    1.0000 0.06258  0.37752  0.49330  Biso   1.000  C
  C6106    1.0000 0.06254  0.37752  0.49330  Biso   1.000  C
  C6107    1.0000 0.06918  0.39856  0.58071  Biso   1.000  C
  C6108    1.0000 0.06920  0.39852  0.58071  Biso   1.000  C
  C6109    1.0000 0.12309  0.41744  0.58873  Biso   1.000  C
  H4135    1.0000 0.18000  0.39994  0.55503  Biso   1.000  H
  C6110    1.0000 0.11649  0.39614  0.50101  Biso   1.000  C
  H4136    1.0000 0.17995  0.39992  0.55500  Biso   1.000  H
  C6111    1.0000 0.11645  0.39610  0.50101  Biso   1.000  C
  H4137    1.0000 0.17996  0.39994  0.55503  Biso   1.000  H
  C6112    1.0000 0.11646  0.39614  0.50101  Biso   1.000  C
  H4138    1.0000 0.17998  0.39992  0.55500  Biso   1.000  H
  C6113    1.0000 0.12312  0.41744  0.58873  Biso   1.000  C
  C6114    1.0000 0.22967  0.57680  0.20021  Biso   1.000  C
  C6115    1.0000 0.22962  0.57678  0.20017  Biso   1.000  C
  C6116    1.0000 0.22964  0.57684  0.20021  Biso   1.000  C
  C6117    1.0000 0.22966  0.57678  0.20017  Biso   1.000  C
  C6118    1.0000 0.22968  0.57684  0.20021  Biso   1.000  C
  C6119    1.0000 0.36837  0.72272  0.23119  Biso   1.000  C
  C6120    1.0000 0.36836  0.72268  0.23119  Biso   1.000  C
  C6121    1.0000 0.28717  0.56341  0.28049  Biso   1.000  C
  C6122    1.0000 0.28713  0.56341  0.28049  Biso   1.000  C
  C6123    1.0000 0.42807  0.70802  0.30919  Biso   1.000  C
  C6124    1.0000 0.42806  0.70799  0.30919  Biso   1.000  C
  C6125    1.0000 0.42810  0.70802  0.30919  Biso   1.000  C
  C6126    1.0000 0.68555  0.48101  0.15920  Biso   1.000  C
  C6127    1.0000 0.81253  0.41340  0.18530  Biso   1.000  C
  C6128    1.0000 0.81257  0.41340  0.18530  Biso   1.000  C
  C6129    1.0000 0.73044  0.51950  0.09650  Biso   1.000  C
  C6130    1.0000 0.73048  0.51950  0.09650  Biso   1.000  C
  C6131    1.0000 0.85593  0.45338  0.12268  Biso   1.000  C
  C6132    1.0000 0.85596  0.45338  0.12268  Biso   1.000  C
  C6133    1.0000 0.85597  0.45342  0.12268  Biso   1.000  C
  C6134    1.0000 0.85594  0.45342  0.12268  Biso   1.000  C
  C6135    1.0000 0.04918  0.42656  0.61754  Biso   1.000  C
  C6136    1.0000 0.04916  0.42651  0.61750  Biso   1.000  C
  C6137    1.0000 0.04921  0.42655  0.61750  Biso   1.000  C
  C6138    1.0000 0.04922  0.42656  0.61754  Biso   1.000  C
  C6139    1.0000 0.04917  0.42655  0.61750  Biso   1.000  C
  C6140    1.0000 0.02787  0.37993  0.45372  Biso   1.000  C
  C6141    1.0000 0.15710  0.46446  0.63354  Biso   1.000  C
  C6142    1.0000 0.15707  0.46441  0.63350  Biso   1.000  C
  C6143    1.0000 0.15708  0.46444  0.63350  Biso   1.000  C
  C6144    1.0000 0.15713  0.46446  0.63354  Biso   1.000  C
  C6145    1.0000 0.13567  0.41711  0.46921  Biso   1.000  C
  C6146    1.0000 0.13564  0.41711  0.46921  Biso   1.000  C
  C6147    1.0000 0.13568  0.41715  0.46921  Biso   1.000  C
  C6148    1.0000 0.13565  0.41715  0.46921  Biso   1.000  C
  C6149    1.0000 0.20377  0.55342  0.22732  Biso   1.000  C
  C6150    1.0000 0.20372  0.55341  0.22728  Biso   1.000  C
  C6151    1.0000 0.20376  0.55341  0.22728  Biso   1.000  C
  H4139    1.0000 0.21046  0.58132  0.17330  Biso   1.000  H
  H4140    1.0000 0.21042  0.58128  0.17330  Biso   1.000  H
  H4141    1.0000 0.21043  0.58132  0.17330  Biso   1.000  H
  H4142    1.0000 0.21045  0.58128  0.17330  Biso   1.000  H
  C6152    1.0000 0.40846  0.76821  0.27310  Biso   1.000  C
  C6153    1.0000 0.34236  0.73081  0.18739  Biso   1.000  C
  C6154    1.0000 0.40850  0.76821  0.27310  Biso   1.000  C
  C6155    1.0000 0.23246  0.54670  0.26740  Biso   1.000  C
  C6156    1.0000 0.23243  0.54670  0.26740  Biso   1.000  C
  C6157    1.0000 0.23244  0.54674  0.26740  Biso   1.000  C
  C6158    1.0000 0.23247  0.54674  0.26740  Biso   1.000  C
  H4143    1.0000 0.30635  0.55903  0.30729  Biso   1.000  H
  H4144    1.0000 0.30634  0.55899  0.30729  Biso   1.000  H
  H4145    1.0000 0.30639  0.55903  0.30729  Biso   1.000  H
  C6159    1.0000 0.43827  0.76083  0.31210  Biso   1.000  C
  C6160    1.0000 0.46290  0.70151  0.35082  Biso   1.000  C
  C6161    1.0000 0.43826  0.76079  0.31210  Biso   1.000  C
  C6162    1.0000 0.46285  0.70149  0.35078  Biso   1.000  C
  C6163    1.0000 0.46287  0.70155  0.35082  Biso   1.000  C
  C6164    1.0000 0.43830  0.76083  0.31210  Biso   1.000  C
  C6165    1.0000 0.46290  0.70153  0.35078  Biso   1.000  C
  C6166    1.0000 0.46291  0.70155  0.35082  Biso   1.000  C
  C6167    1.0000 0.46286  0.70153  0.35078  Biso   1.000  C
  C6168    1.0000 0.68004  0.52751  0.15502  Biso   1.000  C
  C6169    1.0000 0.66273  0.46029  0.19340  Biso   1.000  C
  C6170    1.0000 0.68006  0.52750  0.15498  Biso   1.000  C
  C6171    1.0000 0.66276  0.46029  0.19340  Biso   1.000  C
  C6172    1.0000 0.68007  0.52751  0.15502  Biso   1.000  C
  C6173    1.0000 0.66277  0.46033  0.19340  Biso   1.000  C
  C6174    1.0000 0.68003  0.52750  0.15498  Biso   1.000  C
  C6175    1.0000 0.66274  0.46033  0.19340  Biso   1.000  C
  H4146    1.0000 0.79806  0.40012  0.20629  Biso   1.000  H
  C6176    1.0000 0.86645  0.42849  0.19340  Biso   1.000  C
  H4147    1.0000 0.79805  0.40008  0.20629  Biso   1.000  H
  C6177    1.0000 0.86646  0.42852  0.19340  Biso   1.000  C
  C6178    1.0000 0.86642  0.42849  0.19340  Biso   1.000  C
  C6179    1.0000 0.70243  0.54669  0.12369  Biso   1.000  C
  C6180    1.0000 0.74745  0.53658  0.05800  Biso   1.000  C
  C6181    1.0000 0.70247  0.54669  0.12369  Biso   1.000  C
  C6182    1.0000 0.74743  0.53657  0.05796  Biso   1.000  C
  C6183    1.0000 0.74746  0.53662  0.05800  Biso   1.000  C
  C6184    1.0000 0.74744  0.53660  0.05796  Biso   1.000  C
  C6185    1.0000 0.88814  0.44850  0.16210  Biso   1.000  C
  H4148    1.0000 0.87043  0.46679  0.10180  Biso   1.000  H
  H4149    1.0000 0.87046  0.46679  0.10180  Biso   1.000  H
  C6186    1.0000 0.88818  0.44850  0.16210  Biso   1.000  C
  H4150    1.0000 0.87047  0.46683  0.10180  Biso   1.000  H
  H4151    1.0000 0.87044  0.46683  0.10180  Biso   1.000  H
  C6187    1.0000 0.99201  0.40266  0.61204  Biso   1.000  C
  C6188    1.0000 0.99200  0.40264  0.61200  Biso   1.000  C
  C6189    1.0000 0.99196  0.40264  0.61200  Biso   1.000  C
  C6190    1.0000 0.08328  0.47353  0.66231  Biso   1.000  C
  C6191    1.0000 0.08329  0.47356  0.66231  Biso   1.000  C
  C6192    1.0000 0.08331  0.47353  0.66231  Biso   1.000  C
  H4152    1.0000 0.99176  0.36742  0.44853  Biso   1.000  H
  H4153    1.0000 0.99178  0.36740  0.44849  Biso   1.000  H
  H4154    1.0000 0.99181  0.36746  0.44853  Biso   1.000  H
  H4155    1.0000 0.99175  0.36740  0.44849  Biso   1.000  H
  H4156    1.0000 0.99180  0.36742  0.44853  Biso   1.000  H
  H4157    1.0000 0.99177  0.36746  0.44853  Biso   1.000  H
  C6193    1.0000 0.04718  0.40083  0.42193  Biso   1.000  C
  C6194    1.0000 0.04713  0.40081  0.42189  Biso   1.000  C
  C6195    1.0000 0.04716  0.40081  0.42189  Biso   1.000  C
  C6196    1.0000 0.13720  0.49245  0.67033  Biso   1.000  C
  C6197    1.0000 0.21519  0.48906  0.64434  Biso   1.000  C
  C6198    1.0000 0.21517  0.48900  0.64430  Biso   1.000  C
  C6199    1.0000 0.21521  0.48904  0.64430  Biso   1.000  C
  C6200    1.0000 0.13723  0.49245  0.67033  Biso   1.000  C
  C6201    1.0000 0.21523  0.48906  0.64434  Biso   1.000  C
  C6202    1.0000 0.21518  0.48904  0.64430  Biso   1.000  C
  H4158    1.0000 0.17179  0.42962  0.47440  Biso   1.000  H
  C6203    1.0000 0.10107  0.41951  0.42960  Biso   1.000  C
  H4159    1.0000 0.17175  0.42962  0.47440  Biso   1.000  H
  C6204    1.0000 0.10103  0.41951  0.42960  Biso   1.000  C
  O882     1.0000 0.15194  0.53282  0.22391  Biso   1.000  O
  O883     1.0000 0.15193  0.53280  0.22387  Biso   1.000  O
  O884     1.0000 0.15196  0.53280  0.22387  Biso   1.000  O
  O885     1.0000 0.15198  0.53282  0.22391  Biso   1.000  O
  H4160    1.0000 0.41527  0.80352  0.27499  Biso   1.000  H
  H4161    1.0000 0.41530  0.80352  0.27499  Biso   1.000  H
  H4162    1.0000 0.33874  0.70101  0.15509  Biso   1.000  H
  H4163    1.0000 0.36407  0.76552  0.18921  Biso   1.000  H
  C6205    1.0000 0.28837  0.73190  0.18821  Biso   1.000  C
  H4164    1.0000 0.36406  0.76550  0.18917  Biso   1.000  H
  C6206    1.0000 0.28833  0.73190  0.18821  Biso   1.000  C
  C6207    1.0000 0.28834  0.73194  0.18821  Biso   1.000  C
  H4165    1.0000 0.33878  0.70101  0.15509  Biso   1.000  H
  C6208    1.0000 0.28838  0.73194  0.18821  Biso   1.000  C
  O886     1.0000 0.20125  0.52222  0.28990  Biso   1.000  O
  O887     1.0000 0.20128  0.52222  0.28990  Biso   1.000  O
  H4166    1.0000 0.46510  0.79133  0.34021  Biso   1.000  H
  H4167    1.0000 0.46506  0.79133  0.34021  Biso   1.000  H
  H4168    1.0000 0.49539  0.73394  0.36903  Biso   1.000  H
  H4169    1.0000 0.47176  0.66922  0.33541  Biso   1.000  H
  C6209    1.0000 0.43349  0.69472  0.38951  Biso   1.000  C
  H4170    1.0000 0.49538  0.73392  0.36899  Biso   1.000  H
  C6210    1.0000 0.43345  0.69472  0.38951  Biso   1.000  C
  H4171    1.0000 0.47180  0.66922  0.33541  Biso   1.000  H
  H4172    1.0000 0.49542  0.73394  0.36903  Biso   1.000  H
  H4173    1.0000 0.66124  0.54572  0.17322  Biso   1.000  H
  H4174    1.0000 0.66126  0.54570  0.17318  Biso   1.000  H
  H4175    1.0000 0.66127  0.54572  0.17322  Biso   1.000  H
  H4176    1.0000 0.66122  0.54570  0.17318  Biso   1.000  H
  H4177    1.0000 0.68564  0.44500  0.20811  Biso   1.000  H
  H4178    1.0000 0.66134  0.49122  0.22178  Biso   1.000  H
  C6211    1.0000 0.60672  0.41541  0.16369  Biso   1.000  C
  H4179    1.0000 0.68566  0.44498  0.20807  Biso   1.000  H
  H4180    1.0000 0.66136  0.49118  0.22178  Biso   1.000  H
  C6212    1.0000 0.60676  0.41541  0.16369  Biso   1.000  C
  H4181    1.0000 0.68569  0.44504  0.20811  Biso   1.000  H
  H4182    1.0000 0.66137  0.49122  0.22178  Biso   1.000  H
  H4183    1.0000 0.68563  0.44498  0.20807  Biso   1.000  H
  H4184    1.0000 0.66133  0.49118  0.22178  Biso   1.000  H
  H4185    1.0000 0.68565  0.44504  0.20811  Biso   1.000  H
  O888     1.0000 0.90595  0.42752  0.23030  Biso   1.000  O
  O889     1.0000 0.90599  0.42752  0.23030  Biso   1.000  O
  H4186    1.0000 0.69873  0.57780  0.12090  Biso   1.000  H
  H4187    1.0000 0.69877  0.57780  0.12090  Biso   1.000  H
  H4188    1.0000 0.74232  0.50419  0.02698  Biso   1.000  H
  H4189    1.0000 0.72715  0.55690  0.04840  Biso   1.000  H
  C6213    1.0000 0.80564  0.57330  0.08360  Biso   1.000  C
  H4190    1.0000 0.74236  0.50419  0.02698  Biso   1.000  H
  O890     1.0000 0.94366  0.46430  0.18011  Biso   1.000  O
  O891     1.0000 0.94365  0.46429  0.18007  Biso   1.000  O
  O892     1.0000 0.94362  0.46429  0.18007  Biso   1.000  O
  H4191    1.0000 0.98759  0.41333  0.64593  Biso   1.000  H
  H4192    1.0000 0.97879  0.36243  0.59403  Biso   1.000  H
  C6214    1.0000 0.96120  0.42584  0.58052  Biso   1.000  C
  H4193    1.0000 0.97878  0.36241  0.59400  Biso   1.000  H
  H4194    1.0000 0.98760  0.41336  0.64593  Biso   1.000  H
  H4195    1.0000 0.97880  0.36246  0.59403  Biso   1.000  H
  H4196    1.0000 0.97879  0.36244  0.59400  Biso   1.000  H
  H4197    1.0000 0.06989  0.49224  0.68702  Biso   1.000  H
  H4198    1.0000 0.06992  0.49224  0.68702  Biso   1.000  H
  O893     1.0000 0.02616  0.40794  0.38022  Biso   1.000  O
  O894     1.0000 0.02615  0.40790  0.38022  Biso   1.000  O
  O895     1.0000 0.02620  0.40794  0.38022  Biso   1.000  O
  H4199    1.0000 0.16002  0.52396  0.70034  Biso   1.000  H
  H4200    1.0000 0.15997  0.52394  0.70030  Biso   1.000  H
  H4201    1.0000 0.15998  0.52396  0.70034  Biso   1.000  H
  H4202    1.0000 0.16000  0.52394  0.70030  Biso   1.000  H
  H4203    1.0000 0.22499  0.52595  0.64612  Biso   1.000  H
  H4204    1.0000 0.22560  0.46615  0.61723  Biso   1.000  H
  C6215    1.0000 0.24190  0.49203  0.69624  Biso   1.000  C
  H4205    1.0000 0.22498  0.52592  0.64612  Biso   1.000  H
  H4206    1.0000 0.22557  0.46615  0.61723  Biso   1.000  H
  C6216    1.0000 0.24191  0.49207  0.69624  Biso   1.000  C
  H4207    1.0000 0.22502  0.52595  0.64612  Biso   1.000  H
  O896     1.0000 0.11558  0.43584  0.39462  Biso   1.000  O
  O897     1.0000 0.11552  0.43579  0.39459  Biso   1.000  O
  O898     1.0000 0.11557  0.43583  0.39459  Biso   1.000  O
  O899     1.0000 0.11556  0.43579  0.39459  Biso   1.000  O
  O900     1.0000 0.11553  0.43583  0.39459  Biso   1.000  O
  B477     1.0000 0.15076  0.51473  0.26210  Biso   1.000  B
  B478     1.0000 0.15072  0.51469  0.26210  Biso   1.000  B
  B479     1.0000 0.15075  0.51469  0.26210  Biso   1.000  B
  B480     1.0000 0.15073  0.51473  0.26210  Biso   1.000  B
  H4208    1.0000 0.26508  0.71662  0.15331  Biso   1.000  H
  H4209    1.0000 0.29129  0.76952  0.20691  Biso   1.000  H
  H4210    1.0000 0.27436  0.71021  0.20490  Biso   1.000  H
  H4211    1.0000 0.26503  0.71660  0.15327  Biso   1.000  H
  H4212    1.0000 0.29124  0.76950  0.20687  Biso   1.000  H
  H4213    1.0000 0.26504  0.71662  0.15331  Biso   1.000  H
  H4214    1.0000 0.29125  0.76952  0.20691  Biso   1.000  H
  H4215    1.0000 0.26507  0.71660  0.15327  Biso   1.000  H
  H4216    1.0000 0.29128  0.76950  0.20687  Biso   1.000  H
  H4217    1.0000 0.40396  0.66002  0.37239  Biso   1.000  H
  H4218    1.0000 0.42108  0.72462  0.40152  Biso   1.000  H
  H4219    1.0000 0.45730  0.69543  0.41840  Biso   1.000  H
  H4220    1.0000 0.45727  0.69543  0.41840  Biso   1.000  H
  H4221    1.0000 0.42109  0.72466  0.40152  Biso   1.000  H
  H4222    1.0000 0.40400  0.66002  0.37239  Biso   1.000  H
  H4223    1.0000 0.42112  0.72462  0.40152  Biso   1.000  H
  H4224    1.0000 0.59504  0.40001  0.18580  Biso   1.000  H
  H4225    1.0000 0.58293  0.43169  0.15320  Biso   1.000  H
  H4226    1.0000 0.60742  0.38652  0.13372  Biso   1.000  H
  H4227    1.0000 0.58297  0.43169  0.15320  Biso   1.000  H
  H4228    1.0000 0.60745  0.38650  0.13368  Biso   1.000  H
  H4229    1.0000 0.58298  0.43173  0.15320  Biso   1.000  H
  H4230    1.0000 0.60746  0.38652  0.13372  Biso   1.000  H
  H4231    1.0000 0.60741  0.38650  0.13368  Biso   1.000  H
  H4232    1.0000 0.58294  0.43173  0.15320  Biso   1.000  H
  B481     1.0000 0.94974  0.45141  0.22109  Biso   1.000  B
  B482     1.0000 0.94976  0.45137  0.22109  Biso   1.000  B
  B483     1.0000 0.94977  0.45141  0.22109  Biso   1.000  B
  B484     1.0000 0.94973  0.45137  0.22109  Biso   1.000  B
  H4233    1.0000 0.82235  0.56070  0.10641  Biso   1.000  H
  H4234    1.0000 0.82214  0.57139  0.05750  Biso   1.000  H
  H4235    1.0000 0.80914  0.61088  0.10308  Biso   1.000  H
  H4236    1.0000 0.82234  0.56068  0.10637  Biso   1.000  H
  H4237    1.0000 0.82236  0.56073  0.10641  Biso   1.000  H
  H4238    1.0000 0.82215  0.57142  0.05750  Biso   1.000  H
  H4239    1.0000 0.80915  0.61091  0.10308  Biso   1.000  H
  H4240    1.0000 0.94910  0.45142  0.60282  Biso   1.000  H
  H4241    1.0000 0.93139  0.39575  0.55263  Biso   1.000  H
  H4242    1.0000 0.98407  0.44462  0.56673  Biso   1.000  H
  H4243    1.0000 0.93137  0.39573  0.55260  Biso   1.000  H
  H4244    1.0000 0.98410  0.44462  0.56673  Biso   1.000  H
  H4245    1.0000 0.94911  0.45146  0.60282  Biso   1.000  H
  H4246    1.0000 0.93142  0.39575  0.55263  Biso   1.000  H
  H4247    1.0000 0.98411  0.44466  0.56673  Biso   1.000  H
  H4248    1.0000 0.98408  0.44466  0.56673  Biso   1.000  H
  B485     1.0000 0.06717  0.43321  0.36519  Biso   1.000  B
  B486     1.0000 0.06713  0.43321  0.36519  Biso   1.000  B
  H4249    1.0000 0.23459  0.45465  0.69302  Biso   1.000  H
  H4250    1.0000 0.22850  0.51132  0.72191  Biso   1.000  H
  H4251    1.0000 0.27930  0.51066  0.70654  Biso   1.000  H
  H4252    1.0000 0.22846  0.51132  0.72191  Biso   1.000  H
  H4253    1.0000 0.22851  0.51136  0.72191  Biso   1.000  H
  H4254    1.0000 0.27933  0.51066  0.70654  Biso   1.000  H
  H4255    1.0000 0.23463  0.45465  0.69302  Biso   1.000  H
  H4256    1.0000 0.22847  0.51136  0.72191  Biso   1.000  H
  C6217    1.0000 0.10065  0.48883  0.27252  Biso   1.000  C
  C6218    1.0000 0.10063  0.48878  0.27248  Biso   1.000  C
  C6219    1.0000 0.10067  0.48882  0.27248  Biso   1.000  C
  C6220    1.0000 0.10069  0.48883  0.27252  Biso   1.000  C
  C6221    1.0000 0.10064  0.48882  0.27248  Biso   1.000  C
  C6222    1.0000 0.00636  0.45511  0.25369  Biso   1.000  C
  C6223    1.0000 0.00632  0.45511  0.25369  Biso   1.000  C
  C6224    1.0000 0.06256  0.44944  0.32371  Biso   1.000  C
  C6225    1.0000 0.06255  0.44940  0.32371  Biso   1.000  C
  C6226    1.0000 0.06260  0.44944  0.32371  Biso   1.000  C
  C6227    1.0000 0.05053  0.47940  0.24289  Biso   1.000  C
  C6228    1.0000 0.05057  0.47940  0.24289  Biso   1.000  C
  C6229    1.0000 0.10675  0.47381  0.31291  Biso   1.000  C
  C6230    1.0000 0.10676  0.47384  0.31291  Biso   1.000  C
  C6231    1.0000 0.10679  0.47381  0.31291  Biso   1.000  C
  C6232    1.0000 0.01244  0.44012  0.29409  Biso   1.000  C
  C6233    1.0000 0.01243  0.44008  0.29409  Biso   1.000  C
  C6234    1.0000 0.01247  0.44012  0.29409  Biso   1.000  C
  H4257    1.0000 0.04655  0.48939  0.21590  Biso   1.000  H
  H4258    1.0000 0.04651  0.48939  0.21590  Biso   1.000  H
  H4259    1.0000 0.04652  0.48943  0.21590  Biso   1.000  H
  H4260    1.0000 0.04656  0.48943  0.21590  Biso   1.000  H
  H4261    1.0000 0.14026  0.48002  0.33270  Biso   1.000  H
  H4262    1.0000 0.14025  0.47999  0.33270  Biso   1.000  H
  H4263    1.0000 0.98285  0.42380  0.30129  Biso   1.000  H
  H4264    1.0000 0.98288  0.42380  0.30129  Biso   1.000  H
  H4265    1.0000 0.98289  0.42383  0.30129  Biso   1.000  H
  H4266    1.0000 0.98286  0.42383  0.30129  Biso   1.000  H
  C6235    1.0000 0.98773  0.56000  0.70597  Biso   1.000  C
  C6236    1.0000 0.93763  0.55064  0.67634  Biso   1.000  C
  C6237    1.0000 0.93760  0.55064  0.67634  Biso   1.000  C
  C6238    1.0000 0.93761  0.55068  0.67634  Biso   1.000  C
  C6239    1.0000 0.93764  0.55068  0.67634  Biso   1.000  C
  C6240    1.0000 0.99383  0.54497  0.74636  Biso   1.000  C
  C6241    1.0000 0.99380  0.54497  0.74636  Biso   1.000  C
  H4267    1.0000 0.01731  0.57629  0.69876  Biso   1.000  H
  H4268    1.0000 0.01732  0.57623  0.69873  Biso   1.000  H
  H4269    1.0000 0.01734  0.57629  0.69876  Biso   1.000  H
  H4270    1.0000 0.01730  0.57627  0.69873  Biso   1.000  H
  H4271    1.0000 0.01729  0.57623  0.69873  Biso   1.000  H
  H4272    1.0000 0.01733  0.57627  0.69873  Biso   1.000  H
  B487     1.0000 0.93303  0.56687  0.63486  Biso   1.000  B
  B488     1.0000 0.93301  0.56685  0.63483  Biso   1.000  B
  B489     1.0000 0.93298  0.56685  0.63483  Biso   1.000  B
  C6242    1.0000 0.98775  0.55997  0.70597  Biso   1.000  C
  C6243    1.0000 0.89344  0.52628  0.68715  Biso   1.000  C
  C6244    1.0000 0.98771  0.55995  0.70593  Biso   1.000  C
  C6245    1.0000 0.89339  0.52624  0.68715  Biso   1.000  C
  C6246    1.0000 0.89340  0.52628  0.68715  Biso   1.000  C
  C6247    1.0000 0.98772  0.55997  0.70597  Biso   1.000  C
  C6248    1.0000 0.98774  0.55995  0.70593  Biso   1.000  C
  C6249    1.0000 0.89343  0.52624  0.68715  Biso   1.000  C
  C6250    1.0000 0.98776  0.56000  0.70597  Biso   1.000  C
  C6251    1.0000 0.94966  0.52068  0.75717  Biso   1.000  C
  C6252    1.0000 0.94961  0.52066  0.75713  Biso   1.000  C
  C6253    1.0000 0.94962  0.52068  0.75717  Biso   1.000  C
  C6254    1.0000 0.94965  0.52066  0.75713  Biso   1.000  C
  B490     1.0000 0.05042  0.54867  0.77897  Biso   1.000  B
  B491     1.0000 0.05041  0.54865  0.77893  Biso   1.000  B
  B492     1.0000 0.05043  0.54871  0.77897  Biso   1.000  B
  O901     1.0000 0.88461  0.56424  0.60543  Biso   1.000  O
  O902     1.0000 0.88462  0.56427  0.60543  Biso   1.000  O
  O903     1.0000 0.88458  0.56424  0.60543  Biso   1.000  O
  O904     1.0000 0.97403  0.59215  0.61984  Biso   1.000  O
  O905     1.0000 0.97399  0.59215  0.61984  Biso   1.000  O
  O906     1.0000 0.97400  0.59218  0.61984  Biso   1.000  O
  O907     1.0000 0.97404  0.59218  0.61984  Biso   1.000  O
  H4273    1.0000 0.85993  0.52006  0.66736  Biso   1.000  H
  C6255    1.0000 0.89954  0.51125  0.72754  Biso   1.000  C
  C6256    1.0000 0.89951  0.51125  0.72754  Biso   1.000  C
  H4274    1.0000 0.85994  0.52009  0.66736  Biso   1.000  H
  C6257    1.0000 0.89952  0.51128  0.72754  Biso   1.000  C
  H4275    1.0000 0.85989  0.52006  0.66736  Biso   1.000  H
  C6258    1.0000 0.89955  0.51128  0.72754  Biso   1.000  C
  H4276    1.0000 0.95364  0.51069  0.78416  Biso   1.000  H
  H4277    1.0000 0.95363  0.51065  0.78416  Biso   1.000  H
  H4278    1.0000 0.95361  0.51069  0.78416  Biso   1.000  H
  O908     1.0000 0.05649  0.53578  0.81994  Biso   1.000  O
  O909     1.0000 0.09420  0.57256  0.76975  Biso   1.000  O
  O910     1.0000 0.05653  0.53578  0.81994  Biso   1.000  O
  O911     1.0000 0.09424  0.57256  0.76975  Biso   1.000  O
  O912     1.0000 0.09425  0.57260  0.76975  Biso   1.000  O
  O913     1.0000 0.09421  0.57260  0.76975  Biso   1.000  O
  C6259    1.0000 0.89913  0.58057  0.57046  Biso   1.000  C
  C6260    1.0000 0.89911  0.58055  0.57042  Biso   1.000  C
  C6261    1.0000 0.89908  0.58055  0.57042  Biso   1.000  C
  C6262    1.0000 0.89909  0.58057  0.57046  Biso   1.000  C
  C6263    1.0000 0.95302  0.59925  0.57813  Biso   1.000  C
  C6264    1.0000 0.95298  0.59925  0.57813  Biso   1.000  C
  B493     1.0000 0.84943  0.48535  0.73796  Biso   1.000  B
  B494     1.0000 0.84944  0.48539  0.73796  Biso   1.000  B
  B495     1.0000 0.84940  0.48539  0.73796  Biso   1.000  B
  B496     1.0000 0.84939  0.48535  0.73796  Biso   1.000  B
  C6265    1.0000 0.11201  0.55158  0.83795  Biso   1.000  C
  C6266    1.0000 0.11205  0.55158  0.83795  Biso   1.000  C
  C6267    1.0000 0.13370  0.57159  0.80666  Biso   1.000  C
  C6268    1.0000 0.13373  0.57156  0.80666  Biso   1.000  C
  C6269    1.0000 0.13374  0.57159  0.80666  Biso   1.000  C
  C6270    1.0000 0.13369  0.57156  0.80666  Biso   1.000  C
  C6271    1.0000 0.86452  0.58297  0.53084  Biso   1.000  C
  C6272    1.0000 0.86451  0.58293  0.53084  Biso   1.000  C
  C6273    1.0000 0.86449  0.58297  0.53084  Biso   1.000  C
  C6274    1.0000 0.97232  0.62015  0.54633  Biso   1.000  C
  C6275    1.0000 0.97228  0.62015  0.54633  Biso   1.000  C
  O914     1.0000 0.79895  0.47786  0.71015  Biso   1.000  O
  O915     1.0000 0.84825  0.46727  0.77614  Biso   1.000  O
  O916     1.0000 0.79891  0.47786  0.71015  Biso   1.000  O
  O917     1.0000 0.84822  0.46727  0.77614  Biso   1.000  O
  C6276    1.0000 0.14423  0.54670  0.87738  Biso   1.000  C
  C6277    1.0000 0.14424  0.54665  0.87734  Biso   1.000  C
  C6278    1.0000 0.14426  0.54670  0.87738  Biso   1.000  C
  C6279    1.0000 0.14422  0.54668  0.87734  Biso   1.000  C
  C6280    1.0000 0.14421  0.54665  0.87734  Biso   1.000  C
  C6281    1.0000 0.14425  0.54668  0.87734  Biso   1.000  C
  C6282    1.0000 0.18762  0.58668  0.81475  Biso   1.000  C
  C6283    1.0000 0.88370  0.60394  0.49905  Biso   1.000  C
  C6284    1.0000 0.88371  0.60398  0.49905  Biso   1.000  C
  H4279    1.0000 0.82841  0.57046  0.52565  Biso   1.000  H
  H4280    1.0000 0.82839  0.57044  0.52561  Biso   1.000  H
  C6285    1.0000 0.93762  0.62257  0.50675  Biso   1.000  C
  C6286    1.0000 0.93760  0.62255  0.50671  Biso   1.000  C
  C6287    1.0000 0.93757  0.62255  0.50671  Biso   1.000  C
  H4281    1.0000 0.00840  0.63266  0.55152  Biso   1.000  H
  H4282    1.0000 0.00839  0.63262  0.55152  Biso   1.000  H
  C6288    1.0000 0.76773  0.45338  0.73265  Biso   1.000  C
  C6289    1.0000 0.76772  0.45334  0.73265  Biso   1.000  C
  C6290    1.0000 0.76769  0.45338  0.73265  Biso   1.000  C
  C6291    1.0000 0.79642  0.44666  0.77273  Biso   1.000  C
  C6292    1.0000 0.79639  0.44666  0.77273  Biso   1.000  C
  H4283    1.0000 0.12973  0.53329  0.89825  Biso   1.000  H
  C6293    1.0000 0.19822  0.56179  0.88547  Biso   1.000  C
  H4284    1.0000 0.12972  0.53325  0.89825  Biso   1.000  H
  C6294    1.0000 0.19824  0.56177  0.88543  Biso   1.000  C
  C6295    1.0000 0.19826  0.56179  0.88547  Biso   1.000  C
  C6296    1.0000 0.19821  0.56177  0.88543  Biso   1.000  C
  C6297    1.0000 0.21993  0.58167  0.85406  Biso   1.000  C
  H4285    1.0000 0.20210  0.59996  0.79376  Biso   1.000  H
  H4286    1.0000 0.20214  0.59996  0.79376  Biso   1.000  H
  C6298    1.0000 0.21994  0.58171  0.85406  Biso   1.000  C
  H4287    1.0000 0.20215  0.60000  0.79376  Biso   1.000  H
  H4288    1.0000 0.20211  0.60000  0.79376  Biso   1.000  H
  C6299    1.0000 0.85882  0.61274  0.45455  Biso   1.000  C
  C6300    1.0000 0.85877  0.61272  0.45451  Biso   1.000  C
  C6301    1.0000 0.85883  0.61278  0.45455  Biso   1.000  C
  C6302    1.0000 0.85878  0.61274  0.45455  Biso   1.000  C
  C6303    1.0000 0.85880  0.61272  0.45451  Biso   1.000  C
  C6304    1.0000 0.96442  0.64574  0.47403  Biso   1.000  C
  C6305    1.0000 0.96439  0.64574  0.47403  Biso   1.000  C
  C6306    1.0000 0.96440  0.64577  0.47403  Biso   1.000  C
  C6307    1.0000 0.96443  0.64577  0.47403  Biso   1.000  C
  C6308    1.0000 0.71303  0.43667  0.71956  Biso   1.000  C
  C6309    1.0000 0.71301  0.43665  0.71952  Biso   1.000  C
  C6310    1.0000 0.71298  0.43665  0.71952  Biso   1.000  C
  C6311    1.0000 0.77052  0.42328  0.79984  Biso   1.000  C
  C6312    1.0000 0.77051  0.42324  0.79984  Biso   1.000  C
  C6313    1.0000 0.77049  0.42328  0.79984  Biso   1.000  C
  C6314    1.0000 0.23672  0.56017  0.92966  Biso   1.000  C
  C6315    1.0000 0.23676  0.56017  0.92966  Biso   1.000  C
  C6316    1.0000 0.23677  0.56021  0.92966  Biso   1.000  C
  C6317    1.0000 0.23673  0.56021  0.92966  Biso   1.000  C
  C6318    1.0000 0.27883  0.59876  0.86835  Biso   1.000  C
  C6319    1.0000 0.27884  0.59880  0.86835  Biso   1.000  C
  C6320    1.0000 0.88449  0.67243  0.46442  Biso   1.000  C
  C6321    1.0000 0.88450  0.67246  0.46442  Biso   1.000  C
  H4289    1.0000 0.82020  0.60014  0.44502  Biso   1.000  H
  C6322    1.0000 0.87711  0.58264  0.41133  Biso   1.000  C
  C6323    1.0000 0.87707  0.58264  0.41133  Biso   1.000  C
  H4290    1.0000 0.82016  0.60014  0.44502  Biso   1.000  H
  C6324    1.0000 0.93844  0.68926  0.47213  Biso   1.000  C
  C6325    1.0000 0.93839  0.68923  0.47213  Biso   1.000  C
  C6326    1.0000 0.93840  0.68926  0.47213  Biso   1.000  C
  C6327    1.0000 0.93103  0.60156  0.41934  Biso   1.000  C
  C6328    1.0000 0.93098  0.60154  0.41931  Biso   1.000  C
  C6329    1.0000 0.93099  0.60156  0.41934  Biso   1.000  C
  C6330    1.0000 0.93101  0.60154  0.41931  Biso   1.000  C
  H4291    1.0000 0.00290  0.65776  0.48344  Biso   1.000  H
  H4292    1.0000 0.69384  0.44106  0.69276  Biso   1.000  H
  C6331    1.0000 0.68724  0.41318  0.74667  Biso   1.000  C
  H4293    1.0000 0.69379  0.44104  0.69272  Biso   1.000  H
  C6332    1.0000 0.68719  0.41316  0.74663  Biso   1.000  C
  H4294    1.0000 0.69382  0.44109  0.69276  Biso   1.000  H
  H4295    1.0000 0.69381  0.44106  0.69276  Biso   1.000  H
  C6333    1.0000 0.68720  0.41318  0.74667  Biso   1.000  C
  C6334    1.0000 0.68723  0.41316  0.74663  Biso   1.000  C
  H4296    1.0000 0.69385  0.44109  0.69276  Biso   1.000  H
  C6335    1.0000 0.71595  0.40659  0.78687  Biso   1.000  C
  H4297    1.0000 0.78973  0.41877  0.82676  Biso   1.000  H
  C6336    1.0000 0.71590  0.40653  0.78683  Biso   1.000  C
  C6337    1.0000 0.71592  0.40659  0.78687  Biso   1.000  C
  H4298    1.0000 0.78974  0.41880  0.82676  Biso   1.000  H
  C6338    1.0000 0.71591  0.40657  0.78683  Biso   1.000  C
  H4299    1.0000 0.78970  0.41877  0.82676  Biso   1.000  H
  C6339    1.0000 0.71593  0.40653  0.78683  Biso   1.000  C
  C6340    1.0000 0.26413  0.52708  0.89937  Biso   1.000  C
  H4300    1.0000 0.22074  0.54547  0.95096  Biso   1.000  H
  C6341    1.0000 0.27412  0.62008  0.95727  Biso   1.000  C
  C6342    1.0000 0.26412  0.52706  0.89934  Biso   1.000  C
  C6343    1.0000 0.27416  0.62008  0.95727  Biso   1.000  C
  H4301    1.0000 0.22075  0.54551  0.95096  Biso   1.000  H
  C6344    1.0000 0.27417  0.62012  0.95727  Biso   1.000  C
  H4302    1.0000 0.22071  0.54547  0.95096  Biso   1.000  H
  C6345    1.0000 0.27413  0.62012  0.95727  Biso   1.000  C
  C6346    1.0000 0.28663  0.54637  0.86804  Biso   1.000  C
  H4303    1.0000 0.29503  0.61367  0.84717  Biso   1.000  H
  C6347    1.0000 0.29524  0.63796  0.92455  Biso   1.000  C
  H4304    1.0000 0.29502  0.61365  0.84713  Biso   1.000  H
  H4305    1.0000 0.29504  0.61371  0.84717  Biso   1.000  H
  C6348    1.0000 0.29525  0.63800  0.92455  Biso   1.000  C
  C6349    1.0000 0.85960  0.71045  0.46984  Biso   1.000  C
  C6350    1.0000 0.84310  0.53562  0.36652  Biso   1.000  C
  C6351    1.0000 0.84306  0.53562  0.36652  Biso   1.000  C
  C6352    1.0000 0.84307  0.53566  0.36652  Biso   1.000  C
  C6353    1.0000 0.84311  0.53566  0.36652  Biso   1.000  C
  C6354    1.0000 0.96741  0.74414  0.48514  Biso   1.000  C
  C6355    1.0000 0.96742  0.74418  0.48514  Biso   1.000  C
  C6356    1.0000 0.95101  0.57352  0.38251  Biso   1.000  C
  C6357    1.0000 0.95097  0.57352  0.38251  Biso   1.000  C
  C6358    1.0000 0.95098  0.57355  0.38251  Biso   1.000  C
  C6359    1.0000 0.95102  0.57355  0.38251  Biso   1.000  C
  C6360    1.0000 0.62892  0.39846  0.74257  Biso   1.000  C
  C6361    1.0000 0.62890  0.39845  0.74253  Biso   1.000  C
  C6362    1.0000 0.62893  0.39850  0.74257  Biso   1.000  C
  C6363    1.0000 0.62887  0.39845  0.74253  Biso   1.000  C
  C6364    1.0000 0.68633  0.37955  0.81545  Biso   1.000  C
  C6365    1.0000 0.68634  0.37959  0.81545  Biso   1.000  C
  C6366    1.0000 0.68630  0.37959  0.81545  Biso   1.000  C
  C6367    1.0000 0.68629  0.37955  0.81545  Biso   1.000  C
  C6368    1.0000 0.26972  0.48058  0.90356  Biso   1.000  C
  C6369    1.0000 0.26975  0.48058  0.90356  Biso   1.000  C
  C6370    1.0000 0.28836  0.65629  0.00928  Biso   1.000  C
  C6371    1.0000 0.28837  0.65632  0.00928  Biso   1.000  C
  C6372    1.0000 0.28832  0.65629  0.00928  Biso   1.000  C
  C6373    1.0000 0.31461  0.51907  0.84086  Biso   1.000  C
  C6374    1.0000 0.31464  0.51907  0.84086  Biso   1.000  C
  C6375    1.0000 0.31465  0.51911  0.84086  Biso   1.000  C
  C6376    1.0000 0.31462  0.51911  0.84086  Biso   1.000  C
  C6377    1.0000 0.33074  0.69207  0.94387  Biso   1.000  C
  C6378    1.0000 0.33075  0.69211  0.94387  Biso   1.000  C
  C6379    1.0000 0.88871  0.76535  0.48282  Biso   1.000  C
  H4306    1.0000 0.82362  0.69916  0.46473  Biso   1.000  H
  H4307    1.0000 0.82361  0.69912  0.46473  Biso   1.000  H
  H4308    1.0000 0.82358  0.69916  0.46473  Biso   1.000  H
  C6380    1.0000 0.88868  0.76535  0.48282  Biso   1.000  C
  C6381    1.0000 0.86300  0.50763  0.32973  Biso   1.000  C
  C6382    1.0000 0.78500  0.51102  0.35571  Biso   1.000  C
  C6383    1.0000 0.86296  0.50763  0.32973  Biso   1.000  C
  C6384    1.0000 0.78497  0.51102  0.35571  Biso   1.000  C
  C6385    1.0000 0.78498  0.51106  0.35571  Biso   1.000  C
  C6386    1.0000 0.78501  0.51106  0.35571  Biso   1.000  C
  C6387    1.0000 0.94263  0.78215  0.49045  Biso   1.000  C
  C6388    1.0000 0.94259  0.78213  0.49041  Biso   1.000  C
  C6389    1.0000 0.94261  0.78218  0.49045  Biso   1.000  C
  C6390    1.0000 0.94260  0.78215  0.49045  Biso   1.000  C
  C6391    1.0000 0.94262  0.78213  0.49041  Biso   1.000  C
  C6392    1.0000 0.94264  0.78218  0.49045  Biso   1.000  C
  H4309    1.0000 0.00351  0.75547  0.49025  Biso   1.000  H
  H4310    1.0000 0.00350  0.75545  0.49022  Biso   1.000  H
  C6393    1.0000 0.91691  0.52655  0.33774  Biso   1.000  C
  C6394    1.0000 0.91686  0.52650  0.33771  Biso   1.000  C
  C6395    1.0000 0.91688  0.52655  0.33774  Biso   1.000  C
  C6396    1.0000 0.91687  0.52654  0.33771  Biso   1.000  C
  C6397    1.0000 0.91689  0.52650  0.33771  Biso   1.000  C
  C6398    1.0000 0.00815  0.59743  0.38801  Biso   1.000  C
  C6399    1.0000 0.00818  0.59743  0.38801  Biso   1.000  C
  C6400    1.0000 0.00819  0.59746  0.38801  Biso   1.000  C
  C6401    1.0000 0.00816  0.59746  0.38801  Biso   1.000  C
  C6402    1.0000 0.61223  0.33759  0.73277  Biso   1.000  C
  H4311    1.0000 0.60802  0.40417  0.71534  Biso   1.000  H
  C6403    1.0000 0.62785  0.43097  0.79477  Biso   1.000  C
  C6404    1.0000 0.61220  0.33753  0.73273  Biso   1.000  C
  H4312    1.0000 0.60801  0.40413  0.71534  Biso   1.000  H
  C6405    1.0000 0.62780  0.43095  0.79473  Biso   1.000  C
  C6406    1.0000 0.62782  0.43100  0.79477  Biso   1.000  C
  C6407    1.0000 0.61218  0.33757  0.73273  Biso   1.000  C
  H4313    1.0000 0.60798  0.40417  0.71534  Biso   1.000  H
  C6408    1.0000 0.62781  0.43097  0.79477  Biso   1.000  C
  C6409    1.0000 0.62783  0.43095  0.79473  Biso   1.000  C
  C6410    1.0000 0.62786  0.43100  0.79477  Biso   1.000  C
  C6411    1.0000 0.61221  0.33757  0.73273  Biso   1.000  C
  C6412    1.0000 0.64212  0.33027  0.77177  Biso   1.000  C
  H4314    1.0000 0.70726  0.37327  0.84217  Biso   1.000  H
  C6413    1.0000 0.65782  0.42438  0.83427  Biso   1.000  C
  C6414    1.0000 0.64211  0.33026  0.77173  Biso   1.000  C
  H4315    1.0000 0.70721  0.37325  0.84213  Biso   1.000  H
  C6415    1.0000 0.65781  0.42436  0.83423  Biso   1.000  C
  H4316    1.0000 0.70723  0.37331  0.84217  Biso   1.000  H
  C6416    1.0000 0.64207  0.33026  0.77173  Biso   1.000  C
  H4317    1.0000 0.70722  0.37327  0.84217  Biso   1.000  H
  H4318    1.0000 0.70727  0.37331  0.84217  Biso   1.000  H
  C6417    1.0000 0.65786  0.42438  0.83427  Biso   1.000  C
  C6418    1.0000 0.29772  0.45339  0.87637  Biso   1.000  C
  C6419    1.0000 0.25271  0.46350  0.94205  Biso   1.000  C
  C6420    1.0000 0.29775  0.45337  0.87633  Biso   1.000  C
  C6421    1.0000 0.25274  0.46346  0.94205  Biso   1.000  C
  C6422    1.0000 0.29776  0.45339  0.87637  Biso   1.000  C
  C6423    1.0000 0.25275  0.46350  0.94205  Biso   1.000  C
  C6424    1.0000 0.29771  0.45337  0.87633  Biso   1.000  C
  C6425    1.0000 0.25270  0.46346  0.94205  Biso   1.000  C
  H4319    1.0000 0.27428  0.64430  0.03120  Biso   1.000  H
  C6426    1.0000 0.32385  0.71038  0.02857  Biso   1.000  C
  H4320    1.0000 0.27423  0.64428  0.03116  Biso   1.000  H
  C6427    1.0000 0.32386  0.71042  0.02857  Biso   1.000  C
  H4321    1.0000 0.27424  0.64430  0.03120  Biso   1.000  H
  C6428    1.0000 0.32382  0.71038  0.02857  Biso   1.000  C
  H4322    1.0000 0.27426  0.64428  0.03116  Biso   1.000  H
  C6429    1.0000 0.32012  0.47257  0.84504  Biso   1.000  C
  C6430    1.0000 0.33743  0.53979  0.80666  Biso   1.000  C
  C6431    1.0000 0.33742  0.53975  0.80666  Biso   1.000  C
  C6432    1.0000 0.34503  0.72839  0.99596  Biso   1.000  C
  H4323    1.0000 0.34484  0.70410  0.92195  Biso   1.000  H
  C6433    1.0000 0.34506  0.72839  0.99596  Biso   1.000  C
  H4324    1.0000 0.34486  0.70406  0.92195  Biso   1.000  H
  H4325    1.0000 0.34487  0.70410  0.92195  Biso   1.000  H
  H4326    1.0000 0.34483  0.70406  0.92195  Biso   1.000  H
  O918     1.0000 0.87543  0.81255  0.49424  Biso   1.000  O
  O919     1.0000 0.87540  0.81255  0.49424  Biso   1.000  O
  O920     1.0000 0.87541  0.81258  0.49424  Biso   1.000  O
  O921     1.0000 0.87544  0.81258  0.49424  Biso   1.000  O
  H4327    1.0000 0.84018  0.47612  0.29971  Biso   1.000  H
  H4328    1.0000 0.84014  0.47612  0.29971  Biso   1.000  H
  H4329    1.0000 0.77459  0.53393  0.38282  Biso   1.000  H
  H4330    1.0000 0.77521  0.47413  0.35393  Biso   1.000  H
  C6434    1.0000 0.75829  0.50805  0.30382  Biso   1.000  C
  H4331    1.0000 0.77517  0.47413  0.35393  Biso   1.000  H
  C6435    1.0000 0.75825  0.50801  0.30382  Biso   1.000  C
  H4332    1.0000 0.77518  0.47417  0.35393  Biso   1.000  H
  H4333    1.0000 0.77455  0.53393  0.38282  Biso   1.000  H
  C6436    1.0000 0.75826  0.50805  0.30382  Biso   1.000  C
  C6437    1.0000 0.75828  0.50801  0.30382  Biso   1.000  C
  H4334    1.0000 0.77522  0.47417  0.35393  Biso   1.000  H
  O922     1.0000 0.96583  0.83816  0.50625  Biso   1.000  O
  O923     1.0000 0.96581  0.83814  0.50621  Biso   1.000  O
  O924     1.0000 0.96578  0.83814  0.50621  Biso   1.000  O
  H4335    1.0000 0.93031  0.50784  0.31304  Biso   1.000  H
  H4336    1.0000 0.93027  0.50784  0.31304  Biso   1.000  H
  H4337    1.0000 0.01256  0.58676  0.35413  Biso   1.000  H
  H4338    1.0000 0.02137  0.63766  0.40602  Biso   1.000  H
  C6438    1.0000 0.03896  0.57424  0.41954  Biso   1.000  C
  H4339    1.0000 0.01259  0.58672  0.35413  Biso   1.000  H
  H4340    1.0000 0.02139  0.63762  0.40602  Biso   1.000  H
  C6439    1.0000 0.03900  0.57424  0.41954  Biso   1.000  C
  H4341    1.0000 0.01260  0.58676  0.35413  Biso   1.000  H
  H4342    1.0000 0.02140  0.63766  0.40602  Biso   1.000  H
  H4343    1.0000 0.01255  0.58672  0.35413  Biso   1.000  H
  H4344    1.0000 0.02136  0.63762  0.40602  Biso   1.000  H
  C6440    1.0000 0.57212  0.29206  0.69086  Biso   1.000  C
  C6441    1.0000 0.57208  0.29204  0.69083  Biso   1.000  C
  C6442    1.0000 0.57210  0.29210  0.69086  Biso   1.000  C
  C6443    1.0000 0.57209  0.29206  0.69086  Biso   1.000  C
  C6444    1.0000 0.57211  0.29204  0.69083  Biso   1.000  C
  C6445    1.0000 0.57213  0.29210  0.69086  Biso   1.000  C
  C6446    1.0000 0.60283  0.46887  0.80647  Biso   1.000  C
  C6447    1.0000 0.60281  0.46885  0.80643  Biso   1.000  C
  C6448    1.0000 0.60278  0.46885  0.80643  Biso   1.000  C
  C6449    1.0000 0.63182  0.27736  0.76886  Biso   1.000  C
  C6450    1.0000 0.63183  0.27740  0.76886  Biso   1.000  C
  C6451    1.0000 0.63179  0.27736  0.76886  Biso   1.000  C
  C6452    1.0000 0.66296  0.45569  0.88547  Biso   1.000  C
  C6453    1.0000 0.66291  0.45568  0.88543  Biso   1.000  C
  C6454    1.0000 0.66292  0.45569  0.88547  Biso   1.000  C
  C6455    1.0000 0.66295  0.45568  0.88543  Biso   1.000  C
  H4345    1.0000 0.30143  0.42228  0.87916  Biso   1.000  H
  H4346    1.0000 0.25784  0.49590  0.97307  Biso   1.000  H
  H4347    1.0000 0.27301  0.44318  0.95166  Biso   1.000  H
  C6456    1.0000 0.19451  0.42678  0.91645  Biso   1.000  C
  H4348    1.0000 0.27305  0.44318  0.95166  Biso   1.000  H
  C6457    1.0000 0.19455  0.42678  0.91645  Biso   1.000  C
  O925     1.0000 0.33959  0.75128  0.07760  Biso   1.000  O
  O926     1.0000 0.33956  0.75132  0.07760  Biso   1.000  O
  O927     1.0000 0.33955  0.75128  0.07760  Biso   1.000  O
  O928     1.0000 0.33960  0.75132  0.07760  Biso   1.000  O
  H4349    1.0000 0.33892  0.45437  0.82684  Biso   1.000  H
  H4350    1.0000 0.31452  0.55508  0.79194  Biso   1.000  H
  H4351    1.0000 0.33882  0.50887  0.77827  Biso   1.000  H
  C6458    1.0000 0.39344  0.58467  0.83636  Biso   1.000  C
  H4352    1.0000 0.31451  0.55504  0.79194  Biso   1.000  H
  H4353    1.0000 0.33881  0.50885  0.77823  Biso   1.000  H
  H4354    1.0000 0.31455  0.55508  0.79194  Biso   1.000  H
  H4355    1.0000 0.33883  0.50890  0.77827  Biso   1.000  H
  O929     1.0000 0.37656  0.78478  0.02598  Biso   1.000  O
  O930     1.0000 0.37657  0.78482  0.02598  Biso   1.000  O
  O931     1.0000 0.37652  0.78478  0.02598  Biso   1.000  O
  B497     1.0000 0.92004  0.85337  0.50315  Biso   1.000  B
  B498     1.0000 0.92001  0.85332  0.50311  Biso   1.000  B
  B499     1.0000 0.91999  0.85336  0.50311  Biso   1.000  B
  B500     1.0000 0.92000  0.85337  0.50315  Biso   1.000  B
  B501     1.0000 0.92002  0.85336  0.50311  Biso   1.000  B
  H4356    1.0000 0.76560  0.54543  0.30703  Biso   1.000  H
  H4357    1.0000 0.77169  0.48876  0.27814  Biso   1.000  H
  H4358    1.0000 0.72090  0.48942  0.29352  Biso   1.000  H
  H4359    1.0000 0.76557  0.54543  0.30703  Biso   1.000  H
  H4360    1.0000 0.77167  0.48870  0.27810  Biso   1.000  H
  H4361    1.0000 0.72086  0.48942  0.29352  Biso   1.000  H
  H4362    1.0000 0.72087  0.48946  0.29352  Biso   1.000  H
  H4363    1.0000 0.77165  0.48874  0.27810  Biso   1.000  H
  H4364    1.0000 0.77166  0.48876  0.27814  Biso   1.000  H
  H4365    1.0000 0.72091  0.48946  0.29352  Biso   1.000  H
  H4366    1.0000 0.77168  0.48874  0.27810  Biso   1.000  H
  H4367    1.0000 0.05106  0.54866  0.39723  Biso   1.000  H
  H4368    1.0000 0.06877  0.60433  0.44742  Biso   1.000  H
  H4369    1.0000 0.01609  0.55546  0.43332  Biso   1.000  H
  H4370    1.0000 0.05108  0.54862  0.39723  Biso   1.000  H
  H4371    1.0000 0.06881  0.60433  0.44742  Biso   1.000  H
  H4372    1.0000 0.01608  0.55542  0.43332  Biso   1.000  H
  H4373    1.0000 0.05109  0.54866  0.39723  Biso   1.000  H
  H4374    1.0000 0.05105  0.54862  0.39723  Biso   1.000  H
  C6459    1.0000 0.56193  0.23925  0.68796  Biso   1.000  C
  C6460    1.0000 0.53729  0.29857  0.64923  Biso   1.000  C
  C6461    1.0000 0.56188  0.23924  0.68792  Biso   1.000  C
  C6462    1.0000 0.53728  0.29853  0.64923  Biso   1.000  C
  C6463    1.0000 0.56190  0.23929  0.68796  Biso   1.000  C
  C6464    1.0000 0.56189  0.23925  0.68796  Biso   1.000  C
  C6465    1.0000 0.56191  0.23924  0.68792  Biso   1.000  C
  C6466    1.0000 0.56194  0.23929  0.68796  Biso   1.000  C
  H4375    1.0000 0.58275  0.47337  0.78005  Biso   1.000  H
  C6467    1.0000 0.60786  0.50019  0.85766  Biso   1.000  C
  H4376    1.0000 0.58271  0.47337  0.78005  Biso   1.000  H
  C6468    1.0000 0.60782  0.50019  0.85766  Biso   1.000  C
  C6469    1.0000 0.59173  0.23187  0.72696  Biso   1.000  C
  C6470    1.0000 0.65783  0.26927  0.81266  Biso   1.000  C
  C6471    1.0000 0.59170  0.23187  0.72696  Biso   1.000  C
  C6472    1.0000 0.65779  0.26927  0.81266  Biso   1.000  C
  C6473    1.0000 0.63794  0.49360  0.89717  Biso   1.000  C
  H4377    1.0000 0.68305  0.45126  0.91184  Biso   1.000  H
  C6474    1.0000 0.63793  0.49356  0.89717  Biso   1.000  C
  H4378    1.0000 0.68301  0.45126  0.91184  Biso   1.000  H
  H4379    1.0000 0.68302  0.45129  0.91184  Biso   1.000  H
  H4380    1.0000 0.68306  0.45129  0.91184  Biso   1.000  H
  H4381    1.0000 0.17780  0.43939  0.89364  Biso   1.000  H
  H4382    1.0000 0.17801  0.42869  0.94256  Biso   1.000  H
  H4383    1.0000 0.19101  0.38920  0.89697  Biso   1.000  H
  H4384    1.0000 0.17783  0.43935  0.89364  Biso   1.000  H
  H4385    1.0000 0.17804  0.42866  0.94256  Biso   1.000  H
  H4386    1.0000 0.19103  0.38915  0.89693  Biso   1.000  H
  H4387    1.0000 0.17784  0.43939  0.89364  Biso   1.000  H
  H4388    1.0000 0.17805  0.42869  0.94256  Biso   1.000  H
  H4389    1.0000 0.19105  0.38920  0.89697  Biso   1.000  H
  H4390    1.0000 0.19100  0.38919  0.89693  Biso   1.000  H
  H4391    1.0000 0.17779  0.43935  0.89364  Biso   1.000  H
  H4392    1.0000 0.17800  0.42866  0.94256  Biso   1.000  H
  H4393    1.0000 0.19099  0.38915  0.89693  Biso   1.000  H
  H4394    1.0000 0.19104  0.38919  0.89693  Biso   1.000  H
  B502     1.0000 0.37368  0.79408  0.07268  Biso   1.000  B
  B503     1.0000 0.37365  0.79412  0.07268  Biso   1.000  B
  B504     1.0000 0.37364  0.79408  0.07268  Biso   1.000  B
  B505     1.0000 0.37369  0.79412  0.07268  Biso   1.000  B
  H4395    1.0000 0.40511  0.60007  0.81425  Biso   1.000  H
  H4396    1.0000 0.41723  0.56839  0.84686  Biso   1.000  H
  H4397    1.0000 0.39273  0.61356  0.86634  Biso   1.000  H
  H4398    1.0000 0.40515  0.60007  0.81425  Biso   1.000  H
  H4399    1.0000 0.41722  0.56835  0.84686  Biso   1.000  H
  H4400    1.0000 0.41726  0.56839  0.84686  Biso   1.000  H
  H4401    1.0000 0.39274  0.61360  0.86634  Biso   1.000  H
  H4402    1.0000 0.39270  0.61356  0.86634  Biso   1.000  H
  C6475    1.0000 0.92745  0.91625  0.52275  Biso   1.000  C
  C6476    1.0000 0.92742  0.91625  0.52275  Biso   1.000  C
  H4403    1.0000 0.53509  0.20875  0.65984  Biso   1.000  H
  H4404    1.0000 0.53506  0.20875  0.65984  Biso   1.000  H
  H4405    1.0000 0.50480  0.26614  0.63103  Biso   1.000  H
  H4406    1.0000 0.52843  0.33087  0.66465  Biso   1.000  H
  C6477    1.0000 0.56671  0.30536  0.61054  Biso   1.000  C
  H4407    1.0000 0.50477  0.26614  0.63103  Biso   1.000  H
  H4408    1.0000 0.52839  0.33087  0.66465  Biso   1.000  H
  C6478    1.0000 0.56667  0.30536  0.61054  Biso   1.000  C
  O932     1.0000 0.58906  0.54039  0.87978  Biso   1.000  O
  O933     1.0000 0.58901  0.54037  0.87974  Biso   1.000  O
  O934     1.0000 0.58903  0.54039  0.87978  Biso   1.000  O
  O935     1.0000 0.58905  0.54037  0.87974  Biso   1.000  O
  H4409    1.0000 0.58493  0.19656  0.72506  Biso   1.000  H
  H4410    1.0000 0.58488  0.19654  0.72502  Biso   1.000  H
  H4411    1.0000 0.58490  0.19660  0.72506  Biso   1.000  H
  H4412    1.0000 0.58489  0.19656  0.72506  Biso   1.000  H
  H4413    1.0000 0.58491  0.19654  0.72502  Biso   1.000  H
  H4414    1.0000 0.58494  0.19660  0.72506  Biso   1.000  H
  H4415    1.0000 0.66145  0.29907  0.84496  Biso   1.000  H
  H4416    1.0000 0.63612  0.23456  0.81084  Biso   1.000  H
  C6479    1.0000 0.71182  0.26818  0.81185  Biso   1.000  C
  H4417    1.0000 0.66141  0.29907  0.84496  Biso   1.000  H
  C6480    1.0000 0.71181  0.26814  0.81185  Biso   1.000  C
  H4418    1.0000 0.63608  0.23456  0.81084  Biso   1.000  H
  C6481    1.0000 0.71179  0.26818  0.81185  Biso   1.000  C
  O936     1.0000 0.63946  0.52788  0.94534  Biso   1.000  O
  O937     1.0000 0.63942  0.52788  0.94534  Biso   1.000  O
  C6482    1.0000 0.39836  0.85500  0.11908  Biso   1.000  C
  C6483    1.0000 0.88205  0.92847  0.52244  Biso   1.000  C
  C6484    1.0000 0.97614  0.95876  0.53983  Biso   1.000  C
  C6485    1.0000 0.88201  0.92843  0.52244  Biso   1.000  C
  C6486    1.0000 0.88202  0.92847  0.52244  Biso   1.000  C
  C6487    1.0000 0.97610  0.95876  0.53983  Biso   1.000  C
  C6488    1.0000 0.88204  0.92843  0.52244  Biso   1.000  C
  H4419    1.0000 0.54289  0.30465  0.58165  Biso   1.000  H
  H4420    1.0000 0.59623  0.34006  0.62766  Biso   1.000  H
  H4421    1.0000 0.57911  0.27546  0.59854  Biso   1.000  H
  H4422    1.0000 0.59618  0.34005  0.62762  Biso   1.000  H
  H4423    1.0000 0.57907  0.27546  0.59854  Biso   1.000  H
  H4424    1.0000 0.59619  0.34006  0.62766  Biso   1.000  H
  H4425    1.0000 0.59622  0.34005  0.62762  Biso   1.000  H
  B506     1.0000 0.60735  0.55660  0.93187  Biso   1.000  B
  B507     1.0000 0.60734  0.55657  0.93187  Biso   1.000  B
  B508     1.0000 0.60731  0.55660  0.93187  Biso   1.000  B
  H4426    1.0000 0.70890  0.23056  0.79314  Biso   1.000  H
  H4427    1.0000 0.73511  0.28346  0.84674  Biso   1.000  H
  H4428    1.0000 0.72583  0.28987  0.79516  Biso   1.000  H
  H4429    1.0000 0.72579  0.28987  0.79516  Biso   1.000  H
  H4430    1.0000 0.73512  0.28350  0.84674  Biso   1.000  H
  C6489    1.0000 0.42857  0.89848  0.11191  Biso   1.000  C
  C6490    1.0000 0.39169  0.86479  0.16698  Biso   1.000  C
  C6491    1.0000 0.42857  0.89850  0.11187  Biso   1.000  C
  C6492    1.0000 0.39166  0.86483  0.16698  Biso   1.000  C
  C6493    1.0000 0.42858  0.89852  0.11191  Biso   1.000  C
  C6494    1.0000 0.39166  0.86479  0.16698  Biso   1.000  C
  C6495    1.0000 0.42856  0.89847  0.11187  Biso   1.000  C
  C6496    1.0000 0.39170  0.86483  0.16698  Biso   1.000  C
  H4431    1.0000 0.84943  0.90004  0.51094  Biso   1.000  H
  C6497    1.0000 0.88535  0.98317  0.53925  Biso   1.000  C
  C6498    1.0000 0.88534  0.98314  0.53925  Biso   1.000  C
  H4432    1.0000 0.84944  0.90008  0.51094  Biso   1.000  H
  H4433    1.0000 0.84939  0.90004  0.51094  Biso   1.000  H
  C6499    1.0000 0.88531  0.98317  0.53925  Biso   1.000  C
  C6500    1.0000 0.97936  0.01347  0.55663  Biso   1.000  C
  C6501    1.0000 0.97935  0.01343  0.55663  Biso   1.000  C
  C6502    1.0000 0.97940  0.01347  0.55663  Biso   1.000  C
  H4434    1.0000 0.00651  0.95066  0.53994  Biso   1.000  H
  H4435    1.0000 0.00654  0.95066  0.53994  Biso   1.000  H
  C6503    1.0000 0.60085  0.60627  0.97245  Biso   1.000  C
  C6504    1.0000 0.60086  0.60631  0.97245  Biso   1.000  C
  C6505    1.0000 0.60081  0.60627  0.97245  Biso   1.000  C
  C6506    1.0000 0.45209  0.95169  0.15250  Biso   1.000  C
  H4436    1.0000 0.43310  0.89190  0.07988  Biso   1.000  H
  C6507    1.0000 0.45210  0.95173  0.15250  Biso   1.000  C
  H4437    1.0000 0.43306  0.89190  0.07988  Biso   1.000  H
  C6508    1.0000 0.45206  0.95169  0.15250  Biso   1.000  C
  C6509    1.0000 0.41519  0.91802  0.20761  Biso   1.000  C
  H4438    1.0000 0.37148  0.83568  0.17179  Biso   1.000  H
  H4439    1.0000 0.37149  0.83572  0.17179  Biso   1.000  H
  H4440    1.0000 0.37144  0.83568  0.17179  Biso   1.000  H
  B509     1.0000 0.83413  0.99626  0.53754  Biso   1.000  B
  B510     1.0000 0.83410  0.99626  0.53754  Biso   1.000  B
  C6510    1.0000 0.93395  0.02565  0.55632  Biso   1.000  C
  C6511    1.0000 0.93399  0.02565  0.55632  Biso   1.000  C
  B511     1.0000 0.03280  0.05828  0.57716  Biso   1.000  B
  B512     1.0000 0.03275  0.05826  0.57712  Biso   1.000  B
  B513     1.0000 0.03275  0.05824  0.57716  Biso   1.000  B
  B514     1.0000 0.03276  0.05828  0.57716  Biso   1.000  B
  B515     1.0000 0.03278  0.05826  0.57712  Biso   1.000  B
  B516     1.0000 0.03279  0.05824  0.57716  Biso   1.000  B
  C6512    1.0000 0.57166  0.63359  0.95545  Biso   1.000  C
  C6513    1.0000 0.57163  0.63359  0.95545  Biso   1.000  C
  C6514    1.0000 0.62344  0.62379  0.02508  Biso   1.000  C
  C6515    1.0000 0.62345  0.62382  0.02508  Biso   1.000  C
  C6516    1.0000 0.62348  0.62379  0.02508  Biso   1.000  C
  C6517    1.0000 0.44540  0.96151  0.20029  Biso   1.000  C
  B517     1.0000 0.48389  0.99870  0.14239  Biso   1.000  B
  B518     1.0000 0.48390  0.99874  0.14239  Biso   1.000  B
  C6518    1.0000 0.44536  0.96151  0.20029  Biso   1.000  C
  B519     1.0000 0.48385  0.99870  0.14239  Biso   1.000  B
  B520     1.0000 0.40699  0.92641  0.25710  Biso   1.000  B
  B521     1.0000 0.40700  0.92645  0.25710  Biso   1.000  B
  B522     1.0000 0.40696  0.92641  0.25710  Biso   1.000  B
  O938     1.0000 0.78632  0.95465  0.52213  Biso   1.000  O
  O939     1.0000 0.83427  0.05045  0.55783  Biso   1.000  O
  O940     1.0000 0.83426  0.05042  0.55783  Biso   1.000  O
  H4441    1.0000 0.93617  0.06225  0.56756  Biso   1.000  H
  H4442    1.0000 0.93615  0.06223  0.56752  Biso   1.000  H
  H4443    1.0000 0.93616  0.06227  0.56752  Biso   1.000  H
  H4444    1.0000 0.93620  0.06225  0.56756  Biso   1.000  H
  O941     1.0000 0.04538  0.11488  0.59695  Biso   1.000  O
  O942     1.0000 0.08139  0.04827  0.57913  Biso   1.000  O
  O943     1.0000 0.04537  0.11484  0.59695  Biso   1.000  O
  O944     1.0000 0.08136  0.04827  0.57913  Biso   1.000  O
  O945     1.0000 0.08135  0.04823  0.57913  Biso   1.000  O
  O946     1.0000 0.04535  0.11488  0.59695  Biso   1.000  O
  O947     1.0000 0.08138  0.04823  0.57913  Biso   1.000  O
  H4445    1.0000 0.55644  0.62189  0.92017  Biso   1.000  H
  C6519    1.0000 0.56517  0.67851  0.99128  Biso   1.000  C
  C6520    1.0000 0.56516  0.67847  0.99128  Biso   1.000  C
  C6521    1.0000 0.56514  0.67851  0.99128  Biso   1.000  C
  C6522    1.0000 0.61696  0.66868  0.06079  Biso   1.000  C
  H4446    1.0000 0.64294  0.60546  0.03639  Biso   1.000  H
  C6523    1.0000 0.61694  0.66872  0.06079  Biso   1.000  C
  H4447    1.0000 0.64295  0.60550  0.03639  Biso   1.000  H
  C6524    1.0000 0.61693  0.66868  0.06079  Biso   1.000  C
  H4448    1.0000 0.64297  0.60546  0.03639  Biso   1.000  H
  C6525    1.0000 0.61697  0.66872  0.06079  Biso   1.000  C
  H4449    1.0000 0.46110  0.99710  0.22751  Biso   1.000  H
  H4450    1.0000 0.46109  0.99712  0.22748  Biso   1.000  H
  H4451    1.0000 0.46111  0.99713  0.22751  Biso   1.000  H
  H4452    1.0000 0.46105  0.99708  0.22748  Biso   1.000  H
  H4453    1.0000 0.46108  0.99708  0.22748  Biso   1.000  H
  O948     1.0000 0.49490  0.99639  0.09921  Biso   1.000  O
  O949     1.0000 0.49486  0.99641  0.09917  Biso   1.000  O
  O950     1.0000 0.49487  0.99639  0.09921  Biso   1.000  O
  O951     1.0000 0.49485  0.99637  0.09917  Biso   1.000  O
  O952     1.0000 0.49490  0.99641  0.09917  Biso   1.000  O
  O953     1.0000 0.50624  0.05530  0.18220  Biso   1.000  O
  O954     1.0000 0.50620  0.05530  0.18220  Biso   1.000  O
  O955     1.0000 0.37889  0.88680  0.26961  Biso   1.000  O
  O956     1.0000 0.42309  0.97909  0.30199  Biso   1.000  O
  O957     1.0000 0.37890  0.88684  0.26961  Biso   1.000  O
  O958     1.0000 0.42310  0.97913  0.30199  Biso   1.000  O
  O959     1.0000 0.37885  0.88680  0.26961  Biso   1.000  O
  O960     1.0000 0.42306  0.97909  0.30199  Biso   1.000  O
  C6526    1.0000 0.75215  0.98295  0.53154  Biso   1.000  C
  C6527    1.0000 0.75211  0.98295  0.53154  Biso   1.000  C
  C6528    1.0000 0.75212  0.98298  0.53154  Biso   1.000  C
  C6529    1.0000 0.75216  0.98298  0.53154  Biso   1.000  C
  C6530    1.0000 0.78135  0.03934  0.55152  Biso   1.000  C
  C6531    1.0000 0.78138  0.03934  0.55152  Biso   1.000  C
  C6532    1.0000 0.09849  0.14076  0.61155  Biso   1.000  C
  C6533    1.0000 0.09845  0.14076  0.61155  Biso   1.000  C
  C6534    1.0000 0.11999  0.09976  0.60024  Biso   1.000  C
  C6535    1.0000 0.11996  0.09976  0.60024  Biso   1.000  C
  C6536    1.0000 0.11995  0.09972  0.60024  Biso   1.000  C
  C6537    1.0000 0.11998  0.09972  0.60024  Biso   1.000  C
  B523     1.0000 0.53146  0.70728  0.97036  Biso   1.000  B
  B524     1.0000 0.53147  0.70732  0.97036  Biso   1.000  B
  B525     1.0000 0.53143  0.70728  0.97036  Biso   1.000  B
  C6538    1.0000 0.58776  0.69598  0.04391  Biso   1.000  C
  C6539    1.0000 0.58772  0.69600  0.04387  Biso   1.000  C
  C6540    1.0000 0.58777  0.69602  0.04391  Biso   1.000  C
  C6541    1.0000 0.58775  0.69596  0.04387  Biso   1.000  C
  C6542    1.0000 0.58776  0.69600  0.04387  Biso   1.000  C
  C6543    1.0000 0.58771  0.69596  0.04387  Biso   1.000  C
  B526     1.0000 0.64397  0.68959  0.11609  Biso   1.000  B
  B527     1.0000 0.64394  0.68962  0.11609  Biso   1.000  B
  B528     1.0000 0.64393  0.68959  0.11609  Biso   1.000  B
  B529     1.0000 0.64398  0.68962  0.11609  Biso   1.000  B
  C6544    1.0000 0.52290  0.04798  0.10568  Biso   1.000  C
  C6545    1.0000 0.52291  0.04802  0.10568  Biso   1.000  C
  C6546    1.0000 0.52293  0.04798  0.10568  Biso   1.000  C
  C6547    1.0000 0.52965  0.08291  0.15641  Biso   1.000  C
  C6548    1.0000 0.52960  0.08286  0.15637  Biso   1.000  C
  C6549    1.0000 0.52962  0.08291  0.15641  Biso   1.000  C
  C6550    1.0000 0.52964  0.08290  0.15637  Biso   1.000  C
  C6551    1.0000 0.52961  0.08290  0.15637  Biso   1.000  C
  C6552    1.0000 0.37742  0.91020  0.31872  Biso   1.000  C
  C6553    1.0000 0.37739  0.91024  0.31872  Biso   1.000  C
  C6554    1.0000 0.37738  0.91020  0.31872  Biso   1.000  C
  C6555    1.0000 0.37743  0.91024  0.31872  Biso   1.000  C
  C6556    1.0000 0.40522  0.96690  0.33800  Biso   1.000  C
  C6557    1.0000 0.40519  0.96694  0.33800  Biso   1.000  C
  C6558    1.0000 0.40518  0.96690  0.33800  Biso   1.000  C
  C6559    1.0000 0.40523  0.96694  0.33800  Biso   1.000  C
  C6560    1.0000 0.69824  0.96466  0.52344  Biso   1.000  C
  C6561    1.0000 0.69820  0.96466  0.52344  Biso   1.000  C
  C6562    1.0000 0.75658  0.07745  0.56364  Biso   1.000  C
  C6563    1.0000 0.75654  0.07745  0.56364  Biso   1.000  C
  C6564    1.0000 0.13129  0.19638  0.63343  Biso   1.000  C
  C6565    1.0000 0.13128  0.19634  0.63343  Biso   1.000  C
  C6566    1.0000 0.13126  0.19638  0.63343  Biso   1.000  C
  C6567    1.0000 0.17419  0.11425  0.61093  Biso   1.000  C
  C6568    1.0000 0.17415  0.11425  0.61093  Biso   1.000  C
  O961     1.0000 0.50995  0.69060  0.91808  Biso   1.000  O
  O962     1.0000 0.50993  0.69055  0.91804  Biso   1.000  O
  O963     1.0000 0.50994  0.69059  0.91804  Biso   1.000  O
  O964     1.0000 0.52055  0.75149  0.00328  Biso   1.000  O
  O965     1.0000 0.52058  0.75149  0.00328  Biso   1.000  O
  H4454    1.0000 0.58347  0.72600  0.06780  Biso   1.000  H
  H4455    1.0000 0.58343  0.72600  0.06780  Biso   1.000  H
  O966     1.0000 0.64086  0.73370  0.15730  Biso   1.000  O
  O967     1.0000 0.67657  0.66609  0.13809  Biso   1.000  O
  O968     1.0000 0.64087  0.73374  0.15730  Biso   1.000  O
  O969     1.0000 0.67655  0.66613  0.13809  Biso   1.000  O
  O970     1.0000 0.67654  0.66609  0.13809  Biso   1.000  O
  O971     1.0000 0.64090  0.73370  0.15730  Biso   1.000  O
  O972     1.0000 0.67658  0.66613  0.13809  Biso   1.000  O
  C6569    1.0000 0.54172  0.07008  0.07438  Biso   1.000  C
  C6570    1.0000 0.54167  0.07006  0.07435  Biso   1.000  C
  C6571    1.0000 0.54173  0.07012  0.07438  Biso   1.000  C
  C6572    1.0000 0.54171  0.07006  0.07435  Biso   1.000  C
  C6573    1.0000 0.55522  0.13989  0.17581  Biso   1.000  C
  C6574    1.0000 0.55525  0.13989  0.17581  Biso   1.000  C
  C6575    1.0000 0.35389  0.88976  0.34881  Biso   1.000  C
  C6576    1.0000 0.35390  0.88980  0.34881  Biso   1.000  C
  C6577    1.0000 0.35393  0.88980  0.34881  Biso   1.000  C
  C6578    1.0000 0.40947  0.00303  0.38742  Biso   1.000  C
  C6579    1.0000 0.40941  0.00298  0.38738  Biso   1.000  C
  C6580    1.0000 0.40943  0.00303  0.38742  Biso   1.000  C
  C6581    1.0000 0.40946  0.00301  0.38738  Biso   1.000  C
  C6582    1.0000 0.40945  0.00298  0.38738  Biso   1.000  C
  C6583    1.0000 0.40942  0.00301  0.38738  Biso   1.000  C
  H4456    1.0000 0.67862  0.92695  0.51004  Biso   1.000  H
  H4457    1.0000 0.67863  0.92699  0.51004  Biso   1.000  H
  C6584    1.0000 0.67335  0.00275  0.53553  Biso   1.000  C
  C6585    1.0000 0.67334  0.00271  0.53553  Biso   1.000  C
  C6586    1.0000 0.67338  0.00275  0.53553  Biso   1.000  C
  C6587    1.0000 0.70256  0.05917  0.55555  Biso   1.000  C
  H4458    1.0000 0.77608  0.11527  0.57704  Biso   1.000  H
  C6588    1.0000 0.70255  0.05913  0.55555  Biso   1.000  C
  H4459    1.0000 0.77607  0.11524  0.57704  Biso   1.000  H
  C6589    1.0000 0.70259  0.05917  0.55555  Biso   1.000  C
  H4460    1.0000 0.11700  0.22378  0.64094  Biso   1.000  H
  C6590    1.0000 0.18561  0.21089  0.64416  Biso   1.000  C
  H4461    1.0000 0.11697  0.22378  0.64094  Biso   1.000  H
  C6591    1.0000 0.18555  0.21083  0.64412  Biso   1.000  C
  H4462    1.0000 0.11696  0.22374  0.64094  Biso   1.000  H
  C6592    1.0000 0.18560  0.21085  0.64416  Biso   1.000  C
  C6593    1.0000 0.18556  0.21087  0.64412  Biso   1.000  C
  C6594    1.0000 0.18557  0.21089  0.64416  Biso   1.000  C
  C6595    1.0000 0.18558  0.21083  0.64412  Biso   1.000  C
  H4463    1.0000 0.11699  0.22374  0.64094  Biso   1.000  H
  C6596    1.0000 0.20700  0.16989  0.63285  Biso   1.000  C
  H4464    1.0000 0.18860  0.08687  0.60346  Biso   1.000  H
  C6597    1.0000 0.20696  0.16985  0.63285  Biso   1.000  C
  H4465    1.0000 0.18855  0.08685  0.60342  Biso   1.000  H
  H4466    1.0000 0.18855  0.08684  0.60346  Biso   1.000  H
  C6598    1.0000 0.20697  0.16989  0.63285  Biso   1.000  C
  H4467    1.0000 0.18856  0.08687  0.60346  Biso   1.000  H
  C6599    1.0000 0.20699  0.16985  0.63285  Biso   1.000  C
  H4468    1.0000 0.18858  0.08685  0.60342  Biso   1.000  H
  H4469    1.0000 0.18859  0.08684  0.60346  Biso   1.000  H
  C6600    1.0000 0.48396  0.72558  0.91638  Biso   1.000  C
  C6601    1.0000 0.48392  0.72556  0.91634  Biso   1.000  C
  C6602    1.0000 0.48397  0.72562  0.91638  Biso   1.000  C
  C6603    1.0000 0.48393  0.72558  0.91638  Biso   1.000  C
  C6604    1.0000 0.48395  0.72556  0.91634  Biso   1.000  C
  C6605    1.0000 0.49069  0.76111  0.96688  Biso   1.000  C
  C6606    1.0000 0.49063  0.76106  0.96684  Biso   1.000  C
  C6607    1.0000 0.49065  0.76111  0.96688  Biso   1.000  C
  C6608    1.0000 0.49064  0.76109  0.96684  Biso   1.000  C
  C6609    1.0000 0.49067  0.76106  0.96684  Biso   1.000  C
  C6610    1.0000 0.67148  0.73821  0.20230  Biso   1.000  C
  C6611    1.0000 0.67145  0.73821  0.20230  Biso   1.000  C
  C6612    1.0000 0.69308  0.69731  0.19080  Biso   1.000  C
  C6613    1.0000 0.69304  0.69731  0.19080  Biso   1.000  C
  C6614    1.0000 0.56732  0.12717  0.09379  Biso   1.000  C
  C6615    1.0000 0.56733  0.12721  0.09379  Biso   1.000  C
  C6616    1.0000 0.56735  0.12717  0.09379  Biso   1.000  C
  H4470    1.0000 0.53721  0.04677  0.04038  Biso   1.000  H
  H4471    1.0000 0.53722  0.04681  0.04038  Biso   1.000  H
  C6617    1.0000 0.57401  0.16205  0.14448  Biso   1.000  C
  C6618    1.0000 0.57402  0.16209  0.14448  Biso   1.000  C
  C6619    1.0000 0.57405  0.16205  0.14448  Biso   1.000  C
  H4472    1.0000 0.55976  0.16332  0.20982  Biso   1.000  H
  H4473    1.0000 0.55971  0.16330  0.20978  Biso   1.000  H
  H4474    1.0000 0.55972  0.16332  0.20982  Biso   1.000  H
  H4475    1.0000 0.55975  0.16330  0.20978  Biso   1.000  H
  H4476    1.0000 0.33531  0.85192  0.33591  Biso   1.000  H
  C6620    1.0000 0.35823  0.92590  0.39830  Biso   1.000  C
  H4477    1.0000 0.33532  0.85196  0.33591  Biso   1.000  H
  C6621    1.0000 0.35820  0.92593  0.39830  Biso   1.000  C
  H4478    1.0000 0.33527  0.85192  0.33591  Biso   1.000  H
  C6622    1.0000 0.35819  0.92590  0.39830  Biso   1.000  C
  C6623    1.0000 0.35824  0.92593  0.39830  Biso   1.000  C
  C6624    1.0000 0.38601  0.98252  0.41759  Biso   1.000  C
  C6625    1.0000 0.38602  0.98256  0.41759  Biso   1.000  C
  H4479    1.0000 0.42804  0.04091  0.40040  Biso   1.000  H
  H4480    1.0000 0.42807  0.04091  0.40040  Biso   1.000  H
  C6626    1.0000 0.61302  0.98337  0.52724  Biso   1.000  C
  C6627    1.0000 0.66659  0.09399  0.56945  Biso   1.000  C
  C6628    1.0000 0.66654  0.09393  0.56941  Biso   1.000  C
  C6629    1.0000 0.66655  0.09395  0.56945  Biso   1.000  C
  C6630    1.0000 0.66658  0.09397  0.56941  Biso   1.000  C
  C6631    1.0000 0.66657  0.09393  0.56941  Biso   1.000  C
  C6632    1.0000 0.66658  0.09395  0.56945  Biso   1.000  C
  C6633    1.0000 0.66655  0.09397  0.56941  Biso   1.000  C
  C6634    1.0000 0.22571  0.27005  0.67084  Biso   1.000  C
  C6635    1.0000 0.22568  0.27005  0.67084  Biso   1.000  C
  C6636    1.0000 0.22569  0.27009  0.67084  Biso   1.000  C
  C6637    1.0000 0.27000  0.19315  0.64993  Biso   1.000  C
  C6638    1.0000 0.26997  0.19315  0.64993  Biso   1.000  C
  C6639    1.0000 0.26998  0.19318  0.64993  Biso   1.000  C
  C6640    1.0000 0.45446  0.73001  0.87498  Biso   1.000  C
  C6641    1.0000 0.45443  0.72995  0.87494  Biso   1.000  C
  C6642    1.0000 0.45441  0.72999  0.87494  Biso   1.000  C
  C6643    1.0000 0.45444  0.72999  0.87494  Biso   1.000  C
  C6644    1.0000 0.46789  0.80099  0.97598  Biso   1.000  C
  C6645    1.0000 0.46784  0.80097  0.97594  Biso   1.000  C
  C6646    1.0000 0.46785  0.80099  0.97598  Biso   1.000  C
  C6647    1.0000 0.46788  0.80097  0.97594  Biso   1.000  C
  C6648    1.0000 0.68299  0.77539  0.25362  Biso   1.000  C
  C6649    1.0000 0.68295  0.77541  0.25358  Biso   1.000  C
  C6650    1.0000 0.68296  0.77543  0.25362  Biso   1.000  C
  C6651    1.0000 0.68298  0.77538  0.25358  Biso   1.000  C
  C6652    1.0000 0.68299  0.77541  0.25358  Biso   1.000  C
  C6653    1.0000 0.68300  0.77543  0.25362  Biso   1.000  C
  C6654    1.0000 0.68294  0.77538  0.25358  Biso   1.000  C
  C6655    1.0000 0.72608  0.69360  0.23042  Biso   1.000  C
  C6656    1.0000 0.72608  0.69362  0.23038  Biso   1.000  C
  C6657    1.0000 0.72607  0.69358  0.23038  Biso   1.000  C
  C6658    1.0000 0.58860  0.15088  0.06188  Biso   1.000  C
  C6659    1.0000 0.58864  0.15088  0.06188  Biso   1.000  C
  C6660    1.0000 0.60214  0.22310  0.15889  Biso   1.000  C
  C6661    1.0000 0.60211  0.22310  0.15889  Biso   1.000  C
  C6662    1.0000 0.33360  0.90610  0.43060  Biso   1.000  C
  C6663    1.0000 0.33361  0.90613  0.43060  Biso   1.000  C
  C6664    1.0000 0.33357  0.90613  0.43060  Biso   1.000  C
  C6665    1.0000 0.38717  0.01672  0.47282  Biso   1.000  C
  C6666    1.0000 0.38713  0.01672  0.47282  Biso   1.000  C
  H4481    1.0000 0.59363  0.94327  0.51194  Biso   1.000  H
  H4482    1.0000 0.59360  0.94327  0.51194  Biso   1.000  H
  C6667    1.0000 0.59506  0.01296  0.49792  Biso   1.000  C
  C6668    1.0000 0.61418  0.01756  0.58247  Biso   1.000  C
  C6669    1.0000 0.59503  0.01296  0.49792  Biso   1.000  C
  C6670    1.0000 0.61415  0.01756  0.58247  Biso   1.000  C
  C6671    1.0000 0.59505  0.01292  0.49792  Biso   1.000  C
  C6672    1.0000 0.61414  0.01752  0.58247  Biso   1.000  C
  C6673    1.0000 0.61417  0.01752  0.58247  Biso   1.000  C
  C6674    1.0000 0.62257  0.06983  0.51853  Biso   1.000  C
  H4483    1.0000 0.68506  0.13425  0.58494  Biso   1.000  H
  C6675    1.0000 0.64197  0.07419  0.60175  Biso   1.000  C
  C6676    1.0000 0.62254  0.06983  0.51853  Biso   1.000  C
  C6677    1.0000 0.64196  0.07415  0.60175  Biso   1.000  C
  C6678    1.0000 0.62258  0.06987  0.51853  Biso   1.000  C
  H4484    1.0000 0.68510  0.13425  0.58494  Biso   1.000  H
  C6679    1.0000 0.64200  0.07419  0.60175  Biso   1.000  C
  C6680    1.0000 0.62255  0.06987  0.51853  Biso   1.000  C
  C6681    1.0000 0.26121  0.27335  0.63924  Biso   1.000  C
  H4485    1.0000 0.21082  0.29927  0.67936  Biso   1.000  H
  C6682    1.0000 0.26260  0.26939  0.71836  Biso   1.000  C
  C6683    1.0000 0.26117  0.27335  0.63924  Biso   1.000  C
  H4486    1.0000 0.21077  0.29925  0.67932  Biso   1.000  H
  C6684    1.0000 0.26259  0.26937  0.71832  Biso   1.000  C
  H4487    1.0000 0.21079  0.29927  0.67936  Biso   1.000  H
  C6685    1.0000 0.26259  0.26935  0.71836  Biso   1.000  C
  C6686    1.0000 0.26255  0.26937  0.71832  Biso   1.000  C
  H4488    1.0000 0.21081  0.29925  0.67932  Biso   1.000  H
  C6687    1.0000 0.28188  0.23196  0.62545  Biso   1.000  C
  H4489    1.0000 0.28550  0.16457  0.64125  Biso   1.000  H
  C6688    1.0000 0.28409  0.22848  0.70686  Biso   1.000  C
  H4490    1.0000 0.28546  0.16457  0.64125  Biso   1.000  H
  C6689    1.0000 0.28408  0.22845  0.70686  Biso   1.000  C
  C6690    1.0000 0.43167  0.76988  0.88415  Biso   1.000  C
  C6691    1.0000 0.43164  0.76988  0.88415  Biso   1.000  C
  H4491    1.0000 0.44994  0.70619  0.84124  Biso   1.000  H
  H4492    1.0000 0.44993  0.70615  0.84124  Biso   1.000  H
  H4493    1.0000 0.44990  0.70619  0.84124  Biso   1.000  H
  C6692    1.0000 0.43835  0.80538  0.93466  Biso   1.000  C
  C6693    1.0000 0.43836  0.80541  0.93466  Biso   1.000  C
  C6694    1.0000 0.43831  0.80538  0.93466  Biso   1.000  C
  H4494    1.0000 0.47226  0.82468  0.00967  Biso   1.000  H
  H4495    1.0000 0.47223  0.82471  0.00967  Biso   1.000  H
  H4496    1.0000 0.47222  0.82468  0.00967  Biso   1.000  H
  H4497    1.0000 0.47227  0.82471  0.00967  Biso   1.000  H
  H4498    1.0000 0.66859  0.80279  0.26129  Biso   1.000  H
  C6695    1.0000 0.71610  0.77160  0.29320  Biso   1.000  C
  H4499    1.0000 0.66856  0.80283  0.26129  Biso   1.000  H
  C6696    1.0000 0.71608  0.77163  0.29320  Biso   1.000  C
  H4500    1.0000 0.66855  0.80279  0.26129  Biso   1.000  H
  C6697    1.0000 0.71607  0.77160  0.29320  Biso   1.000  C
  H4501    1.0000 0.66860  0.80283  0.26129  Biso   1.000  H
  C6698    1.0000 0.73759  0.73069  0.28169  Biso   1.000  C
  H4502    1.0000 0.74047  0.66619  0.22271  Biso   1.000  H
  C6699    1.0000 0.73757  0.73073  0.28169  Biso   1.000  C
  H4503    1.0000 0.74047  0.66621  0.22267  Biso   1.000  H
  C6700    1.0000 0.73756  0.73069  0.28169  Biso   1.000  C
  H4504    1.0000 0.74048  0.66623  0.22271  Biso   1.000  H
  H4505    1.0000 0.74046  0.66617  0.22267  Biso   1.000  H
  H4506    1.0000 0.74051  0.66619  0.22271  Biso   1.000  H
  C6701    1.0000 0.73760  0.73073  0.28169  Biso   1.000  C
  C6702    1.0000 0.56184  0.19470  0.06540  Biso   1.000  C
  C6703    1.0000 0.56181  0.19470  0.06540  Biso   1.000  C
  C6704    1.0000 0.64602  0.18790  0.09549  Biso   1.000  C
  H4507    1.0000 0.58350  0.12419  0.02679  Biso   1.000  H
  H4508    1.0000 0.58354  0.12419  0.02679  Biso   1.000  H
  C6705    1.0000 0.64606  0.18790  0.09549  Biso   1.000  C
  C6706    1.0000 0.56852  0.23020  0.11590  Biso   1.000  C
  C6707    1.0000 0.56856  0.23020  0.11590  Biso   1.000  C
  C6708    1.0000 0.65144  0.22511  0.14499  Biso   1.000  C
  H4509    1.0000 0.60733  0.24920  0.19429  Biso   1.000  H
  C6709    1.0000 0.65139  0.22507  0.14499  Biso   1.000  C
  H4510    1.0000 0.60736  0.24920  0.19429  Biso   1.000  H
  C6710    1.0000 0.65143  0.22507  0.14499  Biso   1.000  C
  C6711    1.0000 0.65140  0.22511  0.14499  Biso   1.000  C
  C6712    1.0000 0.37762  0.93025  0.48153  Biso   1.000  C
  H4511    1.0000 0.31513  0.86583  0.41511  Biso   1.000  H
  C6713    1.0000 0.29763  0.94092  0.44451  Biso   1.000  C
  C6714    1.0000 0.37761  0.93023  0.48149  Biso   1.000  C
  H4512    1.0000 0.31510  0.86583  0.41511  Biso   1.000  H
  C6715    1.0000 0.29761  0.94095  0.44451  Biso   1.000  C
  C6716    1.0000 0.29760  0.94092  0.44451  Biso   1.000  C
  C6717    1.0000 0.40513  0.98712  0.50213  Biso   1.000  C
  C6718    1.0000 0.32685  0.99733  0.46453  Biso   1.000  C
  C6719    1.0000 0.40513  0.98714  0.50209  Biso   1.000  C
  C6720    1.0000 0.32681  0.99735  0.46449  Biso   1.000  C
  C6721    1.0000 0.40514  0.98716  0.50213  Biso   1.000  C
  C6722    1.0000 0.32681  0.99733  0.46453  Biso   1.000  C
  C6723    1.0000 0.40508  0.98711  0.50209  Biso   1.000  C
  C6724    1.0000 0.32680  0.99731  0.46449  Biso   1.000  C
  C6725    1.0000 0.40510  0.98712  0.50213  Biso   1.000  C
  C6726    1.0000 0.32684  0.99735  0.46449  Biso   1.000  C
  C6727    1.0000 0.40512  0.98711  0.50209  Biso   1.000  C
  H4513    1.0000 0.40656  0.05681  0.48811  Biso   1.000  H
  H4514    1.0000 0.40652  0.05681  0.48811  Biso   1.000  H
  H4515    1.0000 0.40657  0.05685  0.48811  Biso   1.000  H
  C6728    1.0000 0.55522  0.98536  0.45025  Biso   1.000  C
  C6729    1.0000 0.55521  0.98534  0.45021  Biso   1.000  C
  C6730    1.0000 0.55518  0.98534  0.45021  Biso   1.000  C
  C6731    1.0000 0.59072  0.99705  0.61263  Biso   1.000  C
  C6732    1.0000 0.59073  0.99709  0.61263  Biso   1.000  C
  C6733    1.0000 0.61007  0.09904  0.49153  Biso   1.000  C
  C6734    1.0000 0.61003  0.09904  0.49153  Biso   1.000  C
  C6735    1.0000 0.64630  0.11032  0.65125  Biso   1.000  C
  C6736    1.0000 0.64627  0.11032  0.65125  Biso   1.000  C
  C6737    1.0000 0.64626  0.11028  0.65125  Biso   1.000  C
  C6738    1.0000 0.64629  0.11028  0.65125  Biso   1.000  C
  C6739    1.0000 0.27110  0.31317  0.62073  Biso   1.000  C
  C6740    1.0000 0.27106  0.31317  0.62073  Biso   1.000  C
  C6741    1.0000 0.27109  0.31313  0.62073  Biso   1.000  C
  C6742    1.0000 0.27411  0.30648  0.76964  Biso   1.000  C
  C6743    1.0000 0.27408  0.30648  0.76964  Biso   1.000  C
  C6744    1.0000 0.27410  0.30644  0.76964  Biso   1.000  C
  C6745    1.0000 0.31259  0.23027  0.59315  Biso   1.000  C
  C6746    1.0000 0.31258  0.23025  0.59312  Biso   1.000  C
  C6747    1.0000 0.31258  0.23023  0.59315  Biso   1.000  C
  C6748    1.0000 0.31254  0.23025  0.59312  Biso   1.000  C
  C6749    1.0000 0.31720  0.22469  0.74644  Biso   1.000  C
  C6750    1.0000 0.31719  0.22465  0.74644  Biso   1.000  C
  C6751    1.0000 0.31717  0.22469  0.74644  Biso   1.000  C
  C6752    1.0000 0.39805  0.77698  0.84117  Biso   1.000  C
  C6753    1.0000 0.39801  0.77698  0.84117  Biso   1.000  C
  C6754    1.0000 0.41159  0.84920  0.93818  Biso   1.000  C
  C6755    1.0000 0.41154  0.84918  0.93814  Biso   1.000  C
  C6756    1.0000 0.41156  0.84920  0.93818  Biso   1.000  C
  C6757    1.0000 0.73019  0.80694  0.35013  Biso   1.000  C
  C6758    1.0000 0.73018  0.80692  0.35009  Biso   1.000  C
  C6759    1.0000 0.73021  0.80692  0.35009  Biso   1.000  C
  C6760    1.0000 0.73023  0.80694  0.35013  Biso   1.000  C
  C6761    1.0000 0.77448  0.73003  0.32921  Biso   1.000  C
  C6762    1.0000 0.77452  0.73003  0.32921  Biso   1.000  C
  C6763    1.0000 0.53230  0.19909  0.02408  Biso   1.000  C
  C6764    1.0000 0.53234  0.19909  0.02408  Biso   1.000  C
  C6765    1.0000 0.69033  0.18777  0.08039  Biso   1.000  C
  C6766    1.0000 0.69029  0.18777  0.08039  Biso   1.000  C
  C6767    1.0000 0.69030  0.18781  0.08039  Biso   1.000  C
  C6768    1.0000 0.69034  0.18781  0.08039  Biso   1.000  C
  C6769    1.0000 0.54574  0.27008  0.12508  Biso   1.000  C
  C6770    1.0000 0.54570  0.27008  0.12508  Biso   1.000  C
  C6771    1.0000 0.54571  0.27011  0.12508  Biso   1.000  C
  C6772    1.0000 0.54575  0.27011  0.12508  Biso   1.000  C
  C6773    1.0000 0.70133  0.26220  0.17930  Biso   1.000  C
  C6774    1.0000 0.70136  0.26220  0.17930  Biso   1.000  C
  C6775    1.0000 0.39013  0.90104  0.50852  Biso   1.000  C
  C6776    1.0000 0.39009  0.90104  0.50852  Biso   1.000  C
  C6777    1.0000 0.24362  0.92263  0.43641  Biso   1.000  C
  C6778    1.0000 0.24358  0.92263  0.43641  Biso   1.000  C
  C6779    1.0000 0.44497  0.01472  0.54981  Biso   1.000  C
  C6780    1.0000 0.44493  0.01472  0.54981  Biso   1.000  C
  C6781    1.0000 0.30196  0.03542  0.47661  Biso   1.000  C
  C6782    1.0000 0.53012  0.92406  0.42244  Biso   1.000  C
  C6783    1.0000 0.53008  0.92406  0.42244  Biso   1.000  C
  C6784    1.0000 0.54265  0.01466  0.42314  Biso   1.000  C
  C6785    1.0000 0.54264  0.01462  0.42314  Biso   1.000  C
  C6786    1.0000 0.54268  0.01466  0.42314  Biso   1.000  C
  H4516    1.0000 0.57215  0.95917  0.59966  Biso   1.000  H
  H4517    1.0000 0.57211  0.95915  0.59962  Biso   1.000  H
  H4518    1.0000 0.57212  0.95917  0.59966  Biso   1.000  H
  H4519    1.0000 0.57214  0.95915  0.59962  Biso   1.000  H
  C6787    1.0000 0.59497  0.03318  0.66205  Biso   1.000  C
  C6788    1.0000 0.59496  0.03314  0.66205  Biso   1.000  C
  C6789    1.0000 0.59501  0.03318  0.66205  Biso   1.000  C
  C6790    1.0000 0.57005  0.07146  0.44382  Biso   1.000  C
  C6791    1.0000 0.64147  0.15967  0.50993  Biso   1.000  C
  C6792    1.0000 0.57004  0.07142  0.44382  Biso   1.000  C
  C6793    1.0000 0.64146  0.15964  0.50993  Biso   1.000  C
  C6794    1.0000 0.57008  0.07146  0.44382  Biso   1.000  C
  C6795    1.0000 0.64150  0.15967  0.50993  Biso   1.000  C
  C6796    1.0000 0.62278  0.08988  0.68134  Biso   1.000  C
  H4520    1.0000 0.66488  0.14816  0.66414  Biso   1.000  H
  C6797    1.0000 0.62277  0.08984  0.68134  Biso   1.000  C
  C6798    1.0000 0.62281  0.08988  0.68134  Biso   1.000  C
  C6799    1.0000 0.30171  0.31137  0.58843  Biso   1.000  C
  C6800    1.0000 0.25150  0.35958  0.63583  Biso   1.000  C
  C6801    1.0000 0.30167  0.31137  0.58843  Biso   1.000  C
  C6802    1.0000 0.25149  0.35954  0.63583  Biso   1.000  C
  C6803    1.0000 0.30166  0.31133  0.58843  Biso   1.000  C
  C6804    1.0000 0.25146  0.35958  0.63583  Biso   1.000  C
  C6805    1.0000 0.30170  0.31133  0.58843  Biso   1.000  C
  H4521    1.0000 0.25972  0.33389  0.77734  Biso   1.000  H
  C6806    1.0000 0.30711  0.30277  0.80925  Biso   1.000  C
  H4522    1.0000 0.25968  0.33385  0.77734  Biso   1.000  H
  H4523    1.0000 0.25969  0.33389  0.77734  Biso   1.000  H
  C6807    1.0000 0.30708  0.30277  0.80925  Biso   1.000  C
  H4524    1.0000 0.25971  0.33385  0.77734  Biso   1.000  H
  C6808    1.0000 0.32238  0.26998  0.57464  Biso   1.000  C
  C6809    1.0000 0.33411  0.18457  0.57735  Biso   1.000  C
  C6810    1.0000 0.32237  0.26994  0.57464  Biso   1.000  C
  C6811    1.0000 0.33406  0.18455  0.57731  Biso   1.000  C
  C6812    1.0000 0.33406  0.18453  0.57735  Biso   1.000  C
  C6813    1.0000 0.33407  0.18457  0.57735  Biso   1.000  C
  C6814    1.0000 0.33410  0.18455  0.57731  Biso   1.000  C
  C6815    1.0000 0.33410  0.18453  0.57735  Biso   1.000  C
  C6816    1.0000 0.32871  0.26187  0.79775  Biso   1.000  C
  H4525    1.0000 0.33160  0.19729  0.73877  Biso   1.000  H
  H4526    1.0000 0.33159  0.19727  0.73873  Biso   1.000  H
  H4527    1.0000 0.33160  0.19725  0.73877  Biso   1.000  H
  C6817    1.0000 0.32868  0.26187  0.79775  Biso   1.000  C
  H4528    1.0000 0.33156  0.19727  0.73873  Biso   1.000  H
  C6818    1.0000 0.42618  0.83803  0.85557  Biso   1.000  C
  C6819    1.0000 0.42612  0.83798  0.85553  Biso   1.000  C
  C6820    1.0000 0.42614  0.83803  0.85557  Biso   1.000  C
  C6821    1.0000 0.42613  0.83801  0.85553  Biso   1.000  C
  C6822    1.0000 0.42616  0.83798  0.85553  Biso   1.000  C
  C6823    1.0000 0.34875  0.77497  0.85507  Biso   1.000  C
  H4529    1.0000 0.39286  0.75088  0.80577  Biso   1.000  H
  C6824    1.0000 0.34874  0.77495  0.85503  Biso   1.000  C
  H4530    1.0000 0.39282  0.75087  0.80573  Biso   1.000  H
  C6825    1.0000 0.34876  0.77501  0.85507  Biso   1.000  C
  H4531    1.0000 0.39283  0.75088  0.80577  Biso   1.000  H
  C6826    1.0000 0.34870  0.77495  0.85503  Biso   1.000  C
  C6827    1.0000 0.34872  0.77497  0.85507  Biso   1.000  C
  H4532    1.0000 0.39285  0.75087  0.80573  Biso   1.000  H
  C6828    1.0000 0.43288  0.87291  0.90627  Biso   1.000  C
  C6829    1.0000 0.43283  0.87287  0.90627  Biso   1.000  C
  C6830    1.0000 0.43284  0.87291  0.90627  Biso   1.000  C
  C6831    1.0000 0.43287  0.87287  0.90627  Biso   1.000  C
  C6832    1.0000 0.35417  0.81218  0.90456  Biso   1.000  C
  H4533    1.0000 0.41669  0.87590  0.97327  Biso   1.000  H
  C6833    1.0000 0.35413  0.81218  0.90456  Biso   1.000  C
  H4534    1.0000 0.41665  0.87590  0.97327  Biso   1.000  H
  C6834    1.0000 0.71831  0.76812  0.37460  Biso   1.000  C
  H4535    1.0000 0.71469  0.83552  0.35880  Biso   1.000  H
  C6835    1.0000 0.79319  0.83019  0.36721  Biso   1.000  C
  C6836    1.0000 0.71828  0.76812  0.37460  Biso   1.000  C
  H4536    1.0000 0.71470  0.83555  0.35880  Biso   1.000  H
  C6837    1.0000 0.79320  0.83023  0.36721  Biso   1.000  C
  C6838    1.0000 0.79322  0.83019  0.36721  Biso   1.000  C
  C6839    1.0000 0.73898  0.72673  0.36082  Biso   1.000  C
  H4537    1.0000 0.78937  0.70081  0.32069  Biso   1.000  H
  C6840    1.0000 0.81459  0.78919  0.35590  Biso   1.000  C
  C6841    1.0000 0.81460  0.78923  0.35590  Biso   1.000  C
  C6842    1.0000 0.73902  0.72673  0.36082  Biso   1.000  C
  H4538    1.0000 0.78941  0.70081  0.32069  Biso   1.000  H
  C6843    1.0000 0.50950  0.23897  0.03318  Biso   1.000  C
  C6844    1.0000 0.50951  0.23901  0.03318  Biso   1.000  C
  C6845    1.0000 0.50954  0.23897  0.03318  Biso   1.000  C
  H4539    1.0000 0.52794  0.17540  0.99038  Biso   1.000  H
  H4540    1.0000 0.52792  0.17539  0.99035  Biso   1.000  H
  H4541    1.0000 0.52793  0.17537  0.99038  Biso   1.000  H
  H4542    1.0000 0.52789  0.17539  0.99035  Biso   1.000  H
  C6846    1.0000 0.74024  0.22490  0.11478  Biso   1.000  C
  C6847    1.0000 0.68491  0.14699  0.02698  Biso   1.000  C
  C6848    1.0000 0.74020  0.22490  0.11478  Biso   1.000  C
  C6849    1.0000 0.68495  0.14699  0.02698  Biso   1.000  C
  C6850    1.0000 0.51623  0.27450  0.08368  Biso   1.000  C
  C6851    1.0000 0.51622  0.27446  0.08368  Biso   1.000  C
  H4543    1.0000 0.55025  0.29389  0.15881  Biso   1.000  H
  H4544    1.0000 0.55021  0.29387  0.15877  Biso   1.000  H
  H4545    1.0000 0.55023  0.29393  0.15881  Biso   1.000  H
  H4546    1.0000 0.55024  0.29387  0.15877  Biso   1.000  H
  H4547    1.0000 0.55026  0.29393  0.15881  Biso   1.000  H
  C6852    1.0000 0.74575  0.26211  0.16419  Biso   1.000  C
  C6853    1.0000 0.70876  0.29642  0.23561  Biso   1.000  C
  C6854    1.0000 0.74570  0.26207  0.16419  Biso   1.000  C
  C6855    1.0000 0.70872  0.29639  0.23561  Biso   1.000  C
  C6856    1.0000 0.70873  0.29642  0.23561  Biso   1.000  C
  C6857    1.0000 0.74574  0.26207  0.16419  Biso   1.000  C
  C6858    1.0000 0.70875  0.29639  0.23561  Biso   1.000  C
  C6859    1.0000 0.74571  0.26211  0.16419  Biso   1.000  C
  C6860    1.0000 0.43015  0.92862  0.55624  Biso   1.000  C
  C6861    1.0000 0.35873  0.84041  0.49013  Biso   1.000  C
  C6862    1.0000 0.43011  0.92864  0.55620  Biso   1.000  C
  C6863    1.0000 0.35869  0.84043  0.49009  Biso   1.000  C
  C6864    1.0000 0.43012  0.92866  0.55624  Biso   1.000  C
  C6865    1.0000 0.35870  0.84045  0.49013  Biso   1.000  C
  C6866    1.0000 0.43010  0.92860  0.55620  Biso   1.000  C
  C6867    1.0000 0.43011  0.92862  0.55624  Biso   1.000  C
  C6868    1.0000 0.35869  0.84041  0.49013  Biso   1.000  C
  C6869    1.0000 0.43014  0.92864  0.55620  Biso   1.000  C
  C6870    1.0000 0.35872  0.84043  0.49009  Biso   1.000  C
  C6871    1.0000 0.43016  0.92866  0.55624  Biso   1.000  C
  C6872    1.0000 0.35874  0.84045  0.49013  Biso   1.000  C
  H4548    1.0000 0.22411  0.88481  0.42301  Biso   1.000  H
  C6873    1.0000 0.21885  0.96074  0.44853  Biso   1.000  C
  H4549    1.0000 0.22412  0.88485  0.42301  Biso   1.000  H
  C6874    1.0000 0.21881  0.96076  0.44849  Biso   1.000  C
  C6875    1.0000 0.21881  0.96074  0.44853  Biso   1.000  C
  H4550    1.0000 0.22408  0.88481  0.42301  Biso   1.000  H
  C6876    1.0000 0.21880  0.96072  0.44849  Biso   1.000  C
  C6877    1.0000 0.45755  0.98542  0.57692  Biso   1.000  C
  C6878    1.0000 0.45752  0.98546  0.57692  Biso   1.000  C
  C6879    1.0000 0.45751  0.98542  0.57692  Biso   1.000  C
  C6880    1.0000 0.45756  0.98546  0.57692  Biso   1.000  C
  C6881    1.0000 0.47008  0.07602  0.57761  Biso   1.000  C
  C6882    1.0000 0.47004  0.07602  0.57761  Biso   1.000  C
  C6883    1.0000 0.47005  0.07606  0.57761  Biso   1.000  C
  C6884    1.0000 0.47009  0.07606  0.57761  Biso   1.000  C
  C6885    1.0000 0.24805  0.01713  0.46852  Biso   1.000  C
  H4551    1.0000 0.32158  0.07313  0.49001  Biso   1.000  H
  C6886    1.0000 0.24804  0.01710  0.46852  Biso   1.000  C
  H4552    1.0000 0.32154  0.07313  0.49001  Biso   1.000  H
  C6887    1.0000 0.24808  0.01713  0.46852  Biso   1.000  C
  H4553    1.0000 0.51452  0.91246  0.38573  Biso   1.000  H
  H4554    1.0000 0.55630  0.90763  0.42682  Biso   1.000  H
  C6888    1.0000 0.48783  0.90517  0.44425  Biso   1.000  C
  H4555    1.0000 0.51451  0.91242  0.38573  Biso   1.000  H
  C6889    1.0000 0.48780  0.90511  0.44421  Biso   1.000  C
  H4556    1.0000 0.55631  0.90767  0.42682  Biso   1.000  H
  H4557    1.0000 0.51448  0.91246  0.38573  Biso   1.000  H
  H4558    1.0000 0.55627  0.90763  0.42682  Biso   1.000  H
  C6890    1.0000 0.48778  0.90515  0.44421  Biso   1.000  C
  C6891    1.0000 0.48779  0.90517  0.44425  Biso   1.000  C
  C6892    1.0000 0.48781  0.90515  0.44421  Biso   1.000  C
  H4559    1.0000 0.51602  0.99614  0.39123  Biso   1.000  H
  H4560    1.0000 0.51603  0.99617  0.39123  Biso   1.000  H
  H4561    1.0000 0.51598  0.99614  0.39123  Biso   1.000  H
  O973     1.0000 0.57710  0.02099  0.69807  Biso   1.000  O
  O974     1.0000 0.57704  0.02094  0.69803  Biso   1.000  O
  O975     1.0000 0.57706  0.02096  0.69807  Biso   1.000  O
  O976     1.0000 0.57709  0.02097  0.69803  Biso   1.000  O
  O977     1.0000 0.57708  0.02094  0.69803  Biso   1.000  O
  O978     1.0000 0.57709  0.02096  0.69807  Biso   1.000  O
  O979     1.0000 0.57705  0.02097  0.69803  Biso   1.000  O
  H4562    1.0000 0.56175  0.09104  0.42573  Biso   1.000  H
  H4563    1.0000 0.56176  0.09107  0.42573  Biso   1.000  H
  H4564    1.0000 0.67897  0.16665  0.52143  Biso   1.000  H
  H4565    1.0000 0.63427  0.16976  0.48173  Biso   1.000  H
  C6893    1.0000 0.62619  0.19525  0.55543  Biso   1.000  C
  H4566    1.0000 0.63424  0.16976  0.48173  Biso   1.000  H
  C6894    1.0000 0.62615  0.19525  0.55543  Biso   1.000  C
  H4567    1.0000 0.67896  0.16662  0.52143  Biso   1.000  H
  H4568    1.0000 0.63426  0.16973  0.48173  Biso   1.000  H
  C6895    1.0000 0.62614  0.19522  0.55543  Biso   1.000  C
  H4569    1.0000 0.67900  0.16665  0.52143  Biso   1.000  H
  C6896    1.0000 0.62618  0.19522  0.55543  Biso   1.000  C
  O980     1.0000 0.62130  0.11328  0.73044  Biso   1.000  O
  O981     1.0000 0.62127  0.11328  0.73044  Biso   1.000  O
  O982     1.0000 0.62126  0.11324  0.73044  Biso   1.000  O
  O983     1.0000 0.62129  0.11324  0.73044  Biso   1.000  O
  H4570    1.0000 0.30831  0.33797  0.57604  Biso   1.000  H
  H4571    1.0000 0.30827  0.33797  0.57604  Biso   1.000  H
  H4572    1.0000 0.30826  0.33793  0.57604  Biso   1.000  H
  H4573    1.0000 0.30830  0.33793  0.57604  Biso   1.000  H
  H4574    1.0000 0.21511  0.34576  0.63463  Biso   1.000  H
  H4575    1.0000 0.25280  0.37599  0.61186  Biso   1.000  H
  C6897    1.0000 0.28653  0.40377  0.69125  Biso   1.000  C
  H4576    1.0000 0.21507  0.34576  0.63463  Biso   1.000  H
  H4577    1.0000 0.25278  0.37594  0.61182  Biso   1.000  H
  C6898    1.0000 0.28649  0.40377  0.69125  Biso   1.000  C
  H4578    1.0000 0.25279  0.37596  0.61186  Biso   1.000  H
  C6899    1.0000 0.28648  0.40374  0.69125  Biso   1.000  C
  H4579    1.0000 0.25275  0.37598  0.61182  Biso   1.000  H
  C6900    1.0000 0.28652  0.40374  0.69125  Biso   1.000  C
  H4580    1.0000 0.25279  0.37598  0.61182  Biso   1.000  H
  O984     1.0000 0.32362  0.33399  0.86196  Biso   1.000  O
  O985     1.0000 0.32361  0.33395  0.86196  Biso   1.000  O
  O986     1.0000 0.32358  0.33399  0.86196  Biso   1.000  O
  H4581    1.0000 0.34288  0.26878  0.55303  Biso   1.000  H
  H4582    1.0000 0.34287  0.26874  0.55303  Biso   1.000  H
  H4583    1.0000 0.34400  0.18198  0.54684  Biso   1.000  H
  H4584    1.0000 0.30648  0.14948  0.56814  Biso   1.000  H
  C6901    1.0000 0.38230  0.19408  0.62034  Biso   1.000  C
  H4585    1.0000 0.34396  0.18194  0.54684  Biso   1.000  H
  H4586    1.0000 0.30647  0.14944  0.56814  Biso   1.000  H
  C6902    1.0000 0.38226  0.19405  0.62034  Biso   1.000  C
  H4587    1.0000 0.34397  0.18198  0.54684  Biso   1.000  H
  H4588    1.0000 0.30644  0.14948  0.56814  Biso   1.000  H
  C6903    1.0000 0.38227  0.19408  0.62034  Biso   1.000  C
  H4589    1.0000 0.34399  0.18194  0.54684  Biso   1.000  H
  C6904    1.0000 0.38229  0.19405  0.62034  Biso   1.000  C
  O987     1.0000 0.35933  0.26638  0.84275  Biso   1.000  O
  O988     1.0000 0.35929  0.26638  0.84275  Biso   1.000  O
  C6905    1.0000 0.44498  0.86019  0.82424  Biso   1.000  C
  C6906    1.0000 0.44494  0.86019  0.82424  Biso   1.000  C
  C6907    1.0000 0.29887  0.73788  0.82076  Biso   1.000  C
  C6908    1.0000 0.29883  0.73788  0.82076  Biso   1.000  C
  C6909    1.0000 0.45847  0.93000  0.92567  Biso   1.000  C
  C6910    1.0000 0.45846  0.92996  0.92567  Biso   1.000  C
  C6911    1.0000 0.45843  0.93000  0.92567  Biso   1.000  C
  C6912    1.0000 0.30987  0.81231  0.91967  Biso   1.000  C
  C6913    1.0000 0.30986  0.81227  0.91967  Biso   1.000  C
  C6914    1.0000 0.30983  0.81231  0.91967  Biso   1.000  C
  C6915    1.0000 0.68760  0.76981  0.40690  Biso   1.000  C
  C6916    1.0000 0.68758  0.76985  0.40690  Biso   1.000  C
  C6917    1.0000 0.68757  0.76981  0.40690  Biso   1.000  C
  C6918    1.0000 0.68761  0.76985  0.40690  Biso   1.000  C
  C6919    1.0000 0.82601  0.88583  0.38913  Biso   1.000  C
  C6920    1.0000 0.82599  0.88581  0.38909  Biso   1.000  C
  C6921    1.0000 0.82604  0.88583  0.38913  Biso   1.000  C
  C6922    1.0000 0.72909  0.68691  0.37933  Biso   1.000  C
  C6923    1.0000 0.72909  0.68693  0.37929  Biso   1.000  C
  C6924    1.0000 0.72908  0.68689  0.37929  Biso   1.000  C
  C6925    1.0000 0.86890  0.80370  0.36662  Biso   1.000  C
  C6926    1.0000 0.86890  0.80372  0.36659  Biso   1.000  C
  C6927    1.0000 0.86891  0.80374  0.36662  Biso   1.000  C
  O989     1.0000 0.47964  0.24859  0.99677  Biso   1.000  O
  O990     1.0000 0.47961  0.24859  0.99677  Biso   1.000  O
  H4590    1.0000 0.76994  0.22482  0.10471  Biso   1.000  H
  H4591    1.0000 0.76992  0.22476  0.10467  Biso   1.000  H
  H4592    1.0000 0.76993  0.22480  0.10467  Biso   1.000  H
  H4593    1.0000 0.71702  0.15928  0.01920  Biso   1.000  H
  H4594    1.0000 0.65593  0.14578  0.00158  Biso   1.000  H
  C6928    1.0000 0.67451  0.08788  0.02319  Biso   1.000  C
  H4595    1.0000 0.65589  0.14578  0.00158  Biso   1.000  H
  H4596    1.0000 0.71703  0.15931  0.01920  Biso   1.000  H
  H4597    1.0000 0.71705  0.15928  0.01920  Biso   1.000  H
  C6929    1.0000 0.67455  0.08788  0.02319  Biso   1.000  C
  O991     1.0000 0.49024  0.30948  0.08198  Biso   1.000  O
  O992     1.0000 0.49020  0.30948  0.08198  Biso   1.000  O
  O993     1.0000 0.49021  0.30951  0.08198  Biso   1.000  O
  O994     1.0000 0.49025  0.30951  0.08198  Biso   1.000  O
  H4598    1.0000 0.77904  0.28691  0.18720  Biso   1.000  H
  H4599    1.0000 0.77907  0.28691  0.18720  Biso   1.000  H
  H4600    1.0000 0.74557  0.31010  0.25652  Biso   1.000  H
  H4601    1.0000 0.68746  0.27411  0.24831  Biso   1.000  H
  C6930    1.0000 0.69145  0.34471  0.23801  Biso   1.000  C
  H4602    1.0000 0.74552  0.31008  0.25648  Biso   1.000  H
  H4603    1.0000 0.68743  0.27411  0.24831  Biso   1.000  H
  H4604    1.0000 0.74554  0.31014  0.25652  Biso   1.000  H
  H4605    1.0000 0.74556  0.31008  0.25648  Biso   1.000  H
  H4606    1.0000 0.74558  0.31014  0.25652  Biso   1.000  H
  H4607    1.0000 0.43844  0.90905  0.57432  Biso   1.000  H
  H4608    1.0000 0.43840  0.90905  0.57432  Biso   1.000  H
  H4609    1.0000 0.32123  0.83343  0.47863  Biso   1.000  H
  H4610    1.0000 0.36592  0.83032  0.51832  Biso   1.000  H
  C6931    1.0000 0.37401  0.80483  0.44462  Biso   1.000  C
  H4611    1.0000 0.32120  0.83346  0.47863  Biso   1.000  H
  H4612    1.0000 0.36593  0.83036  0.51832  Biso   1.000  H
  C6932    1.0000 0.37402  0.80486  0.44462  Biso   1.000  C
  H4613    1.0000 0.32119  0.83343  0.47863  Biso   1.000  H
  H4614    1.0000 0.36588  0.83032  0.51832  Biso   1.000  H
  H4615    1.0000 0.32124  0.83346  0.47863  Biso   1.000  H
  O995     1.0000 0.16592  0.94963  0.44222  Biso   1.000  O
  O996     1.0000 0.16593  0.94966  0.44222  Biso   1.000  O
  O997     1.0000 0.16589  0.94963  0.44222  Biso   1.000  O
  H4616    1.0000 0.48418  0.00395  0.60883  Biso   1.000  H
  H4617    1.0000 0.48417  0.00391  0.60883  Biso   1.000  H
  H4618    1.0000 0.48567  0.08762  0.61433  Biso   1.000  H
  H4619    1.0000 0.44389  0.09245  0.57324  Biso   1.000  H
  C6933    1.0000 0.51237  0.09491  0.55581  Biso   1.000  C
  H4620    1.0000 0.48564  0.08762  0.61433  Biso   1.000  H
  H4621    1.0000 0.44383  0.09240  0.57320  Biso   1.000  H
  C6934    1.0000 0.51233  0.09491  0.55581  Biso   1.000  C
  H4622    1.0000 0.48568  0.08766  0.61433  Biso   1.000  H
  H4623    1.0000 0.44385  0.09245  0.57324  Biso   1.000  H
  C6935    1.0000 0.51238  0.09495  0.55581  Biso   1.000  C
  H4624    1.0000 0.44388  0.09243  0.57320  Biso   1.000  H
  H4625    1.0000 0.44387  0.09240  0.57320  Biso   1.000  H
  H4626    1.0000 0.44384  0.09243  0.57320  Biso   1.000  H
  O998     1.0000 0.21388  0.04543  0.47793  Biso   1.000  O
  O999     1.0000 0.21383  0.04541  0.47789  Biso   1.000  O
  O1000    1.0000 0.21384  0.04543  0.47793  Biso   1.000  O
  O1001    1.0000 0.21386  0.04541  0.47789  Biso   1.000  O
  H4627    1.0000 0.50393  0.91354  0.47972  Biso   1.000  H
  H4628    1.0000 0.46382  0.92415  0.44243  Biso   1.000  H
  H4629    1.0000 0.46892  0.86583  0.42442  Biso   1.000  H
  H4630    1.0000 0.50389  0.91354  0.47972  Biso   1.000  H
  H4631    1.0000 0.46888  0.86583  0.42442  Biso   1.000  H
  H4632    1.0000 0.50390  0.91358  0.47972  Biso   1.000  H
  H4633    1.0000 0.46889  0.86586  0.42442  Biso   1.000  H
  H4634    1.0000 0.46378  0.92415  0.44243  Biso   1.000  H
  H4635    1.0000 0.50394  0.91358  0.47972  Biso   1.000  H
  H4636    1.0000 0.46893  0.86586  0.42442  Biso   1.000  H
  B530     1.0000 0.59320  0.07367  0.74295  Biso   1.000  B
  B531     1.0000 0.59316  0.07367  0.74295  Biso   1.000  B
  B532     1.0000 0.59315  0.07363  0.74295  Biso   1.000  B
  B533     1.0000 0.59319  0.07363  0.74295  Biso   1.000  B
  H4637    1.0000 0.64988  0.20236  0.58785  Biso   1.000  H
  H4638    1.0000 0.62846  0.22986  0.55443  Biso   1.000  H
  H4639    1.0000 0.59068  0.17546  0.55226  Biso   1.000  H
  H4640    1.0000 0.59066  0.17545  0.55222  Biso   1.000  H
  H4641    1.0000 0.62845  0.22982  0.55443  Biso   1.000  H
  H4642    1.0000 0.59067  0.17543  0.55226  Biso   1.000  H
  H4643    1.0000 0.62850  0.22986  0.55443  Biso   1.000  H
  H4644    1.0000 0.32101  0.42187  0.69094  Biso   1.000  H
  H4645    1.0000 0.28961  0.38607  0.71375  Biso   1.000  H
  H4646    1.0000 0.27084  0.43069  0.70357  Biso   1.000  H
  H4647    1.0000 0.27079  0.43067  0.70353  Biso   1.000  H
  H4648    1.0000 0.32100  0.42184  0.69094  Biso   1.000  H
  H4649    1.0000 0.27079  0.43065  0.70357  Biso   1.000  H
  H4650    1.0000 0.32097  0.42187  0.69094  Biso   1.000  H
  H4651    1.0000 0.28958  0.38607  0.71375  Biso   1.000  H
  H4652    1.0000 0.27080  0.43069  0.70357  Biso   1.000  H
  H4653    1.0000 0.27082  0.43067  0.70353  Biso   1.000  H
  H4654    1.0000 0.27083  0.43065  0.70357  Biso   1.000  H
  B534     1.0000 0.35623  0.31050  0.88396  Biso   1.000  B
  B535     1.0000 0.35622  0.31046  0.88396  Biso   1.000  B
  B536     1.0000 0.35619  0.31050  0.88396  Biso   1.000  B
  H4655    1.0000 0.41028  0.18985  0.60655  Biso   1.000  H
  H4656    1.0000 0.37281  0.16737  0.63366  Biso   1.000  H
  H4657    1.0000 0.39399  0.23077  0.64784  Biso   1.000  H
  H4658    1.0000 0.37276  0.16735  0.63362  Biso   1.000  H
  H4659    1.0000 0.37276  0.16733  0.63366  Biso   1.000  H
  H4660    1.0000 0.39398  0.23073  0.64784  Biso   1.000  H
  H4661    1.0000 0.41029  0.18989  0.60655  Biso   1.000  H
  H4662    1.0000 0.39396  0.23077  0.64784  Biso   1.000  H
  H4663    1.0000 0.37277  0.16737  0.63366  Biso   1.000  H
  H4664    1.0000 0.37280  0.16735  0.63362  Biso   1.000  H
  H4665    1.0000 0.37280  0.16733  0.63366  Biso   1.000  H
  C6936    1.0000 0.47054  0.91717  0.84365  Biso   1.000  C
  C6937    1.0000 0.47055  0.91720  0.84365  Biso   1.000  C
  C6938    1.0000 0.47058  0.91720  0.84365  Biso   1.000  C
  H4666    1.0000 0.44043  0.83677  0.79024  Biso   1.000  H
  C6939    1.0000 0.25445  0.73797  0.83586  Biso   1.000  C
  C6940    1.0000 0.29143  0.70366  0.76445  Biso   1.000  C
  C6941    1.0000 0.25446  0.73801  0.83586  Biso   1.000  C
  C6942    1.0000 0.29144  0.70369  0.76445  Biso   1.000  C
  C6943    1.0000 0.25441  0.73797  0.83586  Biso   1.000  C
  C6944    1.0000 0.29139  0.70366  0.76445  Biso   1.000  C
  C6945    1.0000 0.47730  0.95210  0.89438  Biso   1.000  C
  C6946    1.0000 0.47724  0.95204  0.89434  Biso   1.000  C
  C6947    1.0000 0.47726  0.95210  0.89438  Biso   1.000  C
  C6948    1.0000 0.47725  0.95208  0.89434  Biso   1.000  C
  H4667    1.0000 0.46298  0.95331  0.95967  Biso   1.000  H
  H4668    1.0000 0.46297  0.95327  0.95967  Biso   1.000  H
  H4669    1.0000 0.46295  0.95331  0.95967  Biso   1.000  H
  C6949    1.0000 0.25995  0.77518  0.88528  Biso   1.000  C
  C6950    1.0000 0.31528  0.85309  0.97307  Biso   1.000  C
  C6951    1.0000 0.25994  0.77516  0.88524  Biso   1.000  C
  C6952    1.0000 0.31524  0.85309  0.97307  Biso   1.000  C
  C6953    1.0000 0.25996  0.77522  0.88528  Biso   1.000  C
  C6954    1.0000 0.31525  0.85312  0.97307  Biso   1.000  C
  C6955    1.0000 0.25991  0.77516  0.88524  Biso   1.000  C
  C6956    1.0000 0.31529  0.85312  0.97307  Biso   1.000  C
  C6957    1.0000 0.67781  0.73010  0.42541  Biso   1.000  C
  C6958    1.0000 0.66608  0.81551  0.42270  Biso   1.000  C
  C6959    1.0000 0.67779  0.73014  0.42541  Biso   1.000  C
  C6960    1.0000 0.66609  0.81555  0.42270  Biso   1.000  C
  C6961    1.0000 0.66612  0.81551  0.42270  Biso   1.000  C
  C6962    1.0000 0.67782  0.73014  0.42541  Biso   1.000  C
  C6963    1.0000 0.67778  0.73010  0.42541  Biso   1.000  C
  H4670    1.0000 0.81160  0.91321  0.39660  Biso   1.000  H
  C6964    1.0000 0.88020  0.90032  0.39981  Biso   1.000  C
  H4671    1.0000 0.81161  0.91325  0.39660  Biso   1.000  H
  C6965    1.0000 0.88021  0.90036  0.39981  Biso   1.000  C
  H4672    1.0000 0.81163  0.91321  0.39660  Biso   1.000  H
  C6966    1.0000 0.88024  0.90032  0.39981  Biso   1.000  C
  C6967    1.0000 0.69848  0.68871  0.41163  Biso   1.000  C
  C6968    1.0000 0.74869  0.64050  0.36422  Biso   1.000  C
  C6969    1.0000 0.69848  0.68873  0.41159  Biso   1.000  C
  C6970    1.0000 0.74866  0.64052  0.36418  Biso   1.000  C
  C6971    1.0000 0.69849  0.68875  0.41163  Biso   1.000  C
  C6972    1.0000 0.74867  0.64054  0.36422  Biso   1.000  C
  C6973    1.0000 0.69851  0.68869  0.41159  Biso   1.000  C
  C6974    1.0000 0.74868  0.64048  0.36418  Biso   1.000  C
  C6975    1.0000 0.69852  0.68871  0.41163  Biso   1.000  C
  C6976    1.0000 0.74869  0.64052  0.36418  Biso   1.000  C
  C6977    1.0000 0.74870  0.64054  0.36422  Biso   1.000  C
  C6978    1.0000 0.69847  0.68869  0.41159  Biso   1.000  C
  C6979    1.0000 0.74865  0.64048  0.36418  Biso   1.000  C
  C6980    1.0000 0.90170  0.85932  0.38851  Biso   1.000  C
  H4673    1.0000 0.88319  0.77630  0.35911  Biso   1.000  H
  H4674    1.0000 0.88320  0.77634  0.35911  Biso   1.000  H
  H4675    1.0000 0.88323  0.77630  0.35911  Biso   1.000  H
  B537     1.0000 0.46873  0.29280  0.02969  Biso   1.000  B
  H4676    1.0000 0.66694  0.06229  0.98798  Biso   1.000  H
  H4677    1.0000 0.66690  0.06227  0.98794  Biso   1.000  H
  H4678    1.0000 0.66691  0.06229  0.98798  Biso   1.000  H
  H4679    1.0000 0.66693  0.06227  0.98794  Biso   1.000  H
  H4680    1.0000 0.64511  0.07727  0.03457  Biso   1.000  H
  H4681    1.0000 0.70531  0.08780  0.04460  Biso   1.000  H
  H4682    1.0000 0.70530  0.08778  0.04456  Biso   1.000  H
  H4683    1.0000 0.64512  0.07731  0.03457  Biso   1.000  H
  H4684    1.0000 0.70533  0.08778  0.04456  Biso   1.000  H
  H4685    1.0000 0.70535  0.08780  0.04460  Biso   1.000  H
  H4686    1.0000 0.70486  0.35961  0.21621  Biso   1.000  H
  H4687    1.0000 0.70508  0.37322  0.27302  Biso   1.000  H
  H4688    1.0000 0.65354  0.33181  0.22620  Biso   1.000  H
  H4689    1.0000 0.70483  0.35961  0.21621  Biso   1.000  H
  H4690    1.0000 0.70503  0.37321  0.27298  Biso   1.000  H
  H4691    1.0000 0.70505  0.37322  0.27302  Biso   1.000  H
  H4692    1.0000 0.70507  0.37321  0.27298  Biso   1.000  H
  H4693    1.0000 0.65357  0.33181  0.22620  Biso   1.000  H
  H4694    1.0000 0.35031  0.79772  0.41221  Biso   1.000  H
  H4695    1.0000 0.37173  0.77023  0.44563  Biso   1.000  H
  H4696    1.0000 0.40952  0.82462  0.44780  Biso   1.000  H
  H4697    1.0000 0.37169  0.77024  0.44559  Biso   1.000  H
  H4698    1.0000 0.40949  0.82465  0.44780  Biso   1.000  H
  H4699    1.0000 0.37170  0.77023  0.44563  Biso   1.000  H
  H4700    1.0000 0.35027  0.79772  0.41221  Biso   1.000  H
  H4701    1.0000 0.37168  0.77021  0.44559  Biso   1.000  H
  H4702    1.0000 0.40948  0.82462  0.44780  Biso   1.000  H
  H4703    1.0000 0.37173  0.77024  0.44559  Biso   1.000  H
  H4704    1.0000 0.40953  0.82465  0.44780  Biso   1.000  H
  B538     1.0000 0.16606  0.00382  0.46251  Biso   1.000  B
  B539     1.0000 0.16603  0.00382  0.46251  Biso   1.000  B
  H4705    1.0000 0.49627  0.08654  0.52033  Biso   1.000  H
  H4706    1.0000 0.53637  0.07593  0.55763  Biso   1.000  H
  H4707    1.0000 0.53127  0.13426  0.57564  Biso   1.000  H
  H4708    1.0000 0.49625  0.08652  0.52030  Biso   1.000  H
  H4709    1.0000 0.53634  0.07593  0.55763  Biso   1.000  H
  H4710    1.0000 0.53125  0.13420  0.57560  Biso   1.000  H
  H4711    1.0000 0.53130  0.13424  0.57560  Biso   1.000  H
  H4712    1.0000 0.49630  0.08654  0.52033  Biso   1.000  H
  H4713    1.0000 0.53131  0.13426  0.57564  Biso   1.000  H
  H4714    1.0000 0.53126  0.13424  0.57560  Biso   1.000  H
  C6981    1.0000 0.58501  0.08206  0.79245  Biso   1.000  C
  C6982    1.0000 0.58497  0.08206  0.79245  Biso   1.000  C
  C6983    1.0000 0.58502  0.08210  0.79245  Biso   1.000  C
  C6984    1.0000 0.58498  0.08210  0.79245  Biso   1.000  C
  C6985    1.0000 0.38323  0.33140  0.93926  Biso   1.000  C
  C6986    1.0000 0.38322  0.33136  0.93926  Biso   1.000  C
  C6987    1.0000 0.38319  0.33140  0.93926  Biso   1.000  C
  O1002    1.0000 0.49395  0.94478  0.81785  Biso   1.000  O
  O1003    1.0000 0.49392  0.94478  0.81785  Biso   1.000  O
  H4715    1.0000 0.22116  0.71317  0.81286  Biso   1.000  H
  H4716    1.0000 0.22112  0.71317  0.81286  Biso   1.000  H
  H4717    1.0000 0.31273  0.72597  0.75174  Biso   1.000  H
  H4718    1.0000 0.25462  0.68998  0.74353  Biso   1.000  H
  C6988    1.0000 0.30874  0.65538  0.76205  Biso   1.000  C
  H4719    1.0000 0.25461  0.68994  0.74353  Biso   1.000  H
  C6989    1.0000 0.30870  0.65538  0.76205  Biso   1.000  C
  H4720    1.0000 0.31269  0.72597  0.75174  Biso   1.000  H
  O1004    1.0000 0.50529  0.00369  0.90085  Biso   1.000  O
  O1005    1.0000 0.50528  0.00365  0.90085  Biso   1.000  O
  O1006    1.0000 0.50533  0.00369  0.90085  Biso   1.000  O
  H4721    1.0000 0.23025  0.77527  0.89535  Biso   1.000  H
  H4722    1.0000 0.23021  0.77527  0.89535  Biso   1.000  H
  H4723    1.0000 0.23026  0.77530  0.89535  Biso   1.000  H
  H4724    1.0000 0.28318  0.84080  0.98086  Biso   1.000  H
  H4725    1.0000 0.34426  0.85430  0.99848  Biso   1.000  H
  C6990    1.0000 0.32568  0.91220  0.97687  Biso   1.000  C
  H4726    1.0000 0.28313  0.84077  0.98086  Biso   1.000  H
  H4727    1.0000 0.34425  0.85428  0.99844  Biso   1.000  H
  C6991    1.0000 0.32565  0.91220  0.97687  Biso   1.000  C
  H4728    1.0000 0.28314  0.84080  0.98086  Biso   1.000  H
  H4729    1.0000 0.28317  0.84077  0.98086  Biso   1.000  H
  H4730    1.0000 0.65731  0.73130  0.44702  Biso   1.000  H
  H4731    1.0000 0.65729  0.73134  0.44702  Biso   1.000  H
  H4732    1.0000 0.65732  0.73134  0.44702  Biso   1.000  H
  H4733    1.0000 0.65619  0.81810  0.45322  Biso   1.000  H
  H4734    1.0000 0.69371  0.85060  0.43192  Biso   1.000  H
  C6992    1.0000 0.61789  0.80600  0.37971  Biso   1.000  C
  H4735    1.0000 0.65620  0.81814  0.45322  Biso   1.000  H
  H4736    1.0000 0.69369  0.85064  0.43192  Biso   1.000  H
  C6993    1.0000 0.61790  0.80603  0.37971  Biso   1.000  C
  H4737    1.0000 0.65623  0.81814  0.45322  Biso   1.000  H
  H4738    1.0000 0.69372  0.85064  0.43192  Biso   1.000  H
  H4739    1.0000 0.65622  0.81810  0.45322  Biso   1.000  H
  C6994    1.0000 0.61793  0.80600  0.37971  Biso   1.000  C
  O1007    1.0000 0.91880  0.95181  0.42092  Biso   1.000  O
  O1008    1.0000 0.91881  0.95185  0.42092  Biso   1.000  O
  O1009    1.0000 0.91883  0.95181  0.42092  Biso   1.000  O
  H4740    1.0000 0.69189  0.66212  0.42402  Biso   1.000  H
  H4741    1.0000 0.69190  0.66215  0.42402  Biso   1.000  H
  H4742    1.0000 0.69192  0.66212  0.42402  Biso   1.000  H
  H4743    1.0000 0.78509  0.65433  0.36542  Biso   1.000  H
  H4744    1.0000 0.74739  0.62409  0.38820  Biso   1.000  H
  C6995    1.0000 0.71367  0.59631  0.30880  Biso   1.000  C
  H4745    1.0000 0.78507  0.65431  0.36539  Biso   1.000  H
  H4746    1.0000 0.74736  0.62412  0.38820  Biso   1.000  H
  C6996    1.0000 0.71368  0.59634  0.30880  Biso   1.000  C
  H4747    1.0000 0.78512  0.65433  0.36542  Biso   1.000  H
  C6997    1.0000 0.71370  0.59631  0.30880  Biso   1.000  C
  H4748    1.0000 0.74740  0.62412  0.38820  Biso   1.000  H
  H4749    1.0000 0.74735  0.62409  0.38820  Biso   1.000  H
  O1010    1.0000 0.95481  0.88520  0.40311  Biso   1.000  O
  O1011    1.0000 0.95478  0.88524  0.40311  Biso   1.000  O
  O1012    1.0000 0.95482  0.88524  0.40311  Biso   1.000  O
  O1013    1.0000 0.95477  0.88520  0.40311  Biso   1.000  O
  C6998    1.0000 0.43502  0.32157  0.00878  Biso   1.000  C
  C6999    1.0000 0.43503  0.32161  0.00878  Biso   1.000  C
  C7000    1.0000 0.11485  0.01691  0.46081  Biso   1.000  C
  C7001    1.0000 0.11486  0.01694  0.46081  Biso   1.000  C
  C7002    1.0000 0.55479  0.03857  0.79977  Biso   1.000  C
  C7003    1.0000 0.60850  0.13529  0.83307  Biso   1.000  C
  C7004    1.0000 0.55478  0.03855  0.79973  Biso   1.000  C
  C7005    1.0000 0.60849  0.13527  0.83303  Biso   1.000  C
  C7006    1.0000 0.60849  0.13525  0.83307  Biso   1.000  C
  C7007    1.0000 0.60854  0.13529  0.83307  Biso   1.000  C
  C7008    1.0000 0.41243  0.30410  0.95615  Biso   1.000  C
  C7009    1.0000 0.37675  0.37630  0.97497  Biso   1.000  C
  C7010    1.0000 0.41242  0.30406  0.95615  Biso   1.000  C
  C7011    1.0000 0.37671  0.37630  0.97497  Biso   1.000  C
  C7012    1.0000 0.37670  0.37626  0.97497  Biso   1.000  C
  C7013    1.0000 0.41240  0.30410  0.95615  Biso   1.000  C
  C7014    1.0000 0.37674  0.37626  0.97497  Biso   1.000  C
  B540     1.0000 0.51631  0.00138  0.85766  Biso   1.000  B
  B541     1.0000 0.51627  0.00138  0.85766  Biso   1.000  B
  B542     1.0000 0.51626  0.00135  0.85766  Biso   1.000  B
  B543     1.0000 0.51630  0.00135  0.85766  Biso   1.000  B
  H4750    1.0000 0.29511  0.62686  0.72704  Biso   1.000  H
  H4751    1.0000 0.29533  0.64047  0.78385  Biso   1.000  H
  H4752    1.0000 0.34666  0.66828  0.77386  Biso   1.000  H
  H4753    1.0000 0.34662  0.66828  0.77386  Biso   1.000  H
  H4754    1.0000 0.29529  0.64047  0.78385  Biso   1.000  H
  H4755    1.0000 0.35508  0.92281  0.96548  Biso   1.000  H
  H4756    1.0000 0.29488  0.91228  0.95545  Biso   1.000  H
  H4757    1.0000 0.35506  0.92276  0.96544  Biso   1.000  H
  H4758    1.0000 0.29485  0.91228  0.95545  Biso   1.000  H
  H4759    1.0000 0.35503  0.92279  0.96544  Biso   1.000  H
  H4760    1.0000 0.35505  0.92281  0.96548  Biso   1.000  H
  H4761    1.0000 0.35507  0.92279  0.96544  Biso   1.000  H
  H4762    1.0000 0.33325  0.93779  0.01207  Biso   1.000  H
  H4763    1.0000 0.33328  0.93779  0.01207  Biso   1.000  H
  H4764    1.0000 0.58992  0.81023  0.39350  Biso   1.000  H
  H4765    1.0000 0.62738  0.83271  0.36639  Biso   1.000  H
  H4766    1.0000 0.60620  0.76931  0.35222  Biso   1.000  H
  H4767    1.0000 0.58988  0.81023  0.39350  Biso   1.000  H
  H4768    1.0000 0.62739  0.83275  0.36639  Biso   1.000  H
  H4769    1.0000 0.60617  0.76935  0.35222  Biso   1.000  H
  H4770    1.0000 0.60616  0.76931  0.35222  Biso   1.000  H
  H4771    1.0000 0.62742  0.83271  0.36639  Biso   1.000  H
  H4772    1.0000 0.60621  0.76935  0.35222  Biso   1.000  H
  B544     1.0000 0.96740  0.94180  0.42290  Biso   1.000  B
  B545     1.0000 0.96741  0.94184  0.42290  Biso   1.000  B
  B546     1.0000 0.96743  0.94180  0.42290  Biso   1.000  B
  H4773    1.0000 0.67919  0.57821  0.30911  Biso   1.000  H
  H4774    1.0000 0.71058  0.61401  0.28630  Biso   1.000  H
  H4775    1.0000 0.72936  0.56939  0.29649  Biso   1.000  H
  H4776    1.0000 0.67916  0.57824  0.30911  Biso   1.000  H
  H4777    1.0000 0.71055  0.61401  0.28630  Biso   1.000  H
  H4778    1.0000 0.72937  0.56943  0.29649  Biso   1.000  H
  H4779    1.0000 0.67915  0.57821  0.30911  Biso   1.000  H
  H4780    1.0000 0.72939  0.56939  0.29649  Biso   1.000  H
  H4781    1.0000 0.67920  0.57824  0.30911  Biso   1.000  H
  C7015    1.0000 0.42853  0.36649  0.04460  Biso   1.000  C
  C7016    1.0000 0.42852  0.36647  0.04456  Biso   1.000  C
  C7017    1.0000 0.06624  0.97444  0.44373  Biso   1.000  C
  C7018    1.0000 0.06620  0.97445  0.44369  Biso   1.000  C
  C7019    1.0000 0.06620  0.97444  0.44373  Biso   1.000  C
  C7020    1.0000 0.06619  0.97442  0.44369  Biso   1.000  C
  C7021    1.0000 0.06624  0.97445  0.44369  Biso   1.000  C
  C7022    1.0000 0.11814  0.07161  0.47762  Biso   1.000  C
  C7023    1.0000 0.11815  0.07165  0.47762  Biso   1.000  C
  C7024    1.0000 0.11818  0.07161  0.47762  Biso   1.000  C
  H4782    1.0000 0.53910  0.00298  0.77254  Biso   1.000  H
  C7025    1.0000 0.54810  0.04839  0.84756  Biso   1.000  C
  H4783    1.0000 0.53905  0.00295  0.77254  Biso   1.000  H
  C7026    1.0000 0.54809  0.04835  0.84756  Biso   1.000  C
  H4784    1.0000 0.53909  0.00295  0.77254  Biso   1.000  H
  H4785    1.0000 0.53906  0.00298  0.77254  Biso   1.000  H
  C7027    1.0000 0.60183  0.14508  0.88098  Biso   1.000  C
  H4786    1.0000 0.62872  0.16440  0.82827  Biso   1.000  H
  C7028    1.0000 0.60178  0.14506  0.88094  Biso   1.000  C
  H4787    1.0000 0.62866  0.16435  0.82823  Biso   1.000  H
  C7029    1.0000 0.60179  0.14508  0.88098  Biso   1.000  C
  H4788    1.0000 0.62867  0.16436  0.82827  Biso   1.000  H
  C7030    1.0000 0.60182  0.14506  0.88094  Biso   1.000  C
  H4789    1.0000 0.62870  0.16438  0.82823  Biso   1.000  H
  H4790    1.0000 0.62869  0.16435  0.82823  Biso   1.000  H
  H4791    1.0000 0.62871  0.16436  0.82827  Biso   1.000  H
  H4792    1.0000 0.62867  0.16438  0.82823  Biso   1.000  H
  H4793    1.0000 0.41672  0.27408  0.93225  Biso   1.000  H
  H4794    1.0000 0.41669  0.27408  0.93225  Biso   1.000  H
  H4795    1.0000 0.35726  0.39462  0.96366  Biso   1.000  H
  H4796    1.0000 0.35721  0.39458  0.96366  Biso   1.000  H
  H4797    1.0000 0.35722  0.39462  0.96366  Biso   1.000  H
  H4798    1.0000 0.35725  0.39458  0.96366  Biso   1.000  H
  C7031    1.0000 0.39935  0.39381  0.02760  Biso   1.000  C
  C7032    1.0000 0.39930  0.39379  0.02756  Biso   1.000  C
  C7033    1.0000 0.39931  0.39381  0.02760  Biso   1.000  C
  C7034    1.0000 0.39933  0.39379  0.02756  Biso   1.000  C
  C7035    1.0000 0.02083  0.98661  0.44342  Biso   1.000  C
  C7036    1.0000 0.02081  0.98665  0.44342  Biso   1.000  C
  C7037    1.0000 0.02080  0.98661  0.44342  Biso   1.000  C
  C7038    1.0000 0.02084  0.98665  0.44342  Biso   1.000  C
  H4799    1.0000 0.44375  0.37820  0.07988  Biso   1.000  H
  H4800    1.0000 0.44372  0.37820  0.07988  Biso   1.000  H
  H4801    1.0000 0.06403  0.93783  0.43250  Biso   1.000  H
  H4802    1.0000 0.06399  0.93783  0.43250  Biso   1.000  H
  C7039    1.0000 0.07274  0.08383  0.47731  Biso   1.000  C
  H4803    1.0000 0.15077  0.10004  0.48912  Biso   1.000  H
  H4804    1.0000 0.15072  0.10000  0.48912  Biso   1.000  H
  C7040    1.0000 0.07278  0.08383  0.47731  Biso   1.000  C
  H4805    1.0000 0.15076  0.10000  0.48912  Biso   1.000  H
  H4806    1.0000 0.15073  0.10004  0.48912  Biso   1.000  H
  C7041    1.0000 0.57162  0.10160  0.88814  Biso   1.000  C
  C7042    1.0000 0.57157  0.10156  0.88814  Biso   1.000  C
  C7043    1.0000 0.57161  0.10156  0.88814  Biso   1.000  C
  C7044    1.0000 0.57158  0.10160  0.88814  Biso   1.000  C
  B547     1.0000 0.62652  0.20600  0.92737  Biso   1.000  B
  B548     1.0000 0.62650  0.20598  0.92734  Biso   1.000  B
  B549     1.0000 0.62651  0.20596  0.92737  Biso   1.000  B
  B550     1.0000 0.62655  0.20600  0.92737  Biso   1.000  B
  B551     1.0000 0.39284  0.44348  0.06819  Biso   1.000  B
  B552     1.0000 0.39281  0.44348  0.06819  Biso   1.000  B
  B553     1.0000 0.39282  0.44351  0.06819  Biso   1.000  B
  B554     1.0000 0.39285  0.44351  0.06819  Biso   1.000  B
  C7045    1.0000 0.02405  0.04132  0.46023  Biso   1.000  C
  C7046    1.0000 0.02404  0.04130  0.46019  Biso   1.000  C
  C7047    1.0000 0.02406  0.04136  0.46023  Biso   1.000  C
  B555     1.0000 0.08016  0.14671  0.49690  Biso   1.000  B
  B556     1.0000 0.08012  0.14671  0.49690  Biso   1.000  B
  B557     1.0000 0.08017  0.14674  0.49690  Biso   1.000  B
  H4807    1.0000 0.56710  0.10818  0.92017  Biso   1.000  H
  H4808    1.0000 0.56713  0.10818  0.92017  Biso   1.000  H
  O1014    1.0000 0.62364  0.21530  0.97408  Biso   1.000  O
  O1015    1.0000 0.66061  0.24880  0.92246  Biso   1.000  O
  O1016    1.0000 0.62359  0.21528  0.97404  Biso   1.000  O
  O1017    1.0000 0.62359  0.21526  0.97408  Biso   1.000  O
  O1018    1.0000 0.66060  0.24876  0.92246  Biso   1.000  O
  O1019    1.0000 0.62362  0.21528  0.97404  Biso   1.000  O
  O1020    1.0000 0.66064  0.24880  0.92246  Biso   1.000  O
  O1021    1.0000 0.62363  0.21526  0.97408  Biso   1.000  O
  O1022    1.0000 0.36073  0.47220  0.05471  Biso   1.000  O
  O1023    1.0000 0.41113  0.45969  0.12028  Biso   1.000  O
  O1024    1.0000 0.36072  0.47218  0.05467  Biso   1.000  O
  O1025    1.0000 0.36077  0.47220  0.05471  Biso   1.000  O
  O1026    1.0000 0.41117  0.45969  0.12028  Biso   1.000  O
  H4809    1.0000 0.99365  0.04942  0.46011  Biso   1.000  H
  H4810    1.0000 0.99369  0.04942  0.46011  Biso   1.000  H
  O1027    1.0000 0.03437  0.16192  0.49381  Biso   1.000  O
  O1028    1.0000 0.12476  0.18754  0.50581  Biso   1.000  O
  O1029    1.0000 0.03433  0.16192  0.49381  Biso   1.000  O
  O1030    1.0000 0.12475  0.18750  0.50581  Biso   1.000  O
  O1031    1.0000 0.12480  0.18754  0.50581  Biso   1.000  O
  C7048    1.0000 0.65513  0.27169  0.00409  Biso   1.000  C
  C7049    1.0000 0.65509  0.27169  0.00409  Biso   1.000  C
  C7050    1.0000 0.67634  0.28970  0.97149  Biso   1.000  C
  C7051    1.0000 0.67629  0.28968  0.97145  Biso   1.000  C
  C7052    1.0000 0.67629  0.28966  0.97149  Biso   1.000  C
  C7053    1.0000 0.67633  0.28968  0.97145  Biso   1.000  C
  C7054    1.0000 0.67633  0.28966  0.97149  Biso   1.000  C
  C7055    1.0000 0.36225  0.50648  0.10289  Biso   1.000  C
  C7056    1.0000 0.36222  0.50648  0.10289  Biso   1.000  C
  C7057    1.0000 0.36223  0.50652  0.10289  Biso   1.000  C
  C7058    1.0000 0.36226  0.50652  0.10289  Biso   1.000  C
  C7059    1.0000 0.39234  0.49989  0.14239  Biso   1.000  C
  C7060    1.0000 0.39235  0.49993  0.14239  Biso   1.000  C
  C7061    1.0000 0.39237  0.49989  0.14239  Biso   1.000  C
  C7062    1.0000 0.05756  0.21793  0.50961  Biso   1.000  C
  C7063    1.0000 0.05755  0.21790  0.50961  Biso   1.000  C
  C7064    1.0000 0.05759  0.21793  0.50961  Biso   1.000  C
  C7065    1.0000 0.11148  0.23474  0.51724  Biso   1.000  C
  C7066    1.0000 0.11143  0.23472  0.51720  Biso   1.000  C
  C7067    1.0000 0.11144  0.23474  0.51724  Biso   1.000  C
  C7068    1.0000 0.11147  0.23472  0.51720  Biso   1.000  C
  C7069    1.0000 0.66941  0.30801  0.05618  Biso   1.000  C
  C7070    1.0000 0.66944  0.30797  0.05618  Biso   1.000  C
  C7071    1.0000 0.66945  0.30801  0.05618  Biso   1.000  C
  C7072    1.0000 0.66940  0.30797  0.05618  Biso   1.000  C
  C7073    1.0000 0.71183  0.34379  0.99077  Biso   1.000  C
  C7074    1.0000 0.71180  0.34379  0.99077  Biso   1.000  C
  C7075    1.0000 0.33723  0.54439  0.11458  Biso   1.000  C
  C7076    1.0000 0.33724  0.54442  0.11458  Biso   1.000  C
  C7077    1.0000 0.33727  0.54439  0.11458  Biso   1.000  C
  C7078    1.0000 0.39737  0.53121  0.19359  Biso   1.000  C
  C7079    1.0000 0.39733  0.53121  0.19359  Biso   1.000  C
  C7080    1.0000 0.03279  0.25594  0.51491  Biso   1.000  C
  C7081    1.0000 0.03274  0.25590  0.51491  Biso   1.000  C
  C7082    1.0000 0.03275  0.25594  0.51491  Biso   1.000  C
  C7083    1.0000 0.14059  0.28963  0.53021  Biso   1.000  C
  C7084    1.0000 0.14055  0.28963  0.53021  Biso   1.000  C
  H4811    1.0000 0.65532  0.29598  0.07810  Biso   1.000  H
  C7085    1.0000 0.70492  0.36212  0.07551  Biso   1.000  C
  H4812    1.0000 0.65536  0.29598  0.07810  Biso   1.000  H
  C7086    1.0000 0.70493  0.36206  0.07547  Biso   1.000  C
  H4813    1.0000 0.65537  0.29602  0.07810  Biso   1.000  H
  C7087    1.0000 0.70496  0.36212  0.07551  Biso   1.000  C
  C7088    1.0000 0.70494  0.36210  0.07547  Biso   1.000  C
  C7089    1.0000 0.70490  0.36206  0.07547  Biso   1.000  C
  H4814    1.0000 0.65533  0.29602  0.07810  Biso   1.000  H
  H4815    1.0000 0.72592  0.35578  0.96885  Biso   1.000  H
  H4816    1.0000 0.72595  0.35578  0.96885  Biso   1.000  H
  C7090    1.0000 0.72603  0.38000  0.04278  Biso   1.000  C
  C7091    1.0000 0.72602  0.37997  0.04278  Biso   1.000  C
  H4817    1.0000 0.31714  0.54882  0.08821  Biso   1.000  H
  C7092    1.0000 0.34237  0.57570  0.16578  Biso   1.000  C
  H4818    1.0000 0.31712  0.54877  0.08817  Biso   1.000  H
  C7093    1.0000 0.34233  0.57570  0.16578  Biso   1.000  C
  H4819    1.0000 0.31713  0.54881  0.08817  Biso   1.000  H
  H4820    1.0000 0.31718  0.54882  0.08821  Biso   1.000  H
  C7094    1.0000 0.37235  0.56911  0.20528  Biso   1.000  C
  H4821    1.0000 0.41745  0.52672  0.22000  Biso   1.000  H
  C7095    1.0000 0.37234  0.56908  0.20528  Biso   1.000  C
  H4822    1.0000 0.41748  0.52672  0.22000  Biso   1.000  H
  C7096    1.0000 0.37238  0.56911  0.20528  Biso   1.000  C
  C7097    1.0000 0.06176  0.31082  0.52793  Biso   1.000  C
  C7098    1.0000 0.06177  0.31086  0.52793  Biso   1.000  C
  C7099    1.0000 0.06179  0.31082  0.52793  Biso   1.000  C
  H4823    1.0000 0.99665  0.24461  0.50980  Biso   1.000  H
  H4824    1.0000 0.99668  0.24461  0.50980  Biso   1.000  H
  C7100    1.0000 0.11570  0.32766  0.53563  Biso   1.000  C
  C7101    1.0000 0.11564  0.32760  0.53559  Biso   1.000  C
  C7102    1.0000 0.11567  0.32766  0.53563  Biso   1.000  C
  C7103    1.0000 0.11569  0.32764  0.53559  Biso   1.000  C
  C7104    1.0000 0.11565  0.32764  0.53559  Biso   1.000  C
  H4825    1.0000 0.17658  0.30092  0.53532  Biso   1.000  H
  H4826    1.0000 0.17654  0.30092  0.53532  Biso   1.000  H
  H4827    1.0000 0.17659  0.30096  0.53532  Biso   1.000  H
  C7105    1.0000 0.72132  0.40132  0.13170  Biso   1.000  C
  C7106    1.0000 0.72135  0.40128  0.13170  Biso   1.000  C
  C7107    1.0000 0.72136  0.40132  0.13170  Biso   1.000  C
  C7108    1.0000 0.72131  0.40128  0.13170  Biso   1.000  C
  C7109    1.0000 0.76344  0.43991  0.07040  Biso   1.000  C
  C7110    1.0000 0.76347  0.43991  0.07040  Biso   1.000  C
  C7111    1.0000 0.31387  0.62053  0.18460  Biso   1.000  C
  C7112    1.0000 0.31382  0.62049  0.18460  Biso   1.000  C
  C7113    1.0000 0.31386  0.62049  0.18460  Biso   1.000  C
  C7114    1.0000 0.31383  0.62053  0.18460  Biso   1.000  C
  C7115    1.0000 0.37128  0.60162  0.25749  Biso   1.000  C
  C7116    1.0000 0.37123  0.60158  0.25749  Biso   1.000  C
  C7117    1.0000 0.37124  0.60162  0.25749  Biso   1.000  C
  C7118    1.0000 0.37127  0.60158  0.25749  Biso   1.000  C
  C7119    1.0000 0.03577  0.35434  0.52603  Biso   1.000  C
  C7120    1.0000 0.03581  0.35434  0.52603  Biso   1.000  C
  C7121    1.0000 0.14138  0.38734  0.54551  Biso   1.000  C
  C7122    1.0000 0.14137  0.38730  0.54551  Biso   1.000  C
  C7123    1.0000 0.14141  0.38734  0.54551  Biso   1.000  C
  C7124    1.0000 0.71353  0.45371  0.13201  Biso   1.000  C
  H4828    1.0000 0.70512  0.38641  0.15289  Biso   1.000  H
  C7125    1.0000 0.78023  0.41841  0.14599  Biso   1.000  C
  C7126    1.0000 0.71355  0.45369  0.13197  Biso   1.000  C
  H4829    1.0000 0.70515  0.38638  0.15289  Biso   1.000  H
  C7127    1.0000 0.78027  0.41841  0.14599  Biso   1.000  C
  C7128    1.0000 0.71356  0.45371  0.13201  Biso   1.000  C
  H4830    1.0000 0.70516  0.38641  0.15289  Biso   1.000  H
  C7129    1.0000 0.71351  0.45369  0.13197  Biso   1.000  C
  H4831    1.0000 0.70511  0.38638  0.15289  Biso   1.000  H
  C7130    1.0000 0.73602  0.47300  0.10068  Biso   1.000  C
  H4832    1.0000 0.77941  0.45461  0.04910  Biso   1.000  H
  C7131    1.0000 0.80194  0.43829  0.11458  Biso   1.000  C
  C7132    1.0000 0.73606  0.47300  0.10068  Biso   1.000  C
  H4833    1.0000 0.77945  0.45461  0.04910  Biso   1.000  H
  C7133    1.0000 0.35807  0.66981  0.22829  Biso   1.000  C
  H4834    1.0000 0.29294  0.62681  0.15788  Biso   1.000  H
  C7134    1.0000 0.28424  0.59349  0.21319  Biso   1.000  C
  C7135    1.0000 0.35804  0.66981  0.22829  Biso   1.000  C
  H4835    1.0000 0.29293  0.62677  0.15788  Biso   1.000  H
  C7136    1.0000 0.28425  0.59353  0.21319  Biso   1.000  C
  H4836    1.0000 0.29297  0.62681  0.15788  Biso   1.000  H
  C7137    1.0000 0.28427  0.59349  0.21319  Biso   1.000  C
  C7138    1.0000 0.38797  0.66249  0.26729  Biso   1.000  C
  H4837    1.0000 0.39217  0.59591  0.28472  Biso   1.000  H
  C7139    1.0000 0.31295  0.58690  0.25338  Biso   1.000  C
  C7140    1.0000 0.38793  0.66249  0.26729  Biso   1.000  C
  H4838    1.0000 0.39213  0.59589  0.28468  Biso   1.000  H
  C7141    1.0000 0.38794  0.66253  0.26729  Biso   1.000  C
  H4839    1.0000 0.39215  0.59595  0.28472  Biso   1.000  H
  H4840    1.0000 0.39216  0.59589  0.28468  Biso   1.000  H
  C7142    1.0000 0.38798  0.66253  0.26729  Biso   1.000  C
  H4841    1.0000 0.39218  0.59595  0.28472  Biso   1.000  H
  C7143    1.0000 0.06258  0.37752  0.49330  Biso   1.000  C
  C7144    1.0000 0.06254  0.37752  0.49330  Biso   1.000  C
  H4842    1.0000 0.99726  0.34232  0.51662  Biso   1.000  H
  H4843    1.0000 0.99729  0.34232  0.51662  Biso   1.000  H
  H4844    1.0000 0.99730  0.34236  0.51662  Biso   1.000  H
  H4845    1.0000 0.99727  0.34236  0.51662  Biso   1.000  H
  C7145    1.0000 0.06917  0.39852  0.58071  Biso   1.000  C
  C7146    1.0000 0.06918  0.39856  0.58071  Biso   1.000  C
  C7147    1.0000 0.06920  0.39852  0.58071  Biso   1.000  C
  C7148    1.0000 0.11649  0.39614  0.50101  Biso   1.000  C
  C7149    1.0000 0.11645  0.39610  0.50101  Biso   1.000  C
  C7150    1.0000 0.11646  0.39614  0.50101  Biso   1.000  C
  C7151    1.0000 0.12309  0.41744  0.58873  Biso   1.000  C
  H4846    1.0000 0.18000  0.39994  0.55503  Biso   1.000  H
  H4847    1.0000 0.17995  0.39992  0.55500  Biso   1.000  H
  H4848    1.0000 0.17996  0.39994  0.55503  Biso   1.000  H
  H4849    1.0000 0.17998  0.39992  0.55500  Biso   1.000  H
  C7152    1.0000 0.12312  0.41744  0.58873  Biso   1.000  C
  C7153    1.0000 0.68555  0.48101  0.15920  Biso   1.000  C
  C7154    1.0000 0.81253  0.41340  0.18530  Biso   1.000  C
  C7155    1.0000 0.81257  0.41340  0.18530  Biso   1.000  C
  C7156    1.0000 0.73044  0.51950  0.09650  Biso   1.000  C
  C7157    1.0000 0.73048  0.51950  0.09650  Biso   1.000  C
  C7158    1.0000 0.85593  0.45338  0.12268  Biso   1.000  C
  C7159    1.0000 0.85596  0.45338  0.12268  Biso   1.000  C
  C7160    1.0000 0.85597  0.45342  0.12268  Biso   1.000  C
  C7161    1.0000 0.85594  0.45342  0.12268  Biso   1.000  C
  C7162    1.0000 0.36837  0.72272  0.23119  Biso   1.000  C
  C7163    1.0000 0.36836  0.72268  0.23119  Biso   1.000  C
  C7164    1.0000 0.22967  0.57680  0.20021  Biso   1.000  C
  C7165    1.0000 0.22962  0.57678  0.20017  Biso   1.000  C
  C7166    1.0000 0.22964  0.57684  0.20021  Biso   1.000  C
  C7167    1.0000 0.22966  0.57678  0.20017  Biso   1.000  C
  C7168    1.0000 0.22968  0.57684  0.20021  Biso   1.000  C
  C7169    1.0000 0.42807  0.70802  0.30919  Biso   1.000  C
  C7170    1.0000 0.42806  0.70799  0.30919  Biso   1.000  C
  C7171    1.0000 0.42810  0.70802  0.30919  Biso   1.000  C
  C7172    1.0000 0.28717  0.56341  0.28049  Biso   1.000  C
  C7173    1.0000 0.28713  0.56341  0.28049  Biso   1.000  C
  C7174    1.0000 0.02787  0.37993  0.45372  Biso   1.000  C
  C7175    1.0000 0.04918  0.42656  0.61754  Biso   1.000  C
  C7176    1.0000 0.04916  0.42651  0.61750  Biso   1.000  C
  C7177    1.0000 0.04921  0.42655  0.61750  Biso   1.000  C
  C7178    1.0000 0.04922  0.42656  0.61754  Biso   1.000  C
  C7179    1.0000 0.04917  0.42655  0.61750  Biso   1.000  C
  C7180    1.0000 0.13567  0.41711  0.46921  Biso   1.000  C
  C7181    1.0000 0.13564  0.41711  0.46921  Biso   1.000  C
  C7182    1.0000 0.13568  0.41715  0.46921  Biso   1.000  C
  C7183    1.0000 0.13565  0.41715  0.46921  Biso   1.000  C
  C7184    1.0000 0.15710  0.46446  0.63354  Biso   1.000  C
  C7185    1.0000 0.15707  0.46441  0.63350  Biso   1.000  C
  C7186    1.0000 0.15708  0.46444  0.63350  Biso   1.000  C
  C7187    1.0000 0.15713  0.46446  0.63354  Biso   1.000  C
  C7188    1.0000 0.68004  0.52751  0.15502  Biso   1.000  C
  C7189    1.0000 0.66273  0.46029  0.19340  Biso   1.000  C
  C7190    1.0000 0.68006  0.52750  0.15498  Biso   1.000  C
  C7191    1.0000 0.66276  0.46029  0.19340  Biso   1.000  C
  C7192    1.0000 0.68007  0.52751  0.15502  Biso   1.000  C
  C7193    1.0000 0.66277  0.46033  0.19340  Biso   1.000  C
  C7194    1.0000 0.68003  0.52750  0.15498  Biso   1.000  C
  C7195    1.0000 0.66274  0.46033  0.19340  Biso   1.000  C
  H4850    1.0000 0.79806  0.40012  0.20629  Biso   1.000  H
  C7196    1.0000 0.86645  0.42849  0.19340  Biso   1.000  C
  H4851    1.0000 0.79805  0.40008  0.20629  Biso   1.000  H
  C7197    1.0000 0.86646  0.42852  0.19340  Biso   1.000  C
  C7198    1.0000 0.86642  0.42849  0.19340  Biso   1.000  C
  C7199    1.0000 0.70243  0.54669  0.12369  Biso   1.000  C
  C7200    1.0000 0.74745  0.53658  0.05800  Biso   1.000  C
  C7201    1.0000 0.70247  0.54669  0.12369  Biso   1.000  C
  C7202    1.0000 0.74743  0.53657  0.05796  Biso   1.000  C
  C7203    1.0000 0.74746  0.53662  0.05800  Biso   1.000  C
  C7204    1.0000 0.74744  0.53660  0.05796  Biso   1.000  C
  C7205    1.0000 0.88814  0.44850  0.16210  Biso   1.000  C
  H4852    1.0000 0.87043  0.46679  0.10180  Biso   1.000  H
  H4853    1.0000 0.87046  0.46679  0.10180  Biso   1.000  H
  C7206    1.0000 0.88818  0.44850  0.16210  Biso   1.000  C
  H4854    1.0000 0.87047  0.46683  0.10180  Biso   1.000  H
  H4855    1.0000 0.87044  0.46683  0.10180  Biso   1.000  H
  C7207    1.0000 0.40846  0.76821  0.27310  Biso   1.000  C
  C7208    1.0000 0.34236  0.73081  0.18739  Biso   1.000  C
  C7209    1.0000 0.40850  0.76821  0.27310  Biso   1.000  C
  H4856    1.0000 0.21046  0.58132  0.17330  Biso   1.000  H
  C7210    1.0000 0.20377  0.55342  0.22732  Biso   1.000  C
  H4857    1.0000 0.21042  0.58128  0.17330  Biso   1.000  H
  C7211    1.0000 0.20372  0.55341  0.22728  Biso   1.000  C
  H4858    1.0000 0.21043  0.58132  0.17330  Biso   1.000  H
  C7212    1.0000 0.20376  0.55341  0.22728  Biso   1.000  C
  H4859    1.0000 0.21045  0.58128  0.17330  Biso   1.000  H
  C7213    1.0000 0.43827  0.76083  0.31210  Biso   1.000  C
  C7214    1.0000 0.46290  0.70151  0.35082  Biso   1.000  C
  C7215    1.0000 0.43826  0.76079  0.31210  Biso   1.000  C
  C7216    1.0000 0.46285  0.70149  0.35078  Biso   1.000  C
  C7217    1.0000 0.46287  0.70155  0.35082  Biso   1.000  C
  C7218    1.0000 0.43830  0.76083  0.31210  Biso   1.000  C
  C7219    1.0000 0.46290  0.70153  0.35078  Biso   1.000  C
  C7220    1.0000 0.46291  0.70155  0.35082  Biso   1.000  C
  C7221    1.0000 0.46286  0.70153  0.35078  Biso   1.000  C
  C7222    1.0000 0.23246  0.54670  0.26740  Biso   1.000  C
  H4860    1.0000 0.30635  0.55903  0.30729  Biso   1.000  H
  C7223    1.0000 0.23243  0.54670  0.26740  Biso   1.000  C
  H4861    1.0000 0.30634  0.55899  0.30729  Biso   1.000  H
  C7224    1.0000 0.23244  0.54674  0.26740  Biso   1.000  C
  H4862    1.0000 0.30639  0.55903  0.30729  Biso   1.000  H
  C7225    1.0000 0.23247  0.54674  0.26740  Biso   1.000  C
  C7226    1.0000 0.04718  0.40083  0.42193  Biso   1.000  C
  C7227    1.0000 0.04713  0.40081  0.42189  Biso   1.000  C
  C7228    1.0000 0.04716  0.40081  0.42189  Biso   1.000  C
  H4863    1.0000 0.99176  0.36742  0.44853  Biso   1.000  H
  H4864    1.0000 0.99178  0.36740  0.44849  Biso   1.000  H
  H4865    1.0000 0.99181  0.36746  0.44853  Biso   1.000  H
  H4866    1.0000 0.99175  0.36740  0.44849  Biso   1.000  H
  H4867    1.0000 0.99180  0.36742  0.44853  Biso   1.000  H
  H4868    1.0000 0.99177  0.36746  0.44853  Biso   1.000  H
  C7229    1.0000 0.99201  0.40266  0.61204  Biso   1.000  C
  C7230    1.0000 0.99200  0.40264  0.61200  Biso   1.000  C
  C7231    1.0000 0.99196  0.40264  0.61200  Biso   1.000  C
  C7232    1.0000 0.08328  0.47353  0.66231  Biso   1.000  C
  C7233    1.0000 0.08329  0.47356  0.66231  Biso   1.000  C
  C7234    1.0000 0.08331  0.47353  0.66231  Biso   1.000  C
  C7235    1.0000 0.10107  0.41951  0.42960  Biso   1.000  C
  C7236    1.0000 0.10103  0.41951  0.42960  Biso   1.000  C
  H4869    1.0000 0.17179  0.42962  0.47440  Biso   1.000  H
  H4870    1.0000 0.17175  0.42962  0.47440  Biso   1.000  H
  C7237    1.0000 0.13720  0.49245  0.67033  Biso   1.000  C
  C7238    1.0000 0.21519  0.48906  0.64434  Biso   1.000  C
  C7239    1.0000 0.21517  0.48900  0.64430  Biso   1.000  C
  C7240    1.0000 0.21521  0.48904  0.64430  Biso   1.000  C
  C7241    1.0000 0.13723  0.49245  0.67033  Biso   1.000  C
  C7242    1.0000 0.21523  0.48906  0.64434  Biso   1.000  C
  C7243    1.0000 0.21518  0.48904  0.64430  Biso   1.000  C
  H4871    1.0000 0.66124  0.54572  0.17322  Biso   1.000  H
  H4872    1.0000 0.66126  0.54570  0.17318  Biso   1.000  H
  H4873    1.0000 0.66127  0.54572  0.17322  Biso   1.000  H
  H4874    1.0000 0.66122  0.54570  0.17318  Biso   1.000  H
  H4875    1.0000 0.68564  0.44500  0.20811  Biso   1.000  H
  H4876    1.0000 0.66134  0.49122  0.22178  Biso   1.000  H
  C7244    1.0000 0.60672  0.41541  0.16369  Biso   1.000  C
  H4877    1.0000 0.68566  0.44498  0.20807  Biso   1.000  H
  H4878    1.0000 0.66136  0.49118  0.22178  Biso   1.000  H
  C7245    1.0000 0.60676  0.41541  0.16369  Biso   1.000  C
  H4879    1.0000 0.68569  0.44504  0.20811  Biso   1.000  H
  H4880    1.0000 0.66137  0.49122  0.22178  Biso   1.000  H
  H4881    1.0000 0.68563  0.44498  0.20807  Biso   1.000  H
  H4882    1.0000 0.66133  0.49118  0.22178  Biso   1.000  H
  H4883    1.0000 0.68565  0.44504  0.20811  Biso   1.000  H
  O1032    1.0000 0.90595  0.42752  0.23030  Biso   1.000  O
  O1033    1.0000 0.90599  0.42752  0.23030  Biso   1.000  O
  H4884    1.0000 0.69873  0.57780  0.12090  Biso   1.000  H
  H4885    1.0000 0.69877  0.57780  0.12090  Biso   1.000  H
  H4886    1.0000 0.74232  0.50419  0.02698  Biso   1.000  H
  H4887    1.0000 0.72715  0.55690  0.04840  Biso   1.000  H
  C7246    1.0000 0.80564  0.57330  0.08360  Biso   1.000  C
  H4888    1.0000 0.74236  0.50419  0.02698  Biso   1.000  H
  O1034    1.0000 0.94366  0.46430  0.18011  Biso   1.000  O
  O1035    1.0000 0.94365  0.46429  0.18007  Biso   1.000  O
  O1036    1.0000 0.94362  0.46429  0.18007  Biso   1.000  O
  H4889    1.0000 0.41527  0.80352  0.27499  Biso   1.000  H
  H4890    1.0000 0.41530  0.80352  0.27499  Biso   1.000  H
  H4891    1.0000 0.33874  0.70101  0.15509  Biso   1.000  H
  H4892    1.0000 0.36407  0.76552  0.18921  Biso   1.000  H
  C7247    1.0000 0.28837  0.73190  0.18821  Biso   1.000  C
  H4893    1.0000 0.36406  0.76550  0.18917  Biso   1.000  H
  C7248    1.0000 0.28833  0.73190  0.18821  Biso   1.000  C
  C7249    1.0000 0.28834  0.73194  0.18821  Biso   1.000  C
  H4894    1.0000 0.33878  0.70101  0.15509  Biso   1.000  H
  C7250    1.0000 0.28838  0.73194  0.18821  Biso   1.000  C
  O1037    1.0000 0.15194  0.53282  0.22391  Biso   1.000  O
  O1038    1.0000 0.15193  0.53280  0.22387  Biso   1.000  O
  O1039    1.0000 0.15196  0.53280  0.22387  Biso   1.000  O
  O1040    1.0000 0.15198  0.53282  0.22391  Biso   1.000  O
  H4895    1.0000 0.46510  0.79133  0.34021  Biso   1.000  H
  H4896    1.0000 0.46506  0.79133  0.34021  Biso   1.000  H
  H4897    1.0000 0.49539  0.73394  0.36903  Biso   1.000  H
  H4898    1.0000 0.47176  0.66922  0.33541  Biso   1.000  H
  C7251    1.0000 0.43349  0.69472  0.38951  Biso   1.000  C
  H4899    1.0000 0.49538  0.73392  0.36899  Biso   1.000  H
  C7252    1.0000 0.43345  0.69472  0.38951  Biso   1.000  C
  H4900    1.0000 0.47180  0.66922  0.33541  Biso   1.000  H
  H4901    1.0000 0.49542  0.73394  0.36903  Biso   1.000  H
  O1041    1.0000 0.20125  0.52222  0.28990  Biso   1.000  O
  O1042    1.0000 0.20128  0.52222  0.28990  Biso   1.000  O
  O1043    1.0000 0.02616  0.40794  0.38022  Biso   1.000  O
  O1044    1.0000 0.02615  0.40790  0.38022  Biso   1.000  O
  O1045    1.0000 0.02620  0.40794  0.38022  Biso   1.000  O
  H4902    1.0000 0.98759  0.41333  0.64593  Biso   1.000  H
  H4903    1.0000 0.97879  0.36243  0.59403  Biso   1.000  H
  C7253    1.0000 0.96120  0.42584  0.58052  Biso   1.000  C
  H4904    1.0000 0.97878  0.36241  0.59400  Biso   1.000  H
  H4905    1.0000 0.98760  0.41336  0.64593  Biso   1.000  H
  H4906    1.0000 0.97880  0.36246  0.59403  Biso   1.000  H
  H4907    1.0000 0.97879  0.36244  0.59400  Biso   1.000  H
  H4908    1.0000 0.06989  0.49224  0.68702  Biso   1.000  H
  H4909    1.0000 0.06992  0.49224  0.68702  Biso   1.000  H
  O1046    1.0000 0.11558  0.43584  0.39462  Biso   1.000  O
  O1047    1.0000 0.11552  0.43579  0.39459  Biso   1.000  O
  O1048    1.0000 0.11557  0.43583  0.39459  Biso   1.000  O
  O1049    1.0000 0.11556  0.43579  0.39459  Biso   1.000  O
  O1050    1.0000 0.11553  0.43583  0.39459  Biso   1.000  O
  H4910    1.0000 0.16002  0.52396  0.70034  Biso   1.000  H
  H4911    1.0000 0.15997  0.52394  0.70030  Biso   1.000  H
  H4912    1.0000 0.15998  0.52396  0.70034  Biso   1.000  H
  H4913    1.0000 0.16000  0.52394  0.70030  Biso   1.000  H
  H4914    1.0000 0.22499  0.52595  0.64612  Biso   1.000  H
  H4915    1.0000 0.22560  0.46615  0.61723  Biso   1.000  H
  C7254    1.0000 0.24190  0.49203  0.69624  Biso   1.000  C
  H4916    1.0000 0.22498  0.52592  0.64612  Biso   1.000  H
  H4917    1.0000 0.22557  0.46615  0.61723  Biso   1.000  H
  C7255    1.0000 0.24191  0.49207  0.69624  Biso   1.000  C
  H4918    1.0000 0.22502  0.52595  0.64612  Biso   1.000  H
  H4919    1.0000 0.59504  0.40001  0.18580  Biso   1.000  H
  H4920    1.0000 0.58293  0.43169  0.15320  Biso   1.000  H
  H4921    1.0000 0.60742  0.38652  0.13372  Biso   1.000  H
  H4922    1.0000 0.58297  0.43169  0.15320  Biso   1.000  H
  H4923    1.0000 0.60745  0.38650  0.13368  Biso   1.000  H
  H4924    1.0000 0.58298  0.43173  0.15320  Biso   1.000  H
  H4925    1.0000 0.60746  0.38652  0.13372  Biso   1.000  H
  H4926    1.0000 0.60741  0.38650  0.13368  Biso   1.000  H
  H4927    1.0000 0.58294  0.43173  0.15320  Biso   1.000  H
  B558     1.0000 0.94974  0.45141  0.22109  Biso   1.000  B
  B559     1.0000 0.94976  0.45137  0.22109  Biso   1.000  B
  B560     1.0000 0.94977  0.45141  0.22109  Biso   1.000  B
  B561     1.0000 0.94973  0.45137  0.22109  Biso   1.000  B
  H4928    1.0000 0.82235  0.56070  0.10641  Biso   1.000  H
  H4929    1.0000 0.82214  0.57139  0.05750  Biso   1.000  H
  H4930    1.0000 0.80914  0.61088  0.10308  Biso   1.000  H
  H4931    1.0000 0.82234  0.56068  0.10637  Biso   1.000  H
  H4932    1.0000 0.82236  0.56073  0.10641  Biso   1.000  H
  H4933    1.0000 0.82215  0.57142  0.05750  Biso   1.000  H
  H4934    1.0000 0.80915  0.61091  0.10308  Biso   1.000  H
  H4935    1.0000 0.26508  0.71662  0.15331  Biso   1.000  H
  H4936    1.0000 0.29129  0.76952  0.20691  Biso   1.000  H
  H4937    1.0000 0.27436  0.71021  0.20490  Biso   1.000  H
  H4938    1.0000 0.26503  0.71660  0.15327  Biso   1.000  H
  H4939    1.0000 0.29124  0.76950  0.20687  Biso   1.000  H
  H4940    1.0000 0.26504  0.71662  0.15331  Biso   1.000  H
  H4941    1.0000 0.29125  0.76952  0.20691  Biso   1.000  H
  H4942    1.0000 0.26507  0.71660  0.15327  Biso   1.000  H
  H4943    1.0000 0.29128  0.76950  0.20687  Biso   1.000  H
  B562     1.0000 0.15076  0.51473  0.26210  Biso   1.000  B
  B563     1.0000 0.15072  0.51469  0.26210  Biso   1.000  B
  B564     1.0000 0.15075  0.51469  0.26210  Biso   1.000  B
  B565     1.0000 0.15073  0.51473  0.26210  Biso   1.000  B
  H4944    1.0000 0.40396  0.66002  0.37239  Biso   1.000  H
  H4945    1.0000 0.42108  0.72462  0.40152  Biso   1.000  H
  H4946    1.0000 0.45730  0.69543  0.41840  Biso   1.000  H
  H4947    1.0000 0.45727  0.69543  0.41840  Biso   1.000  H
  H4948    1.0000 0.42109  0.72466  0.40152  Biso   1.000  H
  H4949    1.0000 0.40400  0.66002  0.37239  Biso   1.000  H
  H4950    1.0000 0.42112  0.72462  0.40152  Biso   1.000  H
  B566     1.0000 0.06717  0.43321  0.36519  Biso   1.000  B
  B567     1.0000 0.06713  0.43321  0.36519  Biso   1.000  B
  H4951    1.0000 0.94910  0.45142  0.60282  Biso   1.000  H
  H4952    1.0000 0.93139  0.39575  0.55263  Biso   1.000  H
  H4953    1.0000 0.98407  0.44462  0.56673  Biso   1.000  H
  H4954    1.0000 0.93137  0.39573  0.55260  Biso   1.000  H
  H4955    1.0000 0.98410  0.44462  0.56673  Biso   1.000  H
  H4956    1.0000 0.94911  0.45146  0.60282  Biso   1.000  H
  H4957    1.0000 0.93142  0.39575  0.55263  Biso   1.000  H
  H4958    1.0000 0.98411  0.44466  0.56673  Biso   1.000  H
  H4959    1.0000 0.98408  0.44466  0.56673  Biso   1.000  H
  H4960    1.0000 0.23459  0.45465  0.69302  Biso   1.000  H
  H4961    1.0000 0.22850  0.51132  0.72191  Biso   1.000  H
  H4962    1.0000 0.27930  0.51066  0.70654  Biso   1.000  H
  H4963    1.0000 0.22846  0.51132  0.72191  Biso   1.000  H
  H4964    1.0000 0.22851  0.51136  0.72191  Biso   1.000  H
  H4965    1.0000 0.27933  0.51066  0.70654  Biso   1.000  H
  H4966    1.0000 0.23463  0.45465  0.69302  Biso   1.000  H
  H4967    1.0000 0.22847  0.51136  0.72191  Biso   1.000  H
  C7256    1.0000 0.00636  0.45511  0.25369  Biso   1.000  C
  C7257    1.0000 0.00632  0.45511  0.25369  Biso   1.000  C
  C7258    1.0000 0.10065  0.48883  0.27252  Biso   1.000  C
  C7259    1.0000 0.10063  0.48878  0.27248  Biso   1.000  C
  C7260    1.0000 0.10067  0.48882  0.27248  Biso   1.000  C
  C7261    1.0000 0.10069  0.48883  0.27252  Biso   1.000  C
  C7262    1.0000 0.10064  0.48882  0.27248  Biso   1.000  C
  C7263    1.0000 0.06256  0.44944  0.32371  Biso   1.000  C
  C7264    1.0000 0.06255  0.44940  0.32371  Biso   1.000  C
  C7265    1.0000 0.06260  0.44944  0.32371  Biso   1.000  C
  C7266    1.0000 0.01244  0.44012  0.29409  Biso   1.000  C
  C7267    1.0000 0.05053  0.47940  0.24289  Biso   1.000  C
  C7268    1.0000 0.01243  0.44008  0.29409  Biso   1.000  C
  C7269    1.0000 0.01247  0.44012  0.29409  Biso   1.000  C
  C7270    1.0000 0.05057  0.47940  0.24289  Biso   1.000  C
  C7271    1.0000 0.10675  0.47381  0.31291  Biso   1.000  C
  C7272    1.0000 0.10676  0.47384  0.31291  Biso   1.000  C
  C7273    1.0000 0.10679  0.47381  0.31291  Biso   1.000  C
  H4968    1.0000 0.98285  0.42380  0.30129  Biso   1.000  H
  H4969    1.0000 0.98288  0.42380  0.30129  Biso   1.000  H
  H4970    1.0000 0.98289  0.42383  0.30129  Biso   1.000  H
  H4971    1.0000 0.98286  0.42383  0.30129  Biso   1.000  H
  H4972    1.0000 0.04655  0.48939  0.21590  Biso   1.000  H
  H4973    1.0000 0.04651  0.48939  0.21590  Biso   1.000  H
  H4974    1.0000 0.04652  0.48943  0.21590  Biso   1.000  H
  H4975    1.0000 0.04656  0.48943  0.21590  Biso   1.000  H
  H4976    1.0000 0.14026  0.48002  0.33270  Biso   1.000  H
  H4977    1.0000 0.14025  0.47999  0.33270  Biso   1.000  H
  C7274    1.0000 0.98773  0.56000  0.70597  Biso   1.000  C
  C7275    1.0000 0.93763  0.55064  0.67634  Biso   1.000  C
  C7276    1.0000 0.93760  0.55064  0.67634  Biso   1.000  C
  C7277    1.0000 0.93761  0.55068  0.67634  Biso   1.000  C
  C7278    1.0000 0.93764  0.55068  0.67634  Biso   1.000  C
  C7279    1.0000 0.99383  0.54497  0.74636  Biso   1.000  C
  C7280    1.0000 0.99380  0.54497  0.74636  Biso   1.000  C
  H4978    1.0000 0.01731  0.57629  0.69876  Biso   1.000  H
  H4979    1.0000 0.01732  0.57623  0.69873  Biso   1.000  H
  H4980    1.0000 0.01734  0.57629  0.69876  Biso   1.000  H
  H4981    1.0000 0.01730  0.57627  0.69873  Biso   1.000  H
  H4982    1.0000 0.01729  0.57623  0.69873  Biso   1.000  H
  H4983    1.0000 0.01733  0.57627  0.69873  Biso   1.000  H
  B568     1.0000 0.93303  0.56687  0.63486  Biso   1.000  B
  B569     1.0000 0.93301  0.56685  0.63483  Biso   1.000  B
  B570     1.0000 0.93298  0.56685  0.63483  Biso   1.000  B
  C7281    1.0000 0.98775  0.55997  0.70597  Biso   1.000  C
  C7282    1.0000 0.89344  0.52628  0.68715  Biso   1.000  C
  C7283    1.0000 0.98771  0.55995  0.70593  Biso   1.000  C
  C7284    1.0000 0.89339  0.52624  0.68715  Biso   1.000  C
  C7285    1.0000 0.89340  0.52628  0.68715  Biso   1.000  C
  C7286    1.0000 0.98772  0.55997  0.70597  Biso   1.000  C
  C7287    1.0000 0.98774  0.55995  0.70593  Biso   1.000  C
  C7288    1.0000 0.89343  0.52624  0.68715  Biso   1.000  C
  C7289    1.0000 0.98776  0.56000  0.70597  Biso   1.000  C
  C7290    1.0000 0.94966  0.52068  0.75717  Biso   1.000  C
  C7291    1.0000 0.94961  0.52066  0.75713  Biso   1.000  C
  C7292    1.0000 0.94962  0.52068  0.75717  Biso   1.000  C
  C7293    1.0000 0.94965  0.52066  0.75713  Biso   1.000  C
  B571     1.0000 0.05042  0.54867  0.77897  Biso   1.000  B
  B572     1.0000 0.05041  0.54865  0.77893  Biso   1.000  B
  B573     1.0000 0.05043  0.54871  0.77897  Biso   1.000  B
  O1051    1.0000 0.88461  0.56424  0.60543  Biso   1.000  O
  O1052    1.0000 0.88462  0.56427  0.60543  Biso   1.000  O
  O1053    1.0000 0.88458  0.56424  0.60543  Biso   1.000  O
  O1054    1.0000 0.97403  0.59215  0.61984  Biso   1.000  O
  O1055    1.0000 0.97399  0.59215  0.61984  Biso   1.000  O
  O1056    1.0000 0.97400  0.59218  0.61984  Biso   1.000  O
  O1057    1.0000 0.97404  0.59218  0.61984  Biso   1.000  O
  H4984    1.0000 0.85993  0.52006  0.66736  Biso   1.000  H
  C7294    1.0000 0.89954  0.51125  0.72754  Biso   1.000  C
  C7295    1.0000 0.89951  0.51125  0.72754  Biso   1.000  C
  H4985    1.0000 0.85994  0.52009  0.66736  Biso   1.000  H
  C7296    1.0000 0.89952  0.51128  0.72754  Biso   1.000  C
  H4986    1.0000 0.85989  0.52006  0.66736  Biso   1.000  H
  C7297    1.0000 0.89955  0.51128  0.72754  Biso   1.000  C
  H4987    1.0000 0.95364  0.51069  0.78416  Biso   1.000  H
  H4988    1.0000 0.95363  0.51065  0.78416  Biso   1.000  H
  H4989    1.0000 0.95361  0.51069  0.78416  Biso   1.000  H
  O1058    1.0000 0.05649  0.53578  0.81994  Biso   1.000  O
  O1059    1.0000 0.09420  0.57256  0.76975  Biso   1.000  O
  O1060    1.0000 0.05653  0.53578  0.81994  Biso   1.000  O
  O1061    1.0000 0.09424  0.57256  0.76975  Biso   1.000  O
  O1062    1.0000 0.09425  0.57260  0.76975  Biso   1.000  O
  O1063    1.0000 0.09421  0.57260  0.76975  Biso   1.000  O
  C7298    1.0000 0.89913  0.58057  0.57046  Biso   1.000  C
  C7299    1.0000 0.89911  0.58055  0.57042  Biso   1.000  C
  C7300    1.0000 0.89908  0.58055  0.57042  Biso   1.000  C
  C7301    1.0000 0.89909  0.58057  0.57046  Biso   1.000  C
  C7302    1.0000 0.95302  0.59925  0.57813  Biso   1.000  C
  C7303    1.0000 0.95298  0.59925  0.57813  Biso   1.000  C
  B574     1.0000 0.84943  0.48535  0.73796  Biso   1.000  B
  B575     1.0000 0.84944  0.48539  0.73796  Biso   1.000  B
  B576     1.0000 0.84940  0.48539  0.73796  Biso   1.000  B
  B577     1.0000 0.84939  0.48535  0.73796  Biso   1.000  B
  C7304    1.0000 0.11201  0.55158  0.83795  Biso   1.000  C
  C7305    1.0000 0.11205  0.55158  0.83795  Biso   1.000  C
  C7306    1.0000 0.13370  0.57159  0.80666  Biso   1.000  C
  C7307    1.0000 0.13373  0.57156  0.80666  Biso   1.000  C
  C7308    1.0000 0.13374  0.57159  0.80666  Biso   1.000  C
  C7309    1.0000 0.13369  0.57156  0.80666  Biso   1.000  C
  C7310    1.0000 0.86452  0.58297  0.53084  Biso   1.000  C
  C7311    1.0000 0.86451  0.58293  0.53084  Biso   1.000  C
  C7312    1.0000 0.86449  0.58297  0.53084  Biso   1.000  C
  C7313    1.0000 0.97232  0.62015  0.54633  Biso   1.000  C
  C7314    1.0000 0.97228  0.62015  0.54633  Biso   1.000  C
  O1064    1.0000 0.79895  0.47786  0.71015  Biso   1.000  O
  O1065    1.0000 0.84825  0.46727  0.77614  Biso   1.000  O
  O1066    1.0000 0.79891  0.47786  0.71015  Biso   1.000  O
  O1067    1.0000 0.84822  0.46727  0.77614  Biso   1.000  O
  C7315    1.0000 0.14423  0.54670  0.87738  Biso   1.000  C
  C7316    1.0000 0.14424  0.54665  0.87734  Biso   1.000  C
  C7317    1.0000 0.14426  0.54670  0.87738  Biso   1.000  C
  C7318    1.0000 0.14422  0.54668  0.87734  Biso   1.000  C
  C7319    1.0000 0.14421  0.54665  0.87734  Biso   1.000  C
  C7320    1.0000 0.14425  0.54668  0.87734  Biso   1.000  C
  C7321    1.0000 0.18762  0.58668  0.81475  Biso   1.000  C
  C7322    1.0000 0.88370  0.60394  0.49905  Biso   1.000  C
  C7323    1.0000 0.88371  0.60398  0.49905  Biso   1.000  C
  H4990    1.0000 0.82841  0.57046  0.52565  Biso   1.000  H
  H4991    1.0000 0.82839  0.57044  0.52561  Biso   1.000  H
  C7324    1.0000 0.93762  0.62257  0.50675  Biso   1.000  C
  C7325    1.0000 0.93760  0.62255  0.50671  Biso   1.000  C
  C7326    1.0000 0.93757  0.62255  0.50671  Biso   1.000  C
  H4992    1.0000 0.00840  0.63266  0.55152  Biso   1.000  H
  H4993    1.0000 0.00839  0.63262  0.55152  Biso   1.000  H
  C7327    1.0000 0.76773  0.45338  0.73265  Biso   1.000  C
  C7328    1.0000 0.76772  0.45334  0.73265  Biso   1.000  C
  C7329    1.0000 0.76769  0.45338  0.73265  Biso   1.000  C
  C7330    1.0000 0.79642  0.44666  0.77273  Biso   1.000  C
  C7331    1.0000 0.79639  0.44666  0.77273  Biso   1.000  C
  H4994    1.0000 0.12973  0.53329  0.89825  Biso   1.000  H
  C7332    1.0000 0.19822  0.56179  0.88547  Biso   1.000  C
  H4995    1.0000 0.12972  0.53325  0.89825  Biso   1.000  H
  C7333    1.0000 0.19824  0.56177  0.88543  Biso   1.000  C
  C7334    1.0000 0.19826  0.56179  0.88547  Biso   1.000  C
  C7335    1.0000 0.19821  0.56177  0.88543  Biso   1.000  C
  C7336    1.0000 0.21993  0.58167  0.85406  Biso   1.000  C
  H4996    1.0000 0.20210  0.59996  0.79376  Biso   1.000  H
  H4997    1.0000 0.20214  0.59996  0.79376  Biso   1.000  H
  C7337    1.0000 0.21994  0.58171  0.85406  Biso   1.000  C
  H4998    1.0000 0.20215  0.60000  0.79376  Biso   1.000  H
  H4999    1.0000 0.20211  0.60000  0.79376  Biso   1.000  H
  C7338    1.0000 0.85882  0.61274  0.45455  Biso   1.000  C
  C7339    1.0000 0.85877  0.61272  0.45451  Biso   1.000  C
  C7340    1.0000 0.85883  0.61278  0.45455  Biso   1.000  C
  C7341    1.0000 0.85878  0.61274  0.45455  Biso   1.000  C
  C7342    1.0000 0.85880  0.61272  0.45451  Biso   1.000  C
  C7343    1.0000 0.96442  0.64574  0.47403  Biso   1.000  C
  C7344    1.0000 0.96439  0.64574  0.47403  Biso   1.000  C
  C7345    1.0000 0.96440  0.64577  0.47403  Biso   1.000  C
  C7346    1.0000 0.96443  0.64577  0.47403  Biso   1.000  C
  C7347    1.0000 0.71303  0.43667  0.71956  Biso   1.000  C
  C7348    1.0000 0.71301  0.43665  0.71952  Biso   1.000  C
  C7349    1.0000 0.71298  0.43665  0.71952  Biso   1.000  C
  C7350    1.0000 0.77052  0.42328  0.79984  Biso   1.000  C
  C7351    1.0000 0.77051  0.42324  0.79984  Biso   1.000  C
  C7352    1.0000 0.77049  0.42328  0.79984  Biso   1.000  C
  C7353    1.0000 0.23672  0.56017  0.92966  Biso   1.000  C
  C7354    1.0000 0.23676  0.56017  0.92966  Biso   1.000  C
  C7355    1.0000 0.23677  0.56021  0.92966  Biso   1.000  C
  C7356    1.0000 0.23673  0.56021  0.92966  Biso   1.000  C
  C7357    1.0000 0.27883  0.59876  0.86835  Biso   1.000  C
  C7358    1.0000 0.27884  0.59880  0.86835  Biso   1.000  C
  C7359    1.0000 0.88449  0.67243  0.46442  Biso   1.000  C
  C7360    1.0000 0.88450  0.67246  0.46442  Biso   1.000  C
  C7361    1.0000 0.87711  0.58264  0.41133  Biso   1.000  C
  H5000    1.0000 0.82020  0.60014  0.44502  Biso   1.000  H
  C7362    1.0000 0.87707  0.58264  0.41133  Biso   1.000  C
  H5001    1.0000 0.82016  0.60014  0.44502  Biso   1.000  H
  C7363    1.0000 0.93844  0.68926  0.47213  Biso   1.000  C
  C7364    1.0000 0.93839  0.68923  0.47213  Biso   1.000  C
  C7365    1.0000 0.93840  0.68926  0.47213  Biso   1.000  C
  C7366    1.0000 0.93103  0.60156  0.41934  Biso   1.000  C
  C7367    1.0000 0.93098  0.60154  0.41931  Biso   1.000  C
  C7368    1.0000 0.93099  0.60156  0.41934  Biso   1.000  C
  C7369    1.0000 0.93101  0.60154  0.41931  Biso   1.000  C
  H5002    1.0000 0.00290  0.65776  0.48344  Biso   1.000  H
  H5003    1.0000 0.69384  0.44106  0.69276  Biso   1.000  H
  C7370    1.0000 0.68724  0.41318  0.74667  Biso   1.000  C
  H5004    1.0000 0.69379  0.44104  0.69272  Biso   1.000  H
  C7371    1.0000 0.68719  0.41316  0.74663  Biso   1.000  C
  H5005    1.0000 0.69382  0.44109  0.69276  Biso   1.000  H
  H5006    1.0000 0.69381  0.44106  0.69276  Biso   1.000  H
  C7372    1.0000 0.68720  0.41318  0.74667  Biso   1.000  C
  C7373    1.0000 0.68723  0.41316  0.74663  Biso   1.000  C
  H5007    1.0000 0.69385  0.44109  0.69276  Biso   1.000  H
  C7374    1.0000 0.71595  0.40659  0.78687  Biso   1.000  C
  H5008    1.0000 0.78973  0.41877  0.82676  Biso   1.000  H
  C7375    1.0000 0.71590  0.40653  0.78683  Biso   1.000  C
  C7376    1.0000 0.71592  0.40659  0.78687  Biso   1.000  C
  H5009    1.0000 0.78974  0.41880  0.82676  Biso   1.000  H
  C7377    1.0000 0.71591  0.40657  0.78683  Biso   1.000  C
  H5010    1.0000 0.78970  0.41877  0.82676  Biso   1.000  H
  C7378    1.0000 0.71593  0.40653  0.78683  Biso   1.000  C
  C7379    1.0000 0.26413  0.52708  0.89937  Biso   1.000  C
  H5011    1.0000 0.22074  0.54547  0.95096  Biso   1.000  H
  C7380    1.0000 0.27412  0.62008  0.95727  Biso   1.000  C
  C7381    1.0000 0.26412  0.52706  0.89934  Biso   1.000  C
  C7382    1.0000 0.27416  0.62008  0.95727  Biso   1.000  C
  H5012    1.0000 0.22075  0.54551  0.95096  Biso   1.000  H
  C7383    1.0000 0.27417  0.62012  0.95727  Biso   1.000  C
  H5013    1.0000 0.22071  0.54547  0.95096  Biso   1.000  H
  C7384    1.0000 0.27413  0.62012  0.95727  Biso   1.000  C
  C7385    1.0000 0.28663  0.54637  0.86804  Biso   1.000  C
  H5014    1.0000 0.29503  0.61367  0.84717  Biso   1.000  H
  C7386    1.0000 0.29524  0.63796  0.92455  Biso   1.000  C
  H5015    1.0000 0.29502  0.61365  0.84713  Biso   1.000  H
  H5016    1.0000 0.29504  0.61371  0.84717  Biso   1.000  H
  C7387    1.0000 0.29525  0.63800  0.92455  Biso   1.000  C
  C7388    1.0000 0.85960  0.71045  0.46984  Biso   1.000  C
  C7389    1.0000 0.84310  0.53562  0.36652  Biso   1.000  C
  C7390    1.0000 0.84306  0.53562  0.36652  Biso   1.000  C
  C7391    1.0000 0.84307  0.53566  0.36652  Biso   1.000  C
  C7392    1.0000 0.84311  0.53566  0.36652  Biso   1.000  C
  C7393    1.0000 0.96741  0.74414  0.48514  Biso   1.000  C
  C7394    1.0000 0.96742  0.74418  0.48514  Biso   1.000  C
  C7395    1.0000 0.95101  0.57352  0.38251  Biso   1.000  C
  C7396    1.0000 0.95097  0.57352  0.38251  Biso   1.000  C
  C7397    1.0000 0.95098  0.57355  0.38251  Biso   1.000  C
  C7398    1.0000 0.95102  0.57355  0.38251  Biso   1.000  C
  C7399    1.0000 0.62892  0.39846  0.74257  Biso   1.000  C
  C7400    1.0000 0.62890  0.39845  0.74253  Biso   1.000  C
  C7401    1.0000 0.62893  0.39850  0.74257  Biso   1.000  C
  C7402    1.0000 0.62887  0.39845  0.74253  Biso   1.000  C
  C7403    1.0000 0.68633  0.37955  0.81545  Biso   1.000  C
  C7404    1.0000 0.68634  0.37959  0.81545  Biso   1.000  C
  C7405    1.0000 0.68630  0.37959  0.81545  Biso   1.000  C
  C7406    1.0000 0.68629  0.37955  0.81545  Biso   1.000  C
  C7407    1.0000 0.26972  0.48058  0.90356  Biso   1.000  C
  C7408    1.0000 0.26975  0.48058  0.90356  Biso   1.000  C
  C7409    1.0000 0.28836  0.65629  0.00928  Biso   1.000  C
  C7410    1.0000 0.28837  0.65632  0.00928  Biso   1.000  C
  C7411    1.0000 0.28832  0.65629  0.00928  Biso   1.000  C
  C7412    1.0000 0.31461  0.51907  0.84086  Biso   1.000  C
  C7413    1.0000 0.31464  0.51907  0.84086  Biso   1.000  C
  C7414    1.0000 0.31465  0.51911  0.84086  Biso   1.000  C
  C7415    1.0000 0.31462  0.51911  0.84086  Biso   1.000  C
  C7416    1.0000 0.33074  0.69207  0.94387  Biso   1.000  C
  C7417    1.0000 0.33075  0.69211  0.94387  Biso   1.000  C
  H5017    1.0000 0.82362  0.69916  0.46473  Biso   1.000  H
  C7418    1.0000 0.88871  0.76535  0.48282  Biso   1.000  C
  H5018    1.0000 0.82361  0.69912  0.46473  Biso   1.000  H
  H5019    1.0000 0.82358  0.69916  0.46473  Biso   1.000  H
  C7419    1.0000 0.88868  0.76535  0.48282  Biso   1.000  C
  C7420    1.0000 0.86300  0.50763  0.32973  Biso   1.000  C
  C7421    1.0000 0.78500  0.51102  0.35571  Biso   1.000  C
  C7422    1.0000 0.86296  0.50763  0.32973  Biso   1.000  C
  C7423    1.0000 0.78497  0.51102  0.35571  Biso   1.000  C
  C7424    1.0000 0.78498  0.51106  0.35571  Biso   1.000  C
  C7425    1.0000 0.78501  0.51106  0.35571  Biso   1.000  C
  C7426    1.0000 0.94263  0.78215  0.49045  Biso   1.000  C
  C7427    1.0000 0.94259  0.78213  0.49041  Biso   1.000  C
  C7428    1.0000 0.94261  0.78218  0.49045  Biso   1.000  C
  C7429    1.0000 0.94260  0.78215  0.49045  Biso   1.000  C
  C7430    1.0000 0.94262  0.78213  0.49041  Biso   1.000  C
  C7431    1.0000 0.94264  0.78218  0.49045  Biso   1.000  C
  H5020    1.0000 0.00351  0.75547  0.49025  Biso   1.000  H
  H5021    1.0000 0.00350  0.75545  0.49022  Biso   1.000  H
  C7432    1.0000 0.91691  0.52655  0.33774  Biso   1.000  C
  C7433    1.0000 0.91686  0.52650  0.33771  Biso   1.000  C
  C7434    1.0000 0.91688  0.52655  0.33774  Biso   1.000  C
  C7435    1.0000 0.91687  0.52654  0.33771  Biso   1.000  C
  C7436    1.0000 0.91689  0.52650  0.33771  Biso   1.000  C
  C7437    1.0000 0.00815  0.59743  0.38801  Biso   1.000  C
  C7438    1.0000 0.00818  0.59743  0.38801  Biso   1.000  C
  C7439    1.0000 0.00819  0.59746  0.38801  Biso   1.000  C
  C7440    1.0000 0.00816  0.59746  0.38801  Biso   1.000  C
  C7441    1.0000 0.61223  0.33759  0.73277  Biso   1.000  C
  H5022    1.0000 0.60802  0.40417  0.71534  Biso   1.000  H
  C7442    1.0000 0.62785  0.43097  0.79477  Biso   1.000  C
  C7443    1.0000 0.61220  0.33753  0.73273  Biso   1.000  C
  H5023    1.0000 0.60801  0.40413  0.71534  Biso   1.000  H
  C7444    1.0000 0.62780  0.43095  0.79473  Biso   1.000  C
  C7445    1.0000 0.62782  0.43100  0.79477  Biso   1.000  C
  C7446    1.0000 0.61218  0.33757  0.73273  Biso   1.000  C
  H5024    1.0000 0.60798  0.40417  0.71534  Biso   1.000  H
  C7447    1.0000 0.62781  0.43097  0.79477  Biso   1.000  C
  C7448    1.0000 0.62783  0.43095  0.79473  Biso   1.000  C
  C7449    1.0000 0.62786  0.43100  0.79477  Biso   1.000  C
  C7450    1.0000 0.61221  0.33757  0.73273  Biso   1.000  C
  C7451    1.0000 0.64212  0.33027  0.77177  Biso   1.000  C
  H5025    1.0000 0.70726  0.37327  0.84217  Biso   1.000  H
  C7452    1.0000 0.65782  0.42438  0.83427  Biso   1.000  C
  C7453    1.0000 0.64211  0.33026  0.77173  Biso   1.000  C
  H5026    1.0000 0.70721  0.37325  0.84213  Biso   1.000  H
  C7454    1.0000 0.65781  0.42436  0.83423  Biso   1.000  C
  H5027    1.0000 0.70723  0.37331  0.84217  Biso   1.000  H
  C7455    1.0000 0.64207  0.33026  0.77173  Biso   1.000  C
  H5028    1.0000 0.70722  0.37327  0.84217  Biso   1.000  H
  H5029    1.0000 0.70727  0.37331  0.84217  Biso   1.000  H
  C7456    1.0000 0.65786  0.42438  0.83427  Biso   1.000  C
  C7457    1.0000 0.29772  0.45339  0.87637  Biso   1.000  C
  C7458    1.0000 0.25271  0.46350  0.94205  Biso   1.000  C
  C7459    1.0000 0.29775  0.45337  0.87633  Biso   1.000  C
  C7460    1.0000 0.25274  0.46346  0.94205  Biso   1.000  C
  C7461    1.0000 0.29776  0.45339  0.87637  Biso   1.000  C
  C7462    1.0000 0.25275  0.46350  0.94205  Biso   1.000  C
  C7463    1.0000 0.29771  0.45337  0.87633  Biso   1.000  C
  C7464    1.0000 0.25270  0.46346  0.94205  Biso   1.000  C
  H5030    1.0000 0.27428  0.64430  0.03120  Biso   1.000  H
  C7465    1.0000 0.32385  0.71038  0.02857  Biso   1.000  C
  H5031    1.0000 0.27423  0.64428  0.03116  Biso   1.000  H
  C7466    1.0000 0.32386  0.71042  0.02857  Biso   1.000  C
  H5032    1.0000 0.27424  0.64430  0.03120  Biso   1.000  H
  C7467    1.0000 0.32382  0.71038  0.02857  Biso   1.000  C
  H5033    1.0000 0.27426  0.64428  0.03116  Biso   1.000  H
  C7468    1.0000 0.32012  0.47257  0.84504  Biso   1.000  C
  C7469    1.0000 0.33743  0.53979  0.80666  Biso   1.000  C
  C7470    1.0000 0.33742  0.53975  0.80666  Biso   1.000  C
  C7471    1.0000 0.34503  0.72839  0.99596  Biso   1.000  C
  H5034    1.0000 0.34484  0.70410  0.92195  Biso   1.000  H
  C7472    1.0000 0.34506  0.72839  0.99596  Biso   1.000  C
  H5035    1.0000 0.34486  0.70406  0.92195  Biso   1.000  H
  H5036    1.0000 0.34487  0.70410  0.92195  Biso   1.000  H
  H5037    1.0000 0.34483  0.70406  0.92195  Biso   1.000  H
  O1068    1.0000 0.87543  0.81255  0.49424  Biso   1.000  O
  O1069    1.0000 0.87540  0.81255  0.49424  Biso   1.000  O
  O1070    1.0000 0.87541  0.81258  0.49424  Biso   1.000  O
  O1071    1.0000 0.87544  0.81258  0.49424  Biso   1.000  O
  H5038    1.0000 0.84018  0.47612  0.29971  Biso   1.000  H
  H5039    1.0000 0.84014  0.47612  0.29971  Biso   1.000  H
  H5040    1.0000 0.77521  0.47413  0.35393  Biso   1.000  H
  H5041    1.0000 0.77459  0.53393  0.38282  Biso   1.000  H
  C7473    1.0000 0.75829  0.50805  0.30382  Biso   1.000  C
  H5042    1.0000 0.77517  0.47413  0.35393  Biso   1.000  H
  C7474    1.0000 0.75825  0.50801  0.30382  Biso   1.000  C
  H5043    1.0000 0.77518  0.47417  0.35393  Biso   1.000  H
  H5044    1.0000 0.77455  0.53393  0.38282  Biso   1.000  H
  C7475    1.0000 0.75826  0.50805  0.30382  Biso   1.000  C
  C7476    1.0000 0.75828  0.50801  0.30382  Biso   1.000  C
  H5045    1.0000 0.77522  0.47417  0.35393  Biso   1.000  H
  O1072    1.0000 0.96583  0.83816  0.50625  Biso   1.000  O
  O1073    1.0000 0.96581  0.83814  0.50621  Biso   1.000  O
  O1074    1.0000 0.96578  0.83814  0.50621  Biso   1.000  O
  H5046    1.0000 0.93031  0.50784  0.31304  Biso   1.000  H
  H5047    1.0000 0.93027  0.50784  0.31304  Biso   1.000  H
  H5048    1.0000 0.01256  0.58676  0.35413  Biso   1.000  H
  H5049    1.0000 0.02137  0.63766  0.40602  Biso   1.000  H
  C7477    1.0000 0.03896  0.57424  0.41954  Biso   1.000  C
  H5050    1.0000 0.01259  0.58672  0.35413  Biso   1.000  H
  H5051    1.0000 0.02139  0.63762  0.40602  Biso   1.000  H
  C7478    1.0000 0.03900  0.57424  0.41954  Biso   1.000  C
  H5052    1.0000 0.01260  0.58676  0.35413  Biso   1.000  H
  H5053    1.0000 0.02140  0.63766  0.40602  Biso   1.000  H
  H5054    1.0000 0.01255  0.58672  0.35413  Biso   1.000  H
  H5055    1.0000 0.02136  0.63762  0.40602  Biso   1.000  H
  C7479    1.0000 0.57212  0.29206  0.69086  Biso   1.000  C
  C7480    1.0000 0.57208  0.29204  0.69083  Biso   1.000  C
  C7481    1.0000 0.57210  0.29210  0.69086  Biso   1.000  C
  C7482    1.0000 0.57209  0.29206  0.69086  Biso   1.000  C
  C7483    1.0000 0.57211  0.29204  0.69083  Biso   1.000  C
  C7484    1.0000 0.57213  0.29210  0.69086  Biso   1.000  C
  C7485    1.0000 0.60283  0.46887  0.80647  Biso   1.000  C
  C7486    1.0000 0.60281  0.46885  0.80643  Biso   1.000  C
  C7487    1.0000 0.60278  0.46885  0.80643  Biso   1.000  C
  C7488    1.0000 0.63182  0.27736  0.76886  Biso   1.000  C
  C7489    1.0000 0.63183  0.27740  0.76886  Biso   1.000  C
  C7490    1.0000 0.63179  0.27736  0.76886  Biso   1.000  C
  C7491    1.0000 0.66296  0.45569  0.88547  Biso   1.000  C
  C7492    1.0000 0.66291  0.45568  0.88543  Biso   1.000  C
  C7493    1.0000 0.66292  0.45569  0.88547  Biso   1.000  C
  C7494    1.0000 0.66295  0.45568  0.88543  Biso   1.000  C
  H5056    1.0000 0.30143  0.42228  0.87916  Biso   1.000  H
  H5057    1.0000 0.25784  0.49590  0.97307  Biso   1.000  H
  H5058    1.0000 0.27301  0.44318  0.95166  Biso   1.000  H
  C7495    1.0000 0.19451  0.42678  0.91645  Biso   1.000  C
  H5059    1.0000 0.27305  0.44318  0.95166  Biso   1.000  H
  C7496    1.0000 0.19455  0.42678  0.91645  Biso   1.000  C
  O1075    1.0000 0.33959  0.75128  0.07760  Biso   1.000  O
  O1076    1.0000 0.33956  0.75132  0.07760  Biso   1.000  O
  O1077    1.0000 0.33955  0.75128  0.07760  Biso   1.000  O
  O1078    1.0000 0.33960  0.75132  0.07760  Biso   1.000  O
  H5060    1.0000 0.33892  0.45437  0.82684  Biso   1.000  H
  H5061    1.0000 0.31452  0.55508  0.79194  Biso   1.000  H
  H5062    1.0000 0.33882  0.50887  0.77827  Biso   1.000  H
  C7497    1.0000 0.39344  0.58467  0.83636  Biso   1.000  C
  H5063    1.0000 0.31451  0.55504  0.79194  Biso   1.000  H
  H5064    1.0000 0.33881  0.50885  0.77823  Biso   1.000  H
  H5065    1.0000 0.31455  0.55508  0.79194  Biso   1.000  H
  H5066    1.0000 0.33883  0.50890  0.77827  Biso   1.000  H
  O1079    1.0000 0.37656  0.78478  0.02598  Biso   1.000  O
  O1080    1.0000 0.37657  0.78482  0.02598  Biso   1.000  O
  O1081    1.0000 0.37652  0.78478  0.02598  Biso   1.000  O
  B578     1.0000 0.92004  0.85337  0.50315  Biso   1.000  B
  B579     1.0000 0.92001  0.85332  0.50311  Biso   1.000  B
  B580     1.0000 0.91999  0.85336  0.50311  Biso   1.000  B
  B581     1.0000 0.92000  0.85337  0.50315  Biso   1.000  B
  B582     1.0000 0.92002  0.85336  0.50311  Biso   1.000  B
  H5067    1.0000 0.76560  0.54543  0.30703  Biso   1.000  H
  H5068    1.0000 0.77169  0.48876  0.27814  Biso   1.000  H
  H5069    1.0000 0.72090  0.48942  0.29352  Biso   1.000  H
  H5070    1.0000 0.76557  0.54543  0.30703  Biso   1.000  H
  H5071    1.0000 0.77167  0.48870  0.27810  Biso   1.000  H
  H5072    1.0000 0.72086  0.48942  0.29352  Biso   1.000  H
  H5073    1.0000 0.72087  0.48946  0.29352  Biso   1.000  H
  H5074    1.0000 0.77165  0.48874  0.27810  Biso   1.000  H
  H5075    1.0000 0.77166  0.48876  0.27814  Biso   1.000  H
  H5076    1.0000 0.72091  0.48946  0.29352  Biso   1.000  H
  H5077    1.0000 0.77168  0.48874  0.27810  Biso   1.000  H
  H5078    1.0000 0.05106  0.54866  0.39723  Biso   1.000  H
  H5079    1.0000 0.06877  0.60433  0.44742  Biso   1.000  H
  H5080    1.0000 0.01609  0.55546  0.43332  Biso   1.000  H
  H5081    1.0000 0.05108  0.54862  0.39723  Biso   1.000  H
  H5082    1.0000 0.06881  0.60433  0.44742  Biso   1.000  H
  H5083    1.0000 0.01608  0.55542  0.43332  Biso   1.000  H
  H5084    1.0000 0.05109  0.54866  0.39723  Biso   1.000  H
  H5085    1.0000 0.05105  0.54862  0.39723  Biso   1.000  H
  C7498    1.0000 0.56193  0.23925  0.68796  Biso   1.000  C
  C7499    1.0000 0.53729  0.29857  0.64923  Biso   1.000  C
  C7500    1.0000 0.56188  0.23924  0.68792  Biso   1.000  C
  C7501    1.0000 0.53728  0.29853  0.64923  Biso   1.000  C
  C7502    1.0000 0.56190  0.23929  0.68796  Biso   1.000  C
  C7503    1.0000 0.56189  0.23925  0.68796  Biso   1.000  C
  C7504    1.0000 0.56191  0.23924  0.68792  Biso   1.000  C
  C7505    1.0000 0.56194  0.23929  0.68796  Biso   1.000  C
  H5086    1.0000 0.58275  0.47337  0.78005  Biso   1.000  H
  C7506    1.0000 0.60786  0.50019  0.85766  Biso   1.000  C
  H5087    1.0000 0.58271  0.47337  0.78005  Biso   1.000  H
  C7507    1.0000 0.60782  0.50019  0.85766  Biso   1.000  C
  C7508    1.0000 0.59173  0.23187  0.72696  Biso   1.000  C
  C7509    1.0000 0.65783  0.26927  0.81266  Biso   1.000  C
  C7510    1.0000 0.59170  0.23187  0.72696  Biso   1.000  C
  C7511    1.0000 0.65779  0.26927  0.81266  Biso   1.000  C
  C7512    1.0000 0.63794  0.49360  0.89717  Biso   1.000  C
  H5088    1.0000 0.68305  0.45126  0.91184  Biso   1.000  H
  C7513    1.0000 0.63793  0.49356  0.89717  Biso   1.000  C
  H5089    1.0000 0.68301  0.45126  0.91184  Biso   1.000  H
  H5090    1.0000 0.68302  0.45129  0.91184  Biso   1.000  H
  H5091    1.0000 0.68306  0.45129  0.91184  Biso   1.000  H
  H5092    1.0000 0.17780  0.43939  0.89364  Biso   1.000  H
  H5093    1.0000 0.17801  0.42869  0.94256  Biso   1.000  H
  H5094    1.0000 0.19101  0.38920  0.89697  Biso   1.000  H
  H5095    1.0000 0.17783  0.43935  0.89364  Biso   1.000  H
  H5096    1.0000 0.17804  0.42866  0.94256  Biso   1.000  H
  H5097    1.0000 0.19103  0.38915  0.89693  Biso   1.000  H
  H5098    1.0000 0.17784  0.43939  0.89364  Biso   1.000  H
  H5099    1.0000 0.17805  0.42869  0.94256  Biso   1.000  H
  H5100    1.0000 0.19105  0.38920  0.89697  Biso   1.000  H
  H5101    1.0000 0.19100  0.38919  0.89693  Biso   1.000  H
  H5102    1.0000 0.17779  0.43935  0.89364  Biso   1.000  H
  H5103    1.0000 0.17800  0.42866  0.94256  Biso   1.000  H
  H5104    1.0000 0.19099  0.38915  0.89693  Biso   1.000  H
  H5105    1.0000 0.19104  0.38919  0.89693  Biso   1.000  H
  B583     1.0000 0.37368  0.79408  0.07268  Biso   1.000  B
  B584     1.0000 0.37365  0.79412  0.07268  Biso   1.000  B
  B585     1.0000 0.37364  0.79408  0.07268  Biso   1.000  B
  B586     1.0000 0.37369  0.79412  0.07268  Biso   1.000  B
  H5106    1.0000 0.40511  0.60007  0.81425  Biso   1.000  H
  H5107    1.0000 0.41723  0.56839  0.84686  Biso   1.000  H
  H5108    1.0000 0.39273  0.61356  0.86634  Biso   1.000  H
  H5109    1.0000 0.40515  0.60007  0.81425  Biso   1.000  H
  H5110    1.0000 0.41722  0.56835  0.84686  Biso   1.000  H
  H5111    1.0000 0.41726  0.56839  0.84686  Biso   1.000  H
  H5112    1.0000 0.39274  0.61360  0.86634  Biso   1.000  H
  H5113    1.0000 0.39270  0.61356  0.86634  Biso   1.000  H
  C7514    1.0000 0.92745  0.91625  0.52275  Biso   1.000  C
  C7515    1.0000 0.92742  0.91625  0.52275  Biso   1.000  C
  H5114    1.0000 0.53509  0.20875  0.65984  Biso   1.000  H
  H5115    1.0000 0.53506  0.20875  0.65984  Biso   1.000  H
  H5116    1.0000 0.50480  0.26614  0.63103  Biso   1.000  H
  H5117    1.0000 0.52843  0.33087  0.66465  Biso   1.000  H
  C7516    1.0000 0.56671  0.30536  0.61054  Biso   1.000  C
  H5118    1.0000 0.50477  0.26614  0.63103  Biso   1.000  H
  H5119    1.0000 0.52839  0.33087  0.66465  Biso   1.000  H
  C7517    1.0000 0.56667  0.30536  0.61054  Biso   1.000  C
  O1082    1.0000 0.58906  0.54039  0.87978  Biso   1.000  O
  O1083    1.0000 0.58901  0.54037  0.87974  Biso   1.000  O
  O1084    1.0000 0.58903  0.54039  0.87978  Biso   1.000  O
  O1085    1.0000 0.58905  0.54037  0.87974  Biso   1.000  O
  H5120    1.0000 0.58493  0.19656  0.72506  Biso   1.000  H
  H5121    1.0000 0.58488  0.19654  0.72502  Biso   1.000  H
  H5122    1.0000 0.58490  0.19660  0.72506  Biso   1.000  H
  H5123    1.0000 0.58489  0.19656  0.72506  Biso   1.000  H
  H5124    1.0000 0.58491  0.19654  0.72502  Biso   1.000  H
  H5125    1.0000 0.58494  0.19660  0.72506  Biso   1.000  H
  H5126    1.0000 0.66145  0.29907  0.84496  Biso   1.000  H
  H5127    1.0000 0.63612  0.23456  0.81084  Biso   1.000  H
  C7518    1.0000 0.71182  0.26818  0.81185  Biso   1.000  C
  H5128    1.0000 0.66141  0.29907  0.84496  Biso   1.000  H
  C7519    1.0000 0.71181  0.26814  0.81185  Biso   1.000  C
  H5129    1.0000 0.63608  0.23456  0.81084  Biso   1.000  H
  C7520    1.0000 0.71179  0.26818  0.81185  Biso   1.000  C
  O1086    1.0000 0.63946  0.52788  0.94534  Biso   1.000  O
  O1087    1.0000 0.63942  0.52788  0.94534  Biso   1.000  O
  C7521    1.0000 0.39836  0.85500  0.11908  Biso   1.000  C
  C7522    1.0000 0.88205  0.92847  0.52244  Biso   1.000  C
  C7523    1.0000 0.97614  0.95876  0.53983  Biso   1.000  C
  C7524    1.0000 0.88201  0.92843  0.52244  Biso   1.000  C
  C7525    1.0000 0.88202  0.92847  0.52244  Biso   1.000  C
  C7526    1.0000 0.97610  0.95876  0.53983  Biso   1.000  C
  C7527    1.0000 0.88204  0.92843  0.52244  Biso   1.000  C
  H5130    1.0000 0.54289  0.30465  0.58165  Biso   1.000  H
  H5131    1.0000 0.59623  0.34006  0.62766  Biso   1.000  H
  H5132    1.0000 0.57911  0.27546  0.59854  Biso   1.000  H
  H5133    1.0000 0.59618  0.34005  0.62762  Biso   1.000  H
  H5134    1.0000 0.57907  0.27546  0.59854  Biso   1.000  H
  H5135    1.0000 0.59619  0.34006  0.62766  Biso   1.000  H
  H5136    1.0000 0.59622  0.34005  0.62762  Biso   1.000  H
  B587     1.0000 0.60735  0.55660  0.93187  Biso   1.000  B
  B588     1.0000 0.60734  0.55657  0.93187  Biso   1.000  B
  B589     1.0000 0.60731  0.55660  0.93187  Biso   1.000  B
  H5137    1.0000 0.70890  0.23056  0.79314  Biso   1.000  H
  H5138    1.0000 0.73511  0.28346  0.84674  Biso   1.000  H
  H5139    1.0000 0.72583  0.28987  0.79516  Biso   1.000  H
  H5140    1.0000 0.72579  0.28987  0.79516  Biso   1.000  H
  H5141    1.0000 0.73512  0.28350  0.84674  Biso   1.000  H
  C7528    1.0000 0.42857  0.89848  0.11191  Biso   1.000  C
  C7529    1.0000 0.39169  0.86479  0.16698  Biso   1.000  C
  C7530    1.0000 0.42857  0.89850  0.11187  Biso   1.000  C
  C7531    1.0000 0.39166  0.86483  0.16698  Biso   1.000  C
  C7532    1.0000 0.42858  0.89852  0.11191  Biso   1.000  C
  C7533    1.0000 0.39166  0.86479  0.16698  Biso   1.000  C
  C7534    1.0000 0.42856  0.89847  0.11187  Biso   1.000  C
  C7535    1.0000 0.39170  0.86483  0.16698  Biso   1.000  C
  H5142    1.0000 0.84943  0.90004  0.51094  Biso   1.000  H
  C7536    1.0000 0.88535  0.98317  0.53925  Biso   1.000  C
  C7537    1.0000 0.88534  0.98314  0.53925  Biso   1.000  C
  H5143    1.0000 0.84944  0.90008  0.51094  Biso   1.000  H
  H5144    1.0000 0.84939  0.90004  0.51094  Biso   1.000  H
  C7538    1.0000 0.88531  0.98317  0.53925  Biso   1.000  C
  C7539    1.0000 0.97936  0.01347  0.55663  Biso   1.000  C
  C7540    1.0000 0.97935  0.01343  0.55663  Biso   1.000  C
  C7541    1.0000 0.97940  0.01347  0.55663  Biso   1.000  C
  H5145    1.0000 0.00651  0.95066  0.53994  Biso   1.000  H
  H5146    1.0000 0.00654  0.95066  0.53994  Biso   1.000  H
  C7542    1.0000 0.60085  0.60627  0.97245  Biso   1.000  C
  C7543    1.0000 0.60086  0.60631  0.97245  Biso   1.000  C
  C7544    1.0000 0.60081  0.60627  0.97245  Biso   1.000  C
  C7545    1.0000 0.45209  0.95169  0.15250  Biso   1.000  C
  H5147    1.0000 0.43310  0.89190  0.07988  Biso   1.000  H
  C7546    1.0000 0.45210  0.95173  0.15250  Biso   1.000  C
  H5148    1.0000 0.43306  0.89190  0.07988  Biso   1.000  H
  C7547    1.0000 0.45206  0.95169  0.15250  Biso   1.000  C
  C7548    1.0000 0.41519  0.91802  0.20761  Biso   1.000  C
  H5149    1.0000 0.37148  0.83568  0.17179  Biso   1.000  H
  H5150    1.0000 0.37149  0.83572  0.17179  Biso   1.000  H
  H5151    1.0000 0.37144  0.83568  0.17179  Biso   1.000  H
  B590     1.0000 0.83413  0.99626  0.53754  Biso   1.000  B
  B591     1.0000 0.83410  0.99626  0.53754  Biso   1.000  B
  C7549    1.0000 0.93395  0.02565  0.55632  Biso   1.000  C
  C7550    1.0000 0.93399  0.02565  0.55632  Biso   1.000  C
  B592     1.0000 0.03280  0.05828  0.57716  Biso   1.000  B
  B593     1.0000 0.03275  0.05826  0.57712  Biso   1.000  B
  B594     1.0000 0.03275  0.05824  0.57716  Biso   1.000  B
  B595     1.0000 0.03276  0.05828  0.57716  Biso   1.000  B
  B596     1.0000 0.03278  0.05826  0.57712  Biso   1.000  B
  B597     1.0000 0.03279  0.05824  0.57716  Biso   1.000  B
  C7551    1.0000 0.57166  0.63359  0.95545  Biso   1.000  C
  C7552    1.0000 0.57163  0.63359  0.95545  Biso   1.000  C
  C7553    1.0000 0.62344  0.62379  0.02508  Biso   1.000  C
  C7554    1.0000 0.62345  0.62382  0.02508  Biso   1.000  C
  C7555    1.0000 0.62348  0.62379  0.02508  Biso   1.000  C
  C7556    1.0000 0.44540  0.96151  0.20029  Biso   1.000  C
  B598     1.0000 0.48389  0.99870  0.14239  Biso   1.000  B
  B599     1.0000 0.48390  0.99874  0.14239  Biso   1.000  B
  C7557    1.0000 0.44536  0.96151  0.20029  Biso   1.000  C
  B600     1.0000 0.48385  0.99870  0.14239  Biso   1.000  B
  B601     1.0000 0.40699  0.92641  0.25710  Biso   1.000  B
  B602     1.0000 0.40700  0.92645  0.25710  Biso   1.000  B
  B603     1.0000 0.40696  0.92641  0.25710  Biso   1.000  B
  O1088    1.0000 0.78632  0.95465  0.52213  Biso   1.000  O
  O1089    1.0000 0.83427  0.05045  0.55783  Biso   1.000  O
  O1090    1.0000 0.83426  0.05042  0.55783  Biso   1.000  O
  H5152    1.0000 0.93617  0.06225  0.56756  Biso   1.000  H
  H5153    1.0000 0.93615  0.06223  0.56752  Biso   1.000  H
  H5154    1.0000 0.93616  0.06227  0.56752  Biso   1.000  H
  H5155    1.0000 0.93620  0.06225  0.56756  Biso   1.000  H
  O1091    1.0000 0.04538  0.11488  0.59695  Biso   1.000  O
  O1092    1.0000 0.08139  0.04827  0.57913  Biso   1.000  O
  O1093    1.0000 0.04537  0.11484  0.59695  Biso   1.000  O
  O1094    1.0000 0.08136  0.04827  0.57913  Biso   1.000  O
  O1095    1.0000 0.08135  0.04823  0.57913  Biso   1.000  O
  O1096    1.0000 0.04535  0.11488  0.59695  Biso   1.000  O
  O1097    1.0000 0.08138  0.04823  0.57913  Biso   1.000  O
  H5156    1.0000 0.55644  0.62189  0.92017  Biso   1.000  H
  C7558    1.0000 0.56517  0.67851  0.99128  Biso   1.000  C
  C7559    1.0000 0.56516  0.67847  0.99128  Biso   1.000  C
  C7560    1.0000 0.56514  0.67851  0.99128  Biso   1.000  C
  C7561    1.0000 0.61696  0.66868  0.06079  Biso   1.000  C
  H5157    1.0000 0.64294  0.60546  0.03639  Biso   1.000  H
  C7562    1.0000 0.61694  0.66872  0.06079  Biso   1.000  C
  H5158    1.0000 0.64295  0.60550  0.03639  Biso   1.000  H
  C7563    1.0000 0.61693  0.66868  0.06079  Biso   1.000  C
  H5159    1.0000 0.64297  0.60546  0.03639  Biso   1.000  H
  C7564    1.0000 0.61697  0.66872  0.06079  Biso   1.000  C
  H5160    1.0000 0.46110  0.99710  0.22751  Biso   1.000  H
  H5161    1.0000 0.46109  0.99712  0.22748  Biso   1.000  H
  H5162    1.0000 0.46111  0.99713  0.22751  Biso   1.000  H
  H5163    1.0000 0.46105  0.99708  0.22748  Biso   1.000  H
  H5164    1.0000 0.46108  0.99708  0.22748  Biso   1.000  H
  O1098    1.0000 0.49490  0.99639  0.09921  Biso   1.000  O
  O1099    1.0000 0.49486  0.99641  0.09917  Biso   1.000  O
  O1100    1.0000 0.49487  0.99639  0.09921  Biso   1.000  O
  O1101    1.0000 0.49485  0.99637  0.09917  Biso   1.000  O
  O1102    1.0000 0.49490  0.99641  0.09917  Biso   1.000  O
  O1103    1.0000 0.50624  0.05530  0.18220  Biso   1.000  O
  O1104    1.0000 0.50620  0.05530  0.18220  Biso   1.000  O
  O1105    1.0000 0.37889  0.88680  0.26961  Biso   1.000  O
  O1106    1.0000 0.42309  0.97909  0.30199  Biso   1.000  O
  O1107    1.0000 0.37890  0.88684  0.26961  Biso   1.000  O
  O1108    1.0000 0.42310  0.97913  0.30199  Biso   1.000  O
  O1109    1.0000 0.37885  0.88680  0.26961  Biso   1.000  O
  O1110    1.0000 0.42306  0.97909  0.30199  Biso   1.000  O
  C7565    1.0000 0.75215  0.98295  0.53154  Biso   1.000  C
  C7566    1.0000 0.75211  0.98295  0.53154  Biso   1.000  C
  C7567    1.0000 0.75212  0.98298  0.53154  Biso   1.000  C
  C7568    1.0000 0.75216  0.98298  0.53154  Biso   1.000  C
  C7569    1.0000 0.78135  0.03934  0.55152  Biso   1.000  C
  C7570    1.0000 0.78138  0.03934  0.55152  Biso   1.000  C
  C7571    1.0000 0.09849  0.14076  0.61155  Biso   1.000  C
  C7572    1.0000 0.09845  0.14076  0.61155  Biso   1.000  C
  C7573    1.0000 0.11999  0.09976  0.60024  Biso   1.000  C
  C7574    1.0000 0.11996  0.09976  0.60024  Biso   1.000  C
  C7575    1.0000 0.11995  0.09972  0.60024  Biso   1.000  C
  C7576    1.0000 0.11998  0.09972  0.60024  Biso   1.000  C
  B604     1.0000 0.53146  0.70728  0.97036  Biso   1.000  B
  B605     1.0000 0.53147  0.70732  0.97036  Biso   1.000  B
  B606     1.0000 0.53143  0.70728  0.97036  Biso   1.000  B
  C7577    1.0000 0.58776  0.69598  0.04391  Biso   1.000  C
  C7578    1.0000 0.58772  0.69600  0.04387  Biso   1.000  C
  C7579    1.0000 0.58777  0.69602  0.04391  Biso   1.000  C
  C7580    1.0000 0.58775  0.69596  0.04387  Biso   1.000  C
  C7581    1.0000 0.58776  0.69600  0.04387  Biso   1.000  C
  C7582    1.0000 0.58771  0.69596  0.04387  Biso   1.000  C
  B607     1.0000 0.64397  0.68959  0.11609  Biso   1.000  B
  B608     1.0000 0.64394  0.68962  0.11609  Biso   1.000  B
  B609     1.0000 0.64393  0.68959  0.11609  Biso   1.000  B
  B610     1.0000 0.64398  0.68962  0.11609  Biso   1.000  B
  C7583    1.0000 0.52290  0.04798  0.10568  Biso   1.000  C
  C7584    1.0000 0.52291  0.04802  0.10568  Biso   1.000  C
  C7585    1.0000 0.52293  0.04798  0.10568  Biso   1.000  C
  C7586    1.0000 0.52965  0.08291  0.15641  Biso   1.000  C
  C7587    1.0000 0.52960  0.08286  0.15637  Biso   1.000  C
  C7588    1.0000 0.52962  0.08291  0.15641  Biso   1.000  C
  C7589    1.0000 0.52964  0.08290  0.15637  Biso   1.000  C
  C7590    1.0000 0.52961  0.08290  0.15637  Biso   1.000  C
  C7591    1.0000 0.37742  0.91020  0.31872  Biso   1.000  C
  C7592    1.0000 0.37739  0.91024  0.31872  Biso   1.000  C
  C7593    1.0000 0.37738  0.91020  0.31872  Biso   1.000  C
  C7594    1.0000 0.37743  0.91024  0.31872  Biso   1.000  C
  C7595    1.0000 0.40522  0.96690  0.33800  Biso   1.000  C
  C7596    1.0000 0.40519  0.96694  0.33800  Biso   1.000  C
  C7597    1.0000 0.40518  0.96690  0.33800  Biso   1.000  C
  C7598    1.0000 0.40523  0.96694  0.33800  Biso   1.000  C
  C7599    1.0000 0.69824  0.96466  0.52344  Biso   1.000  C
  C7600    1.0000 0.69820  0.96466  0.52344  Biso   1.000  C
  C7601    1.0000 0.75658  0.07745  0.56364  Biso   1.000  C
  C7602    1.0000 0.75654  0.07745  0.56364  Biso   1.000  C
  C7603    1.0000 0.13129  0.19638  0.63343  Biso   1.000  C
  C7604    1.0000 0.13128  0.19634  0.63343  Biso   1.000  C
  C7605    1.0000 0.13126  0.19638  0.63343  Biso   1.000  C
  C7606    1.0000 0.17419  0.11425  0.61093  Biso   1.000  C
  C7607    1.0000 0.17415  0.11425  0.61093  Biso   1.000  C
  O1111    1.0000 0.50995  0.69060  0.91808  Biso   1.000  O
  O1112    1.0000 0.50993  0.69055  0.91804  Biso   1.000  O
  O1113    1.0000 0.50994  0.69059  0.91804  Biso   1.000  O
  O1114    1.0000 0.52055  0.75149  0.00328  Biso   1.000  O
  O1115    1.0000 0.52058  0.75149  0.00328  Biso   1.000  O
  H5165    1.0000 0.58347  0.72600  0.06780  Biso   1.000  H
  H5166    1.0000 0.58343  0.72600  0.06780  Biso   1.000  H
  O1116    1.0000 0.64086  0.73370  0.15730  Biso   1.000  O
  O1117    1.0000 0.67657  0.66609  0.13809  Biso   1.000  O
  O1118    1.0000 0.64087  0.73374  0.15730  Biso   1.000  O
  O1119    1.0000 0.67655  0.66613  0.13809  Biso   1.000  O
  O1120    1.0000 0.67654  0.66609  0.13809  Biso   1.000  O
  O1121    1.0000 0.64090  0.73370  0.15730  Biso   1.000  O
  O1122    1.0000 0.67658  0.66613  0.13809  Biso   1.000  O
  C7608    1.0000 0.54172  0.07008  0.07438  Biso   1.000  C
  C7609    1.0000 0.54167  0.07006  0.07435  Biso   1.000  C
  C7610    1.0000 0.54173  0.07012  0.07438  Biso   1.000  C
  C7611    1.0000 0.54171  0.07006  0.07435  Biso   1.000  C
  C7612    1.0000 0.55522  0.13989  0.17581  Biso   1.000  C
  C7613    1.0000 0.55525  0.13989  0.17581  Biso   1.000  C
  C7614    1.0000 0.35389  0.88976  0.34881  Biso   1.000  C
  C7615    1.0000 0.35390  0.88980  0.34881  Biso   1.000  C
  C7616    1.0000 0.35393  0.88980  0.34881  Biso   1.000  C
  C7617    1.0000 0.40947  0.00303  0.38742  Biso   1.000  C
  C7618    1.0000 0.40941  0.00298  0.38738  Biso   1.000  C
  C7619    1.0000 0.40943  0.00303  0.38742  Biso   1.000  C
  C7620    1.0000 0.40946  0.00301  0.38738  Biso   1.000  C
  C7621    1.0000 0.40945  0.00298  0.38738  Biso   1.000  C
  C7622    1.0000 0.40942  0.00301  0.38738  Biso   1.000  C
  H5167    1.0000 0.67862  0.92695  0.51004  Biso   1.000  H
  H5168    1.0000 0.67863  0.92699  0.51004  Biso   1.000  H
  C7623    1.0000 0.67335  0.00275  0.53553  Biso   1.000  C
  C7624    1.0000 0.67334  0.00271  0.53553  Biso   1.000  C
  C7625    1.0000 0.67338  0.00275  0.53553  Biso   1.000  C
  C7626    1.0000 0.70256  0.05917  0.55555  Biso   1.000  C
  H5169    1.0000 0.77608  0.11527  0.57704  Biso   1.000  H
  C7627    1.0000 0.70255  0.05913  0.55555  Biso   1.000  C
  H5170    1.0000 0.77607  0.11524  0.57704  Biso   1.000  H
  C7628    1.0000 0.70259  0.05917  0.55555  Biso   1.000  C
  H5171    1.0000 0.11700  0.22378  0.64094  Biso   1.000  H
  C7629    1.0000 0.18561  0.21089  0.64416  Biso   1.000  C
  H5172    1.0000 0.11697  0.22378  0.64094  Biso   1.000  H
  C7630    1.0000 0.18555  0.21083  0.64412  Biso   1.000  C
  H5173    1.0000 0.11696  0.22374  0.64094  Biso   1.000  H
  C7631    1.0000 0.18560  0.21085  0.64416  Biso   1.000  C
  C7632    1.0000 0.18556  0.21087  0.64412  Biso   1.000  C
  C7633    1.0000 0.18557  0.21089  0.64416  Biso   1.000  C
  C7634    1.0000 0.18558  0.21083  0.64412  Biso   1.000  C
  H5174    1.0000 0.11699  0.22374  0.64094  Biso   1.000  H
  C7635    1.0000 0.20700  0.16989  0.63285  Biso   1.000  C
  H5175    1.0000 0.18860  0.08687  0.60346  Biso   1.000  H
  C7636    1.0000 0.20696  0.16985  0.63285  Biso   1.000  C
  H5176    1.0000 0.18855  0.08685  0.60342  Biso   1.000  H
  H5177    1.0000 0.18855  0.08684  0.60346  Biso   1.000  H
  C7637    1.0000 0.20697  0.16989  0.63285  Biso   1.000  C
  H5178    1.0000 0.18856  0.08687  0.60346  Biso   1.000  H
  C7638    1.0000 0.20699  0.16985  0.63285  Biso   1.000  C
  H5179    1.0000 0.18858  0.08685  0.60342  Biso   1.000  H
  H5180    1.0000 0.18859  0.08684  0.60346  Biso   1.000  H
  C7639    1.0000 0.48396  0.72558  0.91638  Biso   1.000  C
  C7640    1.0000 0.48392  0.72556  0.91634  Biso   1.000  C
  C7641    1.0000 0.48397  0.72562  0.91638  Biso   1.000  C
  C7642    1.0000 0.48393  0.72558  0.91638  Biso   1.000  C
  C7643    1.0000 0.48395  0.72556  0.91634  Biso   1.000  C
  C7644    1.0000 0.49069  0.76111  0.96688  Biso   1.000  C
  C7645    1.0000 0.49063  0.76106  0.96684  Biso   1.000  C
  C7646    1.0000 0.49065  0.76111  0.96688  Biso   1.000  C
  C7647    1.0000 0.49064  0.76109  0.96684  Biso   1.000  C
  C7648    1.0000 0.49067  0.76106  0.96684  Biso   1.000  C
  C7649    1.0000 0.67148  0.73821  0.20230  Biso   1.000  C
  C7650    1.0000 0.67145  0.73821  0.20230  Biso   1.000  C
  C7651    1.0000 0.69308  0.69731  0.19080  Biso   1.000  C
  C7652    1.0000 0.69304  0.69731  0.19080  Biso   1.000  C
  C7653    1.0000 0.56732  0.12717  0.09379  Biso   1.000  C
  C7654    1.0000 0.56733  0.12721  0.09379  Biso   1.000  C
  C7655    1.0000 0.56735  0.12717  0.09379  Biso   1.000  C
  H5181    1.0000 0.53721  0.04677  0.04038  Biso   1.000  H
  H5182    1.0000 0.53722  0.04681  0.04038  Biso   1.000  H
  C7656    1.0000 0.57401  0.16205  0.14448  Biso   1.000  C
  C7657    1.0000 0.57402  0.16209  0.14448  Biso   1.000  C
  C7658    1.0000 0.57405  0.16205  0.14448  Biso   1.000  C
  H5183    1.0000 0.55976  0.16332  0.20982  Biso   1.000  H
  H5184    1.0000 0.55971  0.16330  0.20978  Biso   1.000  H
  H5185    1.0000 0.55972  0.16332  0.20982  Biso   1.000  H
  H5186    1.0000 0.55975  0.16330  0.20978  Biso   1.000  H
  H5187    1.0000 0.33531  0.85192  0.33591  Biso   1.000  H
  C7659    1.0000 0.35823  0.92590  0.39830  Biso   1.000  C
  H5188    1.0000 0.33532  0.85196  0.33591  Biso   1.000  H
  C7660    1.0000 0.35820  0.92593  0.39830  Biso   1.000  C
  H5189    1.0000 0.33527  0.85192  0.33591  Biso   1.000  H
  C7661    1.0000 0.35819  0.92590  0.39830  Biso   1.000  C
  C7662    1.0000 0.35824  0.92593  0.39830  Biso   1.000  C
  C7663    1.0000 0.38601  0.98252  0.41759  Biso   1.000  C
  C7664    1.0000 0.38602  0.98256  0.41759  Biso   1.000  C
  H5190    1.0000 0.42804  0.04091  0.40040  Biso   1.000  H
  H5191    1.0000 0.42807  0.04091  0.40040  Biso   1.000  H
  C7665    1.0000 0.61302  0.98337  0.52724  Biso   1.000  C
  C7666    1.0000 0.66659  0.09399  0.56945  Biso   1.000  C
  C7667    1.0000 0.66654  0.09393  0.56941  Biso   1.000  C
  C7668    1.0000 0.66655  0.09395  0.56945  Biso   1.000  C
  C7669    1.0000 0.66658  0.09397  0.56941  Biso   1.000  C
  C7670    1.0000 0.66657  0.09393  0.56941  Biso   1.000  C
  C7671    1.0000 0.66658  0.09395  0.56945  Biso   1.000  C
  C7672    1.0000 0.66655  0.09397  0.56941  Biso   1.000  C
  C7673    1.0000 0.22571  0.27005  0.67084  Biso   1.000  C
  C7674    1.0000 0.22568  0.27005  0.67084  Biso   1.000  C
  C7675    1.0000 0.22569  0.27009  0.67084  Biso   1.000  C
  C7676    1.0000 0.27000  0.19315  0.64993  Biso   1.000  C
  C7677    1.0000 0.26997  0.19315  0.64993  Biso   1.000  C
  C7678    1.0000 0.26998  0.19318  0.64993  Biso   1.000  C
  C7679    1.0000 0.45446  0.73001  0.87498  Biso   1.000  C
  C7680    1.0000 0.45443  0.72995  0.87494  Biso   1.000  C
  C7681    1.0000 0.45441  0.72999  0.87494  Biso   1.000  C
  C7682    1.0000 0.45444  0.72999  0.87494  Biso   1.000  C
  C7683    1.0000 0.46789  0.80099  0.97598  Biso   1.000  C
  C7684    1.0000 0.46784  0.80097  0.97594  Biso   1.000  C
  C7685    1.0000 0.46785  0.80099  0.97598  Biso   1.000  C
  C7686    1.0000 0.46788  0.80097  0.97594  Biso   1.000  C
  C7687    1.0000 0.68299  0.77539  0.25362  Biso   1.000  C
  C7688    1.0000 0.68295  0.77541  0.25358  Biso   1.000  C
  C7689    1.0000 0.68296  0.77543  0.25362  Biso   1.000  C
  C7690    1.0000 0.68298  0.77538  0.25358  Biso   1.000  C
  C7691    1.0000 0.68299  0.77541  0.25358  Biso   1.000  C
  C7692    1.0000 0.68300  0.77543  0.25362  Biso   1.000  C
  C7693    1.0000 0.68294  0.77538  0.25358  Biso   1.000  C
  C7694    1.0000 0.72608  0.69360  0.23042  Biso   1.000  C
  C7695    1.0000 0.72608  0.69362  0.23038  Biso   1.000  C
  C7696    1.0000 0.72607  0.69358  0.23038  Biso   1.000  C
  C7697    1.0000 0.58860  0.15088  0.06188  Biso   1.000  C
  C7698    1.0000 0.58864  0.15088  0.06188  Biso   1.000  C
  C7699    1.0000 0.60214  0.22310  0.15889  Biso   1.000  C
  C7700    1.0000 0.60211  0.22310  0.15889  Biso   1.000  C
  C7701    1.0000 0.33360  0.90610  0.43060  Biso   1.000  C
  C7702    1.0000 0.33361  0.90613  0.43060  Biso   1.000  C
  C7703    1.0000 0.33357  0.90613  0.43060  Biso   1.000  C
  C7704    1.0000 0.38717  0.01672  0.47282  Biso   1.000  C
  C7705    1.0000 0.38713  0.01672  0.47282  Biso   1.000  C
  H5192    1.0000 0.59363  0.94327  0.51194  Biso   1.000  H
  H5193    1.0000 0.59360  0.94327  0.51194  Biso   1.000  H
  C7706    1.0000 0.59506  0.01296  0.49792  Biso   1.000  C
  C7707    1.0000 0.61418  0.01756  0.58247  Biso   1.000  C
  C7708    1.0000 0.59503  0.01296  0.49792  Biso   1.000  C
  C7709    1.0000 0.61415  0.01756  0.58247  Biso   1.000  C
  C7710    1.0000 0.59505  0.01292  0.49792  Biso   1.000  C
  C7711    1.0000 0.61414  0.01752  0.58247  Biso   1.000  C
  C7712    1.0000 0.61417  0.01752  0.58247  Biso   1.000  C
  C7713    1.0000 0.62257  0.06983  0.51853  Biso   1.000  C
  H5194    1.0000 0.68506  0.13425  0.58494  Biso   1.000  H
  C7714    1.0000 0.64197  0.07419  0.60175  Biso   1.000  C
  C7715    1.0000 0.62254  0.06983  0.51853  Biso   1.000  C
  C7716    1.0000 0.64196  0.07415  0.60175  Biso   1.000  C
  C7717    1.0000 0.62258  0.06987  0.51853  Biso   1.000  C
  H5195    1.0000 0.68510  0.13425  0.58494  Biso   1.000  H
  C7718    1.0000 0.64200  0.07419  0.60175  Biso   1.000  C
  C7719    1.0000 0.62255  0.06987  0.51853  Biso   1.000  C
  C7720    1.0000 0.26121  0.27335  0.63924  Biso   1.000  C
  H5196    1.0000 0.21082  0.29927  0.67936  Biso   1.000  H
  C7721    1.0000 0.26260  0.26939  0.71836  Biso   1.000  C
  C7722    1.0000 0.26117  0.27335  0.63924  Biso   1.000  C
  H5197    1.0000 0.21077  0.29925  0.67932  Biso   1.000  H
  C7723    1.0000 0.26259  0.26937  0.71832  Biso   1.000  C
  H5198    1.0000 0.21079  0.29927  0.67936  Biso   1.000  H
  C7724    1.0000 0.26259  0.26935  0.71836  Biso   1.000  C
  C7725    1.0000 0.26255  0.26937  0.71832  Biso   1.000  C
  H5199    1.0000 0.21081  0.29925  0.67932  Biso   1.000  H
  C7726    1.0000 0.28188  0.23196  0.62545  Biso   1.000  C
  H5200    1.0000 0.28550  0.16457  0.64125  Biso   1.000  H
  C7727    1.0000 0.28409  0.22848  0.70686  Biso   1.000  C
  H5201    1.0000 0.28546  0.16457  0.64125  Biso   1.000  H
  C7728    1.0000 0.28408  0.22845  0.70686  Biso   1.000  C
  C7729    1.0000 0.43167  0.76988  0.88415  Biso   1.000  C
  C7730    1.0000 0.43164  0.76988  0.88415  Biso   1.000  C
  H5202    1.0000 0.44994  0.70619  0.84124  Biso   1.000  H
  H5203    1.0000 0.44993  0.70615  0.84124  Biso   1.000  H
  H5204    1.0000 0.44990  0.70619  0.84124  Biso   1.000  H
  C7731    1.0000 0.43835  0.80538  0.93466  Biso   1.000  C
  C7732    1.0000 0.43836  0.80541  0.93466  Biso   1.000  C
  C7733    1.0000 0.43831  0.80538  0.93466  Biso   1.000  C
  H5205    1.0000 0.47226  0.82468  0.00967  Biso   1.000  H
  H5206    1.0000 0.47223  0.82471  0.00967  Biso   1.000  H
  H5207    1.0000 0.47222  0.82468  0.00967  Biso   1.000  H
  H5208    1.0000 0.47227  0.82471  0.00967  Biso   1.000  H
  H5209    1.0000 0.66859  0.80279  0.26129  Biso   1.000  H
  C7734    1.0000 0.71610  0.77160  0.29320  Biso   1.000  C
  H5210    1.0000 0.66856  0.80283  0.26129  Biso   1.000  H
  C7735    1.0000 0.71608  0.77163  0.29320  Biso   1.000  C
  H5211    1.0000 0.66855  0.80279  0.26129  Biso   1.000  H
  C7736    1.0000 0.71607  0.77160  0.29320  Biso   1.000  C
  H5212    1.0000 0.66860  0.80283  0.26129  Biso   1.000  H
  C7737    1.0000 0.73759  0.73069  0.28169  Biso   1.000  C
  H5213    1.0000 0.74047  0.66619  0.22271  Biso   1.000  H
  C7738    1.0000 0.73757  0.73073  0.28169  Biso   1.000  C
  H5214    1.0000 0.74047  0.66621  0.22267  Biso   1.000  H
  C7739    1.0000 0.73756  0.73069  0.28169  Biso   1.000  C
  H5215    1.0000 0.74048  0.66623  0.22271  Biso   1.000  H
  H5216    1.0000 0.74046  0.66617  0.22267  Biso   1.000  H
  H5217    1.0000 0.74051  0.66619  0.22271  Biso   1.000  H
  C7740    1.0000 0.73760  0.73073  0.28169  Biso   1.000  C
  C7741    1.0000 0.56184  0.19470  0.06540  Biso   1.000  C
  C7742    1.0000 0.56181  0.19470  0.06540  Biso   1.000  C
  C7743    1.0000 0.64602  0.18790  0.09549  Biso   1.000  C
  H5218    1.0000 0.58350  0.12419  0.02679  Biso   1.000  H
  H5219    1.0000 0.58354  0.12419  0.02679  Biso   1.000  H
  C7744    1.0000 0.64606  0.18790  0.09549  Biso   1.000  C
  C7745    1.0000 0.56852  0.23020  0.11590  Biso   1.000  C
  C7746    1.0000 0.56856  0.23020  0.11590  Biso   1.000  C
  C7747    1.0000 0.65144  0.22511  0.14499  Biso   1.000  C
  H5220    1.0000 0.60733  0.24920  0.19429  Biso   1.000  H
  C7748    1.0000 0.65139  0.22507  0.14499  Biso   1.000  C
  H5221    1.0000 0.60736  0.24920  0.19429  Biso   1.000  H
  C7749    1.0000 0.65143  0.22507  0.14499  Biso   1.000  C
  C7750    1.0000 0.65140  0.22511  0.14499  Biso   1.000  C
  C7751    1.0000 0.37762  0.93025  0.48153  Biso   1.000  C
  H5222    1.0000 0.31513  0.86583  0.41511  Biso   1.000  H
  C7752    1.0000 0.29763  0.94092  0.44451  Biso   1.000  C
  C7753    1.0000 0.37761  0.93023  0.48149  Biso   1.000  C
  H5223    1.0000 0.31510  0.86583  0.41511  Biso   1.000  H
  C7754    1.0000 0.29761  0.94095  0.44451  Biso   1.000  C
  C7755    1.0000 0.29760  0.94092  0.44451  Biso   1.000  C
  C7756    1.0000 0.40513  0.98712  0.50213  Biso   1.000  C
  C7757    1.0000 0.32685  0.99733  0.46453  Biso   1.000  C
  C7758    1.0000 0.40513  0.98714  0.50209  Biso   1.000  C
  C7759    1.0000 0.32681  0.99735  0.46449  Biso   1.000  C
  C7760    1.0000 0.40514  0.98716  0.50213  Biso   1.000  C
  C7761    1.0000 0.32681  0.99733  0.46453  Biso   1.000  C
  C7762    1.0000 0.40508  0.98711  0.50209  Biso   1.000  C
  C7763    1.0000 0.32680  0.99731  0.46449  Biso   1.000  C
  C7764    1.0000 0.40510  0.98712  0.50213  Biso   1.000  C
  C7765    1.0000 0.32684  0.99735  0.46449  Biso   1.000  C
  C7766    1.0000 0.40512  0.98711  0.50209  Biso   1.000  C
  H5224    1.0000 0.40656  0.05681  0.48811  Biso   1.000  H
  H5225    1.0000 0.40652  0.05681  0.48811  Biso   1.000  H
  H5226    1.0000 0.40657  0.05685  0.48811  Biso   1.000  H
  C7767    1.0000 0.55522  0.98536  0.45025  Biso   1.000  C
  C7768    1.0000 0.55521  0.98534  0.45021  Biso   1.000  C
  C7769    1.0000 0.55518  0.98534  0.45021  Biso   1.000  C
  C7770    1.0000 0.59072  0.99705  0.61263  Biso   1.000  C
  C7771    1.0000 0.59073  0.99709  0.61263  Biso   1.000  C
  C7772    1.0000 0.61007  0.09904  0.49153  Biso   1.000  C
  C7773    1.0000 0.61003  0.09904  0.49153  Biso   1.000  C
  C7774    1.0000 0.64630  0.11032  0.65125  Biso   1.000  C
  C7775    1.0000 0.64627  0.11032  0.65125  Biso   1.000  C
  C7776    1.0000 0.64626  0.11028  0.65125  Biso   1.000  C
  C7777    1.0000 0.64629  0.11028  0.65125  Biso   1.000  C
  C7778    1.0000 0.27110  0.31317  0.62073  Biso   1.000  C
  C7779    1.0000 0.27106  0.31317  0.62073  Biso   1.000  C
  C7780    1.0000 0.27109  0.31313  0.62073  Biso   1.000  C
  C7781    1.0000 0.27411  0.30648  0.76964  Biso   1.000  C
  C7782    1.0000 0.27408  0.30648  0.76964  Biso   1.000  C
  C7783    1.0000 0.27410  0.30644  0.76964  Biso   1.000  C
  C7784    1.0000 0.31259  0.23027  0.59315  Biso   1.000  C
  C7785    1.0000 0.31258  0.23025  0.59312  Biso   1.000  C
  C7786    1.0000 0.31258  0.23023  0.59315  Biso   1.000  C
  C7787    1.0000 0.31254  0.23025  0.59312  Biso   1.000  C
  C7788    1.0000 0.31720  0.22469  0.74644  Biso   1.000  C
  C7789    1.0000 0.31719  0.22465  0.74644  Biso   1.000  C
  C7790    1.0000 0.31717  0.22469  0.74644  Biso   1.000  C
  C7791    1.0000 0.39805  0.77698  0.84117  Biso   1.000  C
  C7792    1.0000 0.39801  0.77698  0.84117  Biso   1.000  C
  C7793    1.0000 0.41159  0.84920  0.93818  Biso   1.000  C
  C7794    1.0000 0.41154  0.84918  0.93814  Biso   1.000  C
  C7795    1.0000 0.41156  0.84920  0.93818  Biso   1.000  C
  C7796    1.0000 0.73019  0.80694  0.35013  Biso   1.000  C
  C7797    1.0000 0.73018  0.80692  0.35009  Biso   1.000  C
  C7798    1.0000 0.73021  0.80692  0.35009  Biso   1.000  C
  C7799    1.0000 0.73023  0.80694  0.35013  Biso   1.000  C
  C7800    1.0000 0.77448  0.73003  0.32921  Biso   1.000  C
  C7801    1.0000 0.77452  0.73003  0.32921  Biso   1.000  C
  C7802    1.0000 0.53230  0.19909  0.02408  Biso   1.000  C
  C7803    1.0000 0.53234  0.19909  0.02408  Biso   1.000  C
  C7804    1.0000 0.69033  0.18777  0.08039  Biso   1.000  C
  C7805    1.0000 0.69029  0.18777  0.08039  Biso   1.000  C
  C7806    1.0000 0.69030  0.18781  0.08039  Biso   1.000  C
  C7807    1.0000 0.69034  0.18781  0.08039  Biso   1.000  C
  C7808    1.0000 0.54574  0.27008  0.12508  Biso   1.000  C
  C7809    1.0000 0.54570  0.27008  0.12508  Biso   1.000  C
  C7810    1.0000 0.54571  0.27011  0.12508  Biso   1.000  C
  C7811    1.0000 0.54575  0.27011  0.12508  Biso   1.000  C
  C7812    1.0000 0.70133  0.26220  0.17930  Biso   1.000  C
  C7813    1.0000 0.70136  0.26220  0.17930  Biso   1.000  C
  C7814    1.0000 0.39013  0.90104  0.50852  Biso   1.000  C
  C7815    1.0000 0.39009  0.90104  0.50852  Biso   1.000  C
  C7816    1.0000 0.24362  0.92263  0.43641  Biso   1.000  C
  C7817    1.0000 0.24358  0.92263  0.43641  Biso   1.000  C
  C7818    1.0000 0.44497  0.01472  0.54981  Biso   1.000  C
  C7819    1.0000 0.44493  0.01472  0.54981  Biso   1.000  C
  C7820    1.0000 0.30196  0.03542  0.47661  Biso   1.000  C
  C7821    1.0000 0.53012  0.92406  0.42244  Biso   1.000  C
  C7822    1.0000 0.53008  0.92406  0.42244  Biso   1.000  C
  C7823    1.0000 0.54265  0.01466  0.42314  Biso   1.000  C
  C7824    1.0000 0.54264  0.01462  0.42314  Biso   1.000  C
  C7825    1.0000 0.54268  0.01466  0.42314  Biso   1.000  C
  H5227    1.0000 0.57215  0.95917  0.59966  Biso   1.000  H
  H5228    1.0000 0.57211  0.95915  0.59962  Biso   1.000  H
  H5229    1.0000 0.57212  0.95917  0.59966  Biso   1.000  H
  H5230    1.0000 0.57214  0.95915  0.59962  Biso   1.000  H
  C7826    1.0000 0.59497  0.03318  0.66205  Biso   1.000  C
  C7827    1.0000 0.59496  0.03314  0.66205  Biso   1.000  C
  C7828    1.0000 0.59501  0.03318  0.66205  Biso   1.000  C
  C7829    1.0000 0.57005  0.07146  0.44382  Biso   1.000  C
  C7830    1.0000 0.64147  0.15967  0.50993  Biso   1.000  C
  C7831    1.0000 0.57004  0.07142  0.44382  Biso   1.000  C
  C7832    1.0000 0.64146  0.15964  0.50993  Biso   1.000  C
  C7833    1.0000 0.57008  0.07146  0.44382  Biso   1.000  C
  C7834    1.0000 0.64150  0.15967  0.50993  Biso   1.000  C
  C7835    1.0000 0.62278  0.08988  0.68134  Biso   1.000  C
  H5231    1.0000 0.66488  0.14816  0.66414  Biso   1.000  H
  C7836    1.0000 0.62277  0.08984  0.68134  Biso   1.000  C
  C7837    1.0000 0.62281  0.08988  0.68134  Biso   1.000  C
  C7838    1.0000 0.30171  0.31137  0.58843  Biso   1.000  C
  C7839    1.0000 0.25150  0.35958  0.63583  Biso   1.000  C
  C7840    1.0000 0.30167  0.31137  0.58843  Biso   1.000  C
  C7841    1.0000 0.25149  0.35954  0.63583  Biso   1.000  C
  C7842    1.0000 0.30166  0.31133  0.58843  Biso   1.000  C
  C7843    1.0000 0.25146  0.35958  0.63583  Biso   1.000  C
  C7844    1.0000 0.30170  0.31133  0.58843  Biso   1.000  C
  H5232    1.0000 0.25972  0.33389  0.77734  Biso   1.000  H
  C7845    1.0000 0.30711  0.30277  0.80925  Biso   1.000  C
  H5233    1.0000 0.25968  0.33385  0.77734  Biso   1.000  H
  H5234    1.0000 0.25969  0.33389  0.77734  Biso   1.000  H
  C7846    1.0000 0.30708  0.30277  0.80925  Biso   1.000  C
  H5235    1.0000 0.25971  0.33385  0.77734  Biso   1.000  H
  C7847    1.0000 0.32238  0.26998  0.57464  Biso   1.000  C
  C7848    1.0000 0.33411  0.18457  0.57735  Biso   1.000  C
  C7849    1.0000 0.32237  0.26994  0.57464  Biso   1.000  C
  C7850    1.0000 0.33406  0.18455  0.57731  Biso   1.000  C
  C7851    1.0000 0.33406  0.18453  0.57735  Biso   1.000  C
  C7852    1.0000 0.33407  0.18457  0.57735  Biso   1.000  C
  C7853    1.0000 0.33410  0.18455  0.57731  Biso   1.000  C
  C7854    1.0000 0.33410  0.18453  0.57735  Biso   1.000  C
  C7855    1.0000 0.32871  0.26187  0.79775  Biso   1.000  C
  H5236    1.0000 0.33160  0.19729  0.73877  Biso   1.000  H
  H5237    1.0000 0.33159  0.19727  0.73873  Biso   1.000  H
  H5238    1.0000 0.33160  0.19725  0.73877  Biso   1.000  H
  C7856    1.0000 0.32868  0.26187  0.79775  Biso   1.000  C
  H5239    1.0000 0.33156  0.19727  0.73873  Biso   1.000  H
  C7857    1.0000 0.42618  0.83803  0.85557  Biso   1.000  C
  C7858    1.0000 0.42612  0.83798  0.85553  Biso   1.000  C
  C7859    1.0000 0.42614  0.83803  0.85557  Biso   1.000  C
  C7860    1.0000 0.42613  0.83801  0.85553  Biso   1.000  C
  C7861    1.0000 0.42616  0.83798  0.85553  Biso   1.000  C
  C7862    1.0000 0.34875  0.77497  0.85507  Biso   1.000  C
  H5240    1.0000 0.39286  0.75088  0.80577  Biso   1.000  H
  C7863    1.0000 0.34874  0.77495  0.85503  Biso   1.000  C
  H5241    1.0000 0.39282  0.75087  0.80573  Biso   1.000  H
  C7864    1.0000 0.34876  0.77501  0.85507  Biso   1.000  C
  H5242    1.0000 0.39283  0.75088  0.80577  Biso   1.000  H
  C7865    1.0000 0.34870  0.77495  0.85503  Biso   1.000  C
  C7866    1.0000 0.34872  0.77497  0.85507  Biso   1.000  C
  H5243    1.0000 0.39285  0.75087  0.80573  Biso   1.000  H
  C7867    1.0000 0.43288  0.87291  0.90627  Biso   1.000  C
  C7868    1.0000 0.43283  0.87287  0.90627  Biso   1.000  C
  C7869    1.0000 0.43284  0.87291  0.90627  Biso   1.000  C
  C7870    1.0000 0.43287  0.87287  0.90627  Biso   1.000  C
  C7871    1.0000 0.35417  0.81218  0.90456  Biso   1.000  C
  H5244    1.0000 0.41669  0.87590  0.97327  Biso   1.000  H
  C7872    1.0000 0.35413  0.81218  0.90456  Biso   1.000  C
  H5245    1.0000 0.41665  0.87590  0.97327  Biso   1.000  H
  C7873    1.0000 0.71831  0.76812  0.37460  Biso   1.000  C
  H5246    1.0000 0.71469  0.83552  0.35880  Biso   1.000  H
  C7874    1.0000 0.79319  0.83019  0.36721  Biso   1.000  C
  C7875    1.0000 0.71828  0.76812  0.37460  Biso   1.000  C
  H5247    1.0000 0.71470  0.83555  0.35880  Biso   1.000  H
  C7876    1.0000 0.79320  0.83023  0.36721  Biso   1.000  C
  C7877    1.0000 0.79322  0.83019  0.36721  Biso   1.000  C
  C7878    1.0000 0.73898  0.72673  0.36082  Biso   1.000  C
  H5248    1.0000 0.78937  0.70081  0.32069  Biso   1.000  H
  C7879    1.0000 0.81459  0.78919  0.35590  Biso   1.000  C
  C7880    1.0000 0.81460  0.78923  0.35590  Biso   1.000  C
  C7881    1.0000 0.73902  0.72673  0.36082  Biso   1.000  C
  H5249    1.0000 0.78941  0.70081  0.32069  Biso   1.000  H
  C7882    1.0000 0.50950  0.23897  0.03318  Biso   1.000  C
  C7883    1.0000 0.50951  0.23901  0.03318  Biso   1.000  C
  C7884    1.0000 0.50954  0.23897  0.03318  Biso   1.000  C
  H5250    1.0000 0.52794  0.17540  0.99038  Biso   1.000  H
  H5251    1.0000 0.52792  0.17539  0.99035  Biso   1.000  H
  H5252    1.0000 0.52793  0.17537  0.99038  Biso   1.000  H
  H5253    1.0000 0.52789  0.17539  0.99035  Biso   1.000  H
  C7885    1.0000 0.74024  0.22490  0.11478  Biso   1.000  C
  C7886    1.0000 0.68491  0.14699  0.02698  Biso   1.000  C
  C7887    1.0000 0.74020  0.22490  0.11478  Biso   1.000  C
  C7888    1.0000 0.68495  0.14699  0.02698  Biso   1.000  C
  C7889    1.0000 0.51623  0.27450  0.08368  Biso   1.000  C
  C7890    1.0000 0.51622  0.27446  0.08368  Biso   1.000  C
  H5254    1.0000 0.55025  0.29389  0.15881  Biso   1.000  H
  H5255    1.0000 0.55021  0.29387  0.15877  Biso   1.000  H
  H5256    1.0000 0.55023  0.29393  0.15881  Biso   1.000  H
  H5257    1.0000 0.55024  0.29387  0.15877  Biso   1.000  H
  H5258    1.0000 0.55026  0.29393  0.15881  Biso   1.000  H
  C7891    1.0000 0.74575  0.26211  0.16419  Biso   1.000  C
  C7892    1.0000 0.70876  0.29642  0.23561  Biso   1.000  C
  C7893    1.0000 0.74570  0.26207  0.16419  Biso   1.000  C
  C7894    1.0000 0.70872  0.29639  0.23561  Biso   1.000  C
  C7895    1.0000 0.70873  0.29642  0.23561  Biso   1.000  C
  C7896    1.0000 0.74574  0.26207  0.16419  Biso   1.000  C
  C7897    1.0000 0.70875  0.29639  0.23561  Biso   1.000  C
  C7898    1.0000 0.74571  0.26211  0.16419  Biso   1.000  C
  C7899    1.0000 0.43015  0.92862  0.55624  Biso   1.000  C
  C7900    1.0000 0.35873  0.84041  0.49013  Biso   1.000  C
  C7901    1.0000 0.43011  0.92864  0.55620  Biso   1.000  C
  C7902    1.0000 0.35869  0.84043  0.49009  Biso   1.000  C
  C7903    1.0000 0.43012  0.92866  0.55624  Biso   1.000  C
  C7904    1.0000 0.35870  0.84045  0.49013  Biso   1.000  C
  C7905    1.0000 0.43010  0.92860  0.55620  Biso   1.000  C
  C7906    1.0000 0.43011  0.92862  0.55624  Biso   1.000  C
  C7907    1.0000 0.35869  0.84041  0.49013  Biso   1.000  C
  C7908    1.0000 0.43014  0.92864  0.55620  Biso   1.000  C
  C7909    1.0000 0.35872  0.84043  0.49009  Biso   1.000  C
  C7910    1.0000 0.43016  0.92866  0.55624  Biso   1.000  C
  C7911    1.0000 0.35874  0.84045  0.49013  Biso   1.000  C
  H5259    1.0000 0.22411  0.88481  0.42301  Biso   1.000  H
  C7912    1.0000 0.21885  0.96074  0.44853  Biso   1.000  C
  H5260    1.0000 0.22412  0.88485  0.42301  Biso   1.000  H
  C7913    1.0000 0.21881  0.96076  0.44849  Biso   1.000  C
  C7914    1.0000 0.21881  0.96074  0.44853  Biso   1.000  C
  H5261    1.0000 0.22408  0.88481  0.42301  Biso   1.000  H
  C7915    1.0000 0.21880  0.96072  0.44849  Biso   1.000  C
  C7916    1.0000 0.45755  0.98542  0.57692  Biso   1.000  C
  C7917    1.0000 0.45752  0.98546  0.57692  Biso   1.000  C
  C7918    1.0000 0.45751  0.98542  0.57692  Biso   1.000  C
  C7919    1.0000 0.45756  0.98546  0.57692  Biso   1.000  C
  C7920    1.0000 0.47008  0.07602  0.57761  Biso   1.000  C
  C7921    1.0000 0.47004  0.07602  0.57761  Biso   1.000  C
  C7922    1.0000 0.47005  0.07606  0.57761  Biso   1.000  C
  C7923    1.0000 0.47009  0.07606  0.57761  Biso   1.000  C
  C7924    1.0000 0.24805  0.01713  0.46852  Biso   1.000  C
  H5262    1.0000 0.32158  0.07313  0.49001  Biso   1.000  H
  C7925    1.0000 0.24804  0.01710  0.46852  Biso   1.000  C
  H5263    1.0000 0.32154  0.07313  0.49001  Biso   1.000  H
  C7926    1.0000 0.24808  0.01713  0.46852  Biso   1.000  C
  H5264    1.0000 0.51452  0.91246  0.38573  Biso   1.000  H
  H5265    1.0000 0.55630  0.90763  0.42682  Biso   1.000  H
  C7927    1.0000 0.48783  0.90517  0.44425  Biso   1.000  C
  H5266    1.0000 0.51451  0.91242  0.38573  Biso   1.000  H
  C7928    1.0000 0.48780  0.90511  0.44421  Biso   1.000  C
  H5267    1.0000 0.55631  0.90767  0.42682  Biso   1.000  H
  H5268    1.0000 0.51448  0.91246  0.38573  Biso   1.000  H
  H5269    1.0000 0.55627  0.90763  0.42682  Biso   1.000  H
  C7929    1.0000 0.48778  0.90515  0.44421  Biso   1.000  C
  C7930    1.0000 0.48779  0.90517  0.44425  Biso   1.000  C
  C7931    1.0000 0.48781  0.90515  0.44421  Biso   1.000  C
  H5270    1.0000 0.51602  0.99614  0.39123  Biso   1.000  H
  H5271    1.0000 0.51603  0.99617  0.39123  Biso   1.000  H
  H5272    1.0000 0.51598  0.99614  0.39123  Biso   1.000  H
  O1123    1.0000 0.57710  0.02099  0.69807  Biso   1.000  O
  O1124    1.0000 0.57704  0.02094  0.69803  Biso   1.000  O
  O1125    1.0000 0.57706  0.02096  0.69807  Biso   1.000  O
  O1126    1.0000 0.57709  0.02097  0.69803  Biso   1.000  O
  O1127    1.0000 0.57708  0.02094  0.69803  Biso   1.000  O
  O1128    1.0000 0.57709  0.02096  0.69807  Biso   1.000  O
  O1129    1.0000 0.57705  0.02097  0.69803  Biso   1.000  O
  H5273    1.0000 0.56175  0.09104  0.42573  Biso   1.000  H
  H5274    1.0000 0.56176  0.09107  0.42573  Biso   1.000  H
  H5275    1.0000 0.67897  0.16665  0.52143  Biso   1.000  H
  H5276    1.0000 0.63427  0.16976  0.48173  Biso   1.000  H
  C7932    1.0000 0.62619  0.19525  0.55543  Biso   1.000  C
  H5277    1.0000 0.63424  0.16976  0.48173  Biso   1.000  H
  C7933    1.0000 0.62615  0.19525  0.55543  Biso   1.000  C
  H5278    1.0000 0.67896  0.16662  0.52143  Biso   1.000  H
  H5279    1.0000 0.63426  0.16973  0.48173  Biso   1.000  H
  C7934    1.0000 0.62614  0.19522  0.55543  Biso   1.000  C
  H5280    1.0000 0.67900  0.16665  0.52143  Biso   1.000  H
  C7935    1.0000 0.62618  0.19522  0.55543  Biso   1.000  C
  O1130    1.0000 0.62130  0.11328  0.73044  Biso   1.000  O
  O1131    1.0000 0.62127  0.11328  0.73044  Biso   1.000  O
  O1132    1.0000 0.62126  0.11324  0.73044  Biso   1.000  O
  O1133    1.0000 0.62129  0.11324  0.73044  Biso   1.000  O
  H5281    1.0000 0.30831  0.33797  0.57604  Biso   1.000  H
  H5282    1.0000 0.30827  0.33797  0.57604  Biso   1.000  H
  H5283    1.0000 0.30826  0.33793  0.57604  Biso   1.000  H
  H5284    1.0000 0.30830  0.33793  0.57604  Biso   1.000  H
  H5285    1.0000 0.21511  0.34576  0.63463  Biso   1.000  H
  H5286    1.0000 0.25280  0.37599  0.61186  Biso   1.000  H
  C7936    1.0000 0.28653  0.40377  0.69125  Biso   1.000  C
  H5287    1.0000 0.21507  0.34576  0.63463  Biso   1.000  H
  H5288    1.0000 0.25278  0.37594  0.61182  Biso   1.000  H
  C7937    1.0000 0.28649  0.40377  0.69125  Biso   1.000  C
  H5289    1.0000 0.25279  0.37596  0.61186  Biso   1.000  H
  C7938    1.0000 0.28648  0.40374  0.69125  Biso   1.000  C
  H5290    1.0000 0.25275  0.37598  0.61182  Biso   1.000  H
  C7939    1.0000 0.28652  0.40374  0.69125  Biso   1.000  C
  H5291    1.0000 0.25279  0.37598  0.61182  Biso   1.000  H
  O1134    1.0000 0.32362  0.33399  0.86196  Biso   1.000  O
  O1135    1.0000 0.32361  0.33395  0.86196  Biso   1.000  O
  O1136    1.0000 0.32358  0.33399  0.86196  Biso   1.000  O
  H5292    1.0000 0.34288  0.26878  0.55303  Biso   1.000  H
  H5293    1.0000 0.34287  0.26874  0.55303  Biso   1.000  H
  H5294    1.0000 0.34400  0.18198  0.54684  Biso   1.000  H
  H5295    1.0000 0.30648  0.14948  0.56814  Biso   1.000  H
  C7940    1.0000 0.38230  0.19408  0.62034  Biso   1.000  C
  H5296    1.0000 0.34396  0.18194  0.54684  Biso   1.000  H
  H5297    1.0000 0.30647  0.14944  0.56814  Biso   1.000  H
  C7941    1.0000 0.38226  0.19405  0.62034  Biso   1.000  C
  H5298    1.0000 0.34397  0.18198  0.54684  Biso   1.000  H
  H5299    1.0000 0.30644  0.14948  0.56814  Biso   1.000  H
  C7942    1.0000 0.38227  0.19408  0.62034  Biso   1.000  C
  H5300    1.0000 0.34399  0.18194  0.54684  Biso   1.000  H
  C7943    1.0000 0.38229  0.19405  0.62034  Biso   1.000  C
  O1137    1.0000 0.35933  0.26638  0.84275  Biso   1.000  O
  O1138    1.0000 0.35929  0.26638  0.84275  Biso   1.000  O
  C7944    1.0000 0.44498  0.86019  0.82424  Biso   1.000  C
  C7945    1.0000 0.44494  0.86019  0.82424  Biso   1.000  C
  C7946    1.0000 0.29887  0.73788  0.82076  Biso   1.000  C
  C7947    1.0000 0.29883  0.73788  0.82076  Biso   1.000  C
  C7948    1.0000 0.45847  0.93000  0.92567  Biso   1.000  C
  C7949    1.0000 0.45846  0.92996  0.92567  Biso   1.000  C
  C7950    1.0000 0.45843  0.93000  0.92567  Biso   1.000  C
  C7951    1.0000 0.30987  0.81231  0.91967  Biso   1.000  C
  C7952    1.0000 0.30986  0.81227  0.91967  Biso   1.000  C
  C7953    1.0000 0.30983  0.81231  0.91967  Biso   1.000  C
  C7954    1.0000 0.68760  0.76981  0.40690  Biso   1.000  C
  C7955    1.0000 0.68758  0.76985  0.40690  Biso   1.000  C
  C7956    1.0000 0.68757  0.76981  0.40690  Biso   1.000  C
  C7957    1.0000 0.68761  0.76985  0.40690  Biso   1.000  C
  C7958    1.0000 0.82601  0.88583  0.38913  Biso   1.000  C
  C7959    1.0000 0.82599  0.88581  0.38909  Biso   1.000  C
  C7960    1.0000 0.82604  0.88583  0.38913  Biso   1.000  C
  C7961    1.0000 0.72909  0.68691  0.37933  Biso   1.000  C
  C7962    1.0000 0.72909  0.68693  0.37929  Biso   1.000  C
  C7963    1.0000 0.72908  0.68689  0.37929  Biso   1.000  C
  C7964    1.0000 0.86890  0.80370  0.36662  Biso   1.000  C
  C7965    1.0000 0.86890  0.80372  0.36659  Biso   1.000  C
  C7966    1.0000 0.86891  0.80374  0.36662  Biso   1.000  C
  O1139    1.0000 0.47964  0.24859  0.99677  Biso   1.000  O
  O1140    1.0000 0.47961  0.24859  0.99677  Biso   1.000  O
  H5301    1.0000 0.76994  0.22482  0.10471  Biso   1.000  H
  H5302    1.0000 0.76992  0.22476  0.10467  Biso   1.000  H
  H5303    1.0000 0.76993  0.22480  0.10467  Biso   1.000  H
  H5304    1.0000 0.71702  0.15928  0.01920  Biso   1.000  H
  H5305    1.0000 0.65593  0.14578  0.00158  Biso   1.000  H
  C7967    1.0000 0.67451  0.08788  0.02319  Biso   1.000  C
  H5306    1.0000 0.65589  0.14578  0.00158  Biso   1.000  H
  H5307    1.0000 0.71703  0.15931  0.01920  Biso   1.000  H
  H5308    1.0000 0.71705  0.15928  0.01920  Biso   1.000  H
  C7968    1.0000 0.67455  0.08788  0.02319  Biso   1.000  C
  O1141    1.0000 0.49024  0.30948  0.08198  Biso   1.000  O
  O1142    1.0000 0.49020  0.30948  0.08198  Biso   1.000  O
  O1143    1.0000 0.49021  0.30951  0.08198  Biso   1.000  O
  O1144    1.0000 0.49025  0.30951  0.08198  Biso   1.000  O
  H5309    1.0000 0.77904  0.28691  0.18720  Biso   1.000  H
  H5310    1.0000 0.77907  0.28691  0.18720  Biso   1.000  H
  H5311    1.0000 0.74557  0.31010  0.25652  Biso   1.000  H
  H5312    1.0000 0.68746  0.27411  0.24831  Biso   1.000  H
  C7969    1.0000 0.69145  0.34471  0.23801  Biso   1.000  C
  H5313    1.0000 0.74552  0.31008  0.25648  Biso   1.000  H
  H5314    1.0000 0.68743  0.27411  0.24831  Biso   1.000  H
  H5315    1.0000 0.74554  0.31014  0.25652  Biso   1.000  H
  H5316    1.0000 0.74556  0.31008  0.25648  Biso   1.000  H
  H5317    1.0000 0.74558  0.31014  0.25652  Biso   1.000  H
  H5318    1.0000 0.43844  0.90905  0.57432  Biso   1.000  H
  H5319    1.0000 0.43840  0.90905  0.57432  Biso   1.000  H
  H5320    1.0000 0.32123  0.83343  0.47863  Biso   1.000  H
  H5321    1.0000 0.36592  0.83032  0.51832  Biso   1.000  H
  C7970    1.0000 0.37401  0.80483  0.44462  Biso   1.000  C
  H5322    1.0000 0.32120  0.83346  0.47863  Biso   1.000  H
  H5323    1.0000 0.36593  0.83036  0.51832  Biso   1.000  H
  C7971    1.0000 0.37402  0.80486  0.44462  Biso   1.000  C
  H5324    1.0000 0.32119  0.83343  0.47863  Biso   1.000  H
  H5325    1.0000 0.36588  0.83032  0.51832  Biso   1.000  H
  H5326    1.0000 0.32124  0.83346  0.47863  Biso   1.000  H
  O1145    1.0000 0.16592  0.94963  0.44222  Biso   1.000  O
  O1146    1.0000 0.16593  0.94966  0.44222  Biso   1.000  O
  O1147    1.0000 0.16589  0.94963  0.44222  Biso   1.000  O
  H5327    1.0000 0.48418  0.00395  0.60883  Biso   1.000  H
  H5328    1.0000 0.48417  0.00391  0.60883  Biso   1.000  H
  H5329    1.0000 0.48567  0.08762  0.61433  Biso   1.000  H
  H5330    1.0000 0.44389  0.09245  0.57324  Biso   1.000  H
  C7972    1.0000 0.51237  0.09491  0.55581  Biso   1.000  C
  H5331    1.0000 0.48564  0.08762  0.61433  Biso   1.000  H
  H5332    1.0000 0.44383  0.09240  0.57320  Biso   1.000  H
  C7973    1.0000 0.51233  0.09491  0.55581  Biso   1.000  C
  H5333    1.0000 0.48568  0.08766  0.61433  Biso   1.000  H
  H5334    1.0000 0.44385  0.09245  0.57324  Biso   1.000  H
  C7974    1.0000 0.51238  0.09495  0.55581  Biso   1.000  C
  H5335    1.0000 0.44388  0.09243  0.57320  Biso   1.000  H
  H5336    1.0000 0.44387  0.09240  0.57320  Biso   1.000  H
  H5337    1.0000 0.44384  0.09243  0.57320  Biso   1.000  H
  O1148    1.0000 0.21388  0.04543  0.47793  Biso   1.000  O
  O1149    1.0000 0.21383  0.04541  0.47789  Biso   1.000  O
  O1150    1.0000 0.21384  0.04543  0.47793  Biso   1.000  O
  O1151    1.0000 0.21386  0.04541  0.47789  Biso   1.000  O
  H5338    1.0000 0.50393  0.91354  0.47972  Biso   1.000  H
  H5339    1.0000 0.46382  0.92415  0.44243  Biso   1.000  H
  H5340    1.0000 0.46892  0.86583  0.42442  Biso   1.000  H
  H5341    1.0000 0.50389  0.91354  0.47972  Biso   1.000  H
  H5342    1.0000 0.46888  0.86583  0.42442  Biso   1.000  H
  H5343    1.0000 0.50390  0.91358  0.47972  Biso   1.000  H
  H5344    1.0000 0.46889  0.86586  0.42442  Biso   1.000  H
  H5345    1.0000 0.46378  0.92415  0.44243  Biso   1.000  H
  H5346    1.0000 0.50394  0.91358  0.47972  Biso   1.000  H
  H5347    1.0000 0.46893  0.86586  0.42442  Biso   1.000  H
  B611     1.0000 0.59320  0.07367  0.74295  Biso   1.000  B
  B612     1.0000 0.59316  0.07367  0.74295  Biso   1.000  B
  B613     1.0000 0.59315  0.07363  0.74295  Biso   1.000  B
  B614     1.0000 0.59319  0.07363  0.74295  Biso   1.000  B
  H5348    1.0000 0.64988  0.20236  0.58785  Biso   1.000  H
  H5349    1.0000 0.62846  0.22986  0.55443  Biso   1.000  H
  H5350    1.0000 0.59068  0.17546  0.55226  Biso   1.000  H
  H5351    1.0000 0.59066  0.17545  0.55222  Biso   1.000  H
  H5352    1.0000 0.62845  0.22982  0.55443  Biso   1.000  H
  H5353    1.0000 0.59067  0.17543  0.55226  Biso   1.000  H
  H5354    1.0000 0.62850  0.22986  0.55443  Biso   1.000  H
  H5355    1.0000 0.32101  0.42187  0.69094  Biso   1.000  H
  H5356    1.0000 0.28961  0.38607  0.71375  Biso   1.000  H
  H5357    1.0000 0.27084  0.43069  0.70357  Biso   1.000  H
  H5358    1.0000 0.27079  0.43067  0.70353  Biso   1.000  H
  H5359    1.0000 0.32100  0.42184  0.69094  Biso   1.000  H
  H5360    1.0000 0.27079  0.43065  0.70357  Biso   1.000  H
  H5361    1.0000 0.32097  0.42187  0.69094  Biso   1.000  H
  H5362    1.0000 0.28958  0.38607  0.71375  Biso   1.000  H
  H5363    1.0000 0.27080  0.43069  0.70357  Biso   1.000  H
  H5364    1.0000 0.27082  0.43067  0.70353  Biso   1.000  H
  H5365    1.0000 0.27083  0.43065  0.70357  Biso   1.000  H
  B615     1.0000 0.35623  0.31050  0.88396  Biso   1.000  B
  B616     1.0000 0.35622  0.31046  0.88396  Biso   1.000  B
  B617     1.0000 0.35619  0.31050  0.88396  Biso   1.000  B
  H5366    1.0000 0.41028  0.18985  0.60655  Biso   1.000  H
  H5367    1.0000 0.37281  0.16737  0.63366  Biso   1.000  H
  H5368    1.0000 0.39399  0.23077  0.64784  Biso   1.000  H
  H5369    1.0000 0.37276  0.16735  0.63362  Biso   1.000  H
  H5370    1.0000 0.37276  0.16733  0.63366  Biso   1.000  H
  H5371    1.0000 0.39398  0.23073  0.64784  Biso   1.000  H
  H5372    1.0000 0.41029  0.18989  0.60655  Biso   1.000  H
  H5373    1.0000 0.39396  0.23077  0.64784  Biso   1.000  H
  H5374    1.0000 0.37277  0.16737  0.63366  Biso   1.000  H
  H5375    1.0000 0.37280  0.16735  0.63362  Biso   1.000  H
  H5376    1.0000 0.37280  0.16733  0.63366  Biso   1.000  H
  C7975    1.0000 0.47054  0.91717  0.84365  Biso   1.000  C
  C7976    1.0000 0.47055  0.91720  0.84365  Biso   1.000  C
  C7977    1.0000 0.47058  0.91720  0.84365  Biso   1.000  C
  H5377    1.0000 0.44043  0.83677  0.79024  Biso   1.000  H
  C7978    1.0000 0.25445  0.73797  0.83586  Biso   1.000  C
  C7979    1.0000 0.29143  0.70366  0.76445  Biso   1.000  C
  C7980    1.0000 0.25446  0.73801  0.83586  Biso   1.000  C
  C7981    1.0000 0.29144  0.70369  0.76445  Biso   1.000  C
  C7982    1.0000 0.25441  0.73797  0.83586  Biso   1.000  C
  C7983    1.0000 0.29139  0.70366  0.76445  Biso   1.000  C
  C7984    1.0000 0.47730  0.95210  0.89438  Biso   1.000  C
  C7985    1.0000 0.47724  0.95204  0.89434  Biso   1.000  C
  C7986    1.0000 0.47726  0.95210  0.89438  Biso   1.000  C
  C7987    1.0000 0.47725  0.95208  0.89434  Biso   1.000  C
  H5378    1.0000 0.46298  0.95331  0.95967  Biso   1.000  H
  H5379    1.0000 0.46297  0.95327  0.95967  Biso   1.000  H
  H5380    1.0000 0.46295  0.95331  0.95967  Biso   1.000  H
  C7988    1.0000 0.25995  0.77518  0.88528  Biso   1.000  C
  C7989    1.0000 0.31528  0.85309  0.97307  Biso   1.000  C
  C7990    1.0000 0.25994  0.77516  0.88524  Biso   1.000  C
  C7991    1.0000 0.31524  0.85309  0.97307  Biso   1.000  C
  C7992    1.0000 0.25996  0.77522  0.88528  Biso   1.000  C
  C7993    1.0000 0.31525  0.85312  0.97307  Biso   1.000  C
  C7994    1.0000 0.25991  0.77516  0.88524  Biso   1.000  C
  C7995    1.0000 0.31529  0.85312  0.97307  Biso   1.000  C
  C7996    1.0000 0.67781  0.73010  0.42541  Biso   1.000  C
  C7997    1.0000 0.66608  0.81551  0.42270  Biso   1.000  C
  C7998    1.0000 0.67779  0.73014  0.42541  Biso   1.000  C
  C7999    1.0000 0.66609  0.81555  0.42270  Biso   1.000  C
  C8000    1.0000 0.66612  0.81551  0.42270  Biso   1.000  C
  C8001    1.0000 0.67782  0.73014  0.42541  Biso   1.000  C
  C8002    1.0000 0.67778  0.73010  0.42541  Biso   1.000  C
  H5381    1.0000 0.81160  0.91321  0.39660  Biso   1.000  H
  C8003    1.0000 0.88020  0.90032  0.39981  Biso   1.000  C
  H5382    1.0000 0.81161  0.91325  0.39660  Biso   1.000  H
  C8004    1.0000 0.88021  0.90036  0.39981  Biso   1.000  C
  H5383    1.0000 0.81163  0.91321  0.39660  Biso   1.000  H
  C8005    1.0000 0.88024  0.90032  0.39981  Biso   1.000  C
  C8006    1.0000 0.69848  0.68871  0.41163  Biso   1.000  C
  C8007    1.0000 0.74869  0.64050  0.36422  Biso   1.000  C
  C8008    1.0000 0.69848  0.68873  0.41159  Biso   1.000  C
  C8009    1.0000 0.74866  0.64052  0.36418  Biso   1.000  C
  C8010    1.0000 0.69849  0.68875  0.41163  Biso   1.000  C
  C8011    1.0000 0.74867  0.64054  0.36422  Biso   1.000  C
  C8012    1.0000 0.69851  0.68869  0.41159  Biso   1.000  C
  C8013    1.0000 0.74868  0.64048  0.36418  Biso   1.000  C
  C8014    1.0000 0.69852  0.68871  0.41163  Biso   1.000  C
  C8015    1.0000 0.74869  0.64052  0.36418  Biso   1.000  C
  C8016    1.0000 0.74870  0.64054  0.36422  Biso   1.000  C
  C8017    1.0000 0.69847  0.68869  0.41159  Biso   1.000  C
  C8018    1.0000 0.74865  0.64048  0.36418  Biso   1.000  C
  C8019    1.0000 0.90170  0.85932  0.38851  Biso   1.000  C
  H5384    1.0000 0.88319  0.77630  0.35911  Biso   1.000  H
  H5385    1.0000 0.88320  0.77634  0.35911  Biso   1.000  H
  H5386    1.0000 0.88323  0.77630  0.35911  Biso   1.000  H
  B618     1.0000 0.46873  0.29280  0.02969  Biso   1.000  B
  H5387    1.0000 0.66694  0.06229  0.98798  Biso   1.000  H
  H5388    1.0000 0.66690  0.06227  0.98794  Biso   1.000  H
  H5389    1.0000 0.66691  0.06229  0.98798  Biso   1.000  H
  H5390    1.0000 0.66693  0.06227  0.98794  Biso   1.000  H
  H5391    1.0000 0.64511  0.07727  0.03457  Biso   1.000  H
  H5392    1.0000 0.70531  0.08780  0.04460  Biso   1.000  H
  H5393    1.0000 0.70530  0.08778  0.04456  Biso   1.000  H
  H5394    1.0000 0.64512  0.07731  0.03457  Biso   1.000  H
  H5395    1.0000 0.70533  0.08778  0.04456  Biso   1.000  H
  H5396    1.0000 0.70535  0.08780  0.04460  Biso   1.000  H
  H5397    1.0000 0.70486  0.35961  0.21621  Biso   1.000  H
  H5398    1.0000 0.70508  0.37322  0.27302  Biso   1.000  H
  H5399    1.0000 0.65354  0.33181  0.22620  Biso   1.000  H
  H5400    1.0000 0.70483  0.35961  0.21621  Biso   1.000  H
  H5401    1.0000 0.70503  0.37321  0.27298  Biso   1.000  H
  H5402    1.0000 0.70505  0.37322  0.27302  Biso   1.000  H
  H5403    1.0000 0.70507  0.37321  0.27298  Biso   1.000  H
  H5404    1.0000 0.65357  0.33181  0.22620  Biso   1.000  H
  H5405    1.0000 0.35031  0.79772  0.41221  Biso   1.000  H
  H5406    1.0000 0.37173  0.77023  0.44563  Biso   1.000  H
  H5407    1.0000 0.40952  0.82462  0.44780  Biso   1.000  H
  H5408    1.0000 0.37169  0.77024  0.44559  Biso   1.000  H
  H5409    1.0000 0.40949  0.82465  0.44780  Biso   1.000  H
  H5410    1.0000 0.37170  0.77023  0.44563  Biso   1.000  H
  H5411    1.0000 0.35027  0.79772  0.41221  Biso   1.000  H
  H5412    1.0000 0.37168  0.77021  0.44559  Biso   1.000  H
  H5413    1.0000 0.40948  0.82462  0.44780  Biso   1.000  H
  H5414    1.0000 0.37173  0.77024  0.44559  Biso   1.000  H
  H5415    1.0000 0.40953  0.82465  0.44780  Biso   1.000  H
  B619     1.0000 0.16606  0.00382  0.46251  Biso   1.000  B
  B620     1.0000 0.16603  0.00382  0.46251  Biso   1.000  B
  H5416    1.0000 0.49627  0.08654  0.52033  Biso   1.000  H
  H5417    1.0000 0.53637  0.07593  0.55763  Biso   1.000  H
  H5418    1.0000 0.53127  0.13426  0.57564  Biso   1.000  H
  H5419    1.0000 0.49625  0.08652  0.52030  Biso   1.000  H
  H5420    1.0000 0.53634  0.07593  0.55763  Biso   1.000  H
  H5421    1.0000 0.53125  0.13420  0.57560  Biso   1.000  H
  H5422    1.0000 0.53130  0.13424  0.57560  Biso   1.000  H
  H5423    1.0000 0.49630  0.08654  0.52033  Biso   1.000  H
  H5424    1.0000 0.53131  0.13426  0.57564  Biso   1.000  H
  H5425    1.0000 0.53126  0.13424  0.57560  Biso   1.000  H
  C8020    1.0000 0.58501  0.08206  0.79245  Biso   1.000  C
  C8021    1.0000 0.58497  0.08206  0.79245  Biso   1.000  C
  C8022    1.0000 0.58502  0.08210  0.79245  Biso   1.000  C
  C8023    1.0000 0.58498  0.08210  0.79245  Biso   1.000  C
  C8024    1.0000 0.38323  0.33140  0.93926  Biso   1.000  C
  C8025    1.0000 0.38322  0.33136  0.93926  Biso   1.000  C
  C8026    1.0000 0.38319  0.33140  0.93926  Biso   1.000  C
  O1152    1.0000 0.49395  0.94478  0.81785  Biso   1.000  O
  O1153    1.0000 0.49392  0.94478  0.81785  Biso   1.000  O
  H5426    1.0000 0.22116  0.71317  0.81286  Biso   1.000  H
  H5427    1.0000 0.22112  0.71317  0.81286  Biso   1.000  H
  H5428    1.0000 0.25462  0.68998  0.74353  Biso   1.000  H
  H5429    1.0000 0.31273  0.72597  0.75174  Biso   1.000  H
  C8027    1.0000 0.30874  0.65538  0.76205  Biso   1.000  C
  H5430    1.0000 0.25461  0.68994  0.74353  Biso   1.000  H
  C8028    1.0000 0.30870  0.65538  0.76205  Biso   1.000  C
  H5431    1.0000 0.31269  0.72597  0.75174  Biso   1.000  H
  O1154    1.0000 0.50529  0.00369  0.90085  Biso   1.000  O
  O1155    1.0000 0.50528  0.00365  0.90085  Biso   1.000  O
  O1156    1.0000 0.50533  0.00369  0.90085  Biso   1.000  O
  H5432    1.0000 0.23025  0.77527  0.89535  Biso   1.000  H
  H5433    1.0000 0.23021  0.77527  0.89535  Biso   1.000  H
  H5434    1.0000 0.23026  0.77530  0.89535  Biso   1.000  H
  H5435    1.0000 0.28318  0.84080  0.98086  Biso   1.000  H
  H5436    1.0000 0.34426  0.85430  0.99848  Biso   1.000  H
  C8029    1.0000 0.32568  0.91220  0.97687  Biso   1.000  C
  H5437    1.0000 0.28313  0.84077  0.98086  Biso   1.000  H
  H5438    1.0000 0.34425  0.85428  0.99844  Biso   1.000  H
  C8030    1.0000 0.32565  0.91220  0.97687  Biso   1.000  C
  H5439    1.0000 0.28314  0.84080  0.98086  Biso   1.000  H
  H5440    1.0000 0.28317  0.84077  0.98086  Biso   1.000  H
  H5441    1.0000 0.65731  0.73130  0.44702  Biso   1.000  H
  H5442    1.0000 0.65729  0.73134  0.44702  Biso   1.000  H
  H5443    1.0000 0.65732  0.73134  0.44702  Biso   1.000  H
  H5444    1.0000 0.65619  0.81810  0.45322  Biso   1.000  H
  H5445    1.0000 0.69371  0.85060  0.43192  Biso   1.000  H
  C8031    1.0000 0.61789  0.80600  0.37971  Biso   1.000  C
  H5446    1.0000 0.65620  0.81814  0.45322  Biso   1.000  H
  H5447    1.0000 0.69369  0.85064  0.43192  Biso   1.000  H
  C8032    1.0000 0.61790  0.80603  0.37971  Biso   1.000  C
  H5448    1.0000 0.65623  0.81814  0.45322  Biso   1.000  H
  H5449    1.0000 0.69372  0.85064  0.43192  Biso   1.000  H
  H5450    1.0000 0.65622  0.81810  0.45322  Biso   1.000  H
  C8033    1.0000 0.61793  0.80600  0.37971  Biso   1.000  C
  O1157    1.0000 0.91880  0.95181  0.42092  Biso   1.000  O
  O1158    1.0000 0.91881  0.95185  0.42092  Biso   1.000  O
  O1159    1.0000 0.91883  0.95181  0.42092  Biso   1.000  O
  H5451    1.0000 0.69189  0.66212  0.42402  Biso   1.000  H
  H5452    1.0000 0.69190  0.66215  0.42402  Biso   1.000  H
  H5453    1.0000 0.69192  0.66212  0.42402  Biso   1.000  H
  H5454    1.0000 0.78509  0.65433  0.36542  Biso   1.000  H
  H5455    1.0000 0.74739  0.62409  0.38820  Biso   1.000  H
  C8034    1.0000 0.71367  0.59631  0.30880  Biso   1.000  C
  H5456    1.0000 0.78507  0.65431  0.36539  Biso   1.000  H
  H5457    1.0000 0.74736  0.62412  0.38820  Biso   1.000  H
  C8035    1.0000 0.71368  0.59634  0.30880  Biso   1.000  C
  H5458    1.0000 0.78512  0.65433  0.36542  Biso   1.000  H
  C8036    1.0000 0.71370  0.59631  0.30880  Biso   1.000  C
  H5459    1.0000 0.74740  0.62412  0.38820  Biso   1.000  H
  H5460    1.0000 0.74735  0.62409  0.38820  Biso   1.000  H
  O1160    1.0000 0.95481  0.88520  0.40311  Biso   1.000  O
  O1161    1.0000 0.95478  0.88524  0.40311  Biso   1.000  O
  O1162    1.0000 0.95482  0.88524  0.40311  Biso   1.000  O
  O1163    1.0000 0.95477  0.88520  0.40311  Biso   1.000  O
  C8037    1.0000 0.43502  0.32157  0.00878  Biso   1.000  C
  C8038    1.0000 0.43503  0.32161  0.00878  Biso   1.000  C
  C8039    1.0000 0.11485  0.01691  0.46081  Biso   1.000  C
  C8040    1.0000 0.11486  0.01694  0.46081  Biso   1.000  C
  C8041    1.0000 0.55479  0.03857  0.79977  Biso   1.000  C
  C8042    1.0000 0.60850  0.13529  0.83307  Biso   1.000  C
  C8043    1.0000 0.55478  0.03855  0.79973  Biso   1.000  C
  C8044    1.0000 0.60849  0.13527  0.83303  Biso   1.000  C
  C8045    1.0000 0.60849  0.13525  0.83307  Biso   1.000  C
  C8046    1.0000 0.60854  0.13529  0.83307  Biso   1.000  C
  C8047    1.0000 0.41243  0.30410  0.95615  Biso   1.000  C
  C8048    1.0000 0.37675  0.37630  0.97497  Biso   1.000  C
  C8049    1.0000 0.41242  0.30406  0.95615  Biso   1.000  C
  C8050    1.0000 0.37671  0.37630  0.97497  Biso   1.000  C
  C8051    1.0000 0.37670  0.37626  0.97497  Biso   1.000  C
  C8052    1.0000 0.41240  0.30410  0.95615  Biso   1.000  C
  C8053    1.0000 0.37674  0.37626  0.97497  Biso   1.000  C
  B621     1.0000 0.51631  0.00138  0.85766  Biso   1.000  B
  B622     1.0000 0.51627  0.00138  0.85766  Biso   1.000  B
  B623     1.0000 0.51626  0.00135  0.85766  Biso   1.000  B
  B624     1.0000 0.51630  0.00135  0.85766  Biso   1.000  B
  H5461    1.0000 0.29511  0.62686  0.72704  Biso   1.000  H
  H5462    1.0000 0.29533  0.64047  0.78385  Biso   1.000  H
  H5463    1.0000 0.34666  0.66828  0.77386  Biso   1.000  H
  H5464    1.0000 0.34662  0.66828  0.77386  Biso   1.000  H
  H5465    1.0000 0.29529  0.64047  0.78385  Biso   1.000  H
  H5466    1.0000 0.35508  0.92281  0.96548  Biso   1.000  H
  H5467    1.0000 0.29488  0.91228  0.95545  Biso   1.000  H
  H5468    1.0000 0.35506  0.92276  0.96544  Biso   1.000  H
  H5469    1.0000 0.29485  0.91228  0.95545  Biso   1.000  H
  H5470    1.0000 0.35503  0.92279  0.96544  Biso   1.000  H
  H5471    1.0000 0.35505  0.92281  0.96548  Biso   1.000  H
  H5472    1.0000 0.35507  0.92279  0.96544  Biso   1.000  H
  H5473    1.0000 0.33325  0.93779  0.01207  Biso   1.000  H
  H5474    1.0000 0.33328  0.93779  0.01207  Biso   1.000  H
  H5475    1.0000 0.58992  0.81023  0.39350  Biso   1.000  H
  H5476    1.0000 0.62738  0.83271  0.36639  Biso   1.000  H
  H5477    1.0000 0.60620  0.76931  0.35222  Biso   1.000  H
  H5478    1.0000 0.58988  0.81023  0.39350  Biso   1.000  H
  H5479    1.0000 0.62739  0.83275  0.36639  Biso   1.000  H
  H5480    1.0000 0.60617  0.76935  0.35222  Biso   1.000  H
  H5481    1.0000 0.60616  0.76931  0.35222  Biso   1.000  H
  H5482    1.0000 0.62742  0.83271  0.36639  Biso   1.000  H
  H5483    1.0000 0.60621  0.76935  0.35222  Biso   1.000  H
  B625     1.0000 0.96740  0.94180  0.42290  Biso   1.000  B
  B626     1.0000 0.96741  0.94184  0.42290  Biso   1.000  B
  B627     1.0000 0.96743  0.94180  0.42290  Biso   1.000  B
  H5484    1.0000 0.67919  0.57821  0.30911  Biso   1.000  H
  H5485    1.0000 0.71058  0.61401  0.28630  Biso   1.000  H
  H5486    1.0000 0.72936  0.56939  0.29649  Biso   1.000  H
  H5487    1.0000 0.67916  0.57824  0.30911  Biso   1.000  H
  H5488    1.0000 0.71055  0.61401  0.28630  Biso   1.000  H
  H5489    1.0000 0.72937  0.56943  0.29649  Biso   1.000  H
  H5490    1.0000 0.67915  0.57821  0.30911  Biso   1.000  H
  H5491    1.0000 0.72939  0.56939  0.29649  Biso   1.000  H
  H5492    1.0000 0.67920  0.57824  0.30911  Biso   1.000  H
  C8054    1.0000 0.42853  0.36649  0.04460  Biso   1.000  C
  C8055    1.0000 0.42852  0.36647  0.04456  Biso   1.000  C
  C8056    1.0000 0.06624  0.97444  0.44373  Biso   1.000  C
  C8057    1.0000 0.06620  0.97445  0.44369  Biso   1.000  C
  C8058    1.0000 0.06620  0.97444  0.44373  Biso   1.000  C
  C8059    1.0000 0.06619  0.97442  0.44369  Biso   1.000  C
  C8060    1.0000 0.06624  0.97445  0.44369  Biso   1.000  C
  C8061    1.0000 0.11814  0.07161  0.47762  Biso   1.000  C
  C8062    1.0000 0.11815  0.07165  0.47762  Biso   1.000  C
  C8063    1.0000 0.11818  0.07161  0.47762  Biso   1.000  C
  H5493    1.0000 0.53910  0.00298  0.77254  Biso   1.000  H
  C8064    1.0000 0.54810  0.04839  0.84756  Biso   1.000  C
  H5494    1.0000 0.53905  0.00295  0.77254  Biso   1.000  H
  C8065    1.0000 0.54809  0.04835  0.84756  Biso   1.000  C
  H5495    1.0000 0.53909  0.00295  0.77254  Biso   1.000  H
  H5496    1.0000 0.53906  0.00298  0.77254  Biso   1.000  H
  C8066    1.0000 0.60183  0.14508  0.88098  Biso   1.000  C
  H5497    1.0000 0.62872  0.16440  0.82827  Biso   1.000  H
  C8067    1.0000 0.60178  0.14506  0.88094  Biso   1.000  C
  H5498    1.0000 0.62866  0.16435  0.82823  Biso   1.000  H
  C8068    1.0000 0.60179  0.14508  0.88098  Biso   1.000  C
  H5499    1.0000 0.62867  0.16436  0.82827  Biso   1.000  H
  C8069    1.0000 0.60182  0.14506  0.88094  Biso   1.000  C
  H5500    1.0000 0.62870  0.16438  0.82823  Biso   1.000  H
  H5501    1.0000 0.62869  0.16435  0.82823  Biso   1.000  H
  H5502    1.0000 0.62871  0.16436  0.82827  Biso   1.000  H
  H5503    1.0000 0.62867  0.16438  0.82823  Biso   1.000  H
  H5504    1.0000 0.41672  0.27408  0.93225  Biso   1.000  H
  H5505    1.0000 0.41669  0.27408  0.93225  Biso   1.000  H
  H5506    1.0000 0.35726  0.39462  0.96366  Biso   1.000  H
  H5507    1.0000 0.35721  0.39458  0.96366  Biso   1.000  H
  H5508    1.0000 0.35722  0.39462  0.96366  Biso   1.000  H
  H5509    1.0000 0.35725  0.39458  0.96366  Biso   1.000  H
  C8070    1.0000 0.39935  0.39381  0.02760  Biso   1.000  C
  C8071    1.0000 0.39930  0.39379  0.02756  Biso   1.000  C
  C8072    1.0000 0.39931  0.39381  0.02760  Biso   1.000  C
  C8073    1.0000 0.39933  0.39379  0.02756  Biso   1.000  C
  C8074    1.0000 0.02083  0.98661  0.44342  Biso   1.000  C
  C8075    1.0000 0.02081  0.98665  0.44342  Biso   1.000  C
  C8076    1.0000 0.02080  0.98661  0.44342  Biso   1.000  C
  C8077    1.0000 0.02084  0.98665  0.44342  Biso   1.000  C
  H5510    1.0000 0.44375  0.37820  0.07988  Biso   1.000  H
  H5511    1.0000 0.44372  0.37820  0.07988  Biso   1.000  H
  H5512    1.0000 0.06403  0.93783  0.43250  Biso   1.000  H
  H5513    1.0000 0.06399  0.93783  0.43250  Biso   1.000  H
  C8078    1.0000 0.07274  0.08383  0.47731  Biso   1.000  C
  H5514    1.0000 0.15077  0.10004  0.48912  Biso   1.000  H
  H5515    1.0000 0.15072  0.10000  0.48912  Biso   1.000  H
  C8079    1.0000 0.07278  0.08383  0.47731  Biso   1.000  C
  H5516    1.0000 0.15076  0.10000  0.48912  Biso   1.000  H
  H5517    1.0000 0.15073  0.10004  0.48912  Biso   1.000  H
  C8080    1.0000 0.57162  0.10160  0.88814  Biso   1.000  C
  C8081    1.0000 0.57157  0.10156  0.88814  Biso   1.000  C
  C8082    1.0000 0.57161  0.10156  0.88814  Biso   1.000  C
  C8083    1.0000 0.57158  0.10160  0.88814  Biso   1.000  C
  B628     1.0000 0.62652  0.20600  0.92737  Biso   1.000  B
  B629     1.0000 0.62650  0.20598  0.92734  Biso   1.000  B
  B630     1.0000 0.62651  0.20596  0.92737  Biso   1.000  B
  B631     1.0000 0.62655  0.20600  0.92737  Biso   1.000  B
  B632     1.0000 0.39284  0.44348  0.06819  Biso   1.000  B
  B633     1.0000 0.39281  0.44348  0.06819  Biso   1.000  B
  B634     1.0000 0.39282  0.44351  0.06819  Biso   1.000  B
  B635     1.0000 0.39285  0.44351  0.06819  Biso   1.000  B
  C8084    1.0000 0.02405  0.04132  0.46023  Biso   1.000  C
  C8085    1.0000 0.02404  0.04130  0.46019  Biso   1.000  C
  C8086    1.0000 0.02406  0.04136  0.46023  Biso   1.000  C
  B636     1.0000 0.08016  0.14671  0.49690  Biso   1.000  B
  B637     1.0000 0.08012  0.14671  0.49690  Biso   1.000  B
  B638     1.0000 0.08017  0.14674  0.49690  Biso   1.000  B
  H5518    1.0000 0.56710  0.10818  0.92017  Biso   1.000  H
  H5519    1.0000 0.56713  0.10818  0.92017  Biso   1.000  H
  O1164    1.0000 0.62364  0.21530  0.97408  Biso   1.000  O
  O1165    1.0000 0.66061  0.24880  0.92246  Biso   1.000  O
  O1166    1.0000 0.62359  0.21528  0.97404  Biso   1.000  O
  O1167    1.0000 0.62359  0.21526  0.97408  Biso   1.000  O
  O1168    1.0000 0.66060  0.24876  0.92246  Biso   1.000  O
  O1169    1.0000 0.62362  0.21528  0.97404  Biso   1.000  O
  O1170    1.0000 0.66064  0.24880  0.92246  Biso   1.000  O
  O1171    1.0000 0.62363  0.21526  0.97408  Biso   1.000  O
  O1172    1.0000 0.36073  0.47220  0.05471  Biso   1.000  O
  O1173    1.0000 0.41113  0.45969  0.12028  Biso   1.000  O
  O1174    1.0000 0.36072  0.47218  0.05467  Biso   1.000  O
  O1175    1.0000 0.36077  0.47220  0.05471  Biso   1.000  O
  O1176    1.0000 0.41117  0.45969  0.12028  Biso   1.000  O
  H5520    1.0000 0.99365  0.04942  0.46011  Biso   1.000  H
  H5521    1.0000 0.99369  0.04942  0.46011  Biso   1.000  H
  O1177    1.0000 0.03437  0.16192  0.49381  Biso   1.000  O
  O1178    1.0000 0.12476  0.18754  0.50581  Biso   1.000  O
  O1179    1.0000 0.03433  0.16192  0.49381  Biso   1.000  O
  O1180    1.0000 0.12475  0.18750  0.50581  Biso   1.000  O
  O1181    1.0000 0.12480  0.18754  0.50581  Biso   1.000  O
  C8087    1.0000 0.65513  0.27169  0.00409  Biso   1.000  C
  C8088    1.0000 0.65509  0.27169  0.00409  Biso   1.000  C
  C8089    1.0000 0.67634  0.28970  0.97149  Biso   1.000  C
  C8090    1.0000 0.67629  0.28968  0.97145  Biso   1.000  C
  C8091    1.0000 0.67629  0.28966  0.97149  Biso   1.000  C
  C8092    1.0000 0.67633  0.28968  0.97145  Biso   1.000  C
  C8093    1.0000 0.67633  0.28966  0.97149  Biso   1.000  C
  C8094    1.0000 0.36225  0.50648  0.10289  Biso   1.000  C
  C8095    1.0000 0.36222  0.50648  0.10289  Biso   1.000  C
  C8096    1.0000 0.36223  0.50652  0.10289  Biso   1.000  C
  C8097    1.0000 0.36226  0.50652  0.10289  Biso   1.000  C
  C8098    1.0000 0.39234  0.49989  0.14239  Biso   1.000  C
  C8099    1.0000 0.39235  0.49993  0.14239  Biso   1.000  C
  C8100    1.0000 0.39237  0.49989  0.14239  Biso   1.000  C
  C8101    1.0000 0.05756  0.21793  0.50961  Biso   1.000  C
  C8102    1.0000 0.05755  0.21790  0.50961  Biso   1.000  C
  C8103    1.0000 0.05759  0.21793  0.50961  Biso   1.000  C
  C8104    1.0000 0.11148  0.23474  0.51724  Biso   1.000  C
  C8105    1.0000 0.11143  0.23472  0.51720  Biso   1.000  C
  C8106    1.0000 0.11144  0.23474  0.51724  Biso   1.000  C
  C8107    1.0000 0.11147  0.23472  0.51720  Biso   1.000  C
  C8108    1.0000 0.66941  0.30801  0.05618  Biso   1.000  C
  C8109    1.0000 0.66944  0.30797  0.05618  Biso   1.000  C
  C8110    1.0000 0.66945  0.30801  0.05618  Biso   1.000  C
  C8111    1.0000 0.66940  0.30797  0.05618  Biso   1.000  C
  C8112    1.0000 0.71183  0.34379  0.99077  Biso   1.000  C
  C8113    1.0000 0.71180  0.34379  0.99077  Biso   1.000  C
  C8114    1.0000 0.33723  0.54439  0.11458  Biso   1.000  C
  C8115    1.0000 0.33724  0.54442  0.11458  Biso   1.000  C
  C8116    1.0000 0.33727  0.54439  0.11458  Biso   1.000  C
  C8117    1.0000 0.39737  0.53121  0.19359  Biso   1.000  C
  C8118    1.0000 0.39733  0.53121  0.19359  Biso   1.000  C
  C8119    1.0000 0.03279  0.25594  0.51491  Biso   1.000  C
  C8120    1.0000 0.03274  0.25590  0.51491  Biso   1.000  C
  C8121    1.0000 0.03275  0.25594  0.51491  Biso   1.000  C
  C8122    1.0000 0.14059  0.28963  0.53021  Biso   1.000  C
  C8123    1.0000 0.14055  0.28963  0.53021  Biso   1.000  C
  H5522    1.0000 0.65532  0.29598  0.07810  Biso   1.000  H
  C8124    1.0000 0.70492  0.36212  0.07551  Biso   1.000  C
  H5523    1.0000 0.65536  0.29598  0.07810  Biso   1.000  H
  C8125    1.0000 0.70493  0.36206  0.07547  Biso   1.000  C
  H5524    1.0000 0.65537  0.29602  0.07810  Biso   1.000  H
  C8126    1.0000 0.70496  0.36212  0.07551  Biso   1.000  C
  C8127    1.0000 0.70494  0.36210  0.07547  Biso   1.000  C
  C8128    1.0000 0.70490  0.36206  0.07547  Biso   1.000  C
  H5525    1.0000 0.65533  0.29602  0.07810  Biso   1.000  H
  H5526    1.0000 0.72592  0.35578  0.96885  Biso   1.000  H
  H5527    1.0000 0.72595  0.35578  0.96885  Biso   1.000  H
  C8129    1.0000 0.72603  0.38000  0.04278  Biso   1.000  C
  C8130    1.0000 0.72602  0.37997  0.04278  Biso   1.000  C
  H5528    1.0000 0.31714  0.54882  0.08821  Biso   1.000  H
  C8131    1.0000 0.34237  0.57570  0.16578  Biso   1.000  C
  H5529    1.0000 0.31712  0.54877  0.08817  Biso   1.000  H
  C8132    1.0000 0.34233  0.57570  0.16578  Biso   1.000  C
  H5530    1.0000 0.31713  0.54881  0.08817  Biso   1.000  H
  H5531    1.0000 0.31718  0.54882  0.08821  Biso   1.000  H
  C8133    1.0000 0.37235  0.56911  0.20528  Biso   1.000  C
  H5532    1.0000 0.41745  0.52672  0.22000  Biso   1.000  H
  C8134    1.0000 0.37234  0.56908  0.20528  Biso   1.000  C
  H5533    1.0000 0.41748  0.52672  0.22000  Biso   1.000  H
  C8135    1.0000 0.37238  0.56911  0.20528  Biso   1.000  C
  C8136    1.0000 0.06176  0.31082  0.52793  Biso   1.000  C
  C8137    1.0000 0.06177  0.31086  0.52793  Biso   1.000  C
  C8138    1.0000 0.06179  0.31082  0.52793  Biso   1.000  C
  H5534    1.0000 0.99665  0.24461  0.50980  Biso   1.000  H
  H5535    1.0000 0.99668  0.24461  0.50980  Biso   1.000  H
  C8139    1.0000 0.11570  0.32766  0.53563  Biso   1.000  C
  C8140    1.0000 0.11564  0.32760  0.53559  Biso   1.000  C
  C8141    1.0000 0.11567  0.32766  0.53563  Biso   1.000  C
  C8142    1.0000 0.11569  0.32764  0.53559  Biso   1.000  C
  C8143    1.0000 0.11565  0.32764  0.53559  Biso   1.000  C
  H5536    1.0000 0.17658  0.30092  0.53532  Biso   1.000  H
  H5537    1.0000 0.17654  0.30092  0.53532  Biso   1.000  H
  H5538    1.0000 0.17659  0.30096  0.53532  Biso   1.000  H
  C8144    1.0000 0.72132  0.40132  0.13170  Biso   1.000  C
  C8145    1.0000 0.72135  0.40128  0.13170  Biso   1.000  C
  C8146    1.0000 0.72136  0.40132  0.13170  Biso   1.000  C
  C8147    1.0000 0.72131  0.40128  0.13170  Biso   1.000  C
  C8148    1.0000 0.76344  0.43991  0.07040  Biso   1.000  C
  C8149    1.0000 0.76347  0.43991  0.07040  Biso   1.000  C
  C8150    1.0000 0.31387  0.62053  0.18460  Biso   1.000  C
  C8151    1.0000 0.31382  0.62049  0.18460  Biso   1.000  C
  C8152    1.0000 0.31386  0.62049  0.18460  Biso   1.000  C
  C8153    1.0000 0.31383  0.62053  0.18460  Biso   1.000  C
  C8154    1.0000 0.37128  0.60162  0.25749  Biso   1.000  C
  C8155    1.0000 0.37123  0.60158  0.25749  Biso   1.000  C
  C8156    1.0000 0.37124  0.60162  0.25749  Biso   1.000  C
  C8157    1.0000 0.37127  0.60158  0.25749  Biso   1.000  C
  C8158    1.0000 0.03577  0.35434  0.52603  Biso   1.000  C
  C8159    1.0000 0.03581  0.35434  0.52603  Biso   1.000  C
  C8160    1.0000 0.14138  0.38734  0.54551  Biso   1.000  C
  C8161    1.0000 0.14137  0.38730  0.54551  Biso   1.000  C
  C8162    1.0000 0.14141  0.38734  0.54551  Biso   1.000  C
  C8163    1.0000 0.71353  0.45371  0.13201  Biso   1.000  C
  H5539    1.0000 0.70512  0.38641  0.15289  Biso   1.000  H
  C8164    1.0000 0.78023  0.41841  0.14599  Biso   1.000  C
  C8165    1.0000 0.71355  0.45369  0.13197  Biso   1.000  C
  H5540    1.0000 0.70515  0.38638  0.15289  Biso   1.000  H
  C8166    1.0000 0.78027  0.41841  0.14599  Biso   1.000  C
  C8167    1.0000 0.71356  0.45371  0.13201  Biso   1.000  C
  H5541    1.0000 0.70516  0.38641  0.15289  Biso   1.000  H
  C8168    1.0000 0.71351  0.45369  0.13197  Biso   1.000  C
  H5542    1.0000 0.70511  0.38638  0.15289  Biso   1.000  H
  C8169    1.0000 0.73602  0.47300  0.10068  Biso   1.000  C
  H5543    1.0000 0.77941  0.45461  0.04910  Biso   1.000  H
  C8170    1.0000 0.80194  0.43829  0.11458  Biso   1.000  C
  C8171    1.0000 0.73606  0.47300  0.10068  Biso   1.000  C
  H5544    1.0000 0.77945  0.45461  0.04910  Biso   1.000  H
  C8172    1.0000 0.35807  0.66981  0.22829  Biso   1.000  C
  H5545    1.0000 0.29294  0.62681  0.15788  Biso   1.000  H
  C8173    1.0000 0.28424  0.59349  0.21319  Biso   1.000  C
  C8174    1.0000 0.35804  0.66981  0.22829  Biso   1.000  C
  H5546    1.0000 0.29293  0.62677  0.15788  Biso   1.000  H
  C8175    1.0000 0.28425  0.59353  0.21319  Biso   1.000  C
  H5547    1.0000 0.29297  0.62681  0.15788  Biso   1.000  H
  C8176    1.0000 0.28427  0.59349  0.21319  Biso   1.000  C
  C8177    1.0000 0.38797  0.66249  0.26729  Biso   1.000  C
  H5548    1.0000 0.39217  0.59591  0.28472  Biso   1.000  H
  C8178    1.0000 0.31295  0.58690  0.25338  Biso   1.000  C
  C8179    1.0000 0.38793  0.66249  0.26729  Biso   1.000  C
  H5549    1.0000 0.39213  0.59589  0.28468  Biso   1.000  H
  C8180    1.0000 0.38794  0.66253  0.26729  Biso   1.000  C
  H5550    1.0000 0.39215  0.59595  0.28472  Biso   1.000  H
  H5551    1.0000 0.39216  0.59589  0.28468  Biso   1.000  H
  C8181    1.0000 0.38798  0.66253  0.26729  Biso   1.000  C
  H5552    1.0000 0.39218  0.59595  0.28472  Biso   1.000  H
  C8182    1.0000 0.06258  0.37752  0.49330  Biso   1.000  C
  C8183    1.0000 0.06254  0.37752  0.49330  Biso   1.000  C
  H5553    1.0000 0.99726  0.34232  0.51662  Biso   1.000  H
  H5554    1.0000 0.99729  0.34232  0.51662  Biso   1.000  H
  H5555    1.0000 0.99730  0.34236  0.51662  Biso   1.000  H
  H5556    1.0000 0.99727  0.34236  0.51662  Biso   1.000  H
  C8184    1.0000 0.06917  0.39852  0.58071  Biso   1.000  C
  C8185    1.0000 0.06918  0.39856  0.58071  Biso   1.000  C
  C8186    1.0000 0.06920  0.39852  0.58071  Biso   1.000  C
  C8187    1.0000 0.11649  0.39614  0.50101  Biso   1.000  C
  C8188    1.0000 0.11645  0.39610  0.50101  Biso   1.000  C
  C8189    1.0000 0.11646  0.39614  0.50101  Biso   1.000  C
  C8190    1.0000 0.12309  0.41744  0.58873  Biso   1.000  C
  H5557    1.0000 0.18000  0.39994  0.55503  Biso   1.000  H
  H5558    1.0000 0.17995  0.39992  0.55500  Biso   1.000  H
  H5559    1.0000 0.17996  0.39994  0.55503  Biso   1.000  H
  H5560    1.0000 0.17998  0.39992  0.55500  Biso   1.000  H
  C8191    1.0000 0.12312  0.41744  0.58873  Biso   1.000  C
  C8192    1.0000 0.68555  0.48101  0.15920  Biso   1.000  C
  C8193    1.0000 0.81253  0.41340  0.18530  Biso   1.000  C
  C8194    1.0000 0.81257  0.41340  0.18530  Biso   1.000  C
  C8195    1.0000 0.73044  0.51950  0.09650  Biso   1.000  C
  C8196    1.0000 0.73048  0.51950  0.09650  Biso   1.000  C
  C8197    1.0000 0.85593  0.45338  0.12268  Biso   1.000  C
  C8198    1.0000 0.85596  0.45338  0.12268  Biso   1.000  C
  C8199    1.0000 0.85597  0.45342  0.12268  Biso   1.000  C
  C8200    1.0000 0.85594  0.45342  0.12268  Biso   1.000  C
  C8201    1.0000 0.36837  0.72272  0.23119  Biso   1.000  C
  C8202    1.0000 0.36836  0.72268  0.23119  Biso   1.000  C
  C8203    1.0000 0.22967  0.57680  0.20021  Biso   1.000  C
  C8204    1.0000 0.22962  0.57678  0.20017  Biso   1.000  C
  C8205    1.0000 0.22964  0.57684  0.20021  Biso   1.000  C
  C8206    1.0000 0.22966  0.57678  0.20017  Biso   1.000  C
  C8207    1.0000 0.22968  0.57684  0.20021  Biso   1.000  C
  C8208    1.0000 0.42807  0.70802  0.30919  Biso   1.000  C
  C8209    1.0000 0.42806  0.70799  0.30919  Biso   1.000  C
  C8210    1.0000 0.42810  0.70802  0.30919  Biso   1.000  C
  C8211    1.0000 0.28717  0.56341  0.28049  Biso   1.000  C
  C8212    1.0000 0.28713  0.56341  0.28049  Biso   1.000  C
  C8213    1.0000 0.02787  0.37993  0.45372  Biso   1.000  C
  C8214    1.0000 0.04918  0.42656  0.61754  Biso   1.000  C
  C8215    1.0000 0.04916  0.42651  0.61750  Biso   1.000  C
  C8216    1.0000 0.04921  0.42655  0.61750  Biso   1.000  C
  C8217    1.0000 0.04922  0.42656  0.61754  Biso   1.000  C
  C8218    1.0000 0.04917  0.42655  0.61750  Biso   1.000  C
  C8219    1.0000 0.13567  0.41711  0.46921  Biso   1.000  C
  C8220    1.0000 0.13564  0.41711  0.46921  Biso   1.000  C
  C8221    1.0000 0.13568  0.41715  0.46921  Biso   1.000  C
  C8222    1.0000 0.13565  0.41715  0.46921  Biso   1.000  C
  C8223    1.0000 0.15710  0.46446  0.63354  Biso   1.000  C
  C8224    1.0000 0.15707  0.46441  0.63350  Biso   1.000  C
  C8225    1.0000 0.15708  0.46444  0.63350  Biso   1.000  C
  C8226    1.0000 0.15713  0.46446  0.63354  Biso   1.000  C
  C8227    1.0000 0.68004  0.52751  0.15502  Biso   1.000  C
  C8228    1.0000 0.66273  0.46029  0.19340  Biso   1.000  C
  C8229    1.0000 0.68006  0.52750  0.15498  Biso   1.000  C
  C8230    1.0000 0.66276  0.46029  0.19340  Biso   1.000  C
  C8231    1.0000 0.68007  0.52751  0.15502  Biso   1.000  C
  C8232    1.0000 0.66277  0.46033  0.19340  Biso   1.000  C
  C8233    1.0000 0.68003  0.52750  0.15498  Biso   1.000  C
  C8234    1.0000 0.66274  0.46033  0.19340  Biso   1.000  C
  H5561    1.0000 0.79806  0.40012  0.20629  Biso   1.000  H
  C8235    1.0000 0.86645  0.42849  0.19340  Biso   1.000  C
  H5562    1.0000 0.79805  0.40008  0.20629  Biso   1.000  H
  C8236    1.0000 0.86646  0.42852  0.19340  Biso   1.000  C
  C8237    1.0000 0.86642  0.42849  0.19340  Biso   1.000  C
  C8238    1.0000 0.70243  0.54669  0.12369  Biso   1.000  C
  C8239    1.0000 0.74745  0.53658  0.05800  Biso   1.000  C
  C8240    1.0000 0.70247  0.54669  0.12369  Biso   1.000  C
  C8241    1.0000 0.74743  0.53657  0.05796  Biso   1.000  C
  C8242    1.0000 0.74746  0.53662  0.05800  Biso   1.000  C
  C8243    1.0000 0.74744  0.53660  0.05796  Biso   1.000  C
  C8244    1.0000 0.88814  0.44850  0.16210  Biso   1.000  C
  H5563    1.0000 0.87043  0.46679  0.10180  Biso   1.000  H
  H5564    1.0000 0.87046  0.46679  0.10180  Biso   1.000  H
  C8245    1.0000 0.88818  0.44850  0.16210  Biso   1.000  C
  H5565    1.0000 0.87047  0.46683  0.10180  Biso   1.000  H
  H5566    1.0000 0.87044  0.46683  0.10180  Biso   1.000  H
  C8246    1.0000 0.40846  0.76821  0.27310  Biso   1.000  C
  C8247    1.0000 0.34236  0.73081  0.18739  Biso   1.000  C
  C8248    1.0000 0.40850  0.76821  0.27310  Biso   1.000  C
  H5567    1.0000 0.21046  0.58132  0.17330  Biso   1.000  H
  C8249    1.0000 0.20377  0.55342  0.22732  Biso   1.000  C
  H5568    1.0000 0.21042  0.58128  0.17330  Biso   1.000  H
  C8250    1.0000 0.20372  0.55341  0.22728  Biso   1.000  C
  H5569    1.0000 0.21043  0.58132  0.17330  Biso   1.000  H
  C8251    1.0000 0.20376  0.55341  0.22728  Biso   1.000  C
  H5570    1.0000 0.21045  0.58128  0.17330  Biso   1.000  H
  C8252    1.0000 0.43827  0.76083  0.31210  Biso   1.000  C
  C8253    1.0000 0.46290  0.70151  0.35082  Biso   1.000  C
  C8254    1.0000 0.43826  0.76079  0.31210  Biso   1.000  C
  C8255    1.0000 0.46285  0.70149  0.35078  Biso   1.000  C
  C8256    1.0000 0.46287  0.70155  0.35082  Biso   1.000  C
  C8257    1.0000 0.43830  0.76083  0.31210  Biso   1.000  C
  C8258    1.0000 0.46290  0.70153  0.35078  Biso   1.000  C
  C8259    1.0000 0.46291  0.70155  0.35082  Biso   1.000  C
  C8260    1.0000 0.46286  0.70153  0.35078  Biso   1.000  C
  C8261    1.0000 0.23246  0.54670  0.26740  Biso   1.000  C
  H5571    1.0000 0.30635  0.55903  0.30729  Biso   1.000  H
  C8262    1.0000 0.23243  0.54670  0.26740  Biso   1.000  C
  H5572    1.0000 0.30634  0.55899  0.30729  Biso   1.000  H
  C8263    1.0000 0.23244  0.54674  0.26740  Biso   1.000  C
  H5573    1.0000 0.30639  0.55903  0.30729  Biso   1.000  H
  C8264    1.0000 0.23247  0.54674  0.26740  Biso   1.000  C
  C8265    1.0000 0.04718  0.40083  0.42193  Biso   1.000  C
  C8266    1.0000 0.04713  0.40081  0.42189  Biso   1.000  C
  C8267    1.0000 0.04716  0.40081  0.42189  Biso   1.000  C
  H5574    1.0000 0.99176  0.36742  0.44853  Biso   1.000  H
  H5575    1.0000 0.99178  0.36740  0.44849  Biso   1.000  H
  H5576    1.0000 0.99181  0.36746  0.44853  Biso   1.000  H
  H5577    1.0000 0.99175  0.36740  0.44849  Biso   1.000  H
  H5578    1.0000 0.99180  0.36742  0.44853  Biso   1.000  H
  H5579    1.0000 0.99177  0.36746  0.44853  Biso   1.000  H
  C8268    1.0000 0.99201  0.40266  0.61204  Biso   1.000  C
  C8269    1.0000 0.99200  0.40264  0.61200  Biso   1.000  C
  C8270    1.0000 0.99196  0.40264  0.61200  Biso   1.000  C
  C8271    1.0000 0.08328  0.47353  0.66231  Biso   1.000  C
  C8272    1.0000 0.08329  0.47356  0.66231  Biso   1.000  C
  C8273    1.0000 0.08331  0.47353  0.66231  Biso   1.000  C
  C8274    1.0000 0.10107  0.41951  0.42960  Biso   1.000  C
  C8275    1.0000 0.10103  0.41951  0.42960  Biso   1.000  C
  H5580    1.0000 0.17179  0.42962  0.47440  Biso   1.000  H
  H5581    1.0000 0.17175  0.42962  0.47440  Biso   1.000  H
  C8276    1.0000 0.13720  0.49245  0.67033  Biso   1.000  C
  C8277    1.0000 0.21519  0.48906  0.64434  Biso   1.000  C
  C8278    1.0000 0.21517  0.48900  0.64430  Biso   1.000  C
  C8279    1.0000 0.21521  0.48904  0.64430  Biso   1.000  C
  C8280    1.0000 0.13723  0.49245  0.67033  Biso   1.000  C
  C8281    1.0000 0.21523  0.48906  0.64434  Biso   1.000  C
  C8282    1.0000 0.21518  0.48904  0.64430  Biso   1.000  C
  H5582    1.0000 0.66124  0.54572  0.17322  Biso   1.000  H
  H5583    1.0000 0.66126  0.54570  0.17318  Biso   1.000  H
  H5584    1.0000 0.66127  0.54572  0.17322  Biso   1.000  H
  H5585    1.0000 0.66122  0.54570  0.17318  Biso   1.000  H
  H5586    1.0000 0.68564  0.44500  0.20811  Biso   1.000  H
  H5587    1.0000 0.66134  0.49122  0.22178  Biso   1.000  H
  C8283    1.0000 0.60672  0.41541  0.16369  Biso   1.000  C
  H5588    1.0000 0.68566  0.44498  0.20807  Biso   1.000  H
  H5589    1.0000 0.66136  0.49118  0.22178  Biso   1.000  H
  C8284    1.0000 0.60676  0.41541  0.16369  Biso   1.000  C
  H5590    1.0000 0.68569  0.44504  0.20811  Biso   1.000  H
  H5591    1.0000 0.66137  0.49122  0.22178  Biso   1.000  H
  H5592    1.0000 0.68563  0.44498  0.20807  Biso   1.000  H
  H5593    1.0000 0.66133  0.49118  0.22178  Biso   1.000  H
  H5594    1.0000 0.68565  0.44504  0.20811  Biso   1.000  H
  O1182    1.0000 0.90595  0.42752  0.23030  Biso   1.000  O
  O1183    1.0000 0.90599  0.42752  0.23030  Biso   1.000  O
  H5595    1.0000 0.69873  0.57780  0.12090  Biso   1.000  H
  H5596    1.0000 0.69877  0.57780  0.12090  Biso   1.000  H
  H5597    1.0000 0.74232  0.50419  0.02698  Biso   1.000  H
  H5598    1.0000 0.72715  0.55690  0.04840  Biso   1.000  H
  C8285    1.0000 0.80564  0.57330  0.08360  Biso   1.000  C
  H5599    1.0000 0.74236  0.50419  0.02698  Biso   1.000  H
  O1184    1.0000 0.94366  0.46430  0.18011  Biso   1.000  O
  O1185    1.0000 0.94365  0.46429  0.18007  Biso   1.000  O
  O1186    1.0000 0.94362  0.46429  0.18007  Biso   1.000  O
  H5600    1.0000 0.41527  0.80352  0.27499  Biso   1.000  H
  H5601    1.0000 0.41530  0.80352  0.27499  Biso   1.000  H
  H5602    1.0000 0.33874  0.70101  0.15509  Biso   1.000  H
  H5603    1.0000 0.36407  0.76552  0.18921  Biso   1.000  H
  C8286    1.0000 0.28837  0.73190  0.18821  Biso   1.000  C
  H5604    1.0000 0.36406  0.76550  0.18917  Biso   1.000  H
  C8287    1.0000 0.28833  0.73190  0.18821  Biso   1.000  C
  C8288    1.0000 0.28834  0.73194  0.18821  Biso   1.000  C
  H5605    1.0000 0.33878  0.70101  0.15509  Biso   1.000  H
  C8289    1.0000 0.28838  0.73194  0.18821  Biso   1.000  C
  O1187    1.0000 0.15194  0.53282  0.22391  Biso   1.000  O
  O1188    1.0000 0.15193  0.53280  0.22387  Biso   1.000  O
  O1189    1.0000 0.15196  0.53280  0.22387  Biso   1.000  O
  O1190    1.0000 0.15198  0.53282  0.22391  Biso   1.000  O
  H5606    1.0000 0.46510  0.79133  0.34021  Biso   1.000  H
  H5607    1.0000 0.46506  0.79133  0.34021  Biso   1.000  H
  H5608    1.0000 0.49539  0.73394  0.36903  Biso   1.000  H
  H5609    1.0000 0.47176  0.66922  0.33541  Biso   1.000  H
  C8290    1.0000 0.43349  0.69472  0.38951  Biso   1.000  C
  H5610    1.0000 0.49538  0.73392  0.36899  Biso   1.000  H
  C8291    1.0000 0.43345  0.69472  0.38951  Biso   1.000  C
  H5611    1.0000 0.47180  0.66922  0.33541  Biso   1.000  H
  H5612    1.0000 0.49542  0.73394  0.36903  Biso   1.000  H
  O1191    1.0000 0.20125  0.52222  0.28990  Biso   1.000  O
  O1192    1.0000 0.20128  0.52222  0.28990  Biso   1.000  O
  O1193    1.0000 0.02616  0.40794  0.38022  Biso   1.000  O
  O1194    1.0000 0.02615  0.40790  0.38022  Biso   1.000  O
  O1195    1.0000 0.02620  0.40794  0.38022  Biso   1.000  O
  H5613    1.0000 0.98759  0.41333  0.64593  Biso   1.000  H
  H5614    1.0000 0.97879  0.36243  0.59403  Biso   1.000  H
  C8292    1.0000 0.96120  0.42584  0.58052  Biso   1.000  C
  H5615    1.0000 0.97878  0.36241  0.59400  Biso   1.000  H
  H5616    1.0000 0.98760  0.41336  0.64593  Biso   1.000  H
  H5617    1.0000 0.97880  0.36246  0.59403  Biso   1.000  H
  H5618    1.0000 0.97879  0.36244  0.59400  Biso   1.000  H
  H5619    1.0000 0.06989  0.49224  0.68702  Biso   1.000  H
  H5620    1.0000 0.06992  0.49224  0.68702  Biso   1.000  H
  O1196    1.0000 0.11558  0.43584  0.39462  Biso   1.000  O
  O1197    1.0000 0.11552  0.43579  0.39459  Biso   1.000  O
  O1198    1.0000 0.11557  0.43583  0.39459  Biso   1.000  O
  O1199    1.0000 0.11556  0.43579  0.39459  Biso   1.000  O
  O1200    1.0000 0.11553  0.43583  0.39459  Biso   1.000  O
  H5621    1.0000 0.16002  0.52396  0.70034  Biso   1.000  H
  H5622    1.0000 0.15997  0.52394  0.70030  Biso   1.000  H
  H5623    1.0000 0.15998  0.52396  0.70034  Biso   1.000  H
  H5624    1.0000 0.16000  0.52394  0.70030  Biso   1.000  H
  H5625    1.0000 0.22499  0.52595  0.64612  Biso   1.000  H
  H5626    1.0000 0.22560  0.46615  0.61723  Biso   1.000  H
  C8293    1.0000 0.24190  0.49203  0.69624  Biso   1.000  C
  H5627    1.0000 0.22498  0.52592  0.64612  Biso   1.000  H
  H5628    1.0000 0.22557  0.46615  0.61723  Biso   1.000  H
  C8294    1.0000 0.24191  0.49207  0.69624  Biso   1.000  C
  H5629    1.0000 0.22502  0.52595  0.64612  Biso   1.000  H
  H5630    1.0000 0.59504  0.40001  0.18580  Biso   1.000  H
  H5631    1.0000 0.58293  0.43169  0.15320  Biso   1.000  H
  H5632    1.0000 0.60742  0.38652  0.13372  Biso   1.000  H
  H5633    1.0000 0.58297  0.43169  0.15320  Biso   1.000  H
  H5634    1.0000 0.60745  0.38650  0.13368  Biso   1.000  H
  H5635    1.0000 0.58298  0.43173  0.15320  Biso   1.000  H
  H5636    1.0000 0.60746  0.38652  0.13372  Biso   1.000  H
  H5637    1.0000 0.60741  0.38650  0.13368  Biso   1.000  H
  H5638    1.0000 0.58294  0.43173  0.15320  Biso   1.000  H
  B639     1.0000 0.94974  0.45141  0.22109  Biso   1.000  B
  B640     1.0000 0.94976  0.45137  0.22109  Biso   1.000  B
  B641     1.0000 0.94977  0.45141  0.22109  Biso   1.000  B
  B642     1.0000 0.94973  0.45137  0.22109  Biso   1.000  B
  H5639    1.0000 0.82235  0.56070  0.10641  Biso   1.000  H
  H5640    1.0000 0.82214  0.57139  0.05750  Biso   1.000  H
  H5641    1.0000 0.80914  0.61088  0.10308  Biso   1.000  H
  H5642    1.0000 0.82234  0.56068  0.10637  Biso   1.000  H
  H5643    1.0000 0.82236  0.56073  0.10641  Biso   1.000  H
  H5644    1.0000 0.82215  0.57142  0.05750  Biso   1.000  H
  H5645    1.0000 0.80915  0.61091  0.10308  Biso   1.000  H
  H5646    1.0000 0.26508  0.71662  0.15331  Biso   1.000  H
  H5647    1.0000 0.29129  0.76952  0.20691  Biso   1.000  H
  H5648    1.0000 0.27436  0.71021  0.20490  Biso   1.000  H
  H5649    1.0000 0.26503  0.71660  0.15327  Biso   1.000  H
  H5650    1.0000 0.29124  0.76950  0.20687  Biso   1.000  H
  H5651    1.0000 0.26504  0.71662  0.15331  Biso   1.000  H
  H5652    1.0000 0.29125  0.76952  0.20691  Biso   1.000  H
  H5653    1.0000 0.26507  0.71660  0.15327  Biso   1.000  H
  H5654    1.0000 0.29128  0.76950  0.20687  Biso   1.000  H
  B643     1.0000 0.15076  0.51473  0.26210  Biso   1.000  B
  B644     1.0000 0.15072  0.51469  0.26210  Biso   1.000  B
  B645     1.0000 0.15075  0.51469  0.26210  Biso   1.000  B
  B646     1.0000 0.15073  0.51473  0.26210  Biso   1.000  B
  H5655    1.0000 0.40396  0.66002  0.37239  Biso   1.000  H
  H5656    1.0000 0.42108  0.72462  0.40152  Biso   1.000  H
  H5657    1.0000 0.45730  0.69543  0.41840  Biso   1.000  H
  H5658    1.0000 0.45727  0.69543  0.41840  Biso   1.000  H
  H5659    1.0000 0.42109  0.72466  0.40152  Biso   1.000  H
  H5660    1.0000 0.40400  0.66002  0.37239  Biso   1.000  H
  H5661    1.0000 0.42112  0.72462  0.40152  Biso   1.000  H
  B647     1.0000 0.06717  0.43321  0.36519  Biso   1.000  B
  B648     1.0000 0.06713  0.43321  0.36519  Biso   1.000  B
  H5662    1.0000 0.94910  0.45142  0.60282  Biso   1.000  H
  H5663    1.0000 0.93139  0.39575  0.55263  Biso   1.000  H
  H5664    1.0000 0.98407  0.44462  0.56673  Biso   1.000  H
  H5665    1.0000 0.93137  0.39573  0.55260  Biso   1.000  H
  H5666    1.0000 0.98410  0.44462  0.56673  Biso   1.000  H
  H5667    1.0000 0.94911  0.45146  0.60282  Biso   1.000  H
  H5668    1.0000 0.93142  0.39575  0.55263  Biso   1.000  H
  H5669    1.0000 0.98411  0.44466  0.56673  Biso   1.000  H
  H5670    1.0000 0.98408  0.44466  0.56673  Biso   1.000  H
  H5671    1.0000 0.23459  0.45465  0.69302  Biso   1.000  H
  H5672    1.0000 0.22850  0.51132  0.72191  Biso   1.000  H
  H5673    1.0000 0.27930  0.51066  0.70654  Biso   1.000  H
  H5674    1.0000 0.22846  0.51132  0.72191  Biso   1.000  H
  H5675    1.0000 0.22851  0.51136  0.72191  Biso   1.000  H
  H5676    1.0000 0.27933  0.51066  0.70654  Biso   1.000  H
  H5677    1.0000 0.23463  0.45465  0.69302  Biso   1.000  H
  H5678    1.0000 0.22847  0.51136  0.72191  Biso   1.000  H
  C8295    1.0000 0.00636  0.45511  0.25369  Biso   1.000  C
  C8296    1.0000 0.00632  0.45511  0.25369  Biso   1.000  C
  C8297    1.0000 0.10065  0.48883  0.27252  Biso   1.000  C
  C8298    1.0000 0.10063  0.48878  0.27248  Biso   1.000  C
  C8299    1.0000 0.10067  0.48882  0.27248  Biso   1.000  C
  C8300    1.0000 0.10069  0.48883  0.27252  Biso   1.000  C
  C8301    1.0000 0.10064  0.48882  0.27248  Biso   1.000  C
  C8302    1.0000 0.06256  0.44944  0.32371  Biso   1.000  C
  C8303    1.0000 0.06255  0.44940  0.32371  Biso   1.000  C
  C8304    1.0000 0.06260  0.44944  0.32371  Biso   1.000  C
  C8305    1.0000 0.01244  0.44012  0.29409  Biso   1.000  C
  C8306    1.0000 0.05053  0.47940  0.24289  Biso   1.000  C
  C8307    1.0000 0.01243  0.44008  0.29409  Biso   1.000  C
  C8308    1.0000 0.01247  0.44012  0.29409  Biso   1.000  C
  C8309    1.0000 0.05057  0.47940  0.24289  Biso   1.000  C
  C8310    1.0000 0.10675  0.47381  0.31291  Biso   1.000  C
  C8311    1.0000 0.10676  0.47384  0.31291  Biso   1.000  C
  C8312    1.0000 0.10679  0.47381  0.31291  Biso   1.000  C
  H5679    1.0000 0.98285  0.42380  0.30129  Biso   1.000  H
  H5680    1.0000 0.98288  0.42380  0.30129  Biso   1.000  H
  H5681    1.0000 0.98289  0.42383  0.30129  Biso   1.000  H
  H5682    1.0000 0.98286  0.42383  0.30129  Biso   1.000  H
  H5683    1.0000 0.04655  0.48939  0.21590  Biso   1.000  H
  H5684    1.0000 0.04651  0.48939  0.21590  Biso   1.000  H
  H5685    1.0000 0.04652  0.48943  0.21590  Biso   1.000  H
  H5686    1.0000 0.04656  0.48943  0.21590  Biso   1.000  H
  H5687    1.0000 0.14026  0.48002  0.33270  Biso   1.000  H
  H5688    1.0000 0.14025  0.47999  0.33270  Biso   1.000  H
