data_image0
_cell_length_a       11.691
_cell_length_b       13.399
_cell_length_c       13.665
_cell_angle_alpha    105.23
_cell_angle_beta     99.55
_cell_angle_gamma    102.61

_symmetry_space_group_name_H-M    "P 1"
_symmetry_int_tables_number       1

loop_
  _symmetry_equiv_pos_as_xyz
  'x, y, z'

loop_
  _atom_site_label
  _atom_site_occupancy
  _atom_site_fract_x
  _atom_site_fract_y
  _atom_site_fract_z
  _atom_site_thermal_displace_type
  _atom_site_B_iso_or_equiv
  _atom_site_type_symbol
  N1       1.0000 0.49477  0.30552  0.20759  Biso   1.000  N
  C1       1.0000 0.51667  0.30180  0.30634  Biso   1.000  C
  C2       1.0000 0.51677  0.30187  0.30634  Biso   1.000  C
  C3       1.0000 0.51675  0.30180  0.30634  Biso   1.000  C
  C4       1.0000 0.47677  0.40070  0.18120  Biso   1.000  C
  H1       1.0000 0.49124  0.24935  0.15778  Biso   1.000  H
  C5       1.0000 0.47679  0.40077  0.18120  Biso   1.000  C
  H2       1.0000 0.49122  0.24927  0.15778  Biso   1.000  H
  N2       1.0000 0.52212  0.20522  0.31618  Biso   1.000  N
  N3       1.0000 0.49479  0.30559  0.20759  Biso   1.000  N
  O1       1.0000 0.53335  0.38176  0.38317  Biso   1.000  O
  N4       1.0000 0.52204  0.20522  0.31618  Biso   1.000  N
  H3       1.0000 0.54569  0.46212  0.21828  Biso   1.000  H
  H4       1.0000 0.40551  0.41696  0.20119  Biso   1.000  H
  C6       1.0000 0.46173  0.37802  0.06495  Biso   1.000  C
  H5       1.0000 0.54578  0.46212  0.21828  Biso   1.000  H
  H6       1.0000 0.40559  0.41696  0.20119  Biso   1.000  H
  C7       1.0000 0.46181  0.37802  0.06495  Biso   1.000  C
  H7       1.0000 0.40557  0.41688  0.20119  Biso   1.000  H
  C8       1.0000 0.46179  0.37794  0.06495  Biso   1.000  C
  C9       1.0000 0.54832  0.18617  0.41674  Biso   1.000  C
  H8       1.0000 0.50940  0.15222  0.26028  Biso   1.000  H
  C10      1.0000 0.54842  0.18624  0.41674  Biso   1.000  C
  H9       1.0000 0.50938  0.15215  0.26028  Biso   1.000  H
  C11      1.0000 0.56402  0.38727  0.02077  Biso   1.000  C
  C12      1.0000 0.34735  0.34384  0.00094  Biso   1.000  C
  C13      1.0000 0.34727  0.34384  0.00094  Biso   1.000  C
  C14      1.0000 0.56412  0.38735  0.02077  Biso   1.000  C
  C15      1.0000 0.56410  0.38727  0.02077  Biso   1.000  C
  C16      1.0000 0.34733  0.34376  0.00094  Biso   1.000  C
  C17      1.0000 0.55823  0.07256  0.39964  Biso   1.000  C
  H10      1.0000 0.48446  0.19644  0.45218  Biso   1.000  H
  H11      1.0000 0.62345  0.23703  0.46022  Biso   1.000  H
  C18      1.0000 0.55825  0.07263  0.39964  Biso   1.000  C
  H12      1.0000 0.62336  0.23703  0.46022  Biso   1.000  H
  C19      1.0000 0.55834  0.07263  0.39964  Biso   1.000  C
  H13      1.0000 0.48454  0.19644  0.45218  Biso   1.000  H
  H14      1.0000 0.62347  0.23710  0.46022  Biso   1.000  H
  C20      1.0000 0.55832  0.07256  0.39964  Biso   1.000  C
  H15      1.0000 0.48452  0.19637  0.45218  Biso   1.000  H
  C21      1.0000 0.68362  0.42075  0.08353  Biso   1.000  C
  C22      1.0000 0.68364  0.42078  0.08361  Biso   1.000  C
  C23      1.0000 0.68370  0.42075  0.08353  Biso   1.000  C
  C24      1.0000 0.68370  0.42070  0.08361  Biso   1.000  C
  C25      1.0000 0.54874  0.36188  0.90991  Biso   1.000  C
  C26      1.0000 0.54883  0.36188  0.90991  Biso   1.000  C
  O2       1.0000 0.25297  0.33272  0.04817  Biso   1.000  O
  O3       1.0000 0.25295  0.33265  0.04817  Biso   1.000  O
  C27      1.0000 0.33157  0.32338  0.89211  Biso   1.000  C
  C28      1.0000 0.33165  0.32338  0.89211  Biso   1.000  C
  C29      1.0000 0.66930  0.05441  0.42727  Biso   1.000  C
  C30      1.0000 0.66932  0.05448  0.42727  Biso   1.000  C
  C31      1.0000 0.66941  0.05448  0.42727  Biso   1.000  C
  C32      1.0000 0.66939  0.05441  0.42727  Biso   1.000  C
  C33      1.0000 0.45344  0.98329  0.35467  Biso   1.000  C
  C34      1.0000 0.45346  0.98337  0.35467  Biso   1.000  C
  C35      1.0000 0.45355  0.98337  0.35467  Biso   1.000  C
  H16      1.0000 0.69572  0.43523  0.15551  Biso   1.000  H
  C36      1.0000 0.78073  0.43189  0.04067  Biso   1.000  C
  C37      1.0000 0.78075  0.43196  0.04067  Biso   1.000  C
  H17      1.0000 0.69583  0.43530  0.15551  Biso   1.000  H
  C38      1.0000 0.78084  0.43196  0.04067  Biso   1.000  C
  H18      1.0000 0.69581  0.43523  0.15551  Biso   1.000  H
  C39      1.0000 0.78082  0.43189  0.04067  Biso   1.000  C
  C40      1.0000 0.42956  0.33163  0.84909  Biso   1.000  C
  C41      1.0000 0.65124  0.36824  0.86478  Biso   1.000  C
  C42      1.0000 0.42964  0.33163  0.84909  Biso   1.000  C
  C43      1.0000 0.13202  0.30027  0.98548  Biso   1.000  C
  C44      1.0000 0.13212  0.30034  0.98548  Biso   1.000  C
  H19      1.0000 0.25440  0.30407  0.84948  Biso   1.000  H
  H20      1.0000 0.25432  0.30407  0.84948  Biso   1.000  H
  H21      1.0000 0.25442  0.30415  0.84948  Biso   1.000  H
  O4       1.0000 0.76727  0.14254  0.46631  Biso   1.000  O
  O5       1.0000 0.76735  0.14254  0.46631  Biso   1.000  O
  O6       1.0000 0.76733  0.14246  0.46631  Biso   1.000  O
  C45      1.0000 0.67790  0.94840  0.41650  Biso   1.000  C
  C46      1.0000 0.67781  0.94840  0.41650  Biso   1.000  C
  C47      1.0000 0.46259  0.87524  0.33703  Biso   1.000  C
  C48      1.0000 0.33744  0.99830  0.32727  Biso   1.000  C
  C49      1.0000 0.46261  0.87532  0.33703  Biso   1.000  C
  H22      1.0000 0.85831  0.45619  0.08338  Biso   1.000  H
  H23      1.0000 0.85833  0.45626  0.08338  Biso   1.000  H
  H24      1.0000 0.85841  0.45626  0.08338  Biso   1.000  H
  H25      1.0000 0.85839  0.45619  0.08338  Biso   1.000  H
  C50      1.0000 0.76384  0.40659  0.93106  Biso   1.000  C
  C51      1.0000 0.76386  0.40661  0.93114  Biso   1.000  C
  C52      1.0000 0.76388  0.40669  0.93114  Biso   1.000  C
  H26      1.0000 0.41710  0.31677  0.77711  Biso   1.000  H
  H27      1.0000 0.41712  0.31685  0.77711  Biso   1.000  H
  C53      1.0000 0.64110  0.33158  0.74690  Biso   1.000  C
  C54      1.0000 0.64119  0.33158  0.74690  Biso   1.000  C
  C55      1.0000 0.04742  0.29012  0.05722  Biso   1.000  C
  C56      1.0000 0.04744  0.29019  0.05722  Biso   1.000  C
  H28      1.0000 0.11950  0.35348  0.95152  Biso   1.000  H
  H29      1.0000 0.11755  0.23186  0.93208  Biso   1.000  H
  H30      1.0000 0.11952  0.35356  0.95152  Biso   1.000  H
  H31      1.0000 0.11757  0.23193  0.93208  Biso   1.000  H
  C57      1.0000 0.88367  0.12764  0.50004  Biso   1.000  C
  C58      1.0000 0.88369  0.12771  0.50004  Biso   1.000  C
  C59      1.0000 0.88378  0.12771  0.50004  Biso   1.000  C
  C60      1.0000 0.57744  0.86224  0.37263  Biso   1.000  C
  H32      1.0000 0.75205  0.93714  0.43938  Biso   1.000  H
  C61      1.0000 0.57754  0.86232  0.37263  Biso   1.000  C
  H33      1.0000 0.75214  0.93714  0.43938  Biso   1.000  H
  C62      1.0000 0.35728  0.78607  0.28878  Biso   1.000  C
  C63      1.0000 0.35738  0.78615  0.28878  Biso   1.000  C
  H34      1.0000 0.32980  0.06754  0.33570  Biso   1.000  H
  H35      1.0000 0.32978  0.06746  0.33570  Biso   1.000  H
  C64      1.0000 0.23655  0.91290  0.28862  Biso   1.000  C
  C65      1.0000 0.23666  0.91297  0.28862  Biso   1.000  C
  O7       1.0000 0.87070  0.42296  0.89906  Biso   1.000  O
  O8       1.0000 0.87072  0.42303  0.89906  Biso   1.000  O
  H36      1.0000 0.56789  0.34158  0.70888  Biso   1.000  H
  C66      1.0000 0.75423  0.39717  0.72605  Biso   1.000  C
  C67      1.0000 0.64266  0.21400  0.71122  Biso   1.000  C
  C68      1.0000 0.64274  0.21400  0.71122  Biso   1.000  C
  H37      1.0000 0.07171  0.33114  0.12733  Biso   1.000  H
  H38      1.0000 0.07179  0.33114  0.12733  Biso   1.000  H
  H39      1.0000 0.07177  0.33107  0.12733  Biso   1.000  H
  H40      1.0000 0.01840  0.34674  0.08861  Biso   1.000  H
  C69      1.0000 0.01670  0.19233  0.07260  Biso   1.000  C
  C70      1.0000 0.93378  0.21910  0.01718  Biso   1.000  C
  C71      1.0000 0.93389  0.21918  0.01718  Biso   1.000  C
  C72      1.0000 0.93387  0.21910  0.01718  Biso   1.000  C
  H41      1.0000 0.90553  0.08253  0.44203  Biso   1.000  H
  H42      1.0000 0.88291  0.09346  0.55429  Biso   1.000  H
  C73      1.0000 0.97262  0.23793  0.54118  Biso   1.000  C
  H43      1.0000 0.90555  0.08261  0.44203  Biso   1.000  H
  C74      1.0000 0.97271  0.23793  0.54118  Biso   1.000  C
  H44      1.0000 0.88289  0.09338  0.55429  Biso   1.000  H
  C75      1.0000 0.97269  0.23786  0.54118  Biso   1.000  C
  H45      1.0000 0.58518  0.79330  0.36607  Biso   1.000  H
  H46      1.0000 0.58519  0.79338  0.36607  Biso   1.000  H
  C76      1.0000 0.35883  0.66850  0.25310  Biso   1.000  C
  C77      1.0000 0.24731  0.80748  0.27059  Biso   1.000  C
  C78      1.0000 0.35885  0.66858  0.25310  Biso   1.000  C
  C79      1.0000 0.24739  0.80748  0.27059  Biso   1.000  C
  H47      1.0000 0.16091  0.92454  0.27434  Biso   1.000  H
  C80      1.0000 0.86230  0.38113  0.79062  Biso   1.000  C
  C81      1.0000 0.86239  0.38113  0.79062  Biso   1.000  C
  H48      1.0000 0.75673  0.47276  0.74549  Biso   1.000  H
  H49      1.0000 0.75363  0.37279  0.65251  Biso   1.000  H
  H50      1.0000 0.75675  0.47284  0.74549  Biso   1.000  H
  C82      1.0000 0.53743  0.12484  0.66297  Biso   1.000  C
  C83      1.0000 0.75262  0.19260  0.72941  Biso   1.000  C
  C84      1.0000 0.75264  0.19268  0.72941  Biso   1.000  C
  C85      1.0000 0.75273  0.19268  0.72941  Biso   1.000  C
  H51      1.0000 0.08960  0.17066  0.08923  Biso   1.000  H
  C86      1.0000 0.92467  0.09970  0.97603  Biso   1.000  C
  H52      1.0000 0.98132  0.19962  0.13264  Biso   1.000  H
  H53      1.0000 0.89298  0.23952  0.96081  Biso   1.000  H
  H54      1.0000 0.88943  0.22882  0.07143  Biso   1.000  H
  H55      1.0000 0.88945  0.22890  0.07143  Biso   1.000  H
  H56      1.0000 0.97995  0.26690  0.48380  Biso   1.000  H
  H57      1.0000 0.94215  0.28534  0.59060  Biso   1.000  H
  H58      1.0000 0.97986  0.26690  0.48380  Biso   1.000  H
  H59      1.0000 0.97997  0.26698  0.48380  Biso   1.000  H
  H60      1.0000 0.94216  0.28541  0.59060  Biso   1.000  H
  C87      1.0000 0.09563  0.23591  0.59411  Biso   1.000  C
  C88      1.0000 0.09556  0.23599  0.59411  Biso   1.000  C
  C89      1.0000 0.09554  0.23591  0.59411  Biso   1.000  C
  C90      1.0000 0.34870  0.63184  0.13522  Biso   1.000  C
  H61      1.0000 0.43205  0.65849  0.29112  Biso   1.000  H
  C91      1.0000 0.24579  0.60290  0.27395  Biso   1.000  C
  C92      1.0000 0.24581  0.60298  0.27395  Biso   1.000  C
  C93      1.0000 0.34880  0.63191  0.13522  Biso   1.000  C
  H62      1.0000 0.43215  0.65857  0.29112  Biso   1.000  H
  O9       1.0000 0.13803  0.72888  0.23194  Biso   1.000  O
  O10      1.0000 0.13812  0.72888  0.23194  Biso   1.000  O
  H63      1.0000 0.93489  0.42006  0.77508  Biso   1.000  H
  O11      1.0000 0.86190  0.27120  0.76806  Biso   1.000  O
  H64      1.0000 0.93491  0.42013  0.77508  Biso   1.000  H
  O12      1.0000 0.86198  0.27120  0.76806  Biso   1.000  O
  O13      1.0000 0.86192  0.27128  0.76806  Biso   1.000  O
  C94      1.0000 0.54649  0.01679  0.64533  Biso   1.000  C
  C95      1.0000 0.42250  0.13784  0.62737  Biso   1.000  C
  C96      1.0000 0.42258  0.13784  0.62737  Biso   1.000  C
  C97      1.0000 0.76338  0.08718  0.71138  Biso   1.000  C
  H65      1.0000 0.84130  0.05936  0.95058  Biso   1.000  H
  H66      1.0000 0.96528  0.08749  0.92021  Biso   1.000  H
  H67      1.0000 0.84140  0.05943  0.95058  Biso   1.000  H
  H68      1.0000 0.90774  0.03382  0.99313  Biso   1.000  H
  H69      1.0000 0.95954  0.09004  0.91647  Biso   1.000  H
  H70      1.0000 0.85117  0.11920  0.96003  Biso   1.000  H
  H71      1.0000 0.96182  0.07679  0.03131  Biso   1.000  H
  H72      1.0000 0.96183  0.07686  0.03131  Biso   1.000  H
  H73      1.0000 0.12720  0.18971  0.54438  Biso   1.000  H
  H74      1.0000 0.08847  0.20605  0.65087  Biso   1.000  H
  C98      1.0000 0.18241  0.34758  0.63642  Biso   1.000  C
  H75      1.0000 0.12713  0.18978  0.54438  Biso   1.000  H
  H76      1.0000 0.12712  0.18971  0.54438  Biso   1.000  H
  H77      1.0000 0.08845  0.20597  0.65087  Biso   1.000  H
  C99      1.0000 0.18239  0.34750  0.63642  Biso   1.000  C
  C100     1.0000 0.45119  0.63819  0.09009  Biso   1.000  C
  C101     1.0000 0.23609  0.59349  0.06894  Biso   1.000  C
  C102     1.0000 0.23618  0.59349  0.06894  Biso   1.000  C
  C103     1.0000 0.45121  0.63827  0.09009  Biso   1.000  C
  H78      1.0000 0.24329  0.52732  0.25451  Biso   1.000  H
  H79      1.0000 0.24639  0.62729  0.34749  Biso   1.000  H
  C104     1.0000 0.13763  0.61894  0.20938  Biso   1.000  C
  H80      1.0000 0.24641  0.62736  0.34749  Biso   1.000  H
  C105     1.0000 0.13765  0.61902  0.20938  Biso   1.000  C
  C106     1.0000 0.44172  0.92760  0.60036  Biso   1.000  C
  C107     1.0000 0.44170  0.92752  0.60036  Biso   1.000  C
  C108     1.0000 0.66249  0.00177  0.67273  Biso   1.000  C
  C109     1.0000 0.66260  0.00185  0.67273  Biso   1.000  C
  H81      1.0000 0.41476  0.20678  0.63393  Biso   1.000  H
  C110     1.0000 0.32212  0.05167  0.58350  Biso   1.000  C
  H82      1.0000 0.41484  0.20678  0.63393  Biso   1.000  H
  C111     1.0000 0.32214  0.05175  0.58350  Biso   1.000  C
  H83      1.0000 0.41486  0.20685  0.63393  Biso   1.000  H
  H84      1.0000 0.83911  0.07554  0.72566  Biso   1.000  H
  H85      1.0000 0.83913  0.07556  0.72574  Biso   1.000  H
  H86      1.0000 0.83913  0.07562  0.72566  Biso   1.000  H
  H87      1.0000 0.83915  0.07564  0.72574  Biso   1.000  H
  H88      1.0000 0.18810  0.37809  0.58053  Biso   1.000  H
  H89      1.0000 0.26060  0.34338  0.66703  Biso   1.000  H
  H90      1.0000 0.15373  0.39224  0.68850  Biso   1.000  H
  H91      1.0000 0.15366  0.39231  0.68850  Biso   1.000  H
  H92      1.0000 0.18808  0.37802  0.58053  Biso   1.000  H
  H93      1.0000 0.26058  0.34330  0.66703  Biso   1.000  H
  H94      1.0000 0.15365  0.39224  0.68850  Biso   1.000  H
  C112     1.0000 0.43594  0.61288  0.97923  Biso   1.000  C
  C113     1.0000 0.43594  0.61283  0.97931  Biso   1.000  C
  C114     1.0000 0.43592  0.61280  0.97923  Biso   1.000  C
  C115     1.0000 0.57038  0.66844  0.15091  Biso   1.000  C
  C116     1.0000 0.57048  0.66852  0.15091  Biso   1.000  C
  C117     1.0000 0.21922  0.56827  0.95933  Biso   1.000  C
  C118     1.0000 0.21920  0.56819  0.95933  Biso   1.000  C
  C119     1.0000 0.21929  0.56819  0.95933  Biso   1.000  C
  O14      1.0000 0.12932  0.57712  0.10094  Biso   1.000  O
  H95      1.0000 0.06504  0.58002  0.22492  Biso   1.000  H
  H96      1.0000 0.06513  0.58002  0.22492  Biso   1.000  H
  C120     1.0000 0.33065  0.94575  0.57273  Biso   1.000  C
  C121     1.0000 0.45164  0.81398  0.58326  Biso   1.000  C
  C122     1.0000 0.33063  0.94567  0.57273  Biso   1.000  C
  C123     1.0000 0.45162  0.81391  0.58326  Biso   1.000  C
  C124     1.0000 0.33071  0.94567  0.57273  Biso   1.000  C
  C125     1.0000 0.45170  0.81391  0.58326  Biso   1.000  C
  H97      1.0000 0.67016  0.93262  0.66430  Biso   1.000  H
  H98      1.0000 0.67014  0.93254  0.66430  Biso   1.000  H
  H99      1.0000 0.67024  0.93262  0.66430  Biso   1.000  H
  H100     1.0000 0.24788  0.06294  0.56062  Biso   1.000  H
  H101     1.0000 0.24790  0.06301  0.56062  Biso   1.000  H
  C126     1.0000 0.53823  0.62214  0.93505  Biso   1.000  C
  C127     1.0000 0.31634  0.57940  0.91647  Biso   1.000  C
  C128     1.0000 0.53821  0.62206  0.93505  Biso   1.000  C
  C129     1.0000 0.31632  0.57933  0.91647  Biso   1.000  C
  C130     1.0000 0.53831  0.62214  0.93505  Biso   1.000  C
  C131     1.0000 0.31642  0.57940  0.91647  Biso   1.000  C
  H102     1.0000 0.58292  0.68330  0.22289  Biso   1.000  H
  C132     1.0000 0.66837  0.67670  0.10789  Biso   1.000  C
  C133     1.0000 0.66839  0.67678  0.10789  Biso   1.000  C
  H103     1.0000 0.14165  0.54397  0.91662  Biso   1.000  H
  H104     1.0000 0.14163  0.54389  0.91662  Biso   1.000  H
  O15      1.0000 0.23268  0.85761  0.53369  Biso   1.000  O
  O16      1.0000 0.23267  0.85754  0.53369  Biso   1.000  O
  H105     1.0000 0.51550  0.80371  0.54782  Biso   1.000  H
  H106     1.0000 0.37659  0.76313  0.53978  Biso   1.000  H
  N5       1.0000 0.47792  0.79493  0.68382  Biso   1.000  N
  H107     1.0000 0.51548  0.80363  0.54782  Biso   1.000  H
  H108     1.0000 0.37657  0.76305  0.53978  Biso   1.000  H
  N6       1.0000 0.47790  0.79486  0.68382  Biso   1.000  N
  C134     1.0000 0.65269  0.65632  0.99906  Biso   1.000  C
  C135     1.0000 0.52327  0.59946  0.81880  Biso   1.000  C
  C136     1.0000 0.65267  0.65624  0.99906  Biso   1.000  C
  C137     1.0000 0.52325  0.59938  0.81880  Biso   1.000  C
  H109     1.0000 0.30423  0.56493  0.84449  Biso   1.000  H
  H110     1.0000 0.30421  0.56485  0.84449  Biso   1.000  H
  H111     1.0000 0.30430  0.56485  0.84449  Biso   1.000  H
  H112     1.0000 0.74562  0.69600  0.15052  Biso   1.000  H
  C138     1.0000 0.11628  0.87252  0.49996  Biso   1.000  C
  C139     1.0000 0.11628  0.87246  0.50004  Biso   1.000  C
  C140     1.0000 0.11635  0.87244  0.49996  Biso   1.000  C
  C141     1.0000 0.11637  0.87246  0.50004  Biso   1.000  C
  C142     1.0000 0.48329  0.69836  0.69366  Biso   1.000  C
  C143     1.0000 0.48327  0.69828  0.69366  Biso   1.000  C
  H113     1.0000 0.49055  0.84793  0.73972  Biso   1.000  H
  H114     1.0000 0.49053  0.84785  0.73972  Biso   1.000  H
  H115     1.0000 0.49064  0.84793  0.73972  Biso   1.000  H
  O17      1.0000 0.74707  0.66743  0.95183  Biso   1.000  O
  O18      1.0000 0.74705  0.66735  0.95183  Biso   1.000  O
  H116     1.0000 0.45426  0.53803  0.78172  Biso   1.000  H
  H117     1.0000 0.59444  0.58319  0.79881  Biso   1.000  H
  N7       1.0000 0.50525  0.69456  0.79241  Biso   1.000  N
  H118     1.0000 0.45424  0.53795  0.78172  Biso   1.000  H
  N8       1.0000 0.50515  0.69448  0.79241  Biso   1.000  N
  H119     1.0000 0.59453  0.58319  0.79881  Biso   1.000  H
  H120     1.0000 0.09451  0.91762  0.55797  Biso   1.000  H
  H121     1.0000 0.11705  0.90669  0.44571  Biso   1.000  H
  C144     1.0000 0.02733  0.76222  0.45882  Biso   1.000  C
  H122     1.0000 0.09449  0.91754  0.55797  Biso   1.000  H
  H123     1.0000 0.11703  0.90662  0.44571  Biso   1.000  H
  C145     1.0000 0.02731  0.76214  0.45882  Biso   1.000  C
  H124     1.0000 0.11713  0.90669  0.44571  Biso   1.000  H
  O19      1.0000 0.46669  0.61840  0.61683  Biso   1.000  O
  O20      1.0000 0.46667  0.61832  0.61683  Biso   1.000  O
  C146     1.0000 0.86792  0.69981  0.01452  Biso   1.000  C
  H125     1.0000 0.50880  0.75081  0.84222  Biso   1.000  H
  H126     1.0000 0.50878  0.75073  0.84222  Biso   1.000  H
  C147     1.0000 0.90449  0.76424  0.40589  Biso   1.000  C
  C148     1.0000 0.90447  0.76417  0.40589  Biso   1.000  C
  C149     1.0000 0.90439  0.76417  0.40589  Biso   1.000  C
  H127     1.0000 0.02009  0.73325  0.51620  Biso   1.000  H
  H128     1.0000 0.05789  0.71482  0.40940  Biso   1.000  H
  H129     1.0000 0.02007  0.73317  0.51620  Biso   1.000  H
  H130     1.0000 0.05787  0.71474  0.40940  Biso   1.000  H
  C150     1.0000 0.95253  0.71004  0.94278  Biso   1.000  C
  C151     1.0000 0.95251  0.70996  0.94278  Biso   1.000  C
  C152     1.0000 0.95260  0.70996  0.94278  Biso   1.000  C
  H131     1.0000 0.88052  0.64659  0.04848  Biso   1.000  H
  H132     1.0000 0.88239  0.76822  0.06792  Biso   1.000  H
  H133     1.0000 0.88247  0.76822  0.06792  Biso   1.000  H
  H134     1.0000 0.87284  0.81045  0.45562  Biso   1.000  H
  H135     1.0000 0.91157  0.79410  0.34913  Biso   1.000  H
  C153     1.0000 0.81763  0.65258  0.36358  Biso   1.000  C
  H136     1.0000 0.87282  0.81037  0.45562  Biso   1.000  H
  H137     1.0000 0.91155  0.79403  0.34913  Biso   1.000  H
  C154     1.0000 0.81761  0.65250  0.36358  Biso   1.000  C
  H138     1.0000 0.91148  0.79410  0.34913  Biso   1.000  H
  H139     1.0000 0.92825  0.66901  0.87267  Biso   1.000  H
  H140     1.0000 0.92823  0.66893  0.87267  Biso   1.000  H
  H141     1.0000 0.92833  0.66901  0.87267  Biso   1.000  H
  H142     1.0000 0.98163  0.65341  0.91139  Biso   1.000  H
  C155     1.0000 0.98334  0.80782  0.92740  Biso   1.000  C
  C156     1.0000 0.06617  0.78105  0.98282  Biso   1.000  C
  C157     1.0000 0.06615  0.78098  0.98282  Biso   1.000  C
  C158     1.0000 0.06624  0.78098  0.98282  Biso   1.000  C
  H143     1.0000 0.81193  0.62206  0.41947  Biso   1.000  H
  H144     1.0000 0.73944  0.65678  0.33297  Biso   1.000  H
  H145     1.0000 0.84639  0.60792  0.31150  Biso   1.000  H
  H146     1.0000 0.73942  0.65670  0.33297  Biso   1.000  H
  H147     1.0000 0.84637  0.60784  0.31150  Biso   1.000  H
  H148     1.0000 0.81185  0.62206  0.41947  Biso   1.000  H
  H149     1.0000 0.73935  0.65678  0.33297  Biso   1.000  H
  H150     1.0000 0.84629  0.60784  0.31150  Biso   1.000  H
  H151     1.0000 0.91035  0.82949  0.91077  Biso   1.000  H
  H152     1.0000 0.01872  0.80048  0.86744  Biso   1.000  H
  C159     1.0000 0.07535  0.90037  0.02397  Biso   1.000  C
  C160     1.0000 0.07537  0.90045  0.02397  Biso   1.000  C
  H153     1.0000 0.11061  0.77133  0.92857  Biso   1.000  H
  H154     1.0000 0.11051  0.77126  0.92857  Biso   1.000  H
  H155     1.0000 0.11059  0.77126  0.92857  Biso   1.000  H
  H156     1.0000 0.10704  0.76055  0.03919  Biso   1.000  H
  H157     1.0000 0.10706  0.76063  0.03919  Biso   1.000  H
  H158     1.0000 0.03822  0.92337  0.96869  Biso   1.000  H
  H159     1.0000 0.03820  0.92329  0.96869  Biso   1.000  H
  H160     1.0000 0.15864  0.94072  0.04942  Biso   1.000  H
  H161     1.0000 0.03474  0.91258  0.07979  Biso   1.000  H
  H162     1.0000 0.03476  0.91266  0.07979  Biso   1.000  H
  H163     1.0000 0.09230  0.96633  0.00687  Biso   1.000  H
  H164     1.0000 0.04048  0.91004  0.08353  Biso   1.000  H
  H165     1.0000 0.14886  0.88095  0.03997  Biso   1.000  H
  N9       1.0000 0.49477  0.30552  0.20759  Biso   1.000  N
  C161     1.0000 0.51667  0.30180  0.30634  Biso   1.000  C
  C162     1.0000 0.47677  0.40070  0.18120  Biso   1.000  C
  H166     1.0000 0.49124  0.24935  0.15778  Biso   1.000  H
  C163     1.0000 0.51677  0.30187  0.30634  Biso   1.000  C
  C164     1.0000 0.47679  0.40077  0.18120  Biso   1.000  C
  C165     1.0000 0.51675  0.30180  0.30634  Biso   1.000  C
  H167     1.0000 0.49122  0.24927  0.15778  Biso   1.000  H
  N10      1.0000 0.49479  0.30559  0.20759  Biso   1.000  N
  O21      1.0000 0.53335  0.38176  0.38317  Biso   1.000  O
  N11      1.0000 0.52212  0.20522  0.31618  Biso   1.000  N
  N12      1.0000 0.52204  0.20522  0.31618  Biso   1.000  N
  H168     1.0000 0.54569  0.46212  0.21828  Biso   1.000  H
  H169     1.0000 0.40551  0.41696  0.20119  Biso   1.000  H
  C166     1.0000 0.46173  0.37802  0.06495  Biso   1.000  C
  H170     1.0000 0.54578  0.46212  0.21828  Biso   1.000  H
  H171     1.0000 0.40559  0.41696  0.20119  Biso   1.000  H
  C167     1.0000 0.46181  0.37802  0.06495  Biso   1.000  C
  H172     1.0000 0.40557  0.41688  0.20119  Biso   1.000  H
  C168     1.0000 0.46179  0.37794  0.06495  Biso   1.000  C
  C169     1.0000 0.54832  0.18617  0.41674  Biso   1.000  C
  H173     1.0000 0.50940  0.15222  0.26028  Biso   1.000  H
  C170     1.0000 0.54842  0.18624  0.41674  Biso   1.000  C
  H174     1.0000 0.50938  0.15215  0.26028  Biso   1.000  H
  C171     1.0000 0.56402  0.38727  0.02077  Biso   1.000  C
  C172     1.0000 0.34735  0.34384  0.00094  Biso   1.000  C
  C173     1.0000 0.34727  0.34384  0.00094  Biso   1.000  C
  C174     1.0000 0.56412  0.38735  0.02077  Biso   1.000  C
  C175     1.0000 0.56410  0.38727  0.02077  Biso   1.000  C
  C176     1.0000 0.34733  0.34376  0.00094  Biso   1.000  C
  H175     1.0000 0.48446  0.19644  0.45218  Biso   1.000  H
  H176     1.0000 0.62345  0.23703  0.46022  Biso   1.000  H
  C177     1.0000 0.55823  0.07256  0.39964  Biso   1.000  C
  C178     1.0000 0.55825  0.07263  0.39964  Biso   1.000  C
  H177     1.0000 0.62336  0.23703  0.46022  Biso   1.000  H
  C179     1.0000 0.55834  0.07263  0.39964  Biso   1.000  C
  H178     1.0000 0.48454  0.19644  0.45218  Biso   1.000  H
  H179     1.0000 0.62347  0.23710  0.46022  Biso   1.000  H
  C180     1.0000 0.55832  0.07256  0.39964  Biso   1.000  C
  H180     1.0000 0.48452  0.19637  0.45218  Biso   1.000  H
  C181     1.0000 0.54874  0.36188  0.90991  Biso   1.000  C
  C182     1.0000 0.54883  0.36188  0.90991  Biso   1.000  C
  C183     1.0000 0.68362  0.42075  0.08353  Biso   1.000  C
  C184     1.0000 0.68364  0.42078  0.08361  Biso   1.000  C
  C185     1.0000 0.68370  0.42075  0.08353  Biso   1.000  C
  C186     1.0000 0.68370  0.42070  0.08361  Biso   1.000  C
  O22      1.0000 0.25297  0.33272  0.04817  Biso   1.000  O
  C187     1.0000 0.33157  0.32338  0.89211  Biso   1.000  C
  C188     1.0000 0.33165  0.32338  0.89211  Biso   1.000  C
  O23      1.0000 0.25295  0.33265  0.04817  Biso   1.000  O
  C189     1.0000 0.45344  0.98329  0.35467  Biso   1.000  C
  C190     1.0000 0.45346  0.98337  0.35467  Biso   1.000  C
  C191     1.0000 0.45355  0.98337  0.35467  Biso   1.000  C
  C192     1.0000 0.66930  0.05441  0.42727  Biso   1.000  C
  C193     1.0000 0.66932  0.05448  0.42727  Biso   1.000  C
  C194     1.0000 0.66941  0.05448  0.42727  Biso   1.000  C
  C195     1.0000 0.66939  0.05441  0.42727  Biso   1.000  C
  C196     1.0000 0.42956  0.33163  0.84909  Biso   1.000  C
  C197     1.0000 0.65124  0.36824  0.86478  Biso   1.000  C
  C198     1.0000 0.42964  0.33163  0.84909  Biso   1.000  C
  H181     1.0000 0.69572  0.43523  0.15551  Biso   1.000  H
  C199     1.0000 0.78073  0.43189  0.04067  Biso   1.000  C
  C200     1.0000 0.78075  0.43196  0.04067  Biso   1.000  C
  H182     1.0000 0.69583  0.43530  0.15551  Biso   1.000  H
  C201     1.0000 0.78084  0.43196  0.04067  Biso   1.000  C
  H183     1.0000 0.69581  0.43523  0.15551  Biso   1.000  H
  C202     1.0000 0.78082  0.43189  0.04067  Biso   1.000  C
  C203     1.0000 0.13202  0.30027  0.98548  Biso   1.000  C
  C204     1.0000 0.13212  0.30034  0.98548  Biso   1.000  C
  H184     1.0000 0.25440  0.30407  0.84948  Biso   1.000  H
  H185     1.0000 0.25432  0.30407  0.84948  Biso   1.000  H
  H186     1.0000 0.25442  0.30415  0.84948  Biso   1.000  H
  C205     1.0000 0.46259  0.87524  0.33703  Biso   1.000  C
  C206     1.0000 0.33744  0.99830  0.32727  Biso   1.000  C
  C207     1.0000 0.46261  0.87532  0.33703  Biso   1.000  C
  O24      1.0000 0.76727  0.14254  0.46631  Biso   1.000  O
  C208     1.0000 0.67790  0.94840  0.41650  Biso   1.000  C
  C209     1.0000 0.67781  0.94840  0.41650  Biso   1.000  C
  O25      1.0000 0.76735  0.14254  0.46631  Biso   1.000  O
  O26      1.0000 0.76733  0.14246  0.46631  Biso   1.000  O
  H187     1.0000 0.41710  0.31677  0.77711  Biso   1.000  H
  H188     1.0000 0.41712  0.31685  0.77711  Biso   1.000  H
  C210     1.0000 0.76384  0.40659  0.93106  Biso   1.000  C
  C211     1.0000 0.64110  0.33158  0.74690  Biso   1.000  C
  C212     1.0000 0.76386  0.40661  0.93114  Biso   1.000  C
  C213     1.0000 0.64119  0.33158  0.74690  Biso   1.000  C
  C214     1.0000 0.76388  0.40669  0.93114  Biso   1.000  C
  H189     1.0000 0.85831  0.45619  0.08338  Biso   1.000  H
  H190     1.0000 0.85833  0.45626  0.08338  Biso   1.000  H
  H191     1.0000 0.85841  0.45626  0.08338  Biso   1.000  H
  H192     1.0000 0.85839  0.45619  0.08338  Biso   1.000  H
  C215     1.0000 0.04742  0.29012  0.05722  Biso   1.000  C
  H193     1.0000 0.11950  0.35348  0.95152  Biso   1.000  H
  H194     1.0000 0.11755  0.23186  0.93208  Biso   1.000  H
  H195     1.0000 0.11952  0.35356  0.95152  Biso   1.000  H
  H196     1.0000 0.11757  0.23193  0.93208  Biso   1.000  H
  C216     1.0000 0.04744  0.29019  0.05722  Biso   1.000  C
  C217     1.0000 0.57744  0.86224  0.37263  Biso   1.000  C
  C218     1.0000 0.35728  0.78607  0.28878  Biso   1.000  C
  C219     1.0000 0.57754  0.86232  0.37263  Biso   1.000  C
  C220     1.0000 0.35738  0.78615  0.28878  Biso   1.000  C
  H197     1.0000 0.32980  0.06754  0.33570  Biso   1.000  H
  C221     1.0000 0.23655  0.91290  0.28862  Biso   1.000  C
  C222     1.0000 0.23666  0.91297  0.28862  Biso   1.000  C
  H198     1.0000 0.32978  0.06746  0.33570  Biso   1.000  H
  C223     1.0000 0.88367  0.12764  0.50004  Biso   1.000  C
  C224     1.0000 0.88369  0.12771  0.50004  Biso   1.000  C
  C225     1.0000 0.88378  0.12771  0.50004  Biso   1.000  C
  H199     1.0000 0.75205  0.93714  0.43938  Biso   1.000  H
  H200     1.0000 0.75214  0.93714  0.43938  Biso   1.000  H
  O27      1.0000 0.87070  0.42296  0.89906  Biso   1.000  O
  O28      1.0000 0.87072  0.42303  0.89906  Biso   1.000  O
  H201     1.0000 0.56789  0.34158  0.70888  Biso   1.000  H
  C226     1.0000 0.75423  0.39717  0.72605  Biso   1.000  C
  C227     1.0000 0.64266  0.21400  0.71122  Biso   1.000  C
  C228     1.0000 0.64274  0.21400  0.71122  Biso   1.000  C
  H202     1.0000 0.07171  0.33114  0.12733  Biso   1.000  H
  C229     1.0000 0.93378  0.21910  0.01718  Biso   1.000  C
  C230     1.0000 0.93389  0.21918  0.01718  Biso   1.000  C
  C231     1.0000 0.93387  0.21910  0.01718  Biso   1.000  C
  H203     1.0000 0.07179  0.33114  0.12733  Biso   1.000  H
  H204     1.0000 0.07177  0.33107  0.12733  Biso   1.000  H
  H205     1.0000 0.01840  0.34674  0.08861  Biso   1.000  H
  C232     1.0000 0.01670  0.19233  0.07260  Biso   1.000  C
  H206     1.0000 0.58518  0.79330  0.36607  Biso   1.000  H
  H207     1.0000 0.58519  0.79338  0.36607  Biso   1.000  H
  C233     1.0000 0.35883  0.66850  0.25310  Biso   1.000  C
  C234     1.0000 0.24731  0.80748  0.27059  Biso   1.000  C
  C235     1.0000 0.35885  0.66858  0.25310  Biso   1.000  C
  C236     1.0000 0.24739  0.80748  0.27059  Biso   1.000  C
  H208     1.0000 0.16091  0.92454  0.27434  Biso   1.000  H
  H209     1.0000 0.90553  0.08253  0.44203  Biso   1.000  H
  H210     1.0000 0.88291  0.09346  0.55429  Biso   1.000  H
  C237     1.0000 0.97262  0.23793  0.54118  Biso   1.000  C
  H211     1.0000 0.90555  0.08261  0.44203  Biso   1.000  H
  C238     1.0000 0.97271  0.23793  0.54118  Biso   1.000  C
  H212     1.0000 0.88289  0.09338  0.55429  Biso   1.000  H
  C239     1.0000 0.97269  0.23786  0.54118  Biso   1.000  C
  C240     1.0000 0.86230  0.38113  0.79062  Biso   1.000  C
  C241     1.0000 0.86239  0.38113  0.79062  Biso   1.000  C
  H213     1.0000 0.75673  0.47276  0.74549  Biso   1.000  H
  H214     1.0000 0.75363  0.37279  0.65251  Biso   1.000  H
  H215     1.0000 0.75675  0.47284  0.74549  Biso   1.000  H
  C242     1.0000 0.53743  0.12484  0.66297  Biso   1.000  C
  C243     1.0000 0.75262  0.19260  0.72941  Biso   1.000  C
  C244     1.0000 0.75264  0.19268  0.72941  Biso   1.000  C
  C245     1.0000 0.75273  0.19268  0.72941  Biso   1.000  C
  H216     1.0000 0.89298  0.23952  0.96081  Biso   1.000  H
  C246     1.0000 0.92467  0.09970  0.97603  Biso   1.000  C
  H217     1.0000 0.88943  0.22882  0.07143  Biso   1.000  H
  H218     1.0000 0.88945  0.22890  0.07143  Biso   1.000  H
  H219     1.0000 0.98132  0.19962  0.13264  Biso   1.000  H
  H220     1.0000 0.08960  0.17066  0.08923  Biso   1.000  H
  C247     1.0000 0.34870  0.63184  0.13522  Biso   1.000  C
  H221     1.0000 0.43205  0.65849  0.29112  Biso   1.000  H
  C248     1.0000 0.24579  0.60290  0.27395  Biso   1.000  C
  C249     1.0000 0.24581  0.60298  0.27395  Biso   1.000  C
  C250     1.0000 0.34880  0.63191  0.13522  Biso   1.000  C
  H222     1.0000 0.43215  0.65857  0.29112  Biso   1.000  H
  O29      1.0000 0.13803  0.72888  0.23194  Biso   1.000  O
  O30      1.0000 0.13812  0.72888  0.23194  Biso   1.000  O
  H223     1.0000 0.94215  0.28534  0.59060  Biso   1.000  H
  H224     1.0000 0.97995  0.26690  0.48380  Biso   1.000  H
  H225     1.0000 0.97986  0.26690  0.48380  Biso   1.000  H
  H226     1.0000 0.97997  0.26698  0.48380  Biso   1.000  H
  H227     1.0000 0.94216  0.28541  0.59060  Biso   1.000  H
  C251     1.0000 0.09563  0.23591  0.59411  Biso   1.000  C
  C252     1.0000 0.09556  0.23599  0.59411  Biso   1.000  C
  C253     1.0000 0.09554  0.23591  0.59411  Biso   1.000  C
  H228     1.0000 0.93489  0.42006  0.77508  Biso   1.000  H
  O31      1.0000 0.86190  0.27120  0.76806  Biso   1.000  O
  H229     1.0000 0.93491  0.42013  0.77508  Biso   1.000  H
  O32      1.0000 0.86198  0.27120  0.76806  Biso   1.000  O
  O33      1.0000 0.86192  0.27128  0.76806  Biso   1.000  O
  C254     1.0000 0.54649  0.01679  0.64533  Biso   1.000  C
  C255     1.0000 0.42250  0.13784  0.62737  Biso   1.000  C
  C256     1.0000 0.42258  0.13784  0.62737  Biso   1.000  C
  C257     1.0000 0.76338  0.08718  0.71138  Biso   1.000  C
  H230     1.0000 0.84130  0.05936  0.95058  Biso   1.000  H
  H231     1.0000 0.96528  0.08749  0.92021  Biso   1.000  H
  H232     1.0000 0.84140  0.05943  0.95058  Biso   1.000  H
  H233     1.0000 0.90774  0.03382  0.99313  Biso   1.000  H
  H234     1.0000 0.95954  0.09004  0.91647  Biso   1.000  H
  H235     1.0000 0.85117  0.11920  0.96003  Biso   1.000  H
  H236     1.0000 0.96182  0.07679  0.03131  Biso   1.000  H
  H237     1.0000 0.96183  0.07686  0.03131  Biso   1.000  H
  C258     1.0000 0.45119  0.63819  0.09009  Biso   1.000  C
  C259     1.0000 0.23609  0.59349  0.06894  Biso   1.000  C
  C260     1.0000 0.23618  0.59349  0.06894  Biso   1.000  C
  C261     1.0000 0.45121  0.63827  0.09009  Biso   1.000  C
  H238     1.0000 0.24329  0.52732  0.25451  Biso   1.000  H
  H239     1.0000 0.24639  0.62729  0.34749  Biso   1.000  H
  C262     1.0000 0.13763  0.61894  0.20938  Biso   1.000  C
  H240     1.0000 0.24641  0.62736  0.34749  Biso   1.000  H
  C263     1.0000 0.13765  0.61902  0.20938  Biso   1.000  C
  H241     1.0000 0.12720  0.18971  0.54438  Biso   1.000  H
  H242     1.0000 0.08847  0.20605  0.65087  Biso   1.000  H
  C264     1.0000 0.18241  0.34758  0.63642  Biso   1.000  C
  H243     1.0000 0.12713  0.18978  0.54438  Biso   1.000  H
  H244     1.0000 0.12712  0.18971  0.54438  Biso   1.000  H
  H245     1.0000 0.08845  0.20597  0.65087  Biso   1.000  H
  C265     1.0000 0.18239  0.34750  0.63642  Biso   1.000  C
  C266     1.0000 0.44172  0.92760  0.60036  Biso   1.000  C
  C267     1.0000 0.44170  0.92752  0.60036  Biso   1.000  C
  C268     1.0000 0.66249  0.00177  0.67273  Biso   1.000  C
  C269     1.0000 0.66260  0.00185  0.67273  Biso   1.000  C
  H246     1.0000 0.41476  0.20678  0.63393  Biso   1.000  H
  C270     1.0000 0.32212  0.05167  0.58350  Biso   1.000  C
  H247     1.0000 0.41484  0.20678  0.63393  Biso   1.000  H
  C271     1.0000 0.32214  0.05175  0.58350  Biso   1.000  C
  H248     1.0000 0.41486  0.20685  0.63393  Biso   1.000  H
  H249     1.0000 0.83911  0.07554  0.72566  Biso   1.000  H
  H250     1.0000 0.83913  0.07556  0.72574  Biso   1.000  H
  H251     1.0000 0.83913  0.07562  0.72566  Biso   1.000  H
  H252     1.0000 0.83915  0.07564  0.72574  Biso   1.000  H
  C272     1.0000 0.43594  0.61288  0.97923  Biso   1.000  C
  C273     1.0000 0.43594  0.61283  0.97931  Biso   1.000  C
  C274     1.0000 0.43592  0.61280  0.97923  Biso   1.000  C
  C275     1.0000 0.57038  0.66844  0.15091  Biso   1.000  C
  C276     1.0000 0.57048  0.66852  0.15091  Biso   1.000  C
  C277     1.0000 0.21922  0.56827  0.95933  Biso   1.000  C
  C278     1.0000 0.21920  0.56819  0.95933  Biso   1.000  C
  C279     1.0000 0.21929  0.56819  0.95933  Biso   1.000  C
  O34      1.0000 0.12932  0.57712  0.10094  Biso   1.000  O
  H253     1.0000 0.06504  0.58002  0.22492  Biso   1.000  H
  H254     1.0000 0.06513  0.58002  0.22492  Biso   1.000  H
  H255     1.0000 0.18810  0.37809  0.58053  Biso   1.000  H
  H256     1.0000 0.26060  0.34338  0.66703  Biso   1.000  H
  H257     1.0000 0.15373  0.39224  0.68850  Biso   1.000  H
  H258     1.0000 0.15366  0.39231  0.68850  Biso   1.000  H
  H259     1.0000 0.18808  0.37802  0.58053  Biso   1.000  H
  H260     1.0000 0.26058  0.34330  0.66703  Biso   1.000  H
  H261     1.0000 0.15365  0.39224  0.68850  Biso   1.000  H
  C280     1.0000 0.33065  0.94575  0.57273  Biso   1.000  C
  C281     1.0000 0.45164  0.81398  0.58326  Biso   1.000  C
  C282     1.0000 0.33063  0.94567  0.57273  Biso   1.000  C
  C283     1.0000 0.45162  0.81391  0.58326  Biso   1.000  C
  C284     1.0000 0.33071  0.94567  0.57273  Biso   1.000  C
  C285     1.0000 0.45170  0.81391  0.58326  Biso   1.000  C
  H262     1.0000 0.67016  0.93262  0.66430  Biso   1.000  H
  H263     1.0000 0.67014  0.93254  0.66430  Biso   1.000  H
  H264     1.0000 0.67024  0.93262  0.66430  Biso   1.000  H
  H265     1.0000 0.24788  0.06294  0.56062  Biso   1.000  H
  H266     1.0000 0.24790  0.06301  0.56062  Biso   1.000  H
  C286     1.0000 0.53823  0.62214  0.93505  Biso   1.000  C
  C287     1.0000 0.31634  0.57940  0.91647  Biso   1.000  C
  C288     1.0000 0.53821  0.62206  0.93505  Biso   1.000  C
  C289     1.0000 0.31632  0.57933  0.91647  Biso   1.000  C
  C290     1.0000 0.53831  0.62214  0.93505  Biso   1.000  C
  C291     1.0000 0.31642  0.57940  0.91647  Biso   1.000  C
  H267     1.0000 0.58292  0.68330  0.22289  Biso   1.000  H
  C292     1.0000 0.66837  0.67670  0.10789  Biso   1.000  C
  C293     1.0000 0.66839  0.67678  0.10789  Biso   1.000  C
  H268     1.0000 0.14165  0.54397  0.91662  Biso   1.000  H
  H269     1.0000 0.14163  0.54389  0.91662  Biso   1.000  H
  O35      1.0000 0.23268  0.85761  0.53369  Biso   1.000  O
  O36      1.0000 0.23267  0.85754  0.53369  Biso   1.000  O
  H270     1.0000 0.51550  0.80371  0.54782  Biso   1.000  H
  H271     1.0000 0.37659  0.76313  0.53978  Biso   1.000  H
  N13      1.0000 0.47792  0.79493  0.68382  Biso   1.000  N
  H272     1.0000 0.51548  0.80363  0.54782  Biso   1.000  H
  H273     1.0000 0.37657  0.76305  0.53978  Biso   1.000  H
  N14      1.0000 0.47790  0.79486  0.68382  Biso   1.000  N
  C294     1.0000 0.65269  0.65632  0.99906  Biso   1.000  C
  C295     1.0000 0.52327  0.59946  0.81880  Biso   1.000  C
  C296     1.0000 0.65267  0.65624  0.99906  Biso   1.000  C
  C297     1.0000 0.52325  0.59938  0.81880  Biso   1.000  C
  H274     1.0000 0.30423  0.56493  0.84449  Biso   1.000  H
  H275     1.0000 0.30421  0.56485  0.84449  Biso   1.000  H
  H276     1.0000 0.30430  0.56485  0.84449  Biso   1.000  H
  H277     1.0000 0.74562  0.69600  0.15052  Biso   1.000  H
  C298     1.0000 0.11628  0.87252  0.49996  Biso   1.000  C
  C299     1.0000 0.11628  0.87246  0.50004  Biso   1.000  C
  C300     1.0000 0.11635  0.87244  0.49996  Biso   1.000  C
  C301     1.0000 0.11637  0.87246  0.50004  Biso   1.000  C
  C302     1.0000 0.48329  0.69836  0.69366  Biso   1.000  C
  H278     1.0000 0.49055  0.84793  0.73972  Biso   1.000  H
  C303     1.0000 0.48327  0.69828  0.69366  Biso   1.000  C
  H279     1.0000 0.49053  0.84785  0.73972  Biso   1.000  H
  H280     1.0000 0.49064  0.84793  0.73972  Biso   1.000  H
  O37      1.0000 0.74707  0.66743  0.95183  Biso   1.000  O
  O38      1.0000 0.74705  0.66735  0.95183  Biso   1.000  O
  H281     1.0000 0.45426  0.53803  0.78172  Biso   1.000  H
  H282     1.0000 0.59444  0.58319  0.79881  Biso   1.000  H
  N15      1.0000 0.50525  0.69456  0.79241  Biso   1.000  N
  H283     1.0000 0.45424  0.53795  0.78172  Biso   1.000  H
  N16      1.0000 0.50515  0.69448  0.79241  Biso   1.000  N
  H284     1.0000 0.59453  0.58319  0.79881  Biso   1.000  H
  H285     1.0000 0.09451  0.91762  0.55797  Biso   1.000  H
  H286     1.0000 0.11705  0.90669  0.44571  Biso   1.000  H
  C304     1.0000 0.02733  0.76222  0.45882  Biso   1.000  C
  H287     1.0000 0.09449  0.91754  0.55797  Biso   1.000  H
  H288     1.0000 0.11703  0.90662  0.44571  Biso   1.000  H
  C305     1.0000 0.02731  0.76214  0.45882  Biso   1.000  C
  H289     1.0000 0.11713  0.90669  0.44571  Biso   1.000  H
  O39      1.0000 0.46669  0.61840  0.61683  Biso   1.000  O
  O40      1.0000 0.46667  0.61832  0.61683  Biso   1.000  O
  C306     1.0000 0.86792  0.69981  0.01452  Biso   1.000  C
  H290     1.0000 0.50880  0.75081  0.84222  Biso   1.000  H
  H291     1.0000 0.50878  0.75073  0.84222  Biso   1.000  H
  C307     1.0000 0.90449  0.76424  0.40589  Biso   1.000  C
  C308     1.0000 0.90447  0.76417  0.40589  Biso   1.000  C
  C309     1.0000 0.90439  0.76417  0.40589  Biso   1.000  C
  H292     1.0000 0.02009  0.73325  0.51620  Biso   1.000  H
  H293     1.0000 0.05789  0.71482  0.40940  Biso   1.000  H
  H294     1.0000 0.02007  0.73317  0.51620  Biso   1.000  H
  H295     1.0000 0.05787  0.71474  0.40940  Biso   1.000  H
  C310     1.0000 0.95253  0.71004  0.94278  Biso   1.000  C
  C311     1.0000 0.95251  0.70996  0.94278  Biso   1.000  C
  C312     1.0000 0.95260  0.70996  0.94278  Biso   1.000  C
  H296     1.0000 0.88052  0.64659  0.04848  Biso   1.000  H
  H297     1.0000 0.88239  0.76822  0.06792  Biso   1.000  H
  H298     1.0000 0.88247  0.76822  0.06792  Biso   1.000  H
  H299     1.0000 0.87284  0.81045  0.45562  Biso   1.000  H
  H300     1.0000 0.91157  0.79410  0.34913  Biso   1.000  H
  C313     1.0000 0.81763  0.65258  0.36358  Biso   1.000  C
  H301     1.0000 0.87282  0.81037  0.45562  Biso   1.000  H
  H302     1.0000 0.91155  0.79403  0.34913  Biso   1.000  H
  C314     1.0000 0.81761  0.65250  0.36358  Biso   1.000  C
  H303     1.0000 0.91148  0.79410  0.34913  Biso   1.000  H
  H304     1.0000 0.92825  0.66901  0.87267  Biso   1.000  H
  H305     1.0000 0.92823  0.66893  0.87267  Biso   1.000  H
  H306     1.0000 0.92833  0.66901  0.87267  Biso   1.000  H
  H307     1.0000 0.98163  0.65341  0.91139  Biso   1.000  H
  C315     1.0000 0.98334  0.80782  0.92740  Biso   1.000  C
  C316     1.0000 0.06617  0.78105  0.98282  Biso   1.000  C
  C317     1.0000 0.06615  0.78098  0.98282  Biso   1.000  C
  C318     1.0000 0.06624  0.78098  0.98282  Biso   1.000  C
  H308     1.0000 0.81193  0.62206  0.41947  Biso   1.000  H
  H309     1.0000 0.73944  0.65678  0.33297  Biso   1.000  H
  H310     1.0000 0.84639  0.60792  0.31150  Biso   1.000  H
  H311     1.0000 0.73942  0.65670  0.33297  Biso   1.000  H
  H312     1.0000 0.84637  0.60784  0.31150  Biso   1.000  H
  H313     1.0000 0.81185  0.62206  0.41947  Biso   1.000  H
  H314     1.0000 0.73935  0.65678  0.33297  Biso   1.000  H
  H315     1.0000 0.84629  0.60784  0.31150  Biso   1.000  H
  H316     1.0000 0.91035  0.82949  0.91077  Biso   1.000  H
  H317     1.0000 0.01872  0.80048  0.86744  Biso   1.000  H
  C319     1.0000 0.07535  0.90037  0.02397  Biso   1.000  C
  C320     1.0000 0.07537  0.90045  0.02397  Biso   1.000  C
  H318     1.0000 0.11061  0.77133  0.92857  Biso   1.000  H
  H319     1.0000 0.11051  0.77126  0.92857  Biso   1.000  H
  H320     1.0000 0.11059  0.77126  0.92857  Biso   1.000  H
  H321     1.0000 0.10704  0.76055  0.03919  Biso   1.000  H
  H322     1.0000 0.10706  0.76063  0.03919  Biso   1.000  H
  H323     1.0000 0.03822  0.92337  0.96869  Biso   1.000  H
  H324     1.0000 0.03820  0.92329  0.96869  Biso   1.000  H
  H325     1.0000 0.15864  0.94072  0.04942  Biso   1.000  H
  H326     1.0000 0.03474  0.91258  0.07979  Biso   1.000  H
  H327     1.0000 0.03476  0.91266  0.07979  Biso   1.000  H
  H328     1.0000 0.09230  0.96633  0.00687  Biso   1.000  H
  H329     1.0000 0.04048  0.91004  0.08353  Biso   1.000  H
  H330     1.0000 0.14886  0.88095  0.03997  Biso   1.000  H
  N17      1.0000 0.49477  0.30552  0.20759  Biso   1.000  N
  H331     1.0000 0.49124  0.24935  0.15778  Biso   1.000  H
  C321     1.0000 0.47677  0.40070  0.18120  Biso   1.000  C
  C322     1.0000 0.51667  0.30180  0.30634  Biso   1.000  C
  C323     1.0000 0.51677  0.30187  0.30634  Biso   1.000  C
  C324     1.0000 0.47679  0.40077  0.18120  Biso   1.000  C
  C325     1.0000 0.51675  0.30180  0.30634  Biso   1.000  C
  H332     1.0000 0.49122  0.24927  0.15778  Biso   1.000  H
  N18      1.0000 0.49479  0.30559  0.20759  Biso   1.000  N
  H333     1.0000 0.54569  0.46212  0.21828  Biso   1.000  H
  H334     1.0000 0.40551  0.41696  0.20119  Biso   1.000  H
  C326     1.0000 0.46173  0.37802  0.06495  Biso   1.000  C
  H335     1.0000 0.54578  0.46212  0.21828  Biso   1.000  H
  H336     1.0000 0.40559  0.41696  0.20119  Biso   1.000  H
  C327     1.0000 0.46181  0.37802  0.06495  Biso   1.000  C
  H337     1.0000 0.40557  0.41688  0.20119  Biso   1.000  H
  C328     1.0000 0.46179  0.37794  0.06495  Biso   1.000  C
  O41      1.0000 0.53335  0.38176  0.38317  Biso   1.000  O
  N19      1.0000 0.52212  0.20522  0.31618  Biso   1.000  N
  N20      1.0000 0.52204  0.20522  0.31618  Biso   1.000  N
  C329     1.0000 0.56402  0.38727  0.02077  Biso   1.000  C
  C330     1.0000 0.34735  0.34384  0.00094  Biso   1.000  C
  C331     1.0000 0.34727  0.34384  0.00094  Biso   1.000  C
  C332     1.0000 0.56412  0.38735  0.02077  Biso   1.000  C
  C333     1.0000 0.56410  0.38727  0.02077  Biso   1.000  C
  C334     1.0000 0.34733  0.34376  0.00094  Biso   1.000  C
  H338     1.0000 0.50940  0.15222  0.26028  Biso   1.000  H
  C335     1.0000 0.54832  0.18617  0.41674  Biso   1.000  C
  C336     1.0000 0.54842  0.18624  0.41674  Biso   1.000  C
  H339     1.0000 0.50938  0.15215  0.26028  Biso   1.000  H
  C337     1.0000 0.54874  0.36188  0.90991  Biso   1.000  C
  C338     1.0000 0.54883  0.36188  0.90991  Biso   1.000  C
  C339     1.0000 0.68362  0.42075  0.08353  Biso   1.000  C
  C340     1.0000 0.68364  0.42078  0.08361  Biso   1.000  C
  C341     1.0000 0.68370  0.42075  0.08353  Biso   1.000  C
  C342     1.0000 0.68370  0.42070  0.08361  Biso   1.000  C
  O42      1.0000 0.25297  0.33272  0.04817  Biso   1.000  O
  C343     1.0000 0.33157  0.32338  0.89211  Biso   1.000  C
  C344     1.0000 0.33165  0.32338  0.89211  Biso   1.000  C
  O43      1.0000 0.25295  0.33265  0.04817  Biso   1.000  O
  C345     1.0000 0.55823  0.07256  0.39964  Biso   1.000  C
  H340     1.0000 0.48446  0.19644  0.45218  Biso   1.000  H
  H341     1.0000 0.62345  0.23703  0.46022  Biso   1.000  H
  C346     1.0000 0.55825  0.07263  0.39964  Biso   1.000  C
  H342     1.0000 0.62336  0.23703  0.46022  Biso   1.000  H
  C347     1.0000 0.55834  0.07263  0.39964  Biso   1.000  C
  H343     1.0000 0.48454  0.19644  0.45218  Biso   1.000  H
  H344     1.0000 0.62347  0.23710  0.46022  Biso   1.000  H
  C348     1.0000 0.55832  0.07256  0.39964  Biso   1.000  C
  H345     1.0000 0.48452  0.19637  0.45218  Biso   1.000  H
  C349     1.0000 0.42956  0.33163  0.84909  Biso   1.000  C
  C350     1.0000 0.65124  0.36824  0.86478  Biso   1.000  C
  C351     1.0000 0.42964  0.33163  0.84909  Biso   1.000  C
  H346     1.0000 0.69572  0.43523  0.15551  Biso   1.000  H
  C352     1.0000 0.78073  0.43189  0.04067  Biso   1.000  C
  C353     1.0000 0.78075  0.43196  0.04067  Biso   1.000  C
  H347     1.0000 0.69583  0.43530  0.15551  Biso   1.000  H
  C354     1.0000 0.78084  0.43196  0.04067  Biso   1.000  C
  H348     1.0000 0.69581  0.43523  0.15551  Biso   1.000  H
  C355     1.0000 0.78082  0.43189  0.04067  Biso   1.000  C
  C356     1.0000 0.13202  0.30027  0.98548  Biso   1.000  C
  C357     1.0000 0.13212  0.30034  0.98548  Biso   1.000  C
  H349     1.0000 0.25440  0.30407  0.84948  Biso   1.000  H
  H350     1.0000 0.25432  0.30407  0.84948  Biso   1.000  H
  H351     1.0000 0.25442  0.30415  0.84948  Biso   1.000  H
  C358     1.0000 0.45344  0.98329  0.35467  Biso   1.000  C
  C359     1.0000 0.45346  0.98337  0.35467  Biso   1.000  C
  C360     1.0000 0.45355  0.98337  0.35467  Biso   1.000  C
  C361     1.0000 0.66930  0.05441  0.42727  Biso   1.000  C
  C362     1.0000 0.66932  0.05448  0.42727  Biso   1.000  C
  C363     1.0000 0.66941  0.05448  0.42727  Biso   1.000  C
  C364     1.0000 0.66939  0.05441  0.42727  Biso   1.000  C
  H352     1.0000 0.41710  0.31677  0.77711  Biso   1.000  H
  H353     1.0000 0.41712  0.31685  0.77711  Biso   1.000  H
  C365     1.0000 0.76384  0.40659  0.93106  Biso   1.000  C
  C366     1.0000 0.64110  0.33158  0.74690  Biso   1.000  C
  C367     1.0000 0.76386  0.40661  0.93114  Biso   1.000  C
  C368     1.0000 0.64119  0.33158  0.74690  Biso   1.000  C
  C369     1.0000 0.76388  0.40669  0.93114  Biso   1.000  C
  H354     1.0000 0.85831  0.45619  0.08338  Biso   1.000  H
  H355     1.0000 0.85833  0.45626  0.08338  Biso   1.000  H
  H356     1.0000 0.85841  0.45626  0.08338  Biso   1.000  H
  H357     1.0000 0.85839  0.45619  0.08338  Biso   1.000  H
  C370     1.0000 0.04742  0.29012  0.05722  Biso   1.000  C
  H358     1.0000 0.11950  0.35348  0.95152  Biso   1.000  H
  H359     1.0000 0.11755  0.23186  0.93208  Biso   1.000  H
  H360     1.0000 0.11952  0.35356  0.95152  Biso   1.000  H
  H361     1.0000 0.11757  0.23193  0.93208  Biso   1.000  H
  C371     1.0000 0.04744  0.29019  0.05722  Biso   1.000  C
  C372     1.0000 0.46259  0.87524  0.33703  Biso   1.000  C
  C373     1.0000 0.33744  0.99830  0.32727  Biso   1.000  C
  C374     1.0000 0.46261  0.87532  0.33703  Biso   1.000  C
  C375     1.0000 0.67790  0.94840  0.41650  Biso   1.000  C
  C376     1.0000 0.67781  0.94840  0.41650  Biso   1.000  C
  O44      1.0000 0.76727  0.14254  0.46631  Biso   1.000  O
  O45      1.0000 0.76735  0.14254  0.46631  Biso   1.000  O
  O46      1.0000 0.76733  0.14246  0.46631  Biso   1.000  O
  O47      1.0000 0.87070  0.42296  0.89906  Biso   1.000  O
  O48      1.0000 0.87072  0.42303  0.89906  Biso   1.000  O
  H362     1.0000 0.56789  0.34158  0.70888  Biso   1.000  H
  C377     1.0000 0.75423  0.39717  0.72605  Biso   1.000  C
  C378     1.0000 0.64266  0.21400  0.71122  Biso   1.000  C
  C379     1.0000 0.64274  0.21400  0.71122  Biso   1.000  C
  C380     1.0000 0.93378  0.21910  0.01718  Biso   1.000  C
  C381     1.0000 0.93389  0.21918  0.01718  Biso   1.000  C
  C382     1.0000 0.93387  0.21910  0.01718  Biso   1.000  C
  H363     1.0000 0.07171  0.33114  0.12733  Biso   1.000  H
  H364     1.0000 0.07179  0.33114  0.12733  Biso   1.000  H
  H365     1.0000 0.07177  0.33107  0.12733  Biso   1.000  H
  H366     1.0000 0.01840  0.34674  0.08861  Biso   1.000  H
  C383     1.0000 0.01670  0.19233  0.07260  Biso   1.000  C
  C384     1.0000 0.57744  0.86224  0.37263  Biso   1.000  C
  C385     1.0000 0.35728  0.78607  0.28878  Biso   1.000  C
  C386     1.0000 0.57754  0.86232  0.37263  Biso   1.000  C
  C387     1.0000 0.35738  0.78615  0.28878  Biso   1.000  C
  H367     1.0000 0.32980  0.06754  0.33570  Biso   1.000  H
  C388     1.0000 0.23655  0.91290  0.28862  Biso   1.000  C
  C389     1.0000 0.23666  0.91297  0.28862  Biso   1.000  C
  H368     1.0000 0.32978  0.06746  0.33570  Biso   1.000  H
  H369     1.0000 0.75205  0.93714  0.43938  Biso   1.000  H
  H370     1.0000 0.75214  0.93714  0.43938  Biso   1.000  H
  C390     1.0000 0.88367  0.12764  0.50004  Biso   1.000  C
  C391     1.0000 0.88369  0.12771  0.50004  Biso   1.000  C
  C392     1.0000 0.88378  0.12771  0.50004  Biso   1.000  C
  C393     1.0000 0.86230  0.38113  0.79062  Biso   1.000  C
  C394     1.0000 0.86239  0.38113  0.79062  Biso   1.000  C
  H371     1.0000 0.75673  0.47276  0.74549  Biso   1.000  H
  H372     1.0000 0.75363  0.37279  0.65251  Biso   1.000  H
  H373     1.0000 0.75675  0.47284  0.74549  Biso   1.000  H
  C395     1.0000 0.53743  0.12484  0.66297  Biso   1.000  C
  C396     1.0000 0.75262  0.19260  0.72941  Biso   1.000  C
  C397     1.0000 0.75264  0.19268  0.72941  Biso   1.000  C
  C398     1.0000 0.75273  0.19268  0.72941  Biso   1.000  C
  H374     1.0000 0.89298  0.23952  0.96081  Biso   1.000  H
  C399     1.0000 0.92467  0.09970  0.97603  Biso   1.000  C
  H375     1.0000 0.88943  0.22882  0.07143  Biso   1.000  H
  H376     1.0000 0.88945  0.22890  0.07143  Biso   1.000  H
  H377     1.0000 0.98132  0.19962  0.13264  Biso   1.000  H
  H378     1.0000 0.08960  0.17066  0.08923  Biso   1.000  H
  H379     1.0000 0.58518  0.79330  0.36607  Biso   1.000  H
  H380     1.0000 0.58519  0.79338  0.36607  Biso   1.000  H
  C400     1.0000 0.35883  0.66850  0.25310  Biso   1.000  C
  C401     1.0000 0.24731  0.80748  0.27059  Biso   1.000  C
  C402     1.0000 0.35885  0.66858  0.25310  Biso   1.000  C
  C403     1.0000 0.24739  0.80748  0.27059  Biso   1.000  C
  H381     1.0000 0.16091  0.92454  0.27434  Biso   1.000  H
  H382     1.0000 0.88291  0.09346  0.55429  Biso   1.000  H
  H383     1.0000 0.90553  0.08253  0.44203  Biso   1.000  H
  C404     1.0000 0.97262  0.23793  0.54118  Biso   1.000  C
  H384     1.0000 0.90555  0.08261  0.44203  Biso   1.000  H
  C405     1.0000 0.97271  0.23793  0.54118  Biso   1.000  C
  H385     1.0000 0.88289  0.09338  0.55429  Biso   1.000  H
  C406     1.0000 0.97269  0.23786  0.54118  Biso   1.000  C
  H386     1.0000 0.93489  0.42006  0.77508  Biso   1.000  H
  O49      1.0000 0.86190  0.27120  0.76806  Biso   1.000  O
  H387     1.0000 0.93491  0.42013  0.77508  Biso   1.000  H
  O50      1.0000 0.86198  0.27120  0.76806  Biso   1.000  O
  O51      1.0000 0.86192  0.27128  0.76806  Biso   1.000  O
  C407     1.0000 0.54649  0.01679  0.64533  Biso   1.000  C
  C408     1.0000 0.42250  0.13784  0.62737  Biso   1.000  C
  C409     1.0000 0.42258  0.13784  0.62737  Biso   1.000  C
  C410     1.0000 0.76338  0.08718  0.71138  Biso   1.000  C
  H388     1.0000 0.84130  0.05936  0.95058  Biso   1.000  H
  H389     1.0000 0.96528  0.08749  0.92021  Biso   1.000  H
  H390     1.0000 0.84140  0.05943  0.95058  Biso   1.000  H
  H391     1.0000 0.90774  0.03382  0.99313  Biso   1.000  H
  H392     1.0000 0.95954  0.09004  0.91647  Biso   1.000  H
  H393     1.0000 0.85117  0.11920  0.96003  Biso   1.000  H
  H394     1.0000 0.96182  0.07679  0.03131  Biso   1.000  H
  H395     1.0000 0.96183  0.07686  0.03131  Biso   1.000  H
  C411     1.0000 0.34870  0.63184  0.13522  Biso   1.000  C
  H396     1.0000 0.43205  0.65849  0.29112  Biso   1.000  H
  C412     1.0000 0.24579  0.60290  0.27395  Biso   1.000  C
  C413     1.0000 0.24581  0.60298  0.27395  Biso   1.000  C
  C414     1.0000 0.34880  0.63191  0.13522  Biso   1.000  C
  H397     1.0000 0.43215  0.65857  0.29112  Biso   1.000  H
  O52      1.0000 0.13803  0.72888  0.23194  Biso   1.000  O
  O53      1.0000 0.13812  0.72888  0.23194  Biso   1.000  O
  H398     1.0000 0.94215  0.28534  0.59060  Biso   1.000  H
  H399     1.0000 0.97995  0.26690  0.48380  Biso   1.000  H
  H400     1.0000 0.97986  0.26690  0.48380  Biso   1.000  H
  H401     1.0000 0.97997  0.26698  0.48380  Biso   1.000  H
  H402     1.0000 0.94216  0.28541  0.59060  Biso   1.000  H
  C415     1.0000 0.09563  0.23591  0.59411  Biso   1.000  C
  C416     1.0000 0.09556  0.23599  0.59411  Biso   1.000  C
  C417     1.0000 0.09554  0.23591  0.59411  Biso   1.000  C
  C418     1.0000 0.44172  0.92760  0.60036  Biso   1.000  C
  C419     1.0000 0.44170  0.92752  0.60036  Biso   1.000  C
  C420     1.0000 0.66249  0.00177  0.67273  Biso   1.000  C
  C421     1.0000 0.66260  0.00185  0.67273  Biso   1.000  C
  H403     1.0000 0.41476  0.20678  0.63393  Biso   1.000  H
  C422     1.0000 0.32212  0.05167  0.58350  Biso   1.000  C
  H404     1.0000 0.41484  0.20678  0.63393  Biso   1.000  H
  C423     1.0000 0.32214  0.05175  0.58350  Biso   1.000  C
  H405     1.0000 0.41486  0.20685  0.63393  Biso   1.000  H
  H406     1.0000 0.83911  0.07554  0.72566  Biso   1.000  H
  H407     1.0000 0.83913  0.07556  0.72574  Biso   1.000  H
  H408     1.0000 0.83913  0.07562  0.72566  Biso   1.000  H
  H409     1.0000 0.83915  0.07564  0.72574  Biso   1.000  H
  C424     1.0000 0.45119  0.63819  0.09009  Biso   1.000  C
  C425     1.0000 0.23609  0.59349  0.06894  Biso   1.000  C
  C426     1.0000 0.23618  0.59349  0.06894  Biso   1.000  C
  C427     1.0000 0.45121  0.63827  0.09009  Biso   1.000  C
  H410     1.0000 0.24329  0.52732  0.25451  Biso   1.000  H
  H411     1.0000 0.24639  0.62729  0.34749  Biso   1.000  H
  C428     1.0000 0.13763  0.61894  0.20938  Biso   1.000  C
  H412     1.0000 0.24641  0.62736  0.34749  Biso   1.000  H
  C429     1.0000 0.13765  0.61902  0.20938  Biso   1.000  C
  H413     1.0000 0.12720  0.18971  0.54438  Biso   1.000  H
  H414     1.0000 0.08847  0.20605  0.65087  Biso   1.000  H
  C430     1.0000 0.18241  0.34758  0.63642  Biso   1.000  C
  H415     1.0000 0.12713  0.18978  0.54438  Biso   1.000  H
  H416     1.0000 0.12712  0.18971  0.54438  Biso   1.000  H
  H417     1.0000 0.08845  0.20597  0.65087  Biso   1.000  H
  C431     1.0000 0.18239  0.34750  0.63642  Biso   1.000  C
  C432     1.0000 0.33065  0.94575  0.57273  Biso   1.000  C
  C433     1.0000 0.45164  0.81398  0.58326  Biso   1.000  C
  C434     1.0000 0.33063  0.94567  0.57273  Biso   1.000  C
  C435     1.0000 0.45162  0.81391  0.58326  Biso   1.000  C
  C436     1.0000 0.33071  0.94567  0.57273  Biso   1.000  C
  C437     1.0000 0.45170  0.81391  0.58326  Biso   1.000  C
  H418     1.0000 0.67016  0.93262  0.66430  Biso   1.000  H
  H419     1.0000 0.67014  0.93254  0.66430  Biso   1.000  H
  H420     1.0000 0.67024  0.93262  0.66430  Biso   1.000  H
  H421     1.0000 0.24788  0.06294  0.56062  Biso   1.000  H
  H422     1.0000 0.24790  0.06301  0.56062  Biso   1.000  H
  C438     1.0000 0.43594  0.61288  0.97923  Biso   1.000  C
  C439     1.0000 0.43594  0.61283  0.97931  Biso   1.000  C
  C440     1.0000 0.43592  0.61280  0.97923  Biso   1.000  C
  C441     1.0000 0.57038  0.66844  0.15091  Biso   1.000  C
  C442     1.0000 0.57048  0.66852  0.15091  Biso   1.000  C
  C443     1.0000 0.21922  0.56827  0.95933  Biso   1.000  C
  C444     1.0000 0.21920  0.56819  0.95933  Biso   1.000  C
  C445     1.0000 0.21929  0.56819  0.95933  Biso   1.000  C
  O54      1.0000 0.12932  0.57712  0.10094  Biso   1.000  O
  H423     1.0000 0.06504  0.58002  0.22492  Biso   1.000  H
  H424     1.0000 0.06513  0.58002  0.22492  Biso   1.000  H
  H425     1.0000 0.18810  0.37809  0.58053  Biso   1.000  H
  H426     1.0000 0.26060  0.34338  0.66703  Biso   1.000  H
  H427     1.0000 0.15373  0.39224  0.68850  Biso   1.000  H
  H428     1.0000 0.15366  0.39231  0.68850  Biso   1.000  H
  H429     1.0000 0.18808  0.37802  0.58053  Biso   1.000  H
  H430     1.0000 0.26058  0.34330  0.66703  Biso   1.000  H
  H431     1.0000 0.15365  0.39224  0.68850  Biso   1.000  H
  O55      1.0000 0.23268  0.85761  0.53369  Biso   1.000  O
  O56      1.0000 0.23267  0.85754  0.53369  Biso   1.000  O
  H432     1.0000 0.51550  0.80371  0.54782  Biso   1.000  H
  H433     1.0000 0.37659  0.76313  0.53978  Biso   1.000  H
  N21      1.0000 0.47792  0.79493  0.68382  Biso   1.000  N
  H434     1.0000 0.51548  0.80363  0.54782  Biso   1.000  H
  H435     1.0000 0.37657  0.76305  0.53978  Biso   1.000  H
  N22      1.0000 0.47790  0.79486  0.68382  Biso   1.000  N
  C446     1.0000 0.53823  0.62214  0.93505  Biso   1.000  C
  C447     1.0000 0.31634  0.57940  0.91647  Biso   1.000  C
  C448     1.0000 0.53821  0.62206  0.93505  Biso   1.000  C
  C449     1.0000 0.31632  0.57933  0.91647  Biso   1.000  C
  C450     1.0000 0.53831  0.62214  0.93505  Biso   1.000  C
  C451     1.0000 0.31642  0.57940  0.91647  Biso   1.000  C
  H436     1.0000 0.58292  0.68330  0.22289  Biso   1.000  H
  C452     1.0000 0.66837  0.67670  0.10789  Biso   1.000  C
  C453     1.0000 0.66839  0.67678  0.10789  Biso   1.000  C
  H437     1.0000 0.14165  0.54397  0.91662  Biso   1.000  H
  H438     1.0000 0.14163  0.54389  0.91662  Biso   1.000  H
  C454     1.0000 0.11628  0.87252  0.49996  Biso   1.000  C
  C455     1.0000 0.11628  0.87246  0.50004  Biso   1.000  C
  C456     1.0000 0.11635  0.87244  0.49996  Biso   1.000  C
  C457     1.0000 0.11637  0.87246  0.50004  Biso   1.000  C
  C458     1.0000 0.48329  0.69836  0.69366  Biso   1.000  C
  H439     1.0000 0.49055  0.84793  0.73972  Biso   1.000  H
  C459     1.0000 0.48327  0.69828  0.69366  Biso   1.000  C
  H440     1.0000 0.49053  0.84785  0.73972  Biso   1.000  H
  H441     1.0000 0.49064  0.84793  0.73972  Biso   1.000  H
  C460     1.0000 0.65269  0.65632  0.99906  Biso   1.000  C
  C461     1.0000 0.52327  0.59946  0.81880  Biso   1.000  C
  C462     1.0000 0.65267  0.65624  0.99906  Biso   1.000  C
  C463     1.0000 0.52325  0.59938  0.81880  Biso   1.000  C
  H442     1.0000 0.30423  0.56493  0.84449  Biso   1.000  H
  H443     1.0000 0.30421  0.56485  0.84449  Biso   1.000  H
  H444     1.0000 0.30430  0.56485  0.84449  Biso   1.000  H
  H445     1.0000 0.74562  0.69600  0.15052  Biso   1.000  H
  H446     1.0000 0.09451  0.91762  0.55797  Biso   1.000  H
  H447     1.0000 0.11705  0.90669  0.44571  Biso   1.000  H
  C464     1.0000 0.02733  0.76222  0.45882  Biso   1.000  C
  H448     1.0000 0.09449  0.91754  0.55797  Biso   1.000  H
  H449     1.0000 0.11703  0.90662  0.44571  Biso   1.000  H
  C465     1.0000 0.02731  0.76214  0.45882  Biso   1.000  C
  H450     1.0000 0.11713  0.90669  0.44571  Biso   1.000  H
  N23      1.0000 0.50525  0.69456  0.79241  Biso   1.000  N
  O57      1.0000 0.46669  0.61840  0.61683  Biso   1.000  O
  N24      1.0000 0.50515  0.69448  0.79241  Biso   1.000  N
  O58      1.0000 0.46667  0.61832  0.61683  Biso   1.000  O
  O59      1.0000 0.74707  0.66743  0.95183  Biso   1.000  O
  O60      1.0000 0.74705  0.66735  0.95183  Biso   1.000  O
  H451     1.0000 0.45426  0.53803  0.78172  Biso   1.000  H
  H452     1.0000 0.59444  0.58319  0.79881  Biso   1.000  H
  H453     1.0000 0.45424  0.53795  0.78172  Biso   1.000  H
  H454     1.0000 0.59453  0.58319  0.79881  Biso   1.000  H
  C466     1.0000 0.90449  0.76424  0.40589  Biso   1.000  C
  C467     1.0000 0.90447  0.76417  0.40589  Biso   1.000  C
  C468     1.0000 0.90439  0.76417  0.40589  Biso   1.000  C
  H455     1.0000 0.02009  0.73325  0.51620  Biso   1.000  H
  H456     1.0000 0.05789  0.71482  0.40940  Biso   1.000  H
  H457     1.0000 0.02007  0.73317  0.51620  Biso   1.000  H
  H458     1.0000 0.05787  0.71474  0.40940  Biso   1.000  H
  H459     1.0000 0.50880  0.75081  0.84222  Biso   1.000  H
  H460     1.0000 0.50878  0.75073  0.84222  Biso   1.000  H
  C469     1.0000 0.86792  0.69981  0.01452  Biso   1.000  C
  H461     1.0000 0.87284  0.81045  0.45562  Biso   1.000  H
  H462     1.0000 0.91157  0.79410  0.34913  Biso   1.000  H
  C470     1.0000 0.81763  0.65258  0.36358  Biso   1.000  C
  H463     1.0000 0.87282  0.81037  0.45562  Biso   1.000  H
  H464     1.0000 0.91155  0.79403  0.34913  Biso   1.000  H
  C471     1.0000 0.81761  0.65250  0.36358  Biso   1.000  C
  H465     1.0000 0.91148  0.79410  0.34913  Biso   1.000  H
  C472     1.0000 0.95253  0.71004  0.94278  Biso   1.000  C
  C473     1.0000 0.95251  0.70996  0.94278  Biso   1.000  C
  C474     1.0000 0.95260  0.70996  0.94278  Biso   1.000  C
  H466     1.0000 0.88052  0.64659  0.04848  Biso   1.000  H
  H467     1.0000 0.88239  0.76822  0.06792  Biso   1.000  H
  H468     1.0000 0.88247  0.76822  0.06792  Biso   1.000  H
  H469     1.0000 0.81193  0.62206  0.41947  Biso   1.000  H
  H470     1.0000 0.73944  0.65678  0.33297  Biso   1.000  H
  H471     1.0000 0.84639  0.60792  0.31150  Biso   1.000  H
  H472     1.0000 0.73942  0.65670  0.33297  Biso   1.000  H
  H473     1.0000 0.84637  0.60784  0.31150  Biso   1.000  H
  H474     1.0000 0.81185  0.62206  0.41947  Biso   1.000  H
  H475     1.0000 0.73935  0.65678  0.33297  Biso   1.000  H
  H476     1.0000 0.84629  0.60784  0.31150  Biso   1.000  H
  H477     1.0000 0.92825  0.66901  0.87267  Biso   1.000  H
  H478     1.0000 0.92823  0.66893  0.87267  Biso   1.000  H
  H479     1.0000 0.92833  0.66901  0.87267  Biso   1.000  H
  H480     1.0000 0.98163  0.65341  0.91139  Biso   1.000  H
  C475     1.0000 0.98334  0.80782  0.92740  Biso   1.000  C
  C476     1.0000 0.06617  0.78105  0.98282  Biso   1.000  C
  C477     1.0000 0.06615  0.78098  0.98282  Biso   1.000  C
  C478     1.0000 0.06624  0.78098  0.98282  Biso   1.000  C
  H481     1.0000 0.91035  0.82949  0.91077  Biso   1.000  H
  H482     1.0000 0.01872  0.80048  0.86744  Biso   1.000  H
  C479     1.0000 0.07535  0.90037  0.02397  Biso   1.000  C
  C480     1.0000 0.07537  0.90045  0.02397  Biso   1.000  C
  H483     1.0000 0.11061  0.77133  0.92857  Biso   1.000  H
  H484     1.0000 0.11051  0.77126  0.92857  Biso   1.000  H
  H485     1.0000 0.11059  0.77126  0.92857  Biso   1.000  H
  H486     1.0000 0.10704  0.76055  0.03919  Biso   1.000  H
  H487     1.0000 0.10706  0.76063  0.03919  Biso   1.000  H
  H488     1.0000 0.03822  0.92337  0.96869  Biso   1.000  H
  H489     1.0000 0.03820  0.92329  0.96869  Biso   1.000  H
  H490     1.0000 0.15864  0.94072  0.04942  Biso   1.000  H
  H491     1.0000 0.03474  0.91258  0.07979  Biso   1.000  H
  H492     1.0000 0.03476  0.91266  0.07979  Biso   1.000  H
  H493     1.0000 0.09230  0.96633  0.00687  Biso   1.000  H
  H494     1.0000 0.04048  0.91004  0.08353  Biso   1.000  H
  H495     1.0000 0.14886  0.88095  0.03997  Biso   1.000  H
  N25      1.0000 0.49477  0.30552  0.20759  Biso   1.000  N
  C481     1.0000 0.51667  0.30180  0.30634  Biso   1.000  C
  C482     1.0000 0.51677  0.30187  0.30634  Biso   1.000  C
  C483     1.0000 0.51675  0.30180  0.30634  Biso   1.000  C
  C484     1.0000 0.47677  0.40070  0.18120  Biso   1.000  C
  H496     1.0000 0.49124  0.24935  0.15778  Biso   1.000  H
  C485     1.0000 0.47679  0.40077  0.18120  Biso   1.000  C
  H497     1.0000 0.49122  0.24927  0.15778  Biso   1.000  H
  O61      1.0000 0.53335  0.38176  0.38317  Biso   1.000  O
  N26      1.0000 0.52212  0.20522  0.31618  Biso   1.000  N
  N27      1.0000 0.49479  0.30559  0.20759  Biso   1.000  N
  N28      1.0000 0.52204  0.20522  0.31618  Biso   1.000  N
  H498     1.0000 0.54569  0.46212  0.21828  Biso   1.000  H
  H499     1.0000 0.40551  0.41696  0.20119  Biso   1.000  H
  C486     1.0000 0.46173  0.37802  0.06495  Biso   1.000  C
  H500     1.0000 0.54578  0.46212  0.21828  Biso   1.000  H
  H501     1.0000 0.40559  0.41696  0.20119  Biso   1.000  H
  C487     1.0000 0.46181  0.37802  0.06495  Biso   1.000  C
  H502     1.0000 0.40557  0.41688  0.20119  Biso   1.000  H
  C488     1.0000 0.46179  0.37794  0.06495  Biso   1.000  C
  C489     1.0000 0.54832  0.18617  0.41674  Biso   1.000  C
  H503     1.0000 0.50940  0.15222  0.26028  Biso   1.000  H
  C490     1.0000 0.54842  0.18624  0.41674  Biso   1.000  C
  H504     1.0000 0.50938  0.15215  0.26028  Biso   1.000  H
  C491     1.0000 0.56402  0.38727  0.02077  Biso   1.000  C
  C492     1.0000 0.34735  0.34384  0.00094  Biso   1.000  C
  C493     1.0000 0.34727  0.34384  0.00094  Biso   1.000  C
  C494     1.0000 0.56412  0.38735  0.02077  Biso   1.000  C
  C495     1.0000 0.56410  0.38727  0.02077  Biso   1.000  C
  C496     1.0000 0.34733  0.34376  0.00094  Biso   1.000  C
  C497     1.0000 0.55823  0.07256  0.39964  Biso   1.000  C
  H505     1.0000 0.48446  0.19644  0.45218  Biso   1.000  H
  H506     1.0000 0.62345  0.23703  0.46022  Biso   1.000  H
  C498     1.0000 0.55825  0.07263  0.39964  Biso   1.000  C
  H507     1.0000 0.62336  0.23703  0.46022  Biso   1.000  H
  C499     1.0000 0.55834  0.07263  0.39964  Biso   1.000  C
  H508     1.0000 0.48454  0.19644  0.45218  Biso   1.000  H
  H509     1.0000 0.62347  0.23710  0.46022  Biso   1.000  H
  C500     1.0000 0.55832  0.07256  0.39964  Biso   1.000  C
  H510     1.0000 0.48452  0.19637  0.45218  Biso   1.000  H
  C501     1.0000 0.54874  0.36188  0.90991  Biso   1.000  C
  C502     1.0000 0.54883  0.36188  0.90991  Biso   1.000  C
  C503     1.0000 0.68362  0.42075  0.08353  Biso   1.000  C
  C504     1.0000 0.68364  0.42078  0.08361  Biso   1.000  C
  C505     1.0000 0.68370  0.42075  0.08353  Biso   1.000  C
  C506     1.0000 0.68370  0.42070  0.08361  Biso   1.000  C
  C507     1.0000 0.33157  0.32338  0.89211  Biso   1.000  C
  C508     1.0000 0.33165  0.32338  0.89211  Biso   1.000  C
  O62      1.0000 0.25297  0.33272  0.04817  Biso   1.000  O
  O63      1.0000 0.25295  0.33265  0.04817  Biso   1.000  O
  C509     1.0000 0.45344  0.98329  0.35467  Biso   1.000  C
  C510     1.0000 0.45346  0.98337  0.35467  Biso   1.000  C
  C511     1.0000 0.45355  0.98337  0.35467  Biso   1.000  C
  C512     1.0000 0.66930  0.05441  0.42727  Biso   1.000  C
  C513     1.0000 0.66932  0.05448  0.42727  Biso   1.000  C
  C514     1.0000 0.66941  0.05448  0.42727  Biso   1.000  C
  C515     1.0000 0.66939  0.05441  0.42727  Biso   1.000  C
  C516     1.0000 0.42956  0.33163  0.84909  Biso   1.000  C
  C517     1.0000 0.65124  0.36824  0.86478  Biso   1.000  C
  C518     1.0000 0.42964  0.33163  0.84909  Biso   1.000  C
  H511     1.0000 0.69572  0.43523  0.15551  Biso   1.000  H
  C519     1.0000 0.78073  0.43189  0.04067  Biso   1.000  C
  C520     1.0000 0.78075  0.43196  0.04067  Biso   1.000  C
  H512     1.0000 0.69583  0.43530  0.15551  Biso   1.000  H
  C521     1.0000 0.78084  0.43196  0.04067  Biso   1.000  C
  H513     1.0000 0.69581  0.43523  0.15551  Biso   1.000  H
  C522     1.0000 0.78082  0.43189  0.04067  Biso   1.000  C
  H514     1.0000 0.25440  0.30407  0.84948  Biso   1.000  H
  H515     1.0000 0.25432  0.30407  0.84948  Biso   1.000  H
  H516     1.0000 0.25442  0.30415  0.84948  Biso   1.000  H
  C523     1.0000 0.13202  0.30027  0.98548  Biso   1.000  C
  C524     1.0000 0.13212  0.30034  0.98548  Biso   1.000  C
  C525     1.0000 0.46259  0.87524  0.33703  Biso   1.000  C
  C526     1.0000 0.33744  0.99830  0.32727  Biso   1.000  C
  C527     1.0000 0.46261  0.87532  0.33703  Biso   1.000  C
  C528     1.0000 0.67790  0.94840  0.41650  Biso   1.000  C
  C529     1.0000 0.67781  0.94840  0.41650  Biso   1.000  C
  O64      1.0000 0.76727  0.14254  0.46631  Biso   1.000  O
  O65      1.0000 0.76735  0.14254  0.46631  Biso   1.000  O
  O66      1.0000 0.76733  0.14246  0.46631  Biso   1.000  O
  H517     1.0000 0.41710  0.31677  0.77711  Biso   1.000  H
  H518     1.0000 0.41712  0.31685  0.77711  Biso   1.000  H
  C530     1.0000 0.76384  0.40659  0.93106  Biso   1.000  C
  C531     1.0000 0.64110  0.33158  0.74690  Biso   1.000  C
  C532     1.0000 0.76386  0.40661  0.93114  Biso   1.000  C
  C533     1.0000 0.64119  0.33158  0.74690  Biso   1.000  C
  C534     1.0000 0.76388  0.40669  0.93114  Biso   1.000  C
  H519     1.0000 0.85831  0.45619  0.08338  Biso   1.000  H
  H520     1.0000 0.85833  0.45626  0.08338  Biso   1.000  H
  H521     1.0000 0.85841  0.45626  0.08338  Biso   1.000  H
  H522     1.0000 0.85839  0.45619  0.08338  Biso   1.000  H
  H523     1.0000 0.11950  0.35348  0.95152  Biso   1.000  H
  H524     1.0000 0.11755  0.23186  0.93208  Biso   1.000  H
  H525     1.0000 0.11952  0.35356  0.95152  Biso   1.000  H
  H526     1.0000 0.11757  0.23193  0.93208  Biso   1.000  H
  C535     1.0000 0.04742  0.29012  0.05722  Biso   1.000  C
  C536     1.0000 0.04744  0.29019  0.05722  Biso   1.000  C
  C537     1.0000 0.57744  0.86224  0.37263  Biso   1.000  C
  C538     1.0000 0.35728  0.78607  0.28878  Biso   1.000  C
  C539     1.0000 0.57754  0.86232  0.37263  Biso   1.000  C
  C540     1.0000 0.35738  0.78615  0.28878  Biso   1.000  C
  C541     1.0000 0.23655  0.91290  0.28862  Biso   1.000  C
  C542     1.0000 0.23666  0.91297  0.28862  Biso   1.000  C
  H527     1.0000 0.32980  0.06754  0.33570  Biso   1.000  H
  H528     1.0000 0.32978  0.06746  0.33570  Biso   1.000  H
  H529     1.0000 0.75205  0.93714  0.43938  Biso   1.000  H
  H530     1.0000 0.75214  0.93714  0.43938  Biso   1.000  H
  C543     1.0000 0.88367  0.12764  0.50004  Biso   1.000  C
  C544     1.0000 0.88369  0.12771  0.50004  Biso   1.000  C
  C545     1.0000 0.88378  0.12771  0.50004  Biso   1.000  C
  O67      1.0000 0.87070  0.42296  0.89906  Biso   1.000  O
  O68      1.0000 0.87072  0.42303  0.89906  Biso   1.000  O
  H531     1.0000 0.56789  0.34158  0.70888  Biso   1.000  H
  C546     1.0000 0.75423  0.39717  0.72605  Biso   1.000  C
  C547     1.0000 0.64266  0.21400  0.71122  Biso   1.000  C
  C548     1.0000 0.64274  0.21400  0.71122  Biso   1.000  C
  C549     1.0000 0.93378  0.21910  0.01718  Biso   1.000  C
  C550     1.0000 0.93389  0.21918  0.01718  Biso   1.000  C
  C551     1.0000 0.93387  0.21910  0.01718  Biso   1.000  C
  H532     1.0000 0.07171  0.33114  0.12733  Biso   1.000  H
  H533     1.0000 0.07179  0.33114  0.12733  Biso   1.000  H
  H534     1.0000 0.07177  0.33107  0.12733  Biso   1.000  H
  H535     1.0000 0.01840  0.34674  0.08861  Biso   1.000  H
  C552     1.0000 0.01670  0.19233  0.07260  Biso   1.000  C
  H536     1.0000 0.58518  0.79330  0.36607  Biso   1.000  H
  H537     1.0000 0.58519  0.79338  0.36607  Biso   1.000  H
  C553     1.0000 0.35883  0.66850  0.25310  Biso   1.000  C
  C554     1.0000 0.24731  0.80748  0.27059  Biso   1.000  C
  C555     1.0000 0.35885  0.66858  0.25310  Biso   1.000  C
  C556     1.0000 0.24739  0.80748  0.27059  Biso   1.000  C
  H538     1.0000 0.16091  0.92454  0.27434  Biso   1.000  H
  H539     1.0000 0.90553  0.08253  0.44203  Biso   1.000  H
  H540     1.0000 0.88291  0.09346  0.55429  Biso   1.000  H
  C557     1.0000 0.97262  0.23793  0.54118  Biso   1.000  C
  H541     1.0000 0.90555  0.08261  0.44203  Biso   1.000  H
  C558     1.0000 0.97271  0.23793  0.54118  Biso   1.000  C
  H542     1.0000 0.88289  0.09338  0.55429  Biso   1.000  H
  C559     1.0000 0.97269  0.23786  0.54118  Biso   1.000  C
  C560     1.0000 0.86230  0.38113  0.79062  Biso   1.000  C
  C561     1.0000 0.86239  0.38113  0.79062  Biso   1.000  C
  H543     1.0000 0.75673  0.47276  0.74549  Biso   1.000  H
  H544     1.0000 0.75363  0.37279  0.65251  Biso   1.000  H
  H545     1.0000 0.75675  0.47284  0.74549  Biso   1.000  H
  C562     1.0000 0.53743  0.12484  0.66297  Biso   1.000  C
  C563     1.0000 0.75262  0.19260  0.72941  Biso   1.000  C
  C564     1.0000 0.75264  0.19268  0.72941  Biso   1.000  C
  C565     1.0000 0.75273  0.19268  0.72941  Biso   1.000  C
  H546     1.0000 0.89298  0.23952  0.96081  Biso   1.000  H
  C566     1.0000 0.92467  0.09970  0.97603  Biso   1.000  C
  H547     1.0000 0.88943  0.22882  0.07143  Biso   1.000  H
  H548     1.0000 0.88945  0.22890  0.07143  Biso   1.000  H
  H549     1.0000 0.98132  0.19962  0.13264  Biso   1.000  H
  H550     1.0000 0.08960  0.17066  0.08923  Biso   1.000  H
  C567     1.0000 0.34870  0.63184  0.13522  Biso   1.000  C
  H551     1.0000 0.43205  0.65849  0.29112  Biso   1.000  H
  C568     1.0000 0.24579  0.60290  0.27395  Biso   1.000  C
  C569     1.0000 0.24581  0.60298  0.27395  Biso   1.000  C
  C570     1.0000 0.34880  0.63191  0.13522  Biso   1.000  C
  H552     1.0000 0.43215  0.65857  0.29112  Biso   1.000  H
  O69      1.0000 0.13803  0.72888  0.23194  Biso   1.000  O
  O70      1.0000 0.13812  0.72888  0.23194  Biso   1.000  O
  H553     1.0000 0.97995  0.26690  0.48380  Biso   1.000  H
  H554     1.0000 0.94215  0.28534  0.59060  Biso   1.000  H
  H555     1.0000 0.97986  0.26690  0.48380  Biso   1.000  H
  H556     1.0000 0.97997  0.26698  0.48380  Biso   1.000  H
  H557     1.0000 0.94216  0.28541  0.59060  Biso   1.000  H
  C571     1.0000 0.09563  0.23591  0.59411  Biso   1.000  C
  C572     1.0000 0.09556  0.23599  0.59411  Biso   1.000  C
  C573     1.0000 0.09554  0.23591  0.59411  Biso   1.000  C
  H558     1.0000 0.93489  0.42006  0.77508  Biso   1.000  H
  O71      1.0000 0.86190  0.27120  0.76806  Biso   1.000  O
  H559     1.0000 0.93491  0.42013  0.77508  Biso   1.000  H
  O72      1.0000 0.86198  0.27120  0.76806  Biso   1.000  O
  O73      1.0000 0.86192  0.27128  0.76806  Biso   1.000  O
  C574     1.0000 0.54649  0.01679  0.64533  Biso   1.000  C
  C575     1.0000 0.42250  0.13784  0.62737  Biso   1.000  C
  C576     1.0000 0.42258  0.13784  0.62737  Biso   1.000  C
  C577     1.0000 0.76338  0.08718  0.71138  Biso   1.000  C
  H560     1.0000 0.84130  0.05936  0.95058  Biso   1.000  H
  H561     1.0000 0.96528  0.08749  0.92021  Biso   1.000  H
  H562     1.0000 0.84140  0.05943  0.95058  Biso   1.000  H
  H563     1.0000 0.90774  0.03382  0.99313  Biso   1.000  H
  H564     1.0000 0.95954  0.09004  0.91647  Biso   1.000  H
  H565     1.0000 0.85117  0.11920  0.96003  Biso   1.000  H
  H566     1.0000 0.96182  0.07679  0.03131  Biso   1.000  H
  H567     1.0000 0.96183  0.07686  0.03131  Biso   1.000  H
  C578     1.0000 0.45119  0.63819  0.09009  Biso   1.000  C
  C579     1.0000 0.23609  0.59349  0.06894  Biso   1.000  C
  C580     1.0000 0.23618  0.59349  0.06894  Biso   1.000  C
  C581     1.0000 0.45121  0.63827  0.09009  Biso   1.000  C
  H568     1.0000 0.24329  0.52732  0.25451  Biso   1.000  H
  H569     1.0000 0.24639  0.62729  0.34749  Biso   1.000  H
  C582     1.0000 0.13763  0.61894  0.20938  Biso   1.000  C
  H570     1.0000 0.24641  0.62736  0.34749  Biso   1.000  H
  C583     1.0000 0.13765  0.61902  0.20938  Biso   1.000  C
  H571     1.0000 0.12720  0.18971  0.54438  Biso   1.000  H
  H572     1.0000 0.08847  0.20605  0.65087  Biso   1.000  H
  C584     1.0000 0.18241  0.34758  0.63642  Biso   1.000  C
  H573     1.0000 0.12713  0.18978  0.54438  Biso   1.000  H
  H574     1.0000 0.12712  0.18971  0.54438  Biso   1.000  H
  H575     1.0000 0.08845  0.20597  0.65087  Biso   1.000  H
  C585     1.0000 0.18239  0.34750  0.63642  Biso   1.000  C
  C586     1.0000 0.44172  0.92760  0.60036  Biso   1.000  C
  C587     1.0000 0.44170  0.92752  0.60036  Biso   1.000  C
  C588     1.0000 0.66249  0.00177  0.67273  Biso   1.000  C
  C589     1.0000 0.66260  0.00185  0.67273  Biso   1.000  C
  H576     1.0000 0.41476  0.20678  0.63393  Biso   1.000  H
  C590     1.0000 0.32212  0.05167  0.58350  Biso   1.000  C
  H577     1.0000 0.41484  0.20678  0.63393  Biso   1.000  H
  C591     1.0000 0.32214  0.05175  0.58350  Biso   1.000  C
  H578     1.0000 0.41486  0.20685  0.63393  Biso   1.000  H
  H579     1.0000 0.83911  0.07554  0.72566  Biso   1.000  H
  H580     1.0000 0.83913  0.07556  0.72574  Biso   1.000  H
  H581     1.0000 0.83913  0.07562  0.72566  Biso   1.000  H
  H582     1.0000 0.83915  0.07564  0.72574  Biso   1.000  H
  C592     1.0000 0.43594  0.61288  0.97923  Biso   1.000  C
  C593     1.0000 0.43594  0.61283  0.97931  Biso   1.000  C
  C594     1.0000 0.43592  0.61280  0.97923  Biso   1.000  C
  C595     1.0000 0.57038  0.66844  0.15091  Biso   1.000  C
  C596     1.0000 0.57048  0.66852  0.15091  Biso   1.000  C
  C597     1.0000 0.21922  0.56827  0.95933  Biso   1.000  C
  C598     1.0000 0.21920  0.56819  0.95933  Biso   1.000  C
  C599     1.0000 0.21929  0.56819  0.95933  Biso   1.000  C
  O74      1.0000 0.12932  0.57712  0.10094  Biso   1.000  O
  H583     1.0000 0.06504  0.58002  0.22492  Biso   1.000  H
  H584     1.0000 0.06513  0.58002  0.22492  Biso   1.000  H
  H585     1.0000 0.18810  0.37809  0.58053  Biso   1.000  H
  H586     1.0000 0.26060  0.34338  0.66703  Biso   1.000  H
  H587     1.0000 0.15373  0.39224  0.68850  Biso   1.000  H
  H588     1.0000 0.15366  0.39231  0.68850  Biso   1.000  H
  H589     1.0000 0.18808  0.37802  0.58053  Biso   1.000  H
  H590     1.0000 0.26058  0.34330  0.66703  Biso   1.000  H
  H591     1.0000 0.15365  0.39224  0.68850  Biso   1.000  H
  C600     1.0000 0.33065  0.94575  0.57273  Biso   1.000  C
  C601     1.0000 0.45164  0.81398  0.58326  Biso   1.000  C
  C602     1.0000 0.33063  0.94567  0.57273  Biso   1.000  C
  C603     1.0000 0.45162  0.81391  0.58326  Biso   1.000  C
  C604     1.0000 0.33071  0.94567  0.57273  Biso   1.000  C
  C605     1.0000 0.45170  0.81391  0.58326  Biso   1.000  C
  H592     1.0000 0.67016  0.93262  0.66430  Biso   1.000  H
  H593     1.0000 0.67014  0.93254  0.66430  Biso   1.000  H
  H594     1.0000 0.67024  0.93262  0.66430  Biso   1.000  H
  H595     1.0000 0.24788  0.06294  0.56062  Biso   1.000  H
  H596     1.0000 0.24790  0.06301  0.56062  Biso   1.000  H
  C606     1.0000 0.53823  0.62214  0.93505  Biso   1.000  C
  C607     1.0000 0.31634  0.57940  0.91647  Biso   1.000  C
  C608     1.0000 0.53821  0.62206  0.93505  Biso   1.000  C
  C609     1.0000 0.31632  0.57933  0.91647  Biso   1.000  C
  C610     1.0000 0.53831  0.62214  0.93505  Biso   1.000  C
  C611     1.0000 0.31642  0.57940  0.91647  Biso   1.000  C
  H597     1.0000 0.58292  0.68330  0.22289  Biso   1.000  H
  C612     1.0000 0.66837  0.67670  0.10789  Biso   1.000  C
  C613     1.0000 0.66839  0.67678  0.10789  Biso   1.000  C
  H598     1.0000 0.14165  0.54397  0.91662  Biso   1.000  H
  H599     1.0000 0.14163  0.54389  0.91662  Biso   1.000  H
  O75      1.0000 0.23268  0.85761  0.53369  Biso   1.000  O
  O76      1.0000 0.23267  0.85754  0.53369  Biso   1.000  O
  H600     1.0000 0.51550  0.80371  0.54782  Biso   1.000  H
  H601     1.0000 0.37659  0.76313  0.53978  Biso   1.000  H
  N29      1.0000 0.47792  0.79493  0.68382  Biso   1.000  N
  H602     1.0000 0.51548  0.80363  0.54782  Biso   1.000  H
  H603     1.0000 0.37657  0.76305  0.53978  Biso   1.000  H
  N30      1.0000 0.47790  0.79486  0.68382  Biso   1.000  N
  C614     1.0000 0.65269  0.65632  0.99906  Biso   1.000  C
  C615     1.0000 0.52327  0.59946  0.81880  Biso   1.000  C
  C616     1.0000 0.65267  0.65624  0.99906  Biso   1.000  C
  C617     1.0000 0.52325  0.59938  0.81880  Biso   1.000  C
  H604     1.0000 0.30423  0.56493  0.84449  Biso   1.000  H
  H605     1.0000 0.30421  0.56485  0.84449  Biso   1.000  H
  H606     1.0000 0.30430  0.56485  0.84449  Biso   1.000  H
  H607     1.0000 0.74562  0.69600  0.15052  Biso   1.000  H
  C618     1.0000 0.11628  0.87252  0.49996  Biso   1.000  C
  C619     1.0000 0.11628  0.87246  0.50004  Biso   1.000  C
  C620     1.0000 0.11635  0.87244  0.49996  Biso   1.000  C
  C621     1.0000 0.11637  0.87246  0.50004  Biso   1.000  C
  C622     1.0000 0.48329  0.69836  0.69366  Biso   1.000  C
  C623     1.0000 0.48327  0.69828  0.69366  Biso   1.000  C
  H608     1.0000 0.49055  0.84793  0.73972  Biso   1.000  H
  H609     1.0000 0.49053  0.84785  0.73972  Biso   1.000  H
  H610     1.0000 0.49064  0.84793  0.73972  Biso   1.000  H
  O77      1.0000 0.74707  0.66743  0.95183  Biso   1.000  O
  O78      1.0000 0.74705  0.66735  0.95183  Biso   1.000  O
  H611     1.0000 0.45426  0.53803  0.78172  Biso   1.000  H
  H612     1.0000 0.59444  0.58319  0.79881  Biso   1.000  H
  N31      1.0000 0.50525  0.69456  0.79241  Biso   1.000  N
  H613     1.0000 0.45424  0.53795  0.78172  Biso   1.000  H
  N32      1.0000 0.50515  0.69448  0.79241  Biso   1.000  N
  H614     1.0000 0.59453  0.58319  0.79881  Biso   1.000  H
  H615     1.0000 0.09451  0.91762  0.55797  Biso   1.000  H
  H616     1.0000 0.11705  0.90669  0.44571  Biso   1.000  H
  C624     1.0000 0.02733  0.76222  0.45882  Biso   1.000  C
  H617     1.0000 0.09449  0.91754  0.55797  Biso   1.000  H
  H618     1.0000 0.11703  0.90662  0.44571  Biso   1.000  H
  C625     1.0000 0.02731  0.76214  0.45882  Biso   1.000  C
  H619     1.0000 0.11713  0.90669  0.44571  Biso   1.000  H
  O79      1.0000 0.46669  0.61840  0.61683  Biso   1.000  O
  O80      1.0000 0.46667  0.61832  0.61683  Biso   1.000  O
  C626     1.0000 0.86792  0.69981  0.01452  Biso   1.000  C
  H620     1.0000 0.50880  0.75081  0.84222  Biso   1.000  H
  H621     1.0000 0.50878  0.75073  0.84222  Biso   1.000  H
  C627     1.0000 0.90449  0.76424  0.40589  Biso   1.000  C
  C628     1.0000 0.90447  0.76417  0.40589  Biso   1.000  C
  C629     1.0000 0.90439  0.76417  0.40589  Biso   1.000  C
  H622     1.0000 0.02009  0.73325  0.51620  Biso   1.000  H
  H623     1.0000 0.05789  0.71482  0.40940  Biso   1.000  H
  H624     1.0000 0.02007  0.73317  0.51620  Biso   1.000  H
  H625     1.0000 0.05787  0.71474  0.40940  Biso   1.000  H
  C630     1.0000 0.95253  0.71004  0.94278  Biso   1.000  C
  C631     1.0000 0.95251  0.70996  0.94278  Biso   1.000  C
  C632     1.0000 0.95260  0.70996  0.94278  Biso   1.000  C
  H626     1.0000 0.88052  0.64659  0.04848  Biso   1.000  H
  H627     1.0000 0.88239  0.76822  0.06792  Biso   1.000  H
  H628     1.0000 0.88247  0.76822  0.06792  Biso   1.000  H
  H629     1.0000 0.87284  0.81045  0.45562  Biso   1.000  H
  H630     1.0000 0.91157  0.79410  0.34913  Biso   1.000  H
  C633     1.0000 0.81763  0.65258  0.36358  Biso   1.000  C
  H631     1.0000 0.87282  0.81037  0.45562  Biso   1.000  H
  H632     1.0000 0.91155  0.79403  0.34913  Biso   1.000  H
  C634     1.0000 0.81761  0.65250  0.36358  Biso   1.000  C
  H633     1.0000 0.91148  0.79410  0.34913  Biso   1.000  H
  H634     1.0000 0.92825  0.66901  0.87267  Biso   1.000  H
  H635     1.0000 0.92823  0.66893  0.87267  Biso   1.000  H
  H636     1.0000 0.92833  0.66901  0.87267  Biso   1.000  H
  H637     1.0000 0.98163  0.65341  0.91139  Biso   1.000  H
  C635     1.0000 0.98334  0.80782  0.92740  Biso   1.000  C
  C636     1.0000 0.06617  0.78105  0.98282  Biso   1.000  C
  C637     1.0000 0.06615  0.78098  0.98282  Biso   1.000  C
  C638     1.0000 0.06624  0.78098  0.98282  Biso   1.000  C
  H638     1.0000 0.81193  0.62206  0.41947  Biso   1.000  H
  H639     1.0000 0.73944  0.65678  0.33297  Biso   1.000  H
  H640     1.0000 0.84639  0.60792  0.31150  Biso   1.000  H
  H641     1.0000 0.73942  0.65670  0.33297  Biso   1.000  H
  H642     1.0000 0.84637  0.60784  0.31150  Biso   1.000  H
  H643     1.0000 0.81185  0.62206  0.41947  Biso   1.000  H
  H644     1.0000 0.73935  0.65678  0.33297  Biso   1.000  H
  H645     1.0000 0.84629  0.60784  0.31150  Biso   1.000  H
  H646     1.0000 0.91035  0.82949  0.91077  Biso   1.000  H
  H647     1.0000 0.01872  0.80048  0.86744  Biso   1.000  H
  C639     1.0000 0.07535  0.90037  0.02397  Biso   1.000  C
  C640     1.0000 0.07537  0.90045  0.02397  Biso   1.000  C
  H648     1.0000 0.11061  0.77133  0.92857  Biso   1.000  H
  H649     1.0000 0.11051  0.77126  0.92857  Biso   1.000  H
  H650     1.0000 0.11059  0.77126  0.92857  Biso   1.000  H
  H651     1.0000 0.10704  0.76055  0.03919  Biso   1.000  H
  H652     1.0000 0.10706  0.76063  0.03919  Biso   1.000  H
  H653     1.0000 0.03822  0.92337  0.96869  Biso   1.000  H
  H654     1.0000 0.03820  0.92329  0.96869  Biso   1.000  H
  H655     1.0000 0.15864  0.94072  0.04942  Biso   1.000  H
  H656     1.0000 0.03474  0.91258  0.07979  Biso   1.000  H
  H657     1.0000 0.03476  0.91266  0.07979  Biso   1.000  H
  H658     1.0000 0.09230  0.96633  0.00687  Biso   1.000  H
  H659     1.0000 0.04048  0.91004  0.08353  Biso   1.000  H
  H660     1.0000 0.14886  0.88095  0.03997  Biso   1.000  H
