data_image0
_cell_length_a       20.607
_cell_length_b       20.607
_cell_length_c       44.949
_cell_angle_alpha    90
_cell_angle_beta     90
_cell_angle_gamma    120

_symmetry_space_group_name_H-M    "P 1"
_symmetry_int_tables_number       1

loop_
  _symmetry_equiv_pos_as_xyz
  'x, y, z'

loop_
  _atom_site_label
  _atom_site_occupancy
  _atom_site_fract_x
  _atom_site_fract_y
  _atom_site_fract_z
  _atom_site_thermal_displace_type
  _atom_site_B_iso_or_equiv
  _atom_site_type_symbol
  C1       1.0000 0.41755  0.26723  0.43756  Biso   1.000  C
  N1       1.0000 0.42377  0.29278  0.41180  Biso   1.000  N
  H1       1.0000 0.39623  0.28292  0.45209  Biso   1.000  H
  C2       1.0000 0.44195  0.21383  0.44635  Biso   1.000  C
  C3       1.0000 0.39478  0.34349  0.40675  Biso   1.000  C
  C4       1.0000 0.42585  0.18329  0.47485  Biso   1.000  C
  C5       1.0000 0.47986  0.19192  0.42664  Biso   1.000  C
  C6       1.0000 0.33239  0.30869  0.38323  Biso   1.000  C
  H2       1.0000 0.37371  0.34960  0.42539  Biso   1.000  H
  C7       1.0000 0.45585  0.41925  0.39629  Biso   1.000  C
  H3       1.0000 0.40068  0.19758  0.48811  Biso   1.000  H
  C8       1.0000 0.44689  0.13151  0.48395  Biso   1.000  C
  H4       1.0000 0.49140  0.21209  0.40760  Biso   1.000  H
  C9       1.0000 0.50034  0.14020  0.43536  Biso   1.000  C
  C10      1.0000 0.29900  0.35789  0.37752  Biso   1.000  C
  H5       1.0000 0.35282  0.30180  0.36479  Biso   1.000  H
  H6       1.0000 0.29348  0.25989  0.39000  Biso   1.000  H
  C11      1.0000 0.42350  0.47013  0.39026  Biso   1.000  C
  H7       1.0000 0.47821  0.41331  0.37801  Biso   1.000  H
  N2       1.0000 0.51304  0.45220  0.41934  Biso   1.000  N
  C12      1.0000 0.42766  0.09655  0.51374  Biso   1.000  C
  C13      1.0000 0.48477  0.11100  0.46401  Biso   1.000  C
  C14      1.0000 0.53604  0.11308  0.41351  Biso   1.000  C
  C15      1.0000 0.35881  0.43578  0.36797  Biso   1.000  C
  H8       1.0000 0.27481  0.36142  0.39549  Biso   1.000  H
  H9       1.0000 0.26122  0.33570  0.36210  Biso   1.000  H
  H10      1.0000 0.46280  0.51759  0.38259  Biso   1.000  H
  H11      1.0000 0.40583  0.47982  0.40880  Biso   1.000  H
  C16      1.0000 0.57706  0.46396  0.41351  Biso   1.000  C
  N3       1.0000 0.38455  0.10389  0.53109  Biso   1.000  N
  H12      1.0000 0.44862  0.06791  0.51979  Biso   1.000  H
  H13      1.0000 0.49999  0.07738  0.46991  Biso   1.000  H
  N4       1.0000 0.54782  0.06085  0.41934  Biso   1.000  N
  H14      1.0000 0.54992  0.13600  0.39500  Biso   1.000  H
  H15      1.0000 0.33691  0.46778  0.36630  Biso   1.000  H
  H16      1.0000 0.37790  0.43309  0.34860  Biso   1.000  H
  C17      1.0000 0.63989  0.49966  0.43536  Biso   1.000  C
  H17      1.0000 0.58610  0.45012  0.39500  Biso   1.000  H
  C18      1.0000 0.36857  0.06562  0.55981  Biso   1.000  C
  C19      1.0000 0.58077  0.03659  0.39629  Biso   1.000  C
  C20      1.0000 0.71207  0.52017  0.42664  Biso   1.000  C
  C21      1.0000 0.62620  0.51518  0.46401  Biso   1.000  C
  H18      1.0000 0.39418  0.03648  0.56090  Biso   1.000  H
  C22      1.0000 0.39773  0.12462  0.58453  Biso   1.000  C
  C23      1.0000 0.28460  0.01328  0.56319  Biso   1.000  C
  C24      1.0000 0.65654  0.05127  0.40675  Biso   1.000  C
  H19      1.0000 0.58667  0.06489  0.37801  Biso   1.000  H
  C25      1.0000 0.52988  0.95344  0.39026  Biso   1.000  C
  C26      1.0000 0.77187  0.55805  0.44635  Biso   1.000  C
  H20      1.0000 0.72071  0.50862  0.40760  Biso   1.000  H
  C27      1.0000 0.68462  0.55312  0.48395  Biso   1.000  C
  H21      1.0000 0.57741  0.49999  0.46991  Biso   1.000  H
  N5       1.0000 0.47910  0.16934  0.58181  Biso   1.000  N
  C28      1.0000 0.37800  0.08797  0.61519  Biso   1.000  C
  H22      1.0000 0.37603  0.15712  0.58219  Biso   1.000  H
  H23      1.0000 0.25882  0.04130  0.56010  Biso   1.000  H
  C29      1.0000 0.26506  0.97719  0.59416  Biso   1.000  C
  H24      1.0000 0.26754  0.97439  0.54820  Biso   1.000  H
  N6       1.0000 0.70723  0.13101  0.41180  Biso   1.000  N
  H25      1.0000 0.65042  0.02409  0.42539  Biso   1.000  H
  C30      1.0000 0.69128  0.02370  0.38323  Biso   1.000  C
  C31      1.0000 0.56416  0.92301  0.36797  Biso   1.000  C
  H26      1.0000 0.48238  0.94520  0.38259  Biso   1.000  H
  H27      1.0000 0.52021  0.92603  0.40880  Biso   1.000  H
  C32      1.0000 0.84969  0.58248  0.43756  Biso   1.000  C
  C33      1.0000 0.75744  0.57413  0.47485  Biso   1.000  C
  C34      1.0000 0.66890  0.57234  0.51374  Biso   1.000  C
  C35      1.0000 0.50752  0.23725  0.57521  Biso   1.000  C
  H28      1.0000 0.40410  0.06029  0.61819  Biso   1.000  H
  H29      1.0000 0.39478  0.12658  0.63029  Biso   1.000  H
  C36      1.0000 0.29488  0.03558  0.61859  Biso   1.000  C
  H30      1.0000 0.21109  0.94671  0.59601  Biso   1.000  H
  H31      1.0000 0.28619  0.94464  0.59641  Biso   1.000  H
  C37      1.0000 0.73281  0.15034  0.43756  Biso   1.000  C
  H32      1.0000 0.69818  0.05099  0.36479  Biso   1.000  H
  H33      1.0000 0.74011  0.03362  0.39000  Biso   1.000  H
  C38      1.0000 0.64207  0.94111  0.37752  Biso   1.000  C
  H34      1.0000 0.53221  0.86910  0.36630  Biso   1.000  H
  H35      1.0000 0.56691  0.94481  0.34860  Biso   1.000  H
  H36      1.0000 0.88671  0.60383  0.45209  Biso   1.000  H
  N7       1.0000 0.86900  0.57626  0.41180  Biso   1.000  N
  H37      1.0000 0.79690  0.59929  0.48811  Biso   1.000  H
  N8       1.0000 0.71935  0.61548  0.53109  Biso   1.000  N
  H38      1.0000 0.61931  0.55138  0.51979  Biso   1.000  H
  C39      1.0000 0.58852  0.28628  0.57249  Biso   1.000  C
  H39      1.0000 0.47618  0.25697  0.57200  Biso   1.000  H
  H40      1.0000 0.26911  0.06410  0.61790  Biso   1.000  H
  H41      1.0000 0.28503  0.01093  0.63779  Biso   1.000  H
  H42      1.0000 0.71711  0.11330  0.45209  Biso   1.000  H
  C40      1.0000 0.78616  0.22812  0.44635  Biso   1.000  C
  H43      1.0000 0.63862  0.91343  0.39549  Biso   1.000  H
  H44      1.0000 0.66432  0.92553  0.36210  Biso   1.000  H
  C41      1.0000 0.94870  0.60523  0.40675  Biso   1.000  C
  C42      1.0000 0.69702  0.63140  0.55981  Biso   1.000  C
  C43      1.0000 0.61962  0.36293  0.57232  Biso   1.000  C
  C44      1.0000 0.63706  0.25669  0.57232  Biso   1.000  C
  C45      1.0000 0.81673  0.24257  0.47485  Biso   1.000  C
  C46      1.0000 0.80805  0.28790  0.42664  Biso   1.000  C
  H45      1.0000 0.97588  0.62630  0.42539  Biso   1.000  H
  C47      1.0000 0.96339  0.54415  0.39629  Biso   1.000  C
  C48      1.0000 0.97630  0.66759  0.38323  Biso   1.000  C
  H46      1.0000 0.64229  0.60579  0.56090  Biso   1.000  H
  C49      1.0000 0.72691  0.60226  0.58453  Biso   1.000  C
  C50      1.0000 0.72869  0.71539  0.56319  Biso   1.000  C
  C51      1.0000 0.69775  0.41146  0.57249  Biso   1.000  C
  H47      1.0000 0.58822  0.38322  0.57209  Biso   1.000  H
  C52      1.0000 0.71370  0.30225  0.57249  Biso   1.000  C
  H48      1.0000 0.61678  0.20497  0.57209  Biso   1.000  H
  H49      1.0000 0.80239  0.20312  0.48811  Biso   1.000  H
  C53      1.0000 0.86851  0.31536  0.48395  Biso   1.000  C
  C54      1.0000 0.85979  0.36013  0.43536  Biso   1.000  C
  H50      1.0000 0.78791  0.27928  0.40760  Biso   1.000  H
  H51      1.0000 0.93508  0.52179  0.37801  Biso   1.000  H
  N9       1.0000 0.93918  0.48699  0.41934  Biso   1.000  N
  C55      1.0000 0.04658  0.57648  0.39026  Biso   1.000  C
  H52      1.0000 0.94902  0.64720  0.36479  Biso   1.000  H
  H53      1.0000 0.96638  0.70648  0.39000  Biso   1.000  H
  C56      1.0000 0.05890  0.70099  0.37752  Biso   1.000  C
  N10      1.0000 0.69025  0.52090  0.58181  Biso   1.000  N
  C57      1.0000 0.70998  0.62198  0.61519  Biso   1.000  C
  H54      1.0000 0.78111  0.62400  0.58219  Biso   1.000  H
  C58      1.0000 0.71209  0.73489  0.59416  Biso   1.000  C
  H55      1.0000 0.70690  0.73248  0.54820  Biso   1.000  H
  H56      1.0000 0.78251  0.74122  0.56010  Biso   1.000  H
  C59      1.0000 0.72977  0.49249  0.57521  Biso   1.000  C
  C60      1.0000 0.74329  0.38036  0.57232  Biso   1.000  C
  C61      1.0000 0.76278  0.27025  0.57521  Biso   1.000  C
  C62      1.0000 0.88899  0.37381  0.46401  Biso   1.000  C
  C63      1.0000 0.90346  0.33111  0.51374  Biso   1.000  C
  C64      1.0000 0.88692  0.42295  0.41351  Biso   1.000  C
  C65      1.0000 0.07699  0.64120  0.36797  Biso   1.000  C
  H57      1.0000 0.05479  0.53720  0.38259  Biso   1.000  H
  H58      1.0000 0.07401  0.59419  0.40880  Biso   1.000  H
  H59      1.0000 0.08658  0.72520  0.39549  Biso   1.000  H
  H60      1.0000 0.07451  0.73881  0.36210  Biso   1.000  H
  H61      1.0000 0.65619  0.59593  0.61819  Biso   1.000  H
  H62      1.0000 0.73184  0.60523  0.63029  Biso   1.000  H
  C66      1.0000 0.74071  0.70508  0.61859  Biso   1.000  C
  H63      1.0000 0.73560  0.78891  0.59601  Biso   1.000  H
  H64      1.0000 0.65841  0.71382  0.59641  Biso   1.000  H
  H65      1.0000 0.78081  0.52381  0.57200  Biso   1.000  H
  H66      1.0000 0.79502  0.41180  0.57209  Biso   1.000  H
  N11      1.0000 0.83067  0.30976  0.58181  Biso   1.000  N
  H67      1.0000 0.74303  0.21921  0.57200  Biso   1.000  H
  H68      1.0000 0.92262  0.42261  0.46991  Biso   1.000  H
  N12      1.0000 0.89615  0.28068  0.53109  Biso   1.000  N
  H69      1.0000 0.93209  0.38070  0.51979  Biso   1.000  H
  H70      1.0000 0.86402  0.41393  0.39500  Biso   1.000  H
  H71      1.0000 0.13090  0.66311  0.36630  Biso   1.000  H
  H72      1.0000 0.05521  0.62209  0.34860  Biso   1.000  H
  H73      1.0000 0.79502  0.73091  0.61790  Biso   1.000  H
  H74      1.0000 0.72592  0.71500  0.63779  Biso   1.000  H
  C67      1.0000 0.87538  0.27311  0.58453  Biso   1.000  C
  C68      1.0000 0.93438  0.30298  0.55981  Biso   1.000  C
  C69      1.0000 0.91201  0.28998  0.61519  Biso   1.000  C
  H75      1.0000 0.84290  0.21893  0.58219  Biso   1.000  H
  H76      1.0000 0.96350  0.35772  0.56090  Biso   1.000  H
  C70      1.0000 0.98673  0.27132  0.56319  Biso   1.000  C
  H77      1.0000 0.93971  0.34383  0.61819  Biso   1.000  H
  H78      1.0000 0.87340  0.26818  0.63029  Biso   1.000  H
  C71      1.0000 0.96443  0.25933  0.61859  Biso   1.000  C
  H79      1.0000 0.95872  0.21753  0.56010  Biso   1.000  H
  C72      1.0000 0.02278  0.28790  0.59416  Biso   1.000  C
  H80      1.0000 0.02563  0.29312  0.54820  Biso   1.000  H
  H81      1.0000 0.93589  0.20497  0.61790  Biso   1.000  H
  H82      1.0000 0.98910  0.27412  0.63779  Biso   1.000  H
  H83      1.0000 0.05331  0.26443  0.59601  Biso   1.000  H
  H84      1.0000 0.05540  0.34159  0.59641  Biso   1.000  H
  C73      1.0000 0.26721  0.41757  0.56244  Biso   1.000  C
  C74      1.0000 0.21384  0.44194  0.55365  Biso   1.000  C
  H85      1.0000 0.28289  0.39622  0.54791  Biso   1.000  H
  N13      1.0000 0.29279  0.42379  0.58820  Biso   1.000  N
  C75      1.0000 0.18328  0.42586  0.52515  Biso   1.000  C
  C76      1.0000 0.19195  0.47988  0.57336  Biso   1.000  C
  C77      1.0000 0.34350  0.39476  0.59325  Biso   1.000  C
  C78      1.0000 0.13148  0.44687  0.51605  Biso   1.000  C
  H86      1.0000 0.19758  0.40070  0.51189  Biso   1.000  H
  C79      1.0000 0.14023  0.50039  0.56464  Biso   1.000  C
  H87      1.0000 0.21213  0.49142  0.59240  Biso   1.000  H
  H88      1.0000 0.34961  0.37369  0.57461  Biso   1.000  H
  C80      1.0000 0.41921  0.45584  0.60371  Biso   1.000  C
  C81      1.0000 0.30872  0.33240  0.61677  Biso   1.000  C
  C82      1.0000 0.09659  0.42765  0.48626  Biso   1.000  C
  C83      1.0000 0.11104  0.48481  0.53599  Biso   1.000  C
  C84      1.0000 0.11307  0.53602  0.58649  Biso   1.000  C
  H89      1.0000 0.41331  0.47820  0.62199  Biso   1.000  H
  N14      1.0000 0.45216  0.51299  0.58066  Biso   1.000  N
  C85      1.0000 0.47011  0.42351  0.60974  Biso   1.000  C
  H90      1.0000 0.30179  0.35279  0.63521  Biso   1.000  H
  H91      1.0000 0.25992  0.29351  0.61000  Biso   1.000  H
  C86      1.0000 0.35792  0.29900  0.62248  Biso   1.000  C
  N15      1.0000 0.10384  0.38451  0.46891  Biso   1.000  N
  H92      1.0000 0.06790  0.44861  0.48021  Biso   1.000  H
  H93      1.0000 0.07739  0.49999  0.53009  Biso   1.000  H
  N16      1.0000 0.06081  0.54779  0.58066  Biso   1.000  N
  H94      1.0000 0.13603  0.54992  0.60500  Biso   1.000  H
  C87      1.0000 0.46400  0.57704  0.58649  Biso   1.000  C
  C88      1.0000 0.43581  0.35879  0.63203  Biso   1.000  C
  H95      1.0000 0.51761  0.46279  0.61741  Biso   1.000  H
  H96      1.0000 0.47980  0.40580  0.59120  Biso   1.000  H
  H97      1.0000 0.36140  0.27479  0.60451  Biso   1.000  H
  H98      1.0000 0.33571  0.26118  0.63790  Biso   1.000  H
  C89      1.0000 0.06565  0.36859  0.44019  Biso   1.000  C
  C90      1.0000 0.03660  0.58080  0.60371  Biso   1.000  C
  C91      1.0000 0.49962  0.63986  0.56464  Biso   1.000  C
  H99      1.0000 0.45009  0.58612  0.60500  Biso   1.000  H
  H100     1.0000 0.46780  0.33688  0.63370  Biso   1.000  H
  H101     1.0000 0.43309  0.37790  0.65140  Biso   1.000  H
  C92      1.0000 0.12462  0.39773  0.41547  Biso   1.000  C
  C93      1.0000 0.01331  0.28460  0.43681  Biso   1.000  C
  H102     1.0000 0.03648  0.39420  0.43910  Biso   1.000  H
  C94      1.0000 0.05126  0.65650  0.59325  Biso   1.000  C
  H103     1.0000 0.06487  0.58668  0.62199  Biso   1.000  H
  C95      1.0000 0.95341  0.52992  0.60974  Biso   1.000  C
  C96      1.0000 0.51519  0.62624  0.53599  Biso   1.000  C
  C97      1.0000 0.52016  0.71208  0.57336  Biso   1.000  C
  C98      1.0000 0.08802  0.37801  0.38481  Biso   1.000  C
  N17      1.0000 0.16933  0.47909  0.41819  Biso   1.000  N
  H104     1.0000 0.15708  0.37599  0.41781  Biso   1.000  H
  C99      1.0000 0.97721  0.26510  0.40584  Biso   1.000  C
  H105     1.0000 0.04133  0.25882  0.43990  Biso   1.000  H
  H106     1.0000 0.97439  0.26751  0.45180  Biso   1.000  H
  N18      1.0000 0.13099  0.70727  0.58820  Biso   1.000  N
  H107     1.0000 0.02408  0.65039  0.57461  Biso   1.000  H
  C100     1.0000 0.02372  0.69130  0.61677  Biso   1.000  C
  C101     1.0000 0.92300  0.56421  0.63203  Biso   1.000  C
  H108     1.0000 0.94518  0.48240  0.61741  Biso   1.000  H
  H109     1.0000 0.92600  0.52022  0.59120  Biso   1.000  H
  C102     1.0000 0.55312  0.68463  0.51605  Biso   1.000  C
  H110     1.0000 0.49998  0.57738  0.53009  Biso   1.000  H
  C103     1.0000 0.55806  0.77187  0.55365  Biso   1.000  C
  H111     1.0000 0.50861  0.72071  0.59240  Biso   1.000  H
  C104     1.0000 0.03560  0.29491  0.38141  Biso   1.000  C
  H112     1.0000 0.06031  0.40412  0.38181  Biso   1.000  H
  H113     1.0000 0.12661  0.39482  0.36971  Biso   1.000  H
  C105     1.0000 0.23725  0.50750  0.42479  Biso   1.000  C
  H114     1.0000 0.94671  0.21108  0.40399  Biso   1.000  H
  H115     1.0000 0.94464  0.28622  0.40359  Biso   1.000  H
  C106     1.0000 0.15037  0.73282  0.56244  Biso   1.000  C
  H116     1.0000 0.05099  0.69819  0.63521  Biso   1.000  H
  H117     1.0000 0.03361  0.74010  0.61000  Biso   1.000  H
  C107     1.0000 0.94108  0.64210  0.62248  Biso   1.000  C
  H118     1.0000 0.86911  0.53221  0.63370  Biso   1.000  H
  H119     1.0000 0.94483  0.56690  0.65140  Biso   1.000  H
  C108     1.0000 0.57235  0.66894  0.48626  Biso   1.000  C
  C109     1.0000 0.57413  0.75742  0.52515  Biso   1.000  C
  C110     1.0000 0.58244  0.84965  0.56244  Biso   1.000  C
  H120     1.0000 0.06408  0.26908  0.38210  Biso   1.000  H
  H121     1.0000 0.01089  0.28499  0.36221  Biso   1.000  H
  C111     1.0000 0.28631  0.58853  0.42751  Biso   1.000  C
  H122     1.0000 0.25697  0.47618  0.42800  Biso   1.000  H
  H123     1.0000 0.11331  0.71713  0.54791  Biso   1.000  H
  C112     1.0000 0.22814  0.78616  0.55365  Biso   1.000  C
  H124     1.0000 0.91343  0.63862  0.60451  Biso   1.000  H
  H125     1.0000 0.92549  0.66429  0.63790  Biso   1.000  H
  N19      1.0000 0.61544  0.71931  0.46891  Biso   1.000  N
  H126     1.0000 0.55141  0.61929  0.48021  Biso   1.000  H
  H127     1.0000 0.59931  0.79692  0.51189  Biso   1.000  H
  H128     1.0000 0.60377  0.88669  0.54791  Biso   1.000  H
  N20      1.0000 0.57624  0.86898  0.58820  Biso   1.000  N
  C113     1.0000 0.25673  0.63711  0.42768  Biso   1.000  C
  C114     1.0000 0.36290  0.61963  0.42768  Biso   1.000  C
  C115     1.0000 0.24258  0.81670  0.52515  Biso   1.000  C
  C116     1.0000 0.28791  0.80807  0.57336  Biso   1.000  C
  C117     1.0000 0.63145  0.69707  0.44019  Biso   1.000  C
  C118     1.0000 0.60524  0.94872  0.59325  Biso   1.000  C
  C119     1.0000 0.30226  0.71371  0.42751  Biso   1.000  C
  H129     1.0000 0.20500  0.61683  0.42791  Biso   1.000  H
  C120     1.0000 0.41147  0.69774  0.42751  Biso   1.000  C
  H130     1.0000 0.38319  0.58819  0.42791  Biso   1.000  H
  C121     1.0000 0.31535  0.86848  0.51605  Biso   1.000  C
  H131     1.0000 0.20312  0.80241  0.51189  Biso   1.000  H
  C122     1.0000 0.36016  0.85979  0.56464  Biso   1.000  C
  H132     1.0000 0.27928  0.78790  0.59240  Biso   1.000  H
  C123     1.0000 0.60224  0.72688  0.41547  Biso   1.000  C
  H133     1.0000 0.60582  0.64232  0.43910  Biso   1.000  H
  C124     1.0000 0.71538  0.72867  0.43681  Biso   1.000  C
  C125     1.0000 0.54415  0.96340  0.60371  Biso   1.000  C
  H134     1.0000 0.62630  0.97589  0.57461  Biso   1.000  H
  C126     1.0000 0.66760  0.97629  0.61677  Biso   1.000  C
  C127     1.0000 0.38038  0.74330  0.42768  Biso   1.000  C
  C128     1.0000 0.27024  0.76274  0.42479  Biso   1.000  C
  C129     1.0000 0.49249  0.72974  0.42479  Biso   1.000  C
  C130     1.0000 0.33108  0.90344  0.48626  Biso   1.000  C
  C131     1.0000 0.37379  0.88899  0.53599  Biso   1.000  C
  C132     1.0000 0.42293  0.88691  0.58649  Biso   1.000  C
  N21      1.0000 0.52088  0.69023  0.41819  Biso   1.000  N
  C133     1.0000 0.62200  0.71001  0.38481  Biso   1.000  C
  H135     1.0000 0.62402  0.78112  0.41781  Biso   1.000  H
  C134     1.0000 0.73489  0.71208  0.40584  Biso   1.000  C
  H136     1.0000 0.73251  0.70693  0.45180  Biso   1.000  H
  H137     1.0000 0.74119  0.78252  0.43990  Biso   1.000  H
  N22      1.0000 0.48697  0.93919  0.58066  Biso   1.000  N
  H138     1.0000 0.52180  0.93510  0.62199  Biso   1.000  H
  C135     1.0000 0.57654  0.04661  0.60974  Biso   1.000  C
  H139     1.0000 0.64721  0.94900  0.63521  Biso   1.000  H
  H140     1.0000 0.70653  0.96643  0.61000  Biso   1.000  H
  C136     1.0000 0.70098  0.05888  0.62248  Biso   1.000  C
  H141     1.0000 0.41182  0.79502  0.42791  Biso   1.000  H
  N23      1.0000 0.30978  0.83065  0.41819  Biso   1.000  N
  H142     1.0000 0.21923  0.74302  0.42800  Biso   1.000  H
  H143     1.0000 0.52379  0.78078  0.42800  Biso   1.000  H
  N24      1.0000 0.28066  0.89616  0.46891  Biso   1.000  N
  H144     1.0000 0.38071  0.93213  0.48021  Biso   1.000  H
  H145     1.0000 0.42263  0.92261  0.53009  Biso   1.000  H
  H146     1.0000 0.41390  0.86399  0.60500  Biso   1.000  H
  H147     1.0000 0.59593  0.65622  0.38181  Biso   1.000  H
  H148     1.0000 0.60519  0.73181  0.36971  Biso   1.000  H
  C137     1.0000 0.70510  0.74072  0.38141  Biso   1.000  C
  H149     1.0000 0.78893  0.73562  0.40399  Biso   1.000  H
  H150     1.0000 0.71378  0.65840  0.40359  Biso   1.000  H
  C138     1.0000 0.64117  0.07698  0.63203  Biso   1.000  C
  H151     1.0000 0.53720  0.05479  0.61741  Biso   1.000  H
  H152     1.0000 0.59422  0.07401  0.59120  Biso   1.000  H
  H153     1.0000 0.72516  0.08656  0.60451  Biso   1.000  H
  H154     1.0000 0.73884  0.07452  0.63790  Biso   1.000  H
  C139     1.0000 0.27313  0.87537  0.41547  Biso   1.000  C
  C140     1.0000 0.30297  0.93437  0.44019  Biso   1.000  C
  H155     1.0000 0.73089  0.79502  0.38210  Biso   1.000  H
  H156     1.0000 0.71503  0.72593  0.36221  Biso   1.000  H
  H157     1.0000 0.66313  0.13089  0.63370  Biso   1.000  H
  H158     1.0000 0.62212  0.05518  0.65140  Biso   1.000  H
  C141     1.0000 0.29000  0.91202  0.38481  Biso   1.000  C
  H159     1.0000 0.21891  0.84293  0.41781  Biso   1.000  H
  H160     1.0000 0.35772  0.96351  0.43910  Biso   1.000  H
  C142     1.0000 0.27129  0.98671  0.43681  Biso   1.000  C
  H161     1.0000 0.34377  0.93970  0.38181  Biso   1.000  H
  H162     1.0000 0.26822  0.87341  0.36971  Biso   1.000  H
  C143     1.0000 0.25932  0.96441  0.38141  Biso   1.000  C
  H163     1.0000 0.21749  0.95869  0.43990  Biso   1.000  H
  C144     1.0000 0.28788  0.02280  0.40584  Biso   1.000  C
  H164     1.0000 0.29312  0.02560  0.45180  Biso   1.000  H
  H165     1.0000 0.20497  0.93589  0.38210  Biso   1.000  H
  H166     1.0000 0.27410  0.98912  0.36221  Biso   1.000  H
  H167     1.0000 0.26440  0.05328  0.40399  Biso   1.000  H
  H168     1.0000 0.34165  0.05541  0.40359  Biso   1.000  H
  C145     1.0000 0.25635  0.23086  0.29869  Biso   1.000  C
  C146     1.0000 0.28672  0.19657  0.27640  Biso   1.000  C
  H169     1.0000 0.20246  0.19887  0.30036  Biso   1.000  H
  H170     1.0000 0.27813  0.23355  0.31807  Biso   1.000  H
  C147     1.0000 0.27443  0.30875  0.28915  Biso   1.000  C
  C148     1.0000 0.36995  0.24745  0.27037  Biso   1.000  C
  H171     1.0000 0.27853  0.14905  0.28408  Biso   1.000  H
  H172     1.0000 0.25935  0.18687  0.25787  Biso   1.000  H
  C149     1.0000 0.35702  0.35795  0.28343  Biso   1.000  C
  H173     1.0000 0.24673  0.30528  0.27117  Biso   1.000  H
  H174     1.0000 0.25886  0.33100  0.30457  Biso   1.000  H
  C150     1.0000 0.38463  0.32321  0.25992  Biso   1.000  C
  H175     1.0000 0.39825  0.25339  0.28866  Biso   1.000  H
  N25      1.0000 0.39419  0.21450  0.24732  Biso   1.000  N
  H176     1.0000 0.38437  0.36490  0.30188  Biso   1.000  H
  H177     1.0000 0.36691  0.40675  0.27667  Biso   1.000  H
  N26      1.0000 0.46434  0.37392  0.25487  Biso   1.000  N
  H178     1.0000 0.35743  0.31704  0.24127  Biso   1.000  H
  C151     1.0000 0.44642  0.20268  0.25315  Biso   1.000  C
  C152     1.0000 0.48367  0.39947  0.22910  Biso   1.000  C
  C153     1.0000 0.47358  0.16704  0.23131  Biso   1.000  C
  H179     1.0000 0.46933  0.21657  0.27166  Biso   1.000  H
  H180     1.0000 0.44666  0.38378  0.21458  Biso   1.000  H
  C154     1.0000 0.56144  0.45281  0.22032  Biso   1.000  C
  C155     1.0000 0.52525  0.14653  0.24003  Biso   1.000  C
  C156     1.0000 0.44434  0.15146  0.20265  Biso   1.000  C
  C157     1.0000 0.57591  0.48341  0.19182  Biso   1.000  C
  C158     1.0000 0.62126  0.47472  0.24003  Biso   1.000  C
  C159     1.0000 0.54714  0.10859  0.22032  Biso   1.000  C
  H181     1.0000 0.54543  0.15807  0.25907  Biso   1.000  H
  C160     1.0000 0.46483  0.11353  0.18272  Biso   1.000  C
  H182     1.0000 0.41074  0.16665  0.19676  Biso   1.000  H
  H183     1.0000 0.53642  0.46906  0.17856  Biso   1.000  H
  C161     1.0000 0.64872  0.53518  0.18272  Biso   1.000  C
  H184     1.0000 0.61263  0.45455  0.25907  Biso   1.000  H
  C162     1.0000 0.69346  0.52644  0.23131  Biso   1.000  C
  C163     1.0000 0.60056  0.08422  0.22910  Biso   1.000  C
  C164     1.0000 0.51663  0.09251  0.19182  Biso   1.000  C
  C165     1.0000 0.42989  0.09431  0.15293  Biso   1.000  C
  C166     1.0000 0.66443  0.57009  0.15293  Biso   1.000  C
  C167     1.0000 0.70709  0.55564  0.20265  Biso   1.000  C
  C168     1.0000 0.75628  0.55356  0.25315  Biso   1.000  C
  H185     1.0000 0.61624  0.06287  0.21458  Biso   1.000  H
  N27      1.0000 0.62609  0.09044  0.25487  Biso   1.000  N
  H186     1.0000 0.53093  0.06735  0.17856  Biso   1.000  H
  N28      1.0000 0.43722  0.05122  0.13558  Biso   1.000  N
  H187     1.0000 0.40125  0.11526  0.14688  Biso   1.000  H
  N29      1.0000 0.61401  0.56281  0.13558  Biso   1.000  N
  H188     1.0000 0.71406  0.59878  0.14688  Biso   1.000  H
  H189     1.0000 0.75593  0.58926  0.19676  Biso   1.000  H
  N30      1.0000 0.82032  0.60584  0.24732  Biso   1.000  N
  H190     1.0000 0.74725  0.53065  0.27166  Biso   1.000  H
  C169     1.0000 0.67680  0.06141  0.25992  Biso   1.000  C
  C170     1.0000 0.39895  0.03525  0.10685  Biso   1.000  C
  C171     1.0000 0.63627  0.60102  0.10685  Biso   1.000  C
  C172     1.0000 0.87750  0.63005  0.27037  Biso   1.000  C
  H191     1.0000 0.68291  0.04034  0.24127  Biso   1.000  H
  C173     1.0000 0.75256  0.12249  0.27037  Biso   1.000  C
  C174     1.0000 0.64210  0.99910  0.28343  Biso   1.000  C
  H192     1.0000 0.36983  0.06085  0.10576  Biso   1.000  H
  C175     1.0000 0.45800  0.06444  0.08214  Biso   1.000  C
  C176     1.0000 0.34669  0.95131  0.10347  Biso   1.000  C
  H193     1.0000 0.69102  0.63016  0.10576  Biso   1.000  H
  C177     1.0000 0.60643  0.54202  0.08214  Biso   1.000  C
  C178     1.0000 0.60464  0.65336  0.10347  Biso   1.000  C
  C179     1.0000 0.93859  0.61537  0.25992  Biso   1.000  C
  H194     1.0000 0.85511  0.60175  0.28866  Biso   1.000  H
  C180     1.0000 0.90984  0.71326  0.27640  Biso   1.000  C
  H195     1.0000 0.74661  0.14485  0.28866  Biso   1.000  H
  N31      1.0000 0.78554  0.17970  0.24732  Biso   1.000  N
  C181     1.0000 0.80341  0.09016  0.27640  Biso   1.000  C
  H196     1.0000 0.63514  0.01944  0.30188  Biso   1.000  H
  H197     1.0000 0.59327  0.96016  0.27667  Biso   1.000  H
  C182     1.0000 0.69125  0.96571  0.28915  Biso   1.000  C
  N32      1.0000 0.50271  0.14580  0.08485  Biso   1.000  N
  C183     1.0000 0.42132  0.04466  0.05148  Biso   1.000  C
  H198     1.0000 0.49043  0.04264  0.08447  Biso   1.000  H
  C184     1.0000 0.31059  0.93181  0.07250  Biso   1.000  C
  H199     1.0000 0.30769  0.93416  0.11847  Biso   1.000  H
  H200     1.0000 0.37468  0.92547  0.10657  Biso   1.000  H
  N33      1.0000 0.64308  0.49731  0.08485  Biso   1.000  N
  C185     1.0000 0.62335  0.57867  0.05148  Biso   1.000  C
  H201     1.0000 0.55226  0.50958  0.08447  Biso   1.000  H
  C186     1.0000 0.62123  0.68945  0.07250  Biso   1.000  C
  H202     1.0000 0.62642  0.69225  0.11847  Biso   1.000  H
  H203     1.0000 0.55084  0.62534  0.10657  Biso   1.000  H
  N34      1.0000 0.90957  0.53569  0.25487  Biso   1.000  N
  H204     1.0000 0.95965  0.64255  0.24127  Biso   1.000  H
  C187     1.0000 0.00093  0.64299  0.28343  Biso   1.000  C
  C188     1.0000 0.97455  0.74369  0.29869  Biso   1.000  C
  H205     1.0000 0.87050  0.72144  0.28408  Biso   1.000  H
  H206     1.0000 0.92752  0.74066  0.25787  Biso   1.000  H
  C189     1.0000 0.79732  0.24375  0.25315  Biso   1.000  C
  C190     1.0000 0.76911  0.02544  0.29869  Biso   1.000  C
  H207     1.0000 0.85091  0.12944  0.28408  Biso   1.000  H
  H208     1.0000 0.81315  0.07245  0.25787  Biso   1.000  H
  H209     1.0000 0.69473  0.94150  0.27117  Biso   1.000  H
  H210     1.0000 0.66904  0.92788  0.30457  Biso   1.000  H
  C191     1.0000 0.57060  0.17415  0.09146  Biso   1.000  C
  H211     1.0000 0.39361  0.07077  0.04848  Biso   1.000  H
  H212     1.0000 0.45996  0.06147  0.03637  Biso   1.000  H
  C192     1.0000 0.36890  0.96156  0.04808  Biso   1.000  C
  H213     1.0000 0.28004  0.87779  0.07066  Biso   1.000  H
  H214     1.0000 0.27794  0.95288  0.07026  Biso   1.000  H
  C193     1.0000 0.60359  0.42939  0.09146  Biso   1.000  C
  H215     1.0000 0.67712  0.60635  0.04848  Biso   1.000  H
  H216     1.0000 0.60152  0.54006  0.03637  Biso   1.000  H
  C194     1.0000 0.59262  0.63106  0.04808  Biso   1.000  C
  H217     1.0000 0.59773  0.71999  0.07066  Biso   1.000  H
  H218     1.0000 0.67495  0.72206  0.07026  Biso   1.000  H
  C195     1.0000 0.91579  0.51630  0.22910  Biso   1.000  C
  H219     1.0000 0.98051  0.61565  0.30188  Biso   1.000  H
  H220     1.0000 0.03984  0.63308  0.27667  Biso   1.000  H
  C196     1.0000 0.03436  0.72559  0.28915  Biso   1.000  C
  H221     1.0000 0.99646  0.79759  0.30036  Biso   1.000  H
  H222     1.0000 0.95545  0.72189  0.31807  Biso   1.000  H
  C197     1.0000 0.83297  0.30651  0.23131  Biso   1.000  C
  H223     1.0000 0.78344  0.25277  0.27166  Biso   1.000  H
  H224     1.0000 0.80113  0.00359  0.30036  Biso   1.000  H
  H225     1.0000 0.76644  0.04455  0.31807  Biso   1.000  H
  C198     1.0000 0.61961  0.25518  0.09417  Biso   1.000  C
  H226     1.0000 0.59035  0.14289  0.09466  Biso   1.000  H
  H227     1.0000 0.39741  0.93578  0.04877  Biso   1.000  H
  H228     1.0000 0.34422  0.95170  0.02888  Biso   1.000  H
  C199     1.0000 0.63556  0.38036  0.09417  Biso   1.000  C
  H229     1.0000 0.55253  0.40967  0.09466  Biso   1.000  H
  H230     1.0000 0.53835  0.60259  0.04877  Biso   1.000  H
  H231     1.0000 0.60745  0.65577  0.02888  Biso   1.000  H
  H232     1.0000 0.93715  0.55340  0.21458  Biso   1.000  H
  C200     1.0000 0.89136  0.43853  0.22032  Biso   1.000  C
  H233     1.0000 0.05854  0.75327  0.27117  Biso   1.000  H
  H234     1.0000 0.07214  0.74117  0.30457  Biso   1.000  H
  C201     1.0000 0.85346  0.37874  0.24003  Biso   1.000  C
  C202     1.0000 0.84854  0.29289  0.20265  Biso   1.000  C
  C203     1.0000 0.59003  0.30376  0.09435  Biso   1.000  C
  C204     1.0000 0.69625  0.28628  0.09435  Biso   1.000  C
  C205     1.0000 0.71368  0.40995  0.09435  Biso   1.000  C
  C206     1.0000 0.90748  0.42407  0.19182  Biso   1.000  C
  H235     1.0000 0.84196  0.38737  0.25907  Biso   1.000  H
  C207     1.0000 0.88647  0.35128  0.18272  Biso   1.000  C
  H236     1.0000 0.83335  0.24409  0.19676  Biso   1.000  H
  H237     1.0000 0.53835  0.28348  0.09457  Biso   1.000  H
  C208     1.0000 0.74477  0.36439  0.09417  Biso   1.000  C
  H238     1.0000 0.71654  0.25484  0.09457  Biso   1.000  H
  H239     1.0000 0.74512  0.46167  0.09457  Biso   1.000  H
  H240     1.0000 0.93262  0.46357  0.17856  Biso   1.000  H
  C209     1.0000 0.90570  0.33559  0.15293  Biso   1.000  C
  C210     1.0000 0.82587  0.39644  0.09146  Biso   1.000  C
  N35      1.0000 0.94882  0.38602  0.13558  Biso   1.000  N
  H241     1.0000 0.88471  0.28594  0.14688  Biso   1.000  H
  N36      1.0000 0.85423  0.35688  0.08485  Biso   1.000  N
  H242     1.0000 0.85717  0.44749  0.09466  Biso   1.000  H
  C211     1.0000 0.96475  0.36372  0.10685  Biso   1.000  C
  C212     1.0000 0.93562  0.39359  0.08214  Biso   1.000  C
  H243     1.0000 0.93912  0.30897  0.10576  Biso   1.000  H
  C213     1.0000 0.04871  0.39538  0.10347  Biso   1.000  C
  C214     1.0000 0.95535  0.37666  0.05148  Biso   1.000  C
  H244     1.0000 0.95733  0.44777  0.08447  Biso   1.000  H
  C215     1.0000 0.06822  0.37879  0.07250  Biso   1.000  C
  H245     1.0000 0.06586  0.37358  0.11847  Biso   1.000  H
  H246     1.0000 0.07454  0.44917  0.10657  Biso   1.000  H
  H247     1.0000 0.92923  0.32287  0.04848  Biso   1.000  H
  H248     1.0000 0.93854  0.39846  0.03637  Biso   1.000  H
  C216     1.0000 0.03845  0.40737  0.04808  Biso   1.000  C
  H249     1.0000 0.12223  0.40227  0.07066  Biso   1.000  H
  H250     1.0000 0.04713  0.32506  0.07026  Biso   1.000  H
  H251     1.0000 0.06424  0.46167  0.04877  Biso   1.000  H
  H252     1.0000 0.04833  0.39258  0.02888  Biso   1.000  H
  C217     1.0000 0.23086  0.25636  0.70131  Biso   1.000  C
  H253     1.0000 0.19886  0.20245  0.69964  Biso   1.000  H
  H254     1.0000 0.23356  0.27815  0.68193  Biso   1.000  H
  C218     1.0000 0.30877  0.27446  0.71085  Biso   1.000  C
  C219     1.0000 0.19655  0.28673  0.72360  Biso   1.000  C
  C220     1.0000 0.35798  0.35705  0.71657  Biso   1.000  C
  H255     1.0000 0.30524  0.24672  0.72883  Biso   1.000  H
  H256     1.0000 0.33094  0.25882  0.69543  Biso   1.000  H
  C221     1.0000 0.24742  0.36994  0.72963  Biso   1.000  C
  H257     1.0000 0.14908  0.27855  0.71592  Biso   1.000  H
  H258     1.0000 0.18688  0.25933  0.74213  Biso   1.000  H
  C222     1.0000 0.32319  0.38462  0.74008  Biso   1.000  C
  H259     1.0000 0.36488  0.38434  0.69812  Biso   1.000  H
  H260     1.0000 0.40678  0.36691  0.72333  Biso   1.000  H
  H261     1.0000 0.25337  0.39824  0.71134  Biso   1.000  H
  N37      1.0000 0.21445  0.39415  0.75268  Biso   1.000  N
  N38      1.0000 0.37393  0.46436  0.74513  Biso   1.000  N
  H262     1.0000 0.31707  0.35744  0.75873  Biso   1.000  H
  C223     1.0000 0.20269  0.44643  0.74685  Biso   1.000  C
  C224     1.0000 0.39946  0.48369  0.77090  Biso   1.000  C
  C225     1.0000 0.16704  0.47355  0.76869  Biso   1.000  C
  H263     1.0000 0.21657  0.46934  0.72834  Biso   1.000  H
  H264     1.0000 0.38376  0.44665  0.78542  Biso   1.000  H
  C226     1.0000 0.45286  0.56146  0.77968  Biso   1.000  C
  C227     1.0000 0.14651  0.52527  0.75997  Biso   1.000  C
  C228     1.0000 0.15147  0.44435  0.79735  Biso   1.000  C
  C229     1.0000 0.48338  0.57592  0.80818  Biso   1.000  C
  C230     1.0000 0.47475  0.62125  0.75997  Biso   1.000  C
  C231     1.0000 0.10864  0.54718  0.77968  Biso   1.000  C
  H265     1.0000 0.15805  0.54544  0.74093  Biso   1.000  H
  C232     1.0000 0.11354  0.46486  0.81728  Biso   1.000  C
  H266     1.0000 0.16669  0.41073  0.80324  Biso   1.000  H
  H267     1.0000 0.46906  0.53642  0.82144  Biso   1.000  H
  C233     1.0000 0.53516  0.64871  0.81728  Biso   1.000  C
  H268     1.0000 0.45456  0.61262  0.74093  Biso   1.000  H
  C234     1.0000 0.52644  0.69348  0.76869  Biso   1.000  C
  C235     1.0000 0.08422  0.60052  0.77090  Biso   1.000  C
  C236     1.0000 0.09255  0.51664  0.80818  Biso   1.000  C
  C237     1.0000 0.09431  0.42990  0.84707  Biso   1.000  C
  C238     1.0000 0.57008  0.66440  0.84707  Biso   1.000  C
  C239     1.0000 0.55562  0.70710  0.79735  Biso   1.000  C
  C240     1.0000 0.55362  0.75630  0.74685  Biso   1.000  C
  H269     1.0000 0.06285  0.61621  0.78542  Biso   1.000  H
  N39      1.0000 0.09039  0.62607  0.74513  Biso   1.000  N
  H270     1.0000 0.06737  0.53093  0.82144  Biso   1.000  H
  N40      1.0000 0.05117  0.43718  0.86442  Biso   1.000  N
  H271     1.0000 0.11527  0.40126  0.85312  Biso   1.000  H
  N41      1.0000 0.56280  0.61402  0.86442  Biso   1.000  N
  H272     1.0000 0.59879  0.71405  0.85312  Biso   1.000  H
  H273     1.0000 0.58927  0.75596  0.80324  Biso   1.000  H
  N42      1.0000 0.60583  0.82034  0.75268  Biso   1.000  N
  H274     1.0000 0.53064  0.74722  0.72834  Biso   1.000  H
  C241     1.0000 0.06143  0.67684  0.74008  Biso   1.000  C
  C242     1.0000 0.03527  0.39896  0.89315  Biso   1.000  C
  C243     1.0000 0.60105  0.63627  0.89315  Biso   1.000  C
  C244     1.0000 0.63004  0.87750  0.72963  Biso   1.000  C
  H275     1.0000 0.04036  0.68295  0.75873  Biso   1.000  H
  C245     1.0000 0.12247  0.75254  0.72963  Biso   1.000  C
  C246     1.0000 0.99909  0.64204  0.71657  Biso   1.000  C
  H276     1.0000 0.06088  0.36983  0.89424  Biso   1.000  H
  C247     1.0000 0.06443  0.45797  0.91786  Biso   1.000  C
  C248     1.0000 0.95125  0.34663  0.89653  Biso   1.000  C
  H277     1.0000 0.63017  0.69102  0.89424  Biso   1.000  H
  C249     1.0000 0.54203  0.60646  0.91786  Biso   1.000  C
  C250     1.0000 0.65338  0.60467  0.89653  Biso   1.000  C
  C251     1.0000 0.61540  0.93858  0.74008  Biso   1.000  C
  H278     1.0000 0.60178  0.85514  0.71134  Biso   1.000  H
  C252     1.0000 0.71327  0.90983  0.72360  Biso   1.000  C
  H279     1.0000 0.14486  0.74666  0.71134  Biso   1.000  H
  N43      1.0000 0.17969  0.78555  0.75268  Biso   1.000  N
  C253     1.0000 0.09017  0.80342  0.72360  Biso   1.000  C
  H280     1.0000 0.01947  0.63515  0.69812  Biso   1.000  H
  H281     1.0000 0.96018  0.59324  0.72333  Biso   1.000  H
  C254     1.0000 0.96565  0.69124  0.71085  Biso   1.000  C
  N44      1.0000 0.14580  0.50268  0.91515  Biso   1.000  N
  C255     1.0000 0.04465  0.42132  0.94852  Biso   1.000  C
  H282     1.0000 0.04265  0.49041  0.91553  Biso   1.000  H
  C256     1.0000 0.93175  0.31054  0.92750  Biso   1.000  C
  H283     1.0000 0.93419  0.30774  0.88153  Biso   1.000  H
  H284     1.0000 0.92547  0.37465  0.89343  Biso   1.000  H
  N45      1.0000 0.49732  0.64311  0.91515  Biso   1.000  N
  C257     1.0000 0.57866  0.62333  0.94852  Biso   1.000  C
  H285     1.0000 0.50957  0.55222  0.91553  Biso   1.000  H
  C258     1.0000 0.68948  0.62125  0.92750  Biso   1.000  C
  H286     1.0000 0.69225  0.62641  0.88153  Biso   1.000  H
  H287     1.0000 0.62534  0.55082  0.89343  Biso   1.000  H
  N46      1.0000 0.53567  0.90955  0.74513  Biso   1.000  N
  H288     1.0000 0.64258  0.95964  0.75873  Biso   1.000  H
  C259     1.0000 0.64300  0.00094  0.71657  Biso   1.000  C
  C260     1.0000 0.74369  0.97455  0.70131  Biso   1.000  C
  H289     1.0000 0.72149  0.87055  0.71592  Biso   1.000  H
  H290     1.0000 0.74066  0.92754  0.74213  Biso   1.000  H
  C261     1.0000 0.24371  0.79731  0.74685  Biso   1.000  C
  C262     1.0000 0.02546  0.76913  0.70131  Biso   1.000  C
  H291     1.0000 0.12945  0.85094  0.71592  Biso   1.000  H
  H292     1.0000 0.07245  0.81311  0.74213  Biso   1.000  H
  H293     1.0000 0.94148  0.69471  0.72883  Biso   1.000  H
  H294     1.0000 0.92787  0.66905  0.69543  Biso   1.000  H
  C263     1.0000 0.17417  0.57060  0.90854  Biso   1.000  C
  H295     1.0000 0.07075  0.39364  0.95152  Biso   1.000  H
  H296     1.0000 0.06148  0.45993  0.96363  Biso   1.000  H
  C264     1.0000 0.96158  0.36893  0.95192  Biso   1.000  C
  H297     1.0000 0.87779  0.28006  0.92934  Biso   1.000  H
  H298     1.0000 0.95286  0.27793  0.92974  Biso   1.000  H
  C265     1.0000 0.42943  0.60360  0.90854  Biso   1.000  C
  H299     1.0000 0.60638  0.67712  0.95152  Biso   1.000  H
  H300     1.0000 0.54005  0.60153  0.96363  Biso   1.000  H
  C266     1.0000 0.63105  0.59262  0.95192  Biso   1.000  C
  H301     1.0000 0.71998  0.59772  0.92934  Biso   1.000  H
  H302     1.0000 0.72205  0.67493  0.92974  Biso   1.000  H
  C267     1.0000 0.51631  0.91577  0.77090  Biso   1.000  C
  H303     1.0000 0.61567  0.98055  0.69812  Biso   1.000  H
  H304     1.0000 0.63308  0.03983  0.72333  Biso   1.000  H
  C268     1.0000 0.72559  0.03434  0.71085  Biso   1.000  C
  H305     1.0000 0.79759  0.99646  0.69964  Biso   1.000  H
  H306     1.0000 0.72186  0.95544  0.68193  Biso   1.000  H
  C269     1.0000 0.30651  0.83295  0.76869  Biso   1.000  C
  H307     1.0000 0.25277  0.78342  0.72834  Biso   1.000  H
  H308     1.0000 0.00356  0.80112  0.69964  Biso   1.000  H
  H309     1.0000 0.04455  0.76644  0.68193  Biso   1.000  H
  C270     1.0000 0.25522  0.61963  0.90583  Biso   1.000  C
  H310     1.0000 0.14288  0.59032  0.90534  Biso   1.000  H
  H311     1.0000 0.93576  0.39745  0.95123  Biso   1.000  H
  H312     1.0000 0.95165  0.34422  0.97112  Biso   1.000  H
  C271     1.0000 0.38040  0.63560  0.90583  Biso   1.000  C
  H313     1.0000 0.40968  0.55256  0.90534  Biso   1.000  H
  H314     1.0000 0.60254  0.53832  0.95123  Biso   1.000  H
  H315     1.0000 0.65577  0.60741  0.97112  Biso   1.000  H
  H316     1.0000 0.55334  0.93712  0.78542  Biso   1.000  H
  C272     1.0000 0.43856  0.89139  0.77968  Biso   1.000  C
  H317     1.0000 0.75332  0.05855  0.72883  Biso   1.000  H
  H318     1.0000 0.74113  0.07211  0.69543  Biso   1.000  H
  C273     1.0000 0.37874  0.85346  0.75997  Biso   1.000  C
  C274     1.0000 0.29290  0.84853  0.79735  Biso   1.000  C
  C275     1.0000 0.28632  0.69628  0.90565  Biso   1.000  C
  C276     1.0000 0.30376  0.59004  0.90565  Biso   1.000  C
  C277     1.0000 0.40994  0.71371  0.90565  Biso   1.000  C
  C278     1.0000 0.42409  0.90748  0.80818  Biso   1.000  C
  H319     1.0000 0.38738  0.84192  0.74093  Biso   1.000  H
  C279     1.0000 0.35127  0.88646  0.81728  Biso   1.000  C
  H320     1.0000 0.24406  0.83334  0.80324  Biso   1.000  H
  C280     1.0000 0.36445  0.74481  0.90583  Biso   1.000  C
  H321     1.0000 0.25484  0.71651  0.90543  Biso   1.000  H
  H322     1.0000 0.28348  0.53832  0.90543  Biso   1.000  H
  H323     1.0000 0.46167  0.74515  0.90543  Biso   1.000  H
  H324     1.0000 0.46355  0.93264  0.82144  Biso   1.000  H
  C281     1.0000 0.33560  0.90568  0.84707  Biso   1.000  C
  C282     1.0000 0.39642  0.82583  0.90854  Biso   1.000  C
  N47      1.0000 0.38600  0.94883  0.86442  Biso   1.000  N
  H325     1.0000 0.28596  0.88473  0.85312  Biso   1.000  H
  N48      1.0000 0.35690  0.85424  0.91515  Biso   1.000  N
  H326     1.0000 0.44746  0.85716  0.90534  Biso   1.000  H
  C283     1.0000 0.36372  0.96474  0.89315  Biso   1.000  C
  C284     1.0000 0.39356  0.93561  0.91786  Biso   1.000  C
  H327     1.0000 0.30894  0.93914  0.89424  Biso   1.000  H
  C285     1.0000 0.39534  0.04874  0.89653  Biso   1.000  C
  C286     1.0000 0.37668  0.95533  0.94852  Biso   1.000  C
  H328     1.0000 0.44776  0.95735  0.91553  Biso   1.000  H
  C287     1.0000 0.37878  0.06824  0.92750  Biso   1.000  C
  H329     1.0000 0.37355  0.06583  0.88153  Biso   1.000  H
  H330     1.0000 0.44918  0.07452  0.89343  Biso   1.000  H
  H331     1.0000 0.32286  0.92922  0.95152  Biso   1.000  H
  H332     1.0000 0.39846  0.93852  0.96363  Biso   1.000  H
  C288     1.0000 0.40741  0.03843  0.95192  Biso   1.000  C
  H333     1.0000 0.40227  0.12220  0.92934  Biso   1.000  H
  H334     1.0000 0.32508  0.04711  0.92974  Biso   1.000  H
  H335     1.0000 0.46164  0.06421  0.95123  Biso   1.000  H
  H336     1.0000 0.39257  0.04835  0.97112  Biso   1.000  H
  C289     1.0000 0.37175  0.07402  0.71474  Biso   1.000  C
  C290     1.0000 0.28865  0.04331  0.71815  Biso   1.000  C
  H337     1.0000 0.39754  0.12832  0.71543  Biso   1.000  H
  H338     1.0000 0.38168  0.05923  0.69554  Biso   1.000  H
  C291     1.0000 0.40157  0.04544  0.73917  Biso   1.000  C
  H339     1.0000 0.27184  0.06511  0.70304  Biso   1.000  H
  C292     1.0000 0.26892  0.06024  0.74880  Biso   1.000  C
  H340     1.0000 0.26258  0.98952  0.71514  Biso   1.000  H
  H341     1.0000 0.45558  0.06892  0.73732  Biso   1.000  H
  C293     1.0000 0.38206  0.06203  0.77014  Biso   1.000  C
  H342     1.0000 0.38051  0.99176  0.73692  Biso   1.000  H
  C294     1.0000 0.29810  0.03037  0.77352  Biso   1.000  C
  N49      1.0000 0.18756  0.02359  0.75152  Biso   1.000  N
  H343     1.0000 0.29068  0.11442  0.75114  Biso   1.000  H
  H344     1.0000 0.39916  0.04023  0.78513  Biso   1.000  H
  H345     1.0000 0.40784  0.11582  0.77323  Biso   1.000  H
  N50      1.0000 0.28212  0.05267  0.80224  Biso   1.000  N
  H346     1.0000 0.27242  0.97563  0.77243  Biso   1.000  H
  C295     1.0000 0.15917  0.06309  0.75813  Biso   1.000  C
  C296     1.0000 0.23900  0.00224  0.81960  Biso   1.000  C
  C297     1.0000 0.07815  0.03110  0.76084  Biso   1.000  C
  H347     1.0000 0.19047  0.11414  0.76133  Biso   1.000  H
  C298     1.0000 0.21977  0.01793  0.84938  Biso   1.000  C
  H348     1.0000 0.21804  0.95265  0.81354  Biso   1.000  H
  C299     1.0000 0.04706  0.07666  0.76102  Biso   1.000  C
  C300     1.0000 0.02963  0.95299  0.76102  Biso   1.000  C
  C301     1.0000 0.24081  0.09078  0.85848  Biso   1.000  C
  C302     1.0000 0.18189  0.95954  0.86932  Biso   1.000  C
  H349     1.0000 0.07847  0.12832  0.76124  Biso   1.000  H
  C303     1.0000 0.96894  0.04707  0.76084  Biso   1.000  C
  C304     1.0000 0.95294  0.92189  0.76084  Biso   1.000  C
  H350     1.0000 0.04992  0.92155  0.76124  Biso   1.000  H
  H351     1.0000 0.26597  0.13022  0.84522  Biso   1.000  H
  C305     1.0000 0.22474  0.10523  0.88698  Biso   1.000  C
  H352     1.0000 0.16666  0.91074  0.86342  Biso   1.000  H
  C306     1.0000 0.16635  0.97322  0.89797  Biso   1.000  C
  C307     1.0000 0.92338  0.97041  0.76102  Biso   1.000  C
  C308     1.0000 0.93692  0.09610  0.75813  Biso   1.000  C
  C309     1.0000 0.90393  0.84086  0.75813  Biso   1.000  C
  C310     1.0000 0.24912  0.18301  0.89577  Biso   1.000  C
  C311     1.0000 0.18681  0.04539  0.90669  Biso   1.000  C
  C312     1.0000 0.13063  0.91040  0.91982  Biso   1.000  C
  H353     1.0000 0.87165  0.95013  0.76124  Biso   1.000  H
  N51      1.0000 0.97643  0.16396  0.75152  Biso   1.000  N
  H354     1.0000 0.88588  0.07632  0.76133  Biso   1.000  H
  N52      1.0000 0.83606  0.81245  0.75152  Biso   1.000  N
  H355     1.0000 0.92370  0.80954  0.76133  Biso   1.000  H
  H356     1.0000 0.27045  0.22005  0.88124  Biso   1.000  H
  N53      1.0000 0.24292  0.20234  0.92153  Biso   1.000  N
  H357     1.0000 0.17526  0.05402  0.92574  Biso   1.000  H
  N54      1.0000 0.11884  0.84635  0.91399  Biso   1.000  N
  H358     1.0000 0.11675  0.91942  0.93833  Biso   1.000  H
  C313     1.0000 0.93978  0.20867  0.74880  Biso   1.000  C
  C314     1.0000 0.79130  0.73109  0.74880  Biso   1.000  C
  C315     1.0000 0.27189  0.28202  0.92658  Biso   1.000  C
  C316     1.0000 0.08589  0.78920  0.93704  Biso   1.000  C
  C317     1.0000 0.96965  0.26773  0.77352  Biso   1.000  C
  C318     1.0000 0.95665  0.24532  0.71815  Biso   1.000  C
  H359     1.0000 0.88556  0.17623  0.75114  Biso   1.000  H
  C319     1.0000 0.73228  0.70195  0.77352  Biso   1.000  C
  C320     1.0000 0.75465  0.71137  0.71815  Biso   1.000  C
  H360     1.0000 0.82381  0.70935  0.75114  Biso   1.000  H
  H361     1.0000 0.29298  0.30925  0.90794  Biso   1.000  H
  C321     1.0000 0.21083  0.29676  0.93704  Biso   1.000  C
  C322     1.0000 0.33428  0.30965  0.95010  Biso   1.000  C
  C323     1.0000 0.01013  0.72812  0.92658  Biso   1.000  C
  H362     1.0000 0.07999  0.81156  0.95533  Biso   1.000  H
  C324     1.0000 0.13679  0.75687  0.94307  Biso   1.000  C
  H363     1.0000 0.02437  0.29681  0.77243  Biso   1.000  H
  N55      1.0000 0.94731  0.22946  0.80224  Biso   1.000  N
  C325     1.0000 0.93795  0.32001  0.77014  Biso   1.000  C
  H364     1.0000 0.01045  0.27306  0.71514  Biso   1.000  H
  H365     1.0000 0.93487  0.20671  0.70304  Biso   1.000  H
  C326     1.0000 0.92597  0.29771  0.71474  Biso   1.000  C
  N56      1.0000 0.77057  0.71787  0.80224  Biso   1.000  N
  H366     1.0000 0.70320  0.72756  0.77243  Biso   1.000  H
  C327     1.0000 0.67994  0.61796  0.77014  Biso   1.000  C
  H367     1.0000 0.72696  0.73742  0.71514  Biso   1.000  H
  H368     1.0000 0.79331  0.72812  0.70304  Biso   1.000  H
  C328     1.0000 0.70233  0.62827  0.71474  Biso   1.000  C
  H369     1.0000 0.18848  0.26846  0.95533  Biso   1.000  H
  N57      1.0000 0.15362  0.27250  0.91399  Biso   1.000  N
  C329     1.0000 0.24314  0.37991  0.94307  Biso   1.000  C
  H370     1.0000 0.31389  0.28236  0.96854  Biso   1.000  H
  H371     1.0000 0.37319  0.29973  0.94334  Biso   1.000  H
  C330     1.0000 0.36766  0.39224  0.95582  Biso   1.000  C
  N58      1.0000 0.95944  0.75709  0.92153  Biso   1.000  N
  C331     1.0000 0.97540  0.66575  0.95010  Biso   1.000  C
  H372     1.0000 0.01624  0.70705  0.90794  Biso   1.000  H
  C332     1.0000 0.10249  0.69215  0.96536  Biso   1.000  C
  H373     1.0000 0.18424  0.79615  0.95074  Biso   1.000  H
  H374     1.0000 0.14652  0.73916  0.92454  Biso   1.000  H
  C333     1.0000 0.99776  0.23680  0.81960  Biso   1.000  C
  C334     1.0000 0.95456  0.35615  0.73917  Biso   1.000  C
  H375     1.0000 0.95980  0.35896  0.78513  Biso   1.000  H
  H376     1.0000 0.88417  0.29205  0.77323  Biso   1.000  H
  H377     1.0000 0.87165  0.26925  0.71543  Biso   1.000  H
  H378     1.0000 0.94075  0.32242  0.69554  Biso   1.000  H
  C335     1.0000 0.76322  0.76101  0.81960  Biso   1.000  C
  C336     1.0000 0.64389  0.59846  0.73917  Biso   1.000  C
  H379     1.0000 0.64107  0.60087  0.78513  Biso   1.000  H
  H380     1.0000 0.70799  0.59213  0.77323  Biso   1.000  H
  H381     1.0000 0.73076  0.60244  0.71543  Biso   1.000  H
  H382     1.0000 0.67757  0.61835  0.69554  Biso   1.000  H
  C337     1.0000 0.08961  0.22027  0.91982  Biso   1.000  C
  C338     1.0000 0.30785  0.41034  0.96536  Biso   1.000  C
  H383     1.0000 0.20388  0.38815  0.95074  Biso   1.000  H
  H384     1.0000 0.26087  0.40731  0.92454  Biso   1.000  H
  H385     1.0000 0.39184  0.41992  0.93784  Biso   1.000  H
  H386     1.0000 0.40544  0.40782  0.97123  Biso   1.000  H
  C339     1.0000 0.93386  0.75087  0.89577  Biso   1.000  C
  H387     1.0000 0.96847  0.68615  0.96854  Biso   1.000  H
  H388     1.0000 0.92660  0.62687  0.94334  Biso   1.000  H
  C340     1.0000 0.02460  0.63236  0.95582  Biso   1.000  C
  H389     1.0000 0.13443  0.67024  0.96703  Biso   1.000  H
  H390     1.0000 0.09982  0.71125  0.98474  Biso   1.000  H
  H391     1.0000 0.04736  0.26543  0.81354  Biso   1.000  H
  C341     1.0000 0.98207  0.20184  0.84938  Biso   1.000  C
  H392     1.0000 0.00825  0.38871  0.73692  Biso   1.000  H
  H393     1.0000 0.93108  0.38664  0.73732  Biso   1.000  H
  C342     1.0000 0.79816  0.78023  0.84938  Biso   1.000  C
  H394     1.0000 0.73458  0.78197  0.81354  Biso   1.000  H
  H395     1.0000 0.61339  0.54444  0.73732  Biso   1.000  H
  H396     1.0000 0.61129  0.61953  0.73692  Biso   1.000  H
  C343     1.0000 0.02681  0.19309  0.89797  Biso   1.000  C
  H397     1.0000 0.08058  0.19735  0.93833  Biso   1.000  H
  H398     1.0000 0.32976  0.46424  0.96703  Biso   1.000  H
  H399     1.0000 0.28875  0.38854  0.98474  Biso   1.000  H
  H400     1.0000 0.94959  0.72952  0.88124  Biso   1.000  H
  C344     1.0000 0.88052  0.77530  0.88698  Biso   1.000  C
  H401     1.0000 0.02803  0.60815  0.93784  Biso   1.000  H
  H402     1.0000 0.00234  0.59454  0.97123  Biso   1.000  H
  C345     1.0000 0.04044  0.22229  0.86932  Biso   1.000  C
  C346     1.0000 0.90926  0.15006  0.85848  Biso   1.000  C
  C347     1.0000 0.84996  0.75922  0.85848  Biso   1.000  C
  C348     1.0000 0.77767  0.81817  0.86932  Biso   1.000  C
  C349     1.0000 0.95464  0.14143  0.90669  Biso   1.000  C
  C350     1.0000 0.85855  0.81318  0.90669  Biso   1.000  C
  H403     1.0000 0.08928  0.25591  0.86342  Biso   1.000  H
  H404     1.0000 0.86977  0.13572  0.84522  Biso   1.000  H
  C351     1.0000 0.89482  0.11952  0.88698  Biso   1.000  C
  H405     1.0000 0.86426  0.73406  0.84522  Biso   1.000  H
  H406     1.0000 0.74407  0.83335  0.86342  Biso   1.000  H
  C352     1.0000 0.80693  0.83369  0.89797  Biso   1.000  C
  H407     1.0000 0.94596  0.12126  0.92574  Biso   1.000  H
  H408     1.0000 0.87873  0.82472  0.92574  Biso   1.000  H
  C353     1.0000 0.81702  0.06612  0.89577  Biso   1.000  C
  C354     1.0000 0.77979  0.86938  0.91982  Biso   1.000  C
  H409     1.0000 0.77996  0.05043  0.88124  Biso   1.000  H
  N59      1.0000 0.79769  0.04057  0.92153  Biso   1.000  N
  N60      1.0000 0.72749  0.88115  0.91399  Biso   1.000  N
  H410     1.0000 0.80263  0.88322  0.93833  Biso   1.000  H
  C355     1.0000 0.71798  0.98986  0.92658  Biso   1.000  C
  C356     1.0000 0.70330  0.91410  0.93704  Biso   1.000  C
  H411     1.0000 0.69076  0.98375  0.90794  Biso   1.000  H
  C357     1.0000 0.69040  0.02466  0.95010  Biso   1.000  C
  H412     1.0000 0.73160  0.92004  0.95533  Biso   1.000  H
  C358     1.0000 0.62007  0.86322  0.94307  Biso   1.000  C
  C359     1.0000 0.60776  0.97546  0.95582  Biso   1.000  C
  H413     1.0000 0.71767  0.03155  0.96854  Biso   1.000  H
  H414     1.0000 0.70029  0.07346  0.94334  Biso   1.000  H
  C360     1.0000 0.58973  0.89757  0.96536  Biso   1.000  C
  H415     1.0000 0.61191  0.81576  0.95074  Biso   1.000  H
  H416     1.0000 0.59265  0.85353  0.92454  Biso   1.000  H
  H417     1.0000 0.58008  0.97193  0.93784  Biso   1.000  H
  H418     1.0000 0.59217  0.99765  0.97123  Biso   1.000  H
  H419     1.0000 0.53579  0.86557  0.96703  Biso   1.000  H
  H420     1.0000 0.61146  0.90026  0.98474  Biso   1.000  H
  C361     1.0000 0.07404  0.37179  0.28526  Biso   1.000  C
  C362     1.0000 0.04336  0.28869  0.28185  Biso   1.000  C
  C363     1.0000 0.04544  0.40154  0.26083  Biso   1.000  C
  H421     1.0000 0.12832  0.39756  0.28457  Biso   1.000  H
  H422     1.0000 0.05922  0.38165  0.30446  Biso   1.000  H
  C364     1.0000 0.06021  0.26891  0.25120  Biso   1.000  C
  H423     1.0000 0.06514  0.27188  0.29696  Biso   1.000  H
  H424     1.0000 0.98954  0.26258  0.28486  Biso   1.000  H
  C365     1.0000 0.06204  0.38204  0.22986  Biso   1.000  C
  H425     1.0000 0.06895  0.45556  0.26268  Biso   1.000  H
  H426     1.0000 0.99176  0.38047  0.26308  Biso   1.000  H
  N61      1.0000 0.02355  0.18755  0.24848  Biso   1.000  N
  C366     1.0000 0.03040  0.29810  0.22648  Biso   1.000  C
  H427     1.0000 0.11441  0.29065  0.24886  Biso   1.000  H
  H428     1.0000 0.04023  0.39919  0.21487  Biso   1.000  H
  H429     1.0000 0.11586  0.40787  0.22677  Biso   1.000  H
  C367     1.0000 0.06310  0.15919  0.24187  Biso   1.000  C
  N62      1.0000 0.05265  0.28213  0.19776  Biso   1.000  N
  H430     1.0000 0.97567  0.27250  0.22757  Biso   1.000  H
  C368     1.0000 0.03110  0.07811  0.23916  Biso   1.000  C
  H431     1.0000 0.11411  0.19046  0.23867  Biso   1.000  H
  C369     1.0000 0.00228  0.23904  0.18040  Biso   1.000  C
  C370     1.0000 0.07662  0.04707  0.23898  Biso   1.000  C
  C371     1.0000 0.95297  0.02959  0.23898  Biso   1.000  C
  C372     1.0000 0.01792  0.21977  0.15062  Biso   1.000  C
  H432     1.0000 0.95264  0.21809  0.18646  Biso   1.000  H
  H433     1.0000 0.12832  0.07845  0.23876  Biso   1.000  H
  C373     1.0000 0.04708  0.96896  0.23916  Biso   1.000  C
  C374     1.0000 0.92190  0.95299  0.23916  Biso   1.000  C
  H434     1.0000 0.92152  0.04987  0.23876  Biso   1.000  H
  C375     1.0000 0.09077  0.24084  0.14152  Biso   1.000  C
  C376     1.0000 0.95958  0.18189  0.13068  Biso   1.000  C
  C377     1.0000 0.97039  0.92340  0.23898  Biso   1.000  C
  C378     1.0000 0.09608  0.93691  0.24187  Biso   1.000  C
  C379     1.0000 0.84090  0.90396  0.24187  Biso   1.000  C
  H435     1.0000 0.13023  0.26600  0.15478  Biso   1.000  H
  C380     1.0000 0.10522  0.22470  0.11302  Biso   1.000  C
  H436     1.0000 0.91071  0.16665  0.13658  Biso   1.000  H
  C381     1.0000 0.97319  0.16631  0.10203  Biso   1.000  C
  H437     1.0000 0.95011  0.87168  0.23876  Biso   1.000  H
  N63      1.0000 0.16405  0.97647  0.24848  Biso   1.000  N
  H438     1.0000 0.07628  0.88586  0.23867  Biso   1.000  H
  N64      1.0000 0.81248  0.83604  0.24848  Biso   1.000  N
  H439     1.0000 0.80951  0.92368  0.23867  Biso   1.000  H
  C382     1.0000 0.18299  0.24913  0.10423  Biso   1.000  C
  C383     1.0000 0.04542  0.18682  0.09331  Biso   1.000  C
  C384     1.0000 0.91039  0.13067  0.08018  Biso   1.000  C
  C385     1.0000 0.20871  0.93982  0.25120  Biso   1.000  C
  C386     1.0000 0.73106  0.79133  0.25120  Biso   1.000  C
  H440     1.0000 0.22002  0.27048  0.11876  Biso   1.000  H
  N65      1.0000 0.20235  0.24291  0.07847  Biso   1.000  N
  H441     1.0000 0.05406  0.17528  0.07426  Biso   1.000  H
  N66      1.0000 0.84634  0.11885  0.08601  Biso   1.000  N
  H442     1.0000 0.91945  0.11678  0.06167  Biso   1.000  H
  C387     1.0000 0.26773  0.96963  0.22648  Biso   1.000  C
  C388     1.0000 0.24539  0.95669  0.28185  Biso   1.000  C
  H443     1.0000 0.17625  0.88558  0.24886  Biso   1.000  H
  C389     1.0000 0.70190  0.73232  0.22648  Biso   1.000  C
  C390     1.0000 0.71133  0.75468  0.28185  Biso   1.000  C
  H444     1.0000 0.70938  0.82377  0.24886  Biso   1.000  H
  C391     1.0000 0.28205  0.27188  0.07342  Biso   1.000  C
  C392     1.0000 0.78915  0.08590  0.06296  Biso   1.000  C
  H445     1.0000 0.29685  0.02437  0.22757  Biso   1.000  H
  N67      1.0000 0.22945  0.94733  0.19776  Biso   1.000  N
  C393     1.0000 0.32003  0.93797  0.22986  Biso   1.000  C
  H446     1.0000 0.27306  0.01048  0.28486  Biso   1.000  H
  H447     1.0000 0.20673  0.93489  0.29696  Biso   1.000  H
  C394     1.0000 0.29778  0.92598  0.28526  Biso   1.000  C
  N68      1.0000 0.71785  0.77054  0.19776  Biso   1.000  N
  H448     1.0000 0.72751  0.70319  0.22757  Biso   1.000  H
  C395     1.0000 0.61798  0.67999  0.22986  Biso   1.000  C
  H449     1.0000 0.73743  0.72700  0.28486  Biso   1.000  H
  H450     1.0000 0.72811  0.79329  0.29696  Biso   1.000  H
  C396     1.0000 0.62826  0.70229  0.28526  Biso   1.000  C
  H451     1.0000 0.30923  0.29295  0.09206  Biso   1.000  H
  C397     1.0000 0.29672  0.21086  0.06296  Biso   1.000  C
  C398     1.0000 0.30965  0.33425  0.04990  Biso   1.000  C
  C399     1.0000 0.72813  0.01014  0.07342  Biso   1.000  C
  H452     1.0000 0.81151  0.07996  0.04467  Biso   1.000  H
  C400     1.0000 0.75685  0.13678  0.05693  Biso   1.000  C
  C401     1.0000 0.23676  0.99776  0.18040  Biso   1.000  C
  C402     1.0000 0.35608  0.95456  0.26083  Biso   1.000  C
  H453     1.0000 0.35893  0.95977  0.21487  Biso   1.000  H
  H454     1.0000 0.29207  0.88418  0.22677  Biso   1.000  H
  H455     1.0000 0.26922  0.87168  0.28457  Biso   1.000  H
  H456     1.0000 0.32245  0.94077  0.30446  Biso   1.000  H
  C403     1.0000 0.76099  0.76325  0.18040  Biso   1.000  C
  C404     1.0000 0.59843  0.64390  0.26083  Biso   1.000  C
  H457     1.0000 0.60087  0.64110  0.21487  Biso   1.000  H
  H458     1.0000 0.59215  0.70800  0.22677  Biso   1.000  H
  H459     1.0000 0.60246  0.73075  0.28457  Biso   1.000  H
  H460     1.0000 0.61833  0.67758  0.30446  Biso   1.000  H
  H461     1.0000 0.26843  0.18844  0.04467  Biso   1.000  H
  N69      1.0000 0.27248  0.15365  0.08601  Biso   1.000  N
  C405     1.0000 0.37995  0.24319  0.05693  Biso   1.000  C
  H462     1.0000 0.28232  0.31385  0.03146  Biso   1.000  H
  H463     1.0000 0.29976  0.37319  0.05666  Biso   1.000  H
  C406     1.0000 0.39225  0.36764  0.04418  Biso   1.000  C
  N70      1.0000 0.75707  0.95943  0.07847  Biso   1.000  N
  C407     1.0000 0.66572  0.97540  0.04990  Biso   1.000  C
  H464     1.0000 0.70701  0.01625  0.09206  Biso   1.000  H
  C408     1.0000 0.69214  0.10249  0.03464  Biso   1.000  C
  H465     1.0000 0.79610  0.18424  0.04926  Biso   1.000  H
  H466     1.0000 0.73913  0.14647  0.07546  Biso   1.000  H
  H467     1.0000 0.26544  0.04735  0.18646  Biso   1.000  H
  C409     1.0000 0.20189  0.98207  0.15062  Biso   1.000  C
  H468     1.0000 0.38872  0.00829  0.26308  Biso   1.000  H
  H469     1.0000 0.38666  0.93108  0.26268  Biso   1.000  H
  C410     1.0000 0.78019  0.79816  0.15062  Biso   1.000  C
  H470     1.0000 0.78197  0.73457  0.18646  Biso   1.000  H
  H471     1.0000 0.54444  0.61336  0.26268  Biso   1.000  H
  H472     1.0000 0.61959  0.61129  0.26308  Biso   1.000  H
  C411     1.0000 0.22027  0.08960  0.08018  Biso   1.000  C
  C412     1.0000 0.41034  0.30785  0.03464  Biso   1.000  C
  H473     1.0000 0.38814  0.20385  0.04926  Biso   1.000  H
  H474     1.0000 0.40732  0.26084  0.07546  Biso   1.000  H
  H475     1.0000 0.41993  0.39185  0.06216  Biso   1.000  H
  H476     1.0000 0.40786  0.40546  0.02877  Biso   1.000  H
  C413     1.0000 0.75090  0.93388  0.10423  Biso   1.000  C
  H477     1.0000 0.68615  0.96851  0.03146  Biso   1.000  H
  H478     1.0000 0.62681  0.92659  0.05666  Biso   1.000  H
  C414     1.0000 0.63230  0.02454  0.04418  Biso   1.000  C
  H479     1.0000 0.67024  0.13448  0.03297  Biso   1.000  H
  H480     1.0000 0.71125  0.09974  0.01526  Biso   1.000  H
  C415     1.0000 0.22230  0.04046  0.13068  Biso   1.000  C
  C416     1.0000 0.15006  0.90928  0.14152  Biso   1.000  C
  C417     1.0000 0.75915  0.84994  0.14152  Biso   1.000  C
  C418     1.0000 0.81810  0.77771  0.13068  Biso   1.000  C
  C419     1.0000 0.19309  0.02678  0.10203  Biso   1.000  C
  H481     1.0000 0.19732  0.08058  0.06167  Biso   1.000  H
  H482     1.0000 0.46425  0.32976  0.03297  Biso   1.000  H
  H483     1.0000 0.38851  0.28875  0.01526  Biso   1.000  H
  C420     1.0000 0.77527  0.88053  0.11302  Biso   1.000  C
  H484     1.0000 0.72958  0.94957  0.11876  Biso   1.000  H
  H485     1.0000 0.60816  0.02807  0.06216  Biso   1.000  H
  H486     1.0000 0.59452  0.00235  0.02877  Biso   1.000  H
  H487     1.0000 0.25592  0.08926  0.13658  Biso   1.000  H
  H488     1.0000 0.13569  0.86978  0.15478  Biso   1.000  H
  C421     1.0000 0.11949  0.89482  0.11302  Biso   1.000  C
  H489     1.0000 0.73405  0.86428  0.15478  Biso   1.000  H
  H490     1.0000 0.83337  0.74409  0.13658  Biso   1.000  H
  C422     1.0000 0.83367  0.80691  0.10203  Biso   1.000  C
  C423     1.0000 0.14138  0.95461  0.09331  Biso   1.000  C
  C424     1.0000 0.81319  0.85863  0.09331  Biso   1.000  C
  C425     1.0000 0.06614  0.81705  0.10423  Biso   1.000  C
  C426     1.0000 0.86941  0.77978  0.08018  Biso   1.000  C
  H491     1.0000 0.12119  0.94598  0.07426  Biso   1.000  H
  H492     1.0000 0.82478  0.87880  0.07426  Biso   1.000  H
  H493     1.0000 0.05046  0.77995  0.11876  Biso   1.000  H
  N71      1.0000 0.04058  0.79766  0.07847  Biso   1.000  N
  N72      1.0000 0.88113  0.72750  0.08601  Biso   1.000  N
  H494     1.0000 0.88330  0.80270  0.06167  Biso   1.000  H
  C427     1.0000 0.98987  0.71798  0.07342  Biso   1.000  C
  C428     1.0000 0.91415  0.70330  0.06296  Biso   1.000  C
  H495     1.0000 0.98380  0.69080  0.09206  Biso   1.000  H
  C429     1.0000 0.02458  0.69035  0.04990  Biso   1.000  C
  H496     1.0000 0.92000  0.73160  0.04467  Biso   1.000  H
  C430     1.0000 0.86328  0.62009  0.05693  Biso   1.000  C
  C431     1.0000 0.97542  0.60776  0.04418  Biso   1.000  C
  H497     1.0000 0.03151  0.71770  0.03146  Biso   1.000  H
  H498     1.0000 0.07341  0.70027  0.05666  Biso   1.000  H
  C432     1.0000 0.89751  0.58966  0.03464  Biso   1.000  C
  H499     1.0000 0.81576  0.61191  0.04926  Biso   1.000  H
  H500     1.0000 0.85356  0.59269  0.07546  Biso   1.000  H
  H501     1.0000 0.97192  0.58008  0.06216  Biso   1.000  H
  H502     1.0000 0.99767  0.59218  0.02877  Biso   1.000  H
  H503     1.0000 0.86556  0.53576  0.03297  Biso   1.000  H
  H504     1.0000 0.90026  0.61146  0.01526  Biso   1.000  H
