data_image0
_cell_length_a       20.54
_cell_length_b       20.54
_cell_length_c       44.747
_cell_angle_alpha    90
_cell_angle_beta     90
_cell_angle_gamma    120

_symmetry_space_group_name_H-M    "P 1"
_symmetry_int_tables_number       1

loop_
  _symmetry_equiv_pos_as_xyz
  'x, y, z'

loop_
  _atom_site_label
  _atom_site_occupancy
  _atom_site_fract_x
  _atom_site_fract_y
  _atom_site_fract_z
  _atom_site_thermal_displace_type
  _atom_site_B_iso_or_equiv
  _atom_site_type_symbol
  C1       1.0000 0.57748  0.62097  0.44781  Biso   1.000  C
  C2       1.0000 0.54083  0.60327  0.41688  Biso   1.000  C
  H1       1.0000 0.60726  0.67607  0.45051  Biso   1.000  H
  H2       1.0000 0.53796  0.60017  0.46341  Biso   1.000  H
  C3       1.0000 0.62861  0.58741  0.45140  Biso   1.000  C
  C4       1.0000 0.60058  0.63261  0.39218  Biso   1.000  C
  N1       1.0000 0.49695  0.64093  0.41382  Biso   1.000  N
  H3       1.0000 0.50718  0.54767  0.41471  Biso   1.000  H
  C5       1.0000 0.68797  0.61518  0.42660  Biso   1.000  C
  H4       1.0000 0.59797  0.53187  0.45069  Biso   1.000  H
  H5       1.0000 0.65378  0.60192  0.47109  Biso   1.000  H
  N2       1.0000 0.56324  0.61041  0.36320  Biso   1.000  N
  H6       1.0000 0.63121  0.68872  0.39330  Biso   1.000  H
  C6       1.0000 0.65179  0.59899  0.39598  Biso   1.000  C
  C7       1.0000 0.42830  0.60119  0.40740  Biso   1.000  C
  H7       1.0000 0.72219  0.67000  0.42881  Biso   1.000  H
  H8       1.0000 0.71818  0.59011  0.42850  Biso   1.000  H
  C8       1.0000 0.57213  0.66207  0.34530  Biso   1.000  C
  H9       1.0000 0.62200  0.54390  0.39301  Biso   1.000  H
  H10      1.0000 0.69158  0.61996  0.38049  Biso   1.000  H
  H11      1.0000 0.40740  0.54879  0.40421  Biso   1.000  H
  C9       1.0000 0.37988  0.63503  0.40492  Biso   1.000  C
  C10      1.0000 0.53926  0.64706  0.31515  Biso   1.000  C
  H12      1.0000 0.60137  0.71278  0.35171  Biso   1.000  H
  C11      1.0000 0.41100  0.71323  0.40472  Biso   1.000  C
  C12      1.0000 0.30223  0.58899  0.40472  Biso   1.000  C
  C13      1.0000 0.48737  0.57415  0.30563  Biso   1.000  C
  C14      1.0000 0.56019  0.70598  0.29524  Biso   1.000  C
  C15      1.0000 0.36496  0.74482  0.40492  Biso   1.000  C
  H13      1.0000 0.46407  0.74499  0.40450  Biso   1.000  H
  C16      1.0000 0.25512  0.62008  0.40492  Biso   1.000  C
  H14      1.0000 0.28091  0.53592  0.40450  Biso   1.000  H
  C17      1.0000 0.45724  0.56054  0.27702  Biso   1.000  C
  H15      1.0000 0.47260  0.53322  0.31899  Biso   1.000  H
  C18      1.0000 0.53130  0.69366  0.26643  Biso   1.000  C
  H16      1.0000 0.59498  0.75578  0.30141  Biso   1.000  H
  C19      1.0000 0.28676  0.69777  0.40472  Biso   1.000  C
  C20      1.0000 0.39878  0.82707  0.40740  Biso   1.000  C
  C21      1.0000 0.17289  0.57167  0.40740  Biso   1.000  C
  C22      1.0000 0.40266  0.48234  0.26860  Biso   1.000  C
  C23      1.0000 0.47949  0.62081  0.25734  Biso   1.000  C
  C24      1.0000 0.55781  0.75651  0.24484  Biso   1.000  C
  H17      1.0000 0.25501  0.71907  0.40450  Biso   1.000  H
  N3       1.0000 0.35907  0.85602  0.41382  Biso   1.000  N
  H18      1.0000 0.45121  0.85860  0.40421  Biso   1.000  H
  N4       1.0000 0.14400  0.50309  0.41382  Biso   1.000  N
  H19      1.0000 0.14138  0.59259  0.40421  Biso   1.000  H
  N5       1.0000 0.37648  0.46182  0.24290  Biso   1.000  N
  H20      1.0000 0.38629  0.44502  0.28371  Biso   1.000  H
  H21      1.0000 0.45932  0.61220  0.23769  Biso   1.000  H
  N6       1.0000 0.60747  0.82274  0.25204  Biso   1.000  N
  H22      1.0000 0.53719  0.74701  0.22529  Biso   1.000  H
  C25      1.0000 0.39671  0.93753  0.41688  Biso   1.000  C
  C26      1.0000 0.06245  0.45918  0.41688  Biso   1.000  C
  C27      1.0000 0.32458  0.38110  0.23881  Biso   1.000  C
  C28      1.0000 0.63285  0.88030  0.22878  Biso   1.000  C
  C29      1.0000 0.36737  0.96795  0.39218  Biso   1.000  C
  H23      1.0000 0.45227  0.95946  0.41471  Biso   1.000  H
  C30      1.0000 0.37897  0.95648  0.44781  Biso   1.000  C
  C31      1.0000 0.03204  0.39942  0.39218  Biso   1.000  C
  H24      1.0000 0.04051  0.49280  0.41471  Biso   1.000  H
  C32      1.0000 0.04347  0.42247  0.44781  Biso   1.000  C
  C33      1.0000 0.35648  0.35113  0.21525  Biso   1.000  C
  H25      1.0000 0.31921  0.35439  0.25821  Biso   1.000  H
  C34      1.0000 0.24745  0.36715  0.22878  Biso   1.000  C
  C35      1.0000 0.61892  0.94349  0.23881  Biso   1.000  C
  C36      1.0000 0.71774  0.91319  0.22426  Biso   1.000  C
  H26      1.0000 0.60546  0.85776  0.20969  Biso   1.000  H
  N7       1.0000 0.38956  0.95282  0.36320  Biso   1.000  N
  H27      1.0000 0.31131  0.94248  0.39330  Biso   1.000  H
  C37      1.0000 0.40098  0.05278  0.39598  Biso   1.000  C
  H28      1.0000 0.32392  0.93118  0.45051  Biso   1.000  H
  H29      1.0000 0.39979  0.93776  0.46341  Biso   1.000  H
  C38      1.0000 0.41261  0.04120  0.45140  Biso   1.000  C
  N8       1.0000 0.04715  0.43675  0.36320  Biso   1.000  N
  H30      1.0000 0.05752  0.36878  0.39330  Biso   1.000  H
  C39      1.0000 0.94718  0.34821  0.39598  Biso   1.000  C
  H31      1.0000 0.06878  0.39268  0.45051  Biso   1.000  H
  H32      1.0000 0.06220  0.46199  0.46341  Biso   1.000  H
  C40      1.0000 0.95876  0.37137  0.45140  Biso   1.000  C
  C41      1.0000 0.30539  0.26658  0.21076  Biso   1.000  C
  H33      1.0000 0.40698  0.36148  0.22149  Biso   1.000  H
  H34      1.0000 0.36187  0.37750  0.19610  Biso   1.000  H
  C42      1.0000 0.19544  0.28221  0.22426  Biso   1.000  C
  N9       1.0000 0.21524  0.39251  0.25204  Biso   1.000  N
  H35      1.0000 0.25230  0.39448  0.20969  Biso   1.000  H
  N10      1.0000 0.53819  0.91465  0.24290  Biso   1.000  N
  H36      1.0000 0.64559  0.96480  0.25821  Biso   1.000  H
  C43      1.0000 0.64887  0.00533  0.21525  Biso   1.000  C
  C44      1.0000 0.75076  0.97756  0.20202  Biso   1.000  C
  H37      1.0000 0.74360  0.93141  0.24370  Biso   1.000  H
  H38      1.0000 0.72720  0.87300  0.21711  Biso   1.000  H
  C45      1.0000 0.33793  0.91004  0.34530  Biso   1.000  C
  C46      1.0000 0.38479  0.07279  0.42660  Biso   1.000  C
  H39      1.0000 0.45608  0.07808  0.39301  Biso   1.000  H
  H40      1.0000 0.38001  0.07161  0.38049  Biso   1.000  H
  H41      1.0000 0.46810  0.06610  0.45069  Biso   1.000  H
  H42      1.0000 0.39809  0.05188  0.47109  Biso   1.000  H
  C47      1.0000 0.08993  0.42787  0.34530  Biso   1.000  C
  C48      1.0000 0.92718  0.31201  0.42660  Biso   1.000  C
  H43      1.0000 0.92191  0.37800  0.39301  Biso   1.000  H
  H44      1.0000 0.92840  0.30841  0.38049  Biso   1.000  H
  H45      1.0000 0.93392  0.40201  0.45069  Biso   1.000  H
  H46      1.0000 0.94807  0.34619  0.47109  Biso   1.000  H
  H47      1.0000 0.32631  0.24882  0.19490  Biso   1.000  H
  H48      1.0000 0.30302  0.23982  0.22949  Biso   1.000  H
  C49      1.0000 0.22680  0.24921  0.20202  Biso   1.000  C
  H49      1.0000 0.18779  0.25641  0.24370  Biso   1.000  H
  H50      1.0000 0.14581  0.27282  0.21711  Biso   1.000  H
  C50      1.0000 0.19868  0.44215  0.24484  Biso   1.000  C
  C51      1.0000 0.51766  0.92033  0.26860  Biso   1.000  C
  H51      1.0000 0.62246  0.98436  0.19610  Biso   1.000  H
  H52      1.0000 0.63846  0.04547  0.22149  Biso   1.000  H
  C52      1.0000 0.73336  0.03878  0.21076  Biso   1.000  C
  H53      1.0000 0.72986  0.95817  0.18189  Biso   1.000  H
  H54      1.0000 0.80597  0.99909  0.20111  Biso   1.000  H
  C53      1.0000 0.35290  0.89217  0.31515  Biso   1.000  C
  H55      1.0000 0.28718  0.88857  0.35171  Biso   1.000  H
  H56      1.0000 0.33000  0.05222  0.42881  Biso   1.000  H
  H57      1.0000 0.40992  0.12811  0.42850  Biso   1.000  H
  C54      1.0000 0.10784  0.46076  0.31515  Biso   1.000  C
  H58      1.0000 0.11141  0.39858  0.35171  Biso   1.000  H
  H59      1.0000 0.94779  0.27777  0.42881  Biso   1.000  H
  H60      1.0000 0.87192  0.28182  0.42850  Biso   1.000  H
  H61      1.0000 0.22829  0.27012  0.18189  Biso   1.000  H
  H62      1.0000 0.19311  0.19401  0.20111  Biso   1.000  H
  H63      1.0000 0.20977  0.46278  0.22529  Biso   1.000  H
  C55      1.0000 0.16234  0.46868  0.26643  Biso   1.000  C
  C56      1.0000 0.43945  0.89672  0.27702  Biso   1.000  C
  H64      1.0000 0.55502  0.94130  0.28371  Biso   1.000  H
  H65      1.0000 0.75122  0.07751  0.19490  Biso   1.000  H
  H66      1.0000 0.76017  0.06318  0.22949  Biso   1.000  H
  C57      1.0000 0.42585  0.91325  0.30563  Biso   1.000  C
  C58      1.0000 0.29400  0.85422  0.29524  Biso   1.000  C
  C59      1.0000 0.14579  0.43979  0.29524  Biso   1.000  C
  C60      1.0000 0.08672  0.51259  0.30563  Biso   1.000  C
  C61      1.0000 0.14134  0.52046  0.25734  Biso   1.000  C
  C62      1.0000 0.37914  0.85866  0.25734  Biso   1.000  C
  H67      1.0000 0.46677  0.93939  0.31899  Biso   1.000  H
  C63      1.0000 0.30631  0.83764  0.26643  Biso   1.000  C
  H68      1.0000 0.24419  0.83921  0.30141  Biso   1.000  H
  H69      1.0000 0.16077  0.40499  0.30141  Biso   1.000  H
  C64      1.0000 0.10330  0.54272  0.27702  Biso   1.000  C
  H70      1.0000 0.06057  0.52737  0.31899  Biso   1.000  H
  H71      1.0000 0.15292  0.54070  0.23769  Biso   1.000  H
  H72      1.0000 0.38780  0.84708  0.23769  Biso   1.000  H
  C65      1.0000 0.24345  0.80132  0.24484  Biso   1.000  C
  C66      1.0000 0.07967  0.59731  0.26860  Biso   1.000  C
  N11      1.0000 0.17723  0.78474  0.25204  Biso   1.000  N
  H73      1.0000 0.25298  0.79019  0.22529  Biso   1.000  H
  N12      1.0000 0.08536  0.62350  0.24290  Biso   1.000  N
  H74      1.0000 0.05868  0.61367  0.28371  Biso   1.000  H
  C67      1.0000 0.11969  0.75252  0.22878  Biso   1.000  C
  C68      1.0000 0.05649  0.67539  0.23881  Biso   1.000  C
  C69      1.0000 0.08681  0.80458  0.22426  Biso   1.000  C
  H75      1.0000 0.14220  0.74769  0.20969  Biso   1.000  H
  H76      1.0000 0.03519  0.68079  0.25821  Biso   1.000  H
  C70      1.0000 0.99464  0.64352  0.21525  Biso   1.000  C
  C71      1.0000 0.02239  0.77321  0.20202  Biso   1.000  C
  H77      1.0000 0.06860  0.81217  0.24370  Biso   1.000  H
  H78      1.0000 0.12698  0.85416  0.21711  Biso   1.000  H
  H79      1.0000 0.01558  0.63806  0.19610  Biso   1.000  H
  H80      1.0000 0.95447  0.59298  0.22149  Biso   1.000  H
  C72      1.0000 0.96116  0.69456  0.21076  Biso   1.000  C
  H81      1.0000 0.04179  0.77169  0.18189  Biso   1.000  H
  H82      1.0000 0.00091  0.80688  0.20111  Biso   1.000  H
  H83      1.0000 0.92249  0.67371  0.19490  Biso   1.000  H
  H84      1.0000 0.93681  0.69698  0.22949  Biso   1.000  H
  C73      1.0000 0.80198  0.82898  0.40023  Biso   1.000  C
  C74      1.0000 0.77312  0.81245  0.37142  Biso   1.000  C
  C75      1.0000 0.85381  0.80801  0.40932  Biso   1.000  C
  C76      1.0000 0.77547  0.86535  0.42182  Biso   1.000  C
  C77      1.0000 0.79407  0.77450  0.35151  Biso   1.000  C
  H85      1.0000 0.73832  0.82746  0.36528  Biso   1.000  H
  C78      1.0000 0.87607  0.76995  0.38964  Biso   1.000  C
  H86      1.0000 0.87403  0.81953  0.42897  Biso   1.000  H
  N13      1.0000 0.72580  0.88188  0.41464  Biso   1.000  N
  H87      1.0000 0.79613  0.87648  0.44137  Biso   1.000  H
  C79      1.0000 0.76120  0.75657  0.32136  Biso   1.000  C
  C80      1.0000 0.84594  0.75342  0.36103  Biso   1.000  C
  C81      1.0000 0.93067  0.74634  0.39806  Biso   1.000  C
  C82      1.0000 0.70047  0.91409  0.43791  Biso   1.000  C
  N14      1.0000 0.77004  0.71379  0.30346  Biso   1.000  N
  H88      1.0000 0.73191  0.77805  0.31497  Biso   1.000  H
  H89      1.0000 0.86072  0.72728  0.34767  Biso   1.000  H
  N15      1.0000 0.95688  0.75202  0.42378  Biso   1.000  N
  H90      1.0000 0.94701  0.72537  0.38298  Biso   1.000  H
  C83      1.0000 0.71443  0.99128  0.42785  Biso   1.000  C
  C84      1.0000 0.61556  0.86209  0.44240  Biso   1.000  C
  H91      1.0000 0.72782  0.91893  0.45697  Biso   1.000  H
  C85      1.0000 0.73276  0.69872  0.27448  Biso   1.000  C
  C86      1.0000 0.00874  0.72312  0.42785  Biso   1.000  C
  H92      1.0000 0.68770  0.98582  0.40847  Biso   1.000  H
  N16      1.0000 0.79512  0.04311  0.42378  Biso   1.000  N
  C87      1.0000 0.68443  0.02310  0.45140  Biso   1.000  C
  C88      1.0000 0.58251  0.89346  0.46466  Biso   1.000  C
  H93      1.0000 0.58973  0.85444  0.42296  Biso   1.000  H
  H94      1.0000 0.60613  0.81245  0.44957  Biso   1.000  H
  C89      1.0000 0.68153  0.61389  0.27068  Biso   1.000  C
  C90      1.0000 0.79249  0.72908  0.24980  Biso   1.000  C
  H95      1.0000 0.70213  0.72413  0.27336  Biso   1.000  H
  C91      1.0000 0.97687  0.66134  0.45140  Biso   1.000  C
  H96      1.0000 0.01413  0.70187  0.40847  Biso   1.000  H
  C92      1.0000 0.08588  0.78637  0.43791  Biso   1.000  C
  C93      1.0000 0.81562  0.06931  0.39806  Biso   1.000  C
  C94      1.0000 0.59990  0.97205  0.45590  Biso   1.000  C
  H97      1.0000 0.69480  0.07364  0.44517  Biso   1.000  H
  H98      1.0000 0.71082  0.02855  0.47056  Biso   1.000  H
  H99      1.0000 0.60343  0.89498  0.48477  Biso   1.000  H
  H100     1.0000 0.52733  0.85973  0.46557  Biso   1.000  H
  C95      1.0000 0.64533  0.59388  0.24008  Biso   1.000  C
  H101     1.0000 0.71131  0.58854  0.27367  Biso   1.000  H
  H102     1.0000 0.64174  0.59506  0.28616  Biso   1.000  H
  C96      1.0000 0.75580  0.71014  0.21888  Biso   1.000  C
  N17      1.0000 0.83639  0.81065  0.25287  Biso   1.000  N
  H103     1.0000 0.82612  0.70716  0.25197  Biso   1.000  H
  H104     1.0000 0.92630  0.62114  0.44517  Biso   1.000  H
  H105     1.0000 0.97141  0.68225  0.47056  Biso   1.000  H
  C97      1.0000 0.02794  0.62783  0.45590  Biso   1.000  C
  N18      1.0000 0.11807  0.84393  0.41464  Biso   1.000  N
  C98      1.0000 0.13794  0.75348  0.44240  Biso   1.000  C
  H106     1.0000 0.08101  0.80885  0.45697  Biso   1.000  H
  C99      1.0000 0.89386  0.12395  0.38964  Biso   1.000  C
  H107     1.0000 0.77832  0.05295  0.38298  Biso   1.000  H
  H108     1.0000 0.58212  0.99296  0.47176  Biso   1.000  H
  H109     1.0000 0.57313  0.96963  0.43717  Biso   1.000  H
  C100     1.0000 0.70475  0.62547  0.21525  Biso   1.000  C
  H110     1.0000 0.61112  0.61445  0.23787  Biso   1.000  H
  H111     1.0000 0.61514  0.53856  0.23816  Biso   1.000  H
  H112     1.0000 0.72599  0.73543  0.21617  Biso   1.000  H
  H113     1.0000 0.79534  0.72886  0.20328  Biso   1.000  H
  C101     1.0000 0.90497  0.83955  0.25926  Biso   1.000  C
  H114     1.0000 0.00704  0.58916  0.47176  Biso   1.000  H
  H115     1.0000 0.03034  0.60344  0.43717  Biso   1.000  H
  C102     1.0000 0.10655  0.68905  0.46466  Biso   1.000  C
  C103     1.0000 0.13465  0.91010  0.42182  Biso   1.000  C
  H116     1.0000 0.14553  0.73526  0.42296  Biso   1.000  H
  H117     1.0000 0.18754  0.79367  0.44957  Biso   1.000  H
  C104     1.0000 0.95414  0.14616  0.40932  Biso   1.000  C
  C105     1.0000 0.90744  0.15403  0.36103  Biso   1.000  C
  H118     1.0000 0.73534  0.60057  0.21597  Biso   1.000  H
  H119     1.0000 0.67952  0.61473  0.19557  Biso   1.000  H
  H120     1.0000 0.92594  0.80807  0.26248  Biso   1.000  H
  C106     1.0000 0.95340  0.92179  0.26176  Biso   1.000  C
  H121     1.0000 0.10505  0.70845  0.48477  Biso   1.000  H
  H122     1.0000 0.14026  0.66758  0.46557  Biso   1.000  H
  H123     1.0000 0.12351  0.91966  0.44137  Biso   1.000  H
  C107     1.0000 0.17097  0.97301  0.40023  Biso   1.000  C
  H124     1.0000 0.94551  0.12597  0.42897  Biso   1.000  H
  C108     1.0000 0.02699  0.19799  0.40023  Biso   1.000  C
  C109     1.0000 0.98042  0.20591  0.35151  Biso   1.000  C
  H125     1.0000 0.86650  0.13924  0.34767  Biso   1.000  H
  C110     1.0000 0.92230  0.96885  0.26194  Biso   1.000  C
  C111     1.0000 0.03112  0.95339  0.26194  Biso   1.000  C
  C112     1.0000 0.18752  0.96064  0.37142  Biso   1.000  C
  C113     1.0000 0.19199  0.04581  0.40932  Biso   1.000  C
  C114     1.0000 0.03934  0.22688  0.37142  Biso   1.000  C
  C115     1.0000 0.08987  0.22452  0.42182  Biso   1.000  C
  C116     1.0000 0.99540  0.23880  0.32136  Biso   1.000  C
  H126     1.0000 0.86919  0.94754  0.26216  Biso   1.000  H
  C117     1.0000 0.96835  0.04654  0.26176  Biso   1.000  C
  H127     1.0000 0.05247  0.92168  0.26216  Biso   1.000  H
  C118     1.0000 0.07819  0.03164  0.26176  Biso   1.000  C
  C119     1.0000 0.22550  0.01955  0.35151  Biso   1.000  C
  H128     1.0000 0.17250  0.91083  0.36528  Biso   1.000  H
  H129     1.0000 0.18045  0.05447  0.42897  Biso   1.000  H
  C120     1.0000 0.23004  0.10613  0.38964  Biso   1.000  C
  H130     1.0000 0.08912  0.26168  0.36528  Biso   1.000  H
  N19      1.0000 0.15607  0.27416  0.41464  Biso   1.000  N
  H131     1.0000 0.08030  0.20383  0.44137  Biso   1.000  H
  N20      1.0000 0.94373  0.22992  0.30346  Biso   1.000  N
  H132     1.0000 0.04614  0.26803  0.31497  Biso   1.000  H
  C121     1.0000 0.93455  0.09500  0.25926  Biso   1.000  C
  C122     1.0000 0.04658  0.07768  0.26194  Biso   1.000  C
  C123     1.0000 0.16042  0.06543  0.25926  Biso   1.000  C
  C124     1.0000 0.24339  0.00460  0.32136  Biso   1.000  C
  C125     1.0000 0.24655  0.09252  0.36103  Biso   1.000  C
  C126     1.0000 0.25365  0.18433  0.39806  Biso   1.000  C
  C127     1.0000 0.21363  0.29952  0.43791  Biso   1.000  C
  C128     1.0000 0.96592  0.26719  0.27448  Biso   1.000  C
  N21      1.0000 0.97425  0.16358  0.25287  Biso   1.000  N
  H133     1.0000 0.88210  0.07403  0.26248  Biso   1.000  H
  H134     1.0000 0.07833  0.13075  0.26216  Biso   1.000  H
  N22      1.0000 0.18935  0.02574  0.25287  Biso   1.000  N
  H135     1.0000 0.19195  0.11788  0.26248  Biso   1.000  H
  N23      1.0000 0.28617  0.05626  0.30346  Biso   1.000  N
  H136     1.0000 0.22190  0.95384  0.31497  Biso   1.000  H
  H137     1.0000 0.27271  0.13345  0.34767  Biso   1.000  H
  N24      1.0000 0.24799  0.20485  0.42378  Biso   1.000  N
  H138     1.0000 0.27461  0.22166  0.38298  Biso   1.000  H
  C129     1.0000 0.27682  0.28557  0.42785  Biso   1.000  C
  C130     1.0000 0.24653  0.38440  0.44240  Biso   1.000  C
  H139     1.0000 0.19113  0.27214  0.45697  Biso   1.000  H
  C131     1.0000 0.93656  0.20749  0.24980  Biso   1.000  C
  C132     1.0000 0.93231  0.31846  0.27068  Biso   1.000  C
  H140     1.0000 0.02204  0.29783  0.27336  Biso   1.000  H
  C133     1.0000 0.27089  0.06340  0.24980  Biso   1.000  C
  C134     1.0000 0.30130  0.03406  0.27448  Biso   1.000  C
  H141     1.0000 0.29815  0.31228  0.40847  Biso   1.000  H
  C135     1.0000 0.33868  0.31554  0.45140  Biso   1.000  C
  C136     1.0000 0.31092  0.41746  0.46466  Biso   1.000  C
  H142     1.0000 0.26472  0.41026  0.42296  Biso   1.000  H
  H143     1.0000 0.20632  0.39385  0.44957  Biso   1.000  H
  H144     1.0000 0.88104  0.17387  0.25197  Biso   1.000  H
  C137     1.0000 0.95430  0.24414  0.21888  Biso   1.000  C
  C138     1.0000 0.94851  0.35466  0.24008  Biso   1.000  C
  H145     1.0000 0.87724  0.28867  0.27367  Biso   1.000  H
  H146     1.0000 0.95333  0.35826  0.28616  Biso   1.000  H
  H147     1.0000 0.29282  0.11895  0.25197  Biso   1.000  H
  C139     1.0000 0.28981  0.04564  0.21888  Biso   1.000  C
  H148     1.0000 0.27583  0.97795  0.27336  Biso   1.000  H
  C140     1.0000 0.38613  0.06768  0.27068  Biso   1.000  C
  H149     1.0000 0.37881  0.30514  0.44517  Biso   1.000  H
  H150     1.0000 0.31771  0.28917  0.47056  Biso   1.000  H
  C141     1.0000 0.37212  0.40003  0.45590  Biso   1.000  C
  H151     1.0000 0.29151  0.39655  0.48477  Biso   1.000  H
  H152     1.0000 0.33244  0.47266  0.46557  Biso   1.000  H
  H153     1.0000 0.93355  0.20468  0.20328  Biso   1.000  H
  C142     1.0000 0.92070  0.29524  0.21525  Biso   1.000  C
  H154     1.0000 0.00941  0.27394  0.21617  Biso   1.000  H
  H155     1.0000 0.92344  0.38485  0.23816  Biso   1.000  H
  H156     1.0000 0.00333  0.38885  0.23787  Biso   1.000  H
  H157     1.0000 0.26450  0.99055  0.21617  Biso   1.000  H
  H158     1.0000 0.27110  0.06644  0.20328  Biso   1.000  H
  C143     1.0000 0.37454  0.07926  0.21525  Biso   1.000  C
  C144     1.0000 0.40609  0.05143  0.24008  Biso   1.000  C
  H159     1.0000 0.41143  0.12277  0.27367  Biso   1.000  H
  H160     1.0000 0.40492  0.04665  0.28616  Biso   1.000  H
  H161     1.0000 0.41083  0.41785  0.47176  Biso   1.000  H
  H162     1.0000 0.39653  0.42685  0.43717  Biso   1.000  H
  H163     1.0000 0.86524  0.26466  0.21597  Biso   1.000  H
  H164     1.0000 0.93519  0.32043  0.19557  Biso   1.000  H
  H165     1.0000 0.39941  0.13474  0.21597  Biso   1.000  H
  H166     1.0000 0.38520  0.06475  0.19557  Biso   1.000  H
  H167     1.0000 0.38553  0.99667  0.23787  Biso   1.000  H
  H168     1.0000 0.46140  0.07656  0.23816  Biso   1.000  H
  O1       1.0000 0.79829  0.75365  0.49116  Biso   1.000  O
  C145     1.0000 0.82630  0.70226  0.48546  Biso   1.000  C
  H169     1.0000 0.79833  0.71126  0.50117  Biso   1.000  H
  C146     1.0000 0.83236  0.83230  0.50003  Biso   1.000  C
  H170     1.0000 0.83896  0.79604  0.48803  Biso   1.000  H
  H171     1.0000 0.75321  0.73116  0.49626  Biso   1.000  H
  O2       1.0000 0.90104  0.76517  0.48367  Biso   1.000  O
  H172     1.0000 0.80084  0.69535  0.46627  Biso   1.000  H
  H173     1.0000 0.82844  0.65679  0.49027  Biso   1.000  H
  H174     1.0000 0.86396  0.84573  0.51782  Biso   1.000  H
  H175     1.0000 0.84570  0.86395  0.48218  Biso   1.000  H
  H176     1.0000 0.84626  0.87733  0.48814  Biso   1.000  H
  H177     1.0000 0.87731  0.84624  0.51186  Biso   1.000  H
  H178     1.0000 0.79600  0.83893  0.51197  Biso   1.000  H
  O3       1.0000 0.75365  0.79834  0.50884  Biso   1.000  O
  H179     1.0000 0.93204  0.74977  0.48397  Biso   1.000  H
  C147     1.0000 0.96233  0.84764  0.47988  Biso   1.000  C
  H180     1.0000 0.92863  0.79367  0.48186  Biso   1.000  H
  C148     1.0000 0.70226  0.82634  0.51454  Biso   1.000  C
  H181     1.0000 0.71124  0.79834  0.49883  Biso   1.000  H
  H182     1.0000 0.73113  0.75320  0.50374  Biso   1.000  H
  O4       1.0000 0.95762  0.88593  0.50627  Biso   1.000  O
  H183     1.0000 0.94861  0.86636  0.46218  Biso   1.000  H
  H184     1.0000 0.01441  0.85793  0.47757  Biso   1.000  H
  O5       1.0000 0.76515  0.90099  0.51633  Biso   1.000  O
  H185     1.0000 0.69534  0.80081  0.53373  Biso   1.000  H
  H186     1.0000 0.65676  0.82842  0.50973  Biso   1.000  H
  H187     1.0000 0.93102  0.90538  0.50247  Biso   1.000  H
  O6       1.0000 0.04235  0.92831  0.49373  Biso   1.000  O
  H188     1.0000 0.74975  0.93202  0.51603  Biso   1.000  H
  C149     1.0000 0.84767  0.96233  0.52012  Biso   1.000  C
  H189     1.0000 0.79365  0.92860  0.51814  Biso   1.000  H
  H190     1.0000 0.06894  0.97430  0.49753  Biso   1.000  H
  C150     1.0000 0.03764  0.88531  0.52012  Biso   1.000  C
  O7       1.0000 0.88596  0.95760  0.49373  Biso   1.000  O
  H191     1.0000 0.86637  0.94861  0.53782  Biso   1.000  H
  H192     1.0000 0.85795  0.01444  0.52243  Biso   1.000  H
  H193     1.0000 0.98555  0.84354  0.52243  Biso   1.000  H
  O8       1.0000 0.09895  0.86411  0.51633  Biso   1.000  O
  H194     1.0000 0.05138  0.91775  0.53782  Biso   1.000  H
  H195     1.0000 0.07136  0.86501  0.51814  Biso   1.000  H
  H196     1.0000 0.90533  0.93101  0.49753  Biso   1.000  H
  O9       1.0000 0.92835  0.04238  0.50627  Biso   1.000  O
  H197     1.0000 0.06797  0.81773  0.51603  Biso   1.000  H
  C151     1.0000 0.17365  0.87592  0.51454  Biso   1.000  C
  H198     1.0000 0.97431  0.06897  0.50247  Biso   1.000  H
  C152     1.0000 0.88533  0.03766  0.47988  Biso   1.000  C
  H199     1.0000 0.19916  0.89453  0.53373  Biso   1.000  H
  H200     1.0000 0.20164  0.91291  0.49883  Biso   1.000  H
  H201     1.0000 0.17155  0.82830  0.50973  Biso   1.000  H
  O10      1.0000 0.20165  0.95530  0.50884  Biso   1.000  O
  H202     1.0000 0.84350  0.98554  0.47757  Biso   1.000  H
  O11      1.0000 0.86412  0.09893  0.48367  Biso   1.000  O
  H203     1.0000 0.91770  0.05137  0.46218  Biso   1.000  H
  H204     1.0000 0.86502  0.07133  0.48186  Biso   1.000  H
  H205     1.0000 0.16104  0.95704  0.51197  Biso   1.000  H
  H206     1.0000 0.24674  0.97790  0.50374  Biso   1.000  H
  C153     1.0000 0.16765  0.00005  0.50003  Biso   1.000  C
  H207     1.0000 0.81772  0.06796  0.48397  Biso   1.000  H
  C154     1.0000 0.87592  0.17365  0.48546  Biso   1.000  C
  H208     1.0000 0.13602  0.98178  0.48218  Biso   1.000  H
  H209     1.0000 0.12267  0.96890  0.48814  Biso   1.000  H
  H210     1.0000 0.15423  0.01821  0.51782  Biso   1.000  H
  H211     1.0000 0.15376  0.03108  0.51186  Biso   1.000  H
  H212     1.0000 0.20394  0.04294  0.48803  Biso   1.000  H
  O12      1.0000 0.24634  0.04468  0.49116  Biso   1.000  O
  H213     1.0000 0.89452  0.19917  0.46627  Biso   1.000  H
  H214     1.0000 0.91289  0.20164  0.50117  Biso   1.000  H
  H215     1.0000 0.82833  0.17157  0.49027  Biso   1.000  H
  O13      1.0000 0.95530  0.20164  0.49116  Biso   1.000  O
  C155     1.0000 0.29772  0.12406  0.48546  Biso   1.000  C
  H216     1.0000 0.28872  0.08707  0.50117  Biso   1.000  H
  H217     1.0000 0.26883  0.02208  0.49626  Biso   1.000  H
  C156     1.0000 0.99993  0.16763  0.50003  Biso   1.000  C
  H218     1.0000 0.95703  0.16100  0.48803  Biso   1.000  H
  H219     1.0000 0.97789  0.24673  0.49626  Biso   1.000  H
  O14      1.0000 0.23483  0.13587  0.48367  Biso   1.000  O
  H220     1.0000 0.30463  0.10545  0.46627  Biso   1.000  H
  H221     1.0000 0.34324  0.17168  0.49027  Biso   1.000  H
  H222     1.0000 0.98175  0.13604  0.51782  Biso   1.000  H
  H223     1.0000 0.96892  0.12266  0.51186  Biso   1.000  H
  H224     1.0000 0.01822  0.15425  0.48218  Biso   1.000  H
  H225     1.0000 0.03106  0.15374  0.48814  Biso   1.000  H
  H226     1.0000 0.04292  0.20395  0.51197  Biso   1.000  H
  O15      1.0000 0.04469  0.24633  0.50884  Biso   1.000  O
  H227     1.0000 0.25023  0.18225  0.48397  Biso   1.000  H
  C157     1.0000 0.15232  0.11467  0.47988  Biso   1.000  C
  H228     1.0000 0.20634  0.13497  0.48186  Biso   1.000  H
  C158     1.0000 0.12408  0.29772  0.51454  Biso   1.000  C
  H229     1.0000 0.08706  0.28872  0.49883  Biso   1.000  H
  H230     1.0000 0.02204  0.26882  0.50374  Biso   1.000  H
  O16      1.0000 0.11402  0.07167  0.50627  Biso   1.000  O
  H231     1.0000 0.13362  0.08224  0.46218  Biso   1.000  H
  H232     1.0000 0.14200  0.15644  0.47757  Biso   1.000  H
  O17      1.0000 0.13586  0.23481  0.51633  Biso   1.000  O
  H233     1.0000 0.10548  0.30463  0.53373  Biso   1.000  H
  H234     1.0000 0.17165  0.34320  0.50973  Biso   1.000  H
  O18      1.0000 0.07165  0.11400  0.49373  Biso   1.000  O
  H235     1.0000 0.09463  0.02568  0.50247  Biso   1.000  H
  C159     1.0000 0.11468  0.15234  0.52012  Biso   1.000  C
  H236     1.0000 0.13495  0.20631  0.51814  Biso   1.000  H
  H237     1.0000 0.18226  0.25021  0.51603  Biso   1.000  H
  H238     1.0000 0.02564  0.09460  0.49753  Biso   1.000  H
  H239     1.0000 0.08224  0.13362  0.53782  Biso   1.000  H
  H240     1.0000 0.15644  0.14200  0.52243  Biso   1.000  H
  C160     1.0000 0.58736  0.62856  0.54860  Biso   1.000  C
  C161     1.0000 0.62099  0.57752  0.55219  Biso   1.000  C
  C162     1.0000 0.61517  0.68799  0.57340  Biso   1.000  C
  H241     1.0000 0.53190  0.59798  0.54931  Biso   1.000  H
  H242     1.0000 0.60188  0.65381  0.52891  Biso   1.000  H
  C163     1.0000 0.60322  0.54081  0.58312  Biso   1.000  C
  H243     1.0000 0.67610  0.60731  0.54949  Biso   1.000  H
  H244     1.0000 0.60021  0.53800  0.53659  Biso   1.000  H
  C164     1.0000 0.59897  0.65178  0.60402  Biso   1.000  C
  H245     1.0000 0.66999  0.72217  0.57119  Biso   1.000  H
  H246     1.0000 0.59010  0.71817  0.57150  Biso   1.000  H
  N25      1.0000 0.64091  0.49690  0.58618  Biso   1.000  N
  C165     1.0000 0.63261  0.60057  0.60782  Biso   1.000  C
  H247     1.0000 0.54770  0.50719  0.58529  Biso   1.000  H
  H248     1.0000 0.54390  0.62199  0.60699  Biso   1.000  H
  H249     1.0000 0.61999  0.69158  0.61951  Biso   1.000  H
  C166     1.0000 0.60121  0.42832  0.59260  Biso   1.000  C
  N26      1.0000 0.61039  0.56324  0.63680  Biso   1.000  N
  H250     1.0000 0.68868  0.63121  0.60670  Biso   1.000  H
  C167     1.0000 0.63504  0.37992  0.59508  Biso   1.000  C
  H251     1.0000 0.54879  0.40741  0.59579  Biso   1.000  H
  C168     1.0000 0.66206  0.57212  0.65470  Biso   1.000  C
  C169     1.0000 0.58899  0.30222  0.59528  Biso   1.000  C
  C170     1.0000 0.71324  0.41100  0.59528  Biso   1.000  C
  C171     1.0000 0.64708  0.53924  0.68485  Biso   1.000  C
  H252     1.0000 0.71278  0.60141  0.64829  Biso   1.000  H
  C172     1.0000 0.62006  0.25511  0.59508  Biso   1.000  C
  H253     1.0000 0.53588  0.28092  0.59550  Biso   1.000  H
  C173     1.0000 0.74485  0.36496  0.59508  Biso   1.000  C
  H254     1.0000 0.74499  0.46407  0.59550  Biso   1.000  H
  C174     1.0000 0.57410  0.48735  0.69437  Biso   1.000  C
  C175     1.0000 0.70600  0.56020  0.70476  Biso   1.000  C
  C176     1.0000 0.57166  0.17292  0.59260  Biso   1.000  C
  C177     1.0000 0.69776  0.28676  0.59528  Biso   1.000  C
  C178     1.0000 0.82708  0.39875  0.59260  Biso   1.000  C
  C179     1.0000 0.56052  0.45727  0.72298  Biso   1.000  C
  H255     1.0000 0.53319  0.47262  0.68101  Biso   1.000  H
  C180     1.0000 0.69365  0.53131  0.73357  Biso   1.000  C
  H256     1.0000 0.75578  0.59500  0.69859  Biso   1.000  H
  N27      1.0000 0.50305  0.14397  0.58618  Biso   1.000  N
  H257     1.0000 0.59260  0.14139  0.59579  Biso   1.000  H
  H258     1.0000 0.71908  0.25500  0.59550  Biso   1.000  H
  N28      1.0000 0.85597  0.35906  0.58618  Biso   1.000  N
  H259     1.0000 0.85861  0.45120  0.59579  Biso   1.000  H
  C181     1.0000 0.48235  0.40268  0.73140  Biso   1.000  C
  C182     1.0000 0.62080  0.47948  0.74266  Biso   1.000  C
  C183     1.0000 0.75653  0.55784  0.75516  Biso   1.000  C
  C184     1.0000 0.45915  0.06240  0.58312  Biso   1.000  C
  C185     1.0000 0.93755  0.39672  0.58312  Biso   1.000  C
  N29      1.0000 0.46181  0.37649  0.75710  Biso   1.000  N
  H260     1.0000 0.44498  0.38627  0.71629  Biso   1.000  H
  H261     1.0000 0.61217  0.45929  0.76231  Biso   1.000  H
  N30      1.0000 0.82273  0.60748  0.74796  Biso   1.000  N
  H262     1.0000 0.74699  0.53721  0.77471  Biso   1.000  H
  C186     1.0000 0.42249  0.04351  0.55219  Biso   1.000  C
  C187     1.0000 0.39942  0.03204  0.60782  Biso   1.000  C
  H263     1.0000 0.49278  0.04048  0.58529  Biso   1.000  H
  C188     1.0000 0.96792  0.36738  0.60782  Biso   1.000  C
  H264     1.0000 0.95948  0.45227  0.58529  Biso   1.000  H
  C189     1.0000 0.95650  0.37902  0.55219  Biso   1.000  C
  C190     1.0000 0.38109  0.32460  0.76119  Biso   1.000  C
  C191     1.0000 0.88029  0.63284  0.77122  Biso   1.000  C
  H265     1.0000 0.39268  0.06881  0.54949  Biso   1.000  H
  H266     1.0000 0.46200  0.06218  0.53659  Biso   1.000  H
  C192     1.0000 0.37141  0.95879  0.54860  Biso   1.000  C
  N31      1.0000 0.43673  0.04717  0.63680  Biso   1.000  N
  H267     1.0000 0.36882  0.05751  0.60670  Biso   1.000  H
  C193     1.0000 0.34819  0.94721  0.60402  Biso   1.000  C
  N32      1.0000 0.95283  0.38958  0.63680  Biso   1.000  N
  H268     1.0000 0.94249  0.31127  0.60670  Biso   1.000  H
  C194     1.0000 0.05279  0.40100  0.60402  Biso   1.000  C
  H269     1.0000 0.93119  0.32392  0.54949  Biso   1.000  H
  H270     1.0000 0.93779  0.39982  0.53659  Biso   1.000  H
  C195     1.0000 0.04120  0.41258  0.54860  Biso   1.000  C
  C196     1.0000 0.36713  0.24741  0.77122  Biso   1.000  C
  H271     1.0000 0.35439  0.31920  0.74179  Biso   1.000  H
  C197     1.0000 0.35112  0.35647  0.78475  Biso   1.000  C
  C198     1.0000 0.94348  0.61889  0.76119  Biso   1.000  C
  C199     1.0000 0.91317  0.71778  0.77574  Biso   1.000  C
  H272     1.0000 0.85782  0.60552  0.79031  Biso   1.000  H
  H273     1.0000 0.40200  0.93389  0.54931  Biso   1.000  H
  H274     1.0000 0.34621  0.94811  0.52891  Biso   1.000  H
  C200     1.0000 0.31199  0.92720  0.57340  Biso   1.000  C
  C201     1.0000 0.42789  0.08995  0.65470  Biso   1.000  C
  H275     1.0000 0.37800  0.92191  0.60699  Biso   1.000  H
  H276     1.0000 0.30840  0.92838  0.61951  Biso   1.000  H
  C202     1.0000 0.91005  0.33792  0.65470  Biso   1.000  C
  C203     1.0000 0.07278  0.38481  0.57340  Biso   1.000  C
  H277     1.0000 0.07809  0.45609  0.60699  Biso   1.000  H
  H278     1.0000 0.07158  0.37997  0.61951  Biso   1.000  H
  H279     1.0000 0.06610  0.46812  0.54931  Biso   1.000  H
  H280     1.0000 0.05191  0.39807  0.52891  Biso   1.000  H
  N33      1.0000 0.39249  0.21526  0.74796  Biso   1.000  N
  C204     1.0000 0.28222  0.19541  0.77574  Biso   1.000  C
  H281     1.0000 0.39451  0.25230  0.79031  Biso   1.000  H
  H282     1.0000 0.36149  0.40701  0.77851  Biso   1.000  H
  H283     1.0000 0.37748  0.36187  0.80390  Biso   1.000  H
  C205     1.0000 0.26656  0.30537  0.78924  Biso   1.000  C
  N34      1.0000 0.91465  0.53817  0.75710  Biso   1.000  N
  H284     1.0000 0.96477  0.64560  0.74179  Biso   1.000  H
  C206     1.0000 0.00534  0.64886  0.78475  Biso   1.000  C
  C207     1.0000 0.97758  0.75078  0.79798  Biso   1.000  C
  H285     1.0000 0.93138  0.74358  0.75630  Biso   1.000  H
  H286     1.0000 0.87298  0.72717  0.78289  Biso   1.000  H
  H287     1.0000 0.27778  0.94777  0.57119  Biso   1.000  H
  H288     1.0000 0.28180  0.87188  0.57150  Biso   1.000  H
  C208     1.0000 0.46073  0.10782  0.68485  Biso   1.000  C
  H289     1.0000 0.39860  0.11142  0.64829  Biso   1.000  H
  C209     1.0000 0.89214  0.35293  0.68485  Biso   1.000  C
  H290     1.0000 0.88859  0.28721  0.64829  Biso   1.000  H
  H291     1.0000 0.05219  0.32999  0.57119  Biso   1.000  H
  H292     1.0000 0.12811  0.40988  0.57150  Biso   1.000  H
  C210     1.0000 0.44213  0.19867  0.75516  Biso   1.000  C
  C211     1.0000 0.24917  0.22678  0.79798  Biso   1.000  C
  H293     1.0000 0.25642  0.18782  0.75630  Biso   1.000  H
  H294     1.0000 0.27279  0.14577  0.78289  Biso   1.000  H
  H295     1.0000 0.24878  0.32628  0.80510  Biso   1.000  H
  H296     1.0000 0.23982  0.30301  0.77051  Biso   1.000  H
  C212     1.0000 0.92031  0.51765  0.73140  Biso   1.000  C
  H297     1.0000 0.98437  0.62249  0.80390  Biso   1.000  H
  H298     1.0000 0.04550  0.63851  0.77851  Biso   1.000  H
  C213     1.0000 0.03881  0.73341  0.78924  Biso   1.000  C
  H299     1.0000 0.95817  0.72987  0.81811  Biso   1.000  H
  H300     1.0000 0.99910  0.80599  0.79889  Biso   1.000  H
  C214     1.0000 0.51260  0.08674  0.69437  Biso   1.000  C
  C215     1.0000 0.43978  0.14577  0.70476  Biso   1.000  C
  C216     1.0000 0.91321  0.42585  0.69437  Biso   1.000  C
  C217     1.0000 0.85421  0.29402  0.70476  Biso   1.000  C
  C218     1.0000 0.46867  0.16236  0.73357  Biso   1.000  C
  H301     1.0000 0.46279  0.20980  0.77471  Biso   1.000  H
  H302     1.0000 0.27009  0.22830  0.81811  Biso   1.000  H
  H303     1.0000 0.19402  0.19311  0.79889  Biso   1.000  H
  C219     1.0000 0.89670  0.43945  0.72298  Biso   1.000  C
  H304     1.0000 0.94127  0.55498  0.71629  Biso   1.000  H
  H305     1.0000 0.07749  0.75117  0.80510  Biso   1.000  H
  H306     1.0000 0.06319  0.76017  0.77051  Biso   1.000  H
  C220     1.0000 0.54273  0.10327  0.72298  Biso   1.000  C
  H307     1.0000 0.52738  0.06060  0.68101  Biso   1.000  H
  H308     1.0000 0.40498  0.16078  0.69859  Biso   1.000  H
  H309     1.0000 0.93937  0.46677  0.68101  Biso   1.000  H
  C221     1.0000 0.83763  0.30633  0.73357  Biso   1.000  C
  H310     1.0000 0.83919  0.24421  0.69859  Biso   1.000  H
  C222     1.0000 0.52047  0.14133  0.74266  Biso   1.000  C
  C223     1.0000 0.85865  0.37913  0.74266  Biso   1.000  C
  C224     1.0000 0.59733  0.07966  0.73140  Biso   1.000  C
  C225     1.0000 0.80129  0.24348  0.75516  Biso   1.000  C
  H311     1.0000 0.54072  0.15291  0.76231  Biso   1.000  H
  H312     1.0000 0.84711  0.38779  0.76231  Biso   1.000  H
  N35      1.0000 0.62354  0.08534  0.75710  Biso   1.000  N
  H313     1.0000 0.61367  0.05869  0.71629  Biso   1.000  H
  N36      1.0000 0.78473  0.17725  0.74796  Biso   1.000  N
  H314     1.0000 0.79017  0.25298  0.77471  Biso   1.000  H
  C226     1.0000 0.67538  0.05650  0.76119  Biso   1.000  C
  C227     1.0000 0.75254  0.11969  0.77122  Biso   1.000  C
  H315     1.0000 0.68079  0.03519  0.74179  Biso   1.000  H
  C228     1.0000 0.64353  0.99466  0.78475  Biso   1.000  C
  C229     1.0000 0.80455  0.08680  0.77574  Biso   1.000  C
  H316     1.0000 0.74767  0.14217  0.79031  Biso   1.000  H
  H317     1.0000 0.63807  0.01557  0.80390  Biso   1.000  H
  H318     1.0000 0.59299  0.95452  0.77851  Biso   1.000  H
  C230     1.0000 0.69458  0.96121  0.78924  Biso   1.000  C
  C231     1.0000 0.77316  0.02237  0.79798  Biso   1.000  C
  H319     1.0000 0.81219  0.06858  0.75630  Biso   1.000  H
  H320     1.0000 0.85420  0.12699  0.78289  Biso   1.000  H
  H321     1.0000 0.67370  0.92248  0.80510  Biso   1.000  H
  H322     1.0000 0.69698  0.93681  0.77051  Biso   1.000  H
  H323     1.0000 0.77169  0.04183  0.81811  Biso   1.000  H
  H324     1.0000 0.80688  0.00090  0.79889  Biso   1.000  H
  C232     1.0000 0.86207  0.61558  0.55760  Biso   1.000  C
  C233     1.0000 0.89345  0.58252  0.53534  Biso   1.000  C
  H325     1.0000 0.85445  0.58972  0.57704  Biso   1.000  H
  H326     1.0000 0.81246  0.60613  0.55043  Biso   1.000  H
  C234     1.0000 0.91411  0.70047  0.56209  Biso   1.000  C
  C235     1.0000 0.97208  0.59995  0.54410  Biso   1.000  C
  H327     1.0000 0.89495  0.60344  0.51523  Biso   1.000  H
  H328     1.0000 0.85976  0.52732  0.53443  Biso   1.000  H
  C236     1.0000 0.99124  0.71441  0.57215  Biso   1.000  C
  N37      1.0000 0.88190  0.72582  0.58536  Biso   1.000  N
  H329     1.0000 0.91899  0.72784  0.54303  Biso   1.000  H
  H330     1.0000 0.99296  0.58213  0.52824  Biso   1.000  H
  H331     1.0000 0.96967  0.57313  0.56283  Biso   1.000  H
  C237     1.0000 0.02314  0.68444  0.54860  Biso   1.000  C
  H332     1.0000 0.98582  0.68770  0.59153  Biso   1.000  H
  N38      1.0000 0.04314  0.79514  0.57622  Biso   1.000  N
  C238     1.0000 0.86533  0.77546  0.57818  Biso   1.000  C
  H333     1.0000 0.07366  0.69484  0.55483  Biso   1.000  H
  H334     1.0000 0.02858  0.71081  0.52944  Biso   1.000  H
  C239     1.0000 0.06932  0.81565  0.60194  Biso   1.000  C
  H335     1.0000 0.87646  0.79615  0.55863  Biso   1.000  H
  C240     1.0000 0.82899  0.80199  0.59977  Biso   1.000  C
  C241     1.0000 0.12395  0.89385  0.61036  Biso   1.000  C
  H336     1.0000 0.05299  0.77833  0.61702  Biso   1.000  H
  C242     1.0000 0.80797  0.85383  0.59068  Biso   1.000  C
  C243     1.0000 0.81245  0.77310  0.62858  Biso   1.000  C
  C244     1.0000 0.14617  0.95417  0.59068  Biso   1.000  C
  C245     1.0000 0.15407  0.90746  0.63897  Biso   1.000  C
  H337     1.0000 0.81953  0.87401  0.57103  Biso   1.000  H
  C246     1.0000 0.76991  0.87603  0.61036  Biso   1.000  C
  C247     1.0000 0.77449  0.79407  0.64849  Biso   1.000  C
  H338     1.0000 0.82743  0.73830  0.63472  Biso   1.000  H
  H339     1.0000 0.12597  0.94552  0.57103  Biso   1.000  H
  C248     1.0000 0.19796  0.02698  0.59977  Biso   1.000  C
  H340     1.0000 0.13925  0.86653  0.65233  Biso   1.000  H
  C249     1.0000 0.20594  0.98043  0.64849  Biso   1.000  C
  C250     1.0000 0.75341  0.84596  0.63897  Biso   1.000  C
  C251     1.0000 0.74635  0.93068  0.60194  Biso   1.000  C
  C252     1.0000 0.75659  0.76118  0.67864  Biso   1.000  C
  C253     1.0000 0.22447  0.08983  0.57818  Biso   1.000  C
  C254     1.0000 0.22688  0.03934  0.62858  Biso   1.000  C
  C255     1.0000 0.23878  0.99538  0.67864  Biso   1.000  C
  H341     1.0000 0.72725  0.86074  0.65233  Biso   1.000  H
  N39      1.0000 0.75200  0.95687  0.57622  Biso   1.000  N
  H342     1.0000 0.72537  0.94703  0.61702  Biso   1.000  H
  N40      1.0000 0.71380  0.77006  0.69654  Biso   1.000  N
  H343     1.0000 0.77805  0.73195  0.68503  Biso   1.000  H
  N41      1.0000 0.27413  0.15605  0.58536  Biso   1.000  N
  H344     1.0000 0.20384  0.08033  0.55863  Biso   1.000  H
  H345     1.0000 0.26164  0.08910  0.63472  Biso   1.000  H
  N42      1.0000 0.22989  0.94372  0.69654  Biso   1.000  N
  H346     1.0000 0.26806  0.04615  0.68503  Biso   1.000  H
  C256     1.0000 0.72314  0.00870  0.57215  Biso   1.000  C
  C257     1.0000 0.69872  0.73279  0.72552  Biso   1.000  C
  C258     1.0000 0.29951  0.21362  0.56209  Biso   1.000  C
  C259     1.0000 0.26724  0.96592  0.72552  Biso   1.000  C
  C260     1.0000 0.66133  0.97689  0.54860  Biso   1.000  C
  H347     1.0000 0.70184  0.01410  0.59153  Biso   1.000  H
  C261     1.0000 0.78637  0.08589  0.56209  Biso   1.000  C
  H348     1.0000 0.72413  0.70210  0.72664  Biso   1.000  H
  C262     1.0000 0.72906  0.79249  0.75020  Biso   1.000  C
  C263     1.0000 0.61384  0.68152  0.72932  Biso   1.000  C
  C264     1.0000 0.28558  0.27680  0.57215  Biso   1.000  C
  C265     1.0000 0.38440  0.24650  0.55760  Biso   1.000  C
  H349     1.0000 0.27215  0.19113  0.54303  Biso   1.000  H
  C266     1.0000 0.20748  0.93658  0.75020  Biso   1.000  C
  C267     1.0000 0.31844  0.93231  0.72932  Biso   1.000  C
  H350     1.0000 0.29787  0.02203  0.72664  Biso   1.000  H
  H351     1.0000 0.62116  0.92635  0.55483  Biso   1.000  H
  H352     1.0000 0.68226  0.97143  0.52944  Biso   1.000  H
  C268     1.0000 0.62784  0.02793  0.54410  Biso   1.000  C
  N43      1.0000 0.84388  0.11805  0.58536  Biso   1.000  N
  C269     1.0000 0.75346  0.13789  0.55760  Biso   1.000  C
  H353     1.0000 0.80885  0.08100  0.54303  Biso   1.000  H
  N44      1.0000 0.81065  0.83640  0.74713  Biso   1.000  N
  H354     1.0000 0.70716  0.82611  0.74803  Biso   1.000  H
  C270     1.0000 0.71015  0.75584  0.78112  Biso   1.000  C
  C271     1.0000 0.59384  0.64532  0.75992  Biso   1.000  C
  H355     1.0000 0.58857  0.71132  0.72633  Biso   1.000  H
  H356     1.0000 0.59506  0.64172  0.71384  Biso   1.000  H
  N45      1.0000 0.20485  0.24796  0.57622  Biso   1.000  N
  H357     1.0000 0.31225  0.29811  0.59153  Biso   1.000  H
  C272     1.0000 0.31552  0.33864  0.54860  Biso   1.000  C
  C273     1.0000 0.41744  0.31093  0.53534  Biso   1.000  C
  H358     1.0000 0.41026  0.26472  0.57704  Biso   1.000  H
  H359     1.0000 0.39386  0.20631  0.55043  Biso   1.000  H
  N46      1.0000 0.16361  0.97424  0.74713  Biso   1.000  N
  H360     1.0000 0.17387  0.88104  0.74803  Biso   1.000  H
  C274     1.0000 0.24416  0.95434  0.78112  Biso   1.000  C
  C275     1.0000 0.35463  0.94850  0.75992  Biso   1.000  C
  H361     1.0000 0.28865  0.87721  0.72633  Biso   1.000  H
  H362     1.0000 0.35826  0.95333  0.71384  Biso   1.000  H
  H363     1.0000 0.58915  0.00702  0.52824  Biso   1.000  H
  H364     1.0000 0.60349  0.03035  0.56283  Biso   1.000  H
  C276     1.0000 0.68905  0.10652  0.53534  Biso   1.000  C
  C277     1.0000 0.91011  0.13463  0.57818  Biso   1.000  C
  H365     1.0000 0.73528  0.14554  0.57704  Biso   1.000  H
  H366     1.0000 0.79367  0.18753  0.55043  Biso   1.000  H
  C278     1.0000 0.83954  0.90498  0.74074  Biso   1.000  C
  H367     1.0000 0.73547  0.72604  0.78383  Biso   1.000  H
  H368     1.0000 0.72886  0.79530  0.79672  Biso   1.000  H
  C279     1.0000 0.62545  0.70474  0.78475  Biso   1.000  C
  H369     1.0000 0.61448  0.61114  0.76213  Biso   1.000  H
  H370     1.0000 0.53858  0.61513  0.76184  Biso   1.000  H
  C280     1.0000 0.18432  0.25364  0.60194  Biso   1.000  C
  H371     1.0000 0.30514  0.37884  0.55483  Biso   1.000  H
  H372     1.0000 0.28915  0.31773  0.52944  Biso   1.000  H
  C281     1.0000 0.40002  0.37209  0.54410  Biso   1.000  C
  H373     1.0000 0.39655  0.29153  0.51523  Biso   1.000  H
  H374     1.0000 0.47263  0.33240  0.53443  Biso   1.000  H
  C282     1.0000 0.09498  0.93455  0.74074  Biso   1.000  C
  H375     1.0000 0.20470  0.93354  0.79672  Biso   1.000  H
  C283     1.0000 0.29527  0.92072  0.78475  Biso   1.000  C
  H376     1.0000 0.27395  0.00944  0.78383  Biso   1.000  H
  H377     1.0000 0.38489  0.92342  0.76184  Biso   1.000  H
  H378     1.0000 0.38885  0.00331  0.76213  Biso   1.000  H
  H379     1.0000 0.70844  0.10500  0.51523  Biso   1.000  H
  H380     1.0000 0.66752  0.14020  0.53443  Biso   1.000  H
  H381     1.0000 0.91964  0.12350  0.55863  Biso   1.000  H
  C284     1.0000 0.97296  0.17095  0.59977  Biso   1.000  C
  H382     1.0000 0.80803  0.92590  0.73752  Biso   1.000  H
  C285     1.0000 0.92180  0.95344  0.73824  Biso   1.000  C
  H383     1.0000 0.60057  0.73532  0.78403  Biso   1.000  H
  H384     1.0000 0.61472  0.67950  0.80443  Biso   1.000  H
  C286     1.0000 0.10611  0.23003  0.61036  Biso   1.000  C
  H385     1.0000 0.22168  0.27461  0.61702  Biso   1.000  H
  H386     1.0000 0.41788  0.41083  0.52824  Biso   1.000  H
  H387     1.0000 0.42682  0.39649  0.56283  Biso   1.000  H
  H388     1.0000 0.07406  0.88210  0.73752  Biso   1.000  H
  C287     1.0000 0.04654  0.96834  0.73824  Biso   1.000  C
  H389     1.0000 0.26465  0.86524  0.78403  Biso   1.000  H
  H390     1.0000 0.32049  0.93523  0.80443  Biso   1.000  H
  C288     1.0000 0.96066  0.18753  0.62858  Biso   1.000  C
  C289     1.0000 0.04579  0.19197  0.59068  Biso   1.000  C
  C290     1.0000 0.96889  0.92230  0.73806  Biso   1.000  C
  C291     1.0000 0.95342  0.03108  0.73806  Biso   1.000  C
  C292     1.0000 0.09251  0.24656  0.63897  Biso   1.000  C
  C293     1.0000 0.07765  0.04654  0.73806  Biso   1.000  C
  H391     1.0000 0.91085  0.17252  0.63472  Biso   1.000  H
  C294     1.0000 0.01955  0.22548  0.64849  Biso   1.000  C
  H392     1.0000 0.05449  0.18045  0.57103  Biso   1.000  H
  H393     1.0000 0.94757  0.86923  0.73784  Biso   1.000  H
  H394     1.0000 0.92164  0.05244  0.73784  Biso   1.000  H
  C295     1.0000 0.03165  0.07819  0.73824  Biso   1.000  C
  H395     1.0000 0.13343  0.27270  0.65233  Biso   1.000  H
  H396     1.0000 0.13073  0.07830  0.73784  Biso   1.000  H
  C296     1.0000 0.00459  0.24336  0.67864  Biso   1.000  C
  C297     1.0000 0.06547  0.16043  0.74074  Biso   1.000  C
  H397     1.0000 0.95386  0.22194  0.68503  Biso   1.000  H
  N47      1.0000 0.05621  0.28614  0.69654  Biso   1.000  N
  N48      1.0000 0.02573  0.18933  0.74713  Biso   1.000  N
  H398     1.0000 0.11787  0.19192  0.73752  Biso   1.000  H
  C298     1.0000 0.03403  0.30126  0.72552  Biso   1.000  C
  C299     1.0000 0.06340  0.27090  0.75020  Biso   1.000  C
  H399     1.0000 0.97792  0.27579  0.72664  Biso   1.000  H
  C300     1.0000 0.06763  0.38609  0.72932  Biso   1.000  C
  H400     1.0000 0.11895  0.29283  0.74803  Biso   1.000  H
  C301     1.0000 0.04565  0.28985  0.78112  Biso   1.000  C
  C302     1.0000 0.05145  0.40610  0.75992  Biso   1.000  C
  H401     1.0000 0.12276  0.41144  0.72633  Biso   1.000  H
  H402     1.0000 0.04667  0.40492  0.71384  Biso   1.000  H
  H403     1.0000 0.99052  0.26449  0.78383  Biso   1.000  H
  H404     1.0000 0.06648  0.27113  0.79672  Biso   1.000  H
  C303     1.0000 0.07927  0.37451  0.78475  Biso   1.000  C
  H405     1.0000 0.99666  0.38553  0.76213  Biso   1.000  H
  H406     1.0000 0.07657  0.46142  0.76184  Biso   1.000  H
  H407     1.0000 0.13476  0.39941  0.78403  Biso   1.000  H
  H408     1.0000 0.06475  0.38519  0.80443  Biso   1.000  H
  C304     1.0000 0.50699  0.54261  0.18120  Biso   1.000  C
  O19      1.0000 0.43230  0.53080  0.18301  Biso   1.000  O
  H409     1.0000 0.53251  0.56122  0.20039  Biso   1.000  H
  H410     1.0000 0.53498  0.57960  0.16551  Biso   1.000  H
  H411     1.0000 0.50490  0.49499  0.17639  Biso   1.000  H
  O20      1.0000 0.53500  0.62199  0.17550  Biso   1.000  O
  H412     1.0000 0.40129  0.48437  0.18269  Biso   1.000  H
  C305     1.0000 0.37098  0.55200  0.18681  Biso   1.000  C
  H413     1.0000 0.40470  0.53170  0.18479  Biso   1.000  H
  C306     1.0000 0.50096  0.66668  0.16669  Biso   1.000  C
  H414     1.0000 0.49434  0.62373  0.17863  Biso   1.000  H
  H415     1.0000 0.58008  0.64459  0.17040  Biso   1.000  H
  O21      1.0000 0.37569  0.59500  0.16039  Biso   1.000  O
  H416     1.0000 0.38469  0.58438  0.20451  Biso   1.000  H
  H417     1.0000 0.31886  0.51017  0.18911  Biso   1.000  H
  H418     1.0000 0.48758  0.68489  0.18450  Biso   1.000  H
  H419     1.0000 0.46934  0.64841  0.14884  Biso   1.000  H
  H420     1.0000 0.45601  0.63559  0.15480  Biso   1.000  H
  H421     1.0000 0.48707  0.69771  0.17854  Biso   1.000  H
  H422     1.0000 0.53726  0.70957  0.15469  Biso   1.000  H
  O22      1.0000 0.57966  0.71132  0.15784  Biso   1.000  O
  O23      1.0000 0.29096  0.55261  0.17293  Biso   1.000  O
  H423     1.0000 0.40229  0.64099  0.16419  Biso   1.000  H
  C307     1.0000 0.63103  0.79069  0.15214  Biso   1.000  C
  H424     1.0000 0.62203  0.75370  0.16783  Biso   1.000  H
  H425     1.0000 0.60215  0.68872  0.16294  Biso   1.000  H
  H426     1.0000 0.26434  0.57201  0.16913  Biso   1.000  H
  C308     1.0000 0.29568  0.51433  0.14653  Biso   1.000  C
  O24      1.0000 0.56814  0.80250  0.15033  Biso   1.000  O
  H427     1.0000 0.63797  0.77214  0.13293  Biso   1.000  H
  H428     1.0000 0.67656  0.83831  0.15693  Biso   1.000  H
  O25      1.0000 0.23435  0.43180  0.15033  Biso   1.000  O
  H429     1.0000 0.28196  0.53305  0.12884  Biso   1.000  H
  H430     1.0000 0.26194  0.46031  0.14852  Biso   1.000  H
  H431     1.0000 0.34775  0.52462  0.14423  Biso   1.000  H
  H432     1.0000 0.58357  0.84894  0.15062  Biso   1.000  H
  C309     1.0000 0.48564  0.78131  0.14653  Biso   1.000  C
  H433     1.0000 0.53965  0.80160  0.14852  Biso   1.000  H
  H434     1.0000 0.26536  0.41640  0.15062  Biso   1.000  H
  C310     1.0000 0.15970  0.36895  0.15214  Biso   1.000  C
  O26      1.0000 0.44734  0.73830  0.17293  Biso   1.000  O
  H435     1.0000 0.46696  0.74893  0.12884  Biso   1.000  H
  H436     1.0000 0.47534  0.82313  0.14423  Biso   1.000  H
  H437     1.0000 0.13418  0.36204  0.13293  Biso   1.000  H
  H438     1.0000 0.13167  0.37795  0.16783  Biso   1.000  H
  H439     1.0000 0.16176  0.32342  0.15693  Biso   1.000  H
  O27      1.0000 0.13169  0.42034  0.15784  Biso   1.000  O
  O28      1.0000 0.40500  0.78069  0.16039  Biso   1.000  O
  H440     1.0000 0.42795  0.69231  0.16913  Biso   1.000  H
  C311     1.0000 0.16570  0.49898  0.16669  Biso   1.000  C
  H441     1.0000 0.17228  0.46267  0.15469  Biso   1.000  H
  H442     1.0000 0.08656  0.39785  0.16294  Biso   1.000  H
  H443     1.0000 0.35898  0.76129  0.16419  Biso   1.000  H
  C312     1.0000 0.44800  0.81897  0.18681  Biso   1.000  C
  H444     1.0000 0.19730  0.51242  0.18450  Biso   1.000  H
  H445     1.0000 0.17905  0.53063  0.14884  Biso   1.000  H
  H446     1.0000 0.17960  0.54401  0.15480  Biso   1.000  H
  H447     1.0000 0.21065  0.51293  0.17854  Biso   1.000  H
  H448     1.0000 0.12934  0.50562  0.17863  Biso   1.000  H
  O29      1.0000 0.08697  0.46497  0.17550  Biso   1.000  O
  O30      1.0000 0.46920  0.90150  0.18301  Biso   1.000  O
  H449     1.0000 0.41559  0.80031  0.20451  Biso   1.000  H
  H450     1.0000 0.46829  0.87300  0.18479  Biso   1.000  H
  H451     1.0000 0.48978  0.80868  0.18911  Biso   1.000  H
  C313     1.0000 0.03558  0.49297  0.18120  Biso   1.000  C
  H452     1.0000 0.04461  0.46497  0.16551  Biso   1.000  H
  H453     1.0000 0.06452  0.41989  0.17040  Biso   1.000  H
  H454     1.0000 0.51561  0.91690  0.18269  Biso   1.000  H
  C314     1.0000 0.45742  0.96441  0.18120  Biso   1.000  C
  O31      1.0000 0.09849  0.56768  0.18301  Biso   1.000  O
  H455     1.0000 0.02869  0.46750  0.20039  Biso   1.000  H
  H456     1.0000 0.99010  0.49510  0.17639  Biso   1.000  H
  H457     1.0000 0.43880  0.97126  0.20039  Biso   1.000  H
  H458     1.0000 0.42040  0.95541  0.16551  Biso   1.000  H
  O32      1.0000 0.37800  0.91297  0.17550  Biso   1.000  O
  H459     1.0000 0.50499  0.00989  0.17639  Biso   1.000  H
  H460     1.0000 0.08310  0.59871  0.18269  Biso   1.000  H
  C315     1.0000 0.18101  0.62901  0.18681  Biso   1.000  C
  H461     1.0000 0.12700  0.59528  0.18479  Biso   1.000  H
  C316     1.0000 0.33329  0.83426  0.16669  Biso   1.000  C
  H462     1.0000 0.37626  0.87064  0.17863  Biso   1.000  H
  H463     1.0000 0.35539  0.93551  0.17040  Biso   1.000  H
  O33      1.0000 0.21930  0.62429  0.16039  Biso   1.000  O
  H464     1.0000 0.19971  0.61530  0.20451  Biso   1.000  H
  H465     1.0000 0.19127  0.68107  0.18911  Biso   1.000  H
  H466     1.0000 0.31506  0.80267  0.18450  Biso   1.000  H
  H467     1.0000 0.35156  0.82094  0.14884  Biso   1.000  H
  H468     1.0000 0.36438  0.82038  0.15480  Biso   1.000  H
  H469     1.0000 0.30227  0.78935  0.17854  Biso   1.000  H
  H470     1.0000 0.29038  0.82769  0.15469  Biso   1.000  H
  O34      1.0000 0.28864  0.86833  0.15784  Biso   1.000  O
  O35      1.0000 0.26166  0.70901  0.17293  Biso   1.000  O
  H471     1.0000 0.23872  0.59770  0.16419  Biso   1.000  H
  C317     1.0000 0.20926  0.84033  0.15214  Biso   1.000  C
  H472     1.0000 0.24629  0.86833  0.16783  Biso   1.000  H
  H473     1.0000 0.31128  0.91342  0.16294  Biso   1.000  H
  H474     1.0000 0.30767  0.73560  0.16913  Biso   1.000  H
  C318     1.0000 0.21868  0.70434  0.14653  Biso   1.000  C
  O36      1.0000 0.19747  0.76562  0.15033  Biso   1.000  O
  H475     1.0000 0.22784  0.86580  0.13293  Biso   1.000  H
  H476     1.0000 0.16165  0.83820  0.15693  Biso   1.000  H
  H477     1.0000 0.25107  0.71801  0.12884  Biso   1.000  H
  H478     1.0000 0.19837  0.73802  0.14852  Biso   1.000  H
  H479     1.0000 0.17685  0.65223  0.14423  Biso   1.000  H
  H480     1.0000 0.15106  0.73465  0.15062  Biso   1.000  H
  C319     1.0000 0.43985  0.35574  0.13132  Biso   1.000  C
  C320     1.0000 0.36123  0.29452  0.12256  Biso   1.000  C
  H481     1.0000 0.43835  0.37514  0.15143  Biso   1.000  H
  H482     1.0000 0.47353  0.33421  0.13223  Biso   1.000  H
  C321     1.0000 0.47120  0.42011  0.10906  Biso   1.000  C
  C322     1.0000 0.31019  0.32797  0.11806  Biso   1.000  C
  H483     1.0000 0.34039  0.25584  0.13842  Biso   1.000  H
  H484     1.0000 0.36364  0.27012  0.10383  Biso   1.000  H
  C323     1.0000 0.41922  0.45305  0.10457  Biso   1.000  C
  H485     1.0000 0.47887  0.40195  0.08964  Biso   1.000  H
  H486     1.0000 0.52085  0.46031  0.11623  Biso   1.000  H
  C324     1.0000 0.34208  0.38981  0.09453  Biso   1.000  C
  H487     1.0000 0.25964  0.28783  0.11183  Biso   1.000  H
  H488     1.0000 0.30475  0.34894  0.13724  Biso   1.000  H
  N49      1.0000 0.45139  0.51056  0.08130  Biso   1.000  N
  H489     1.0000 0.41435  0.47554  0.12363  Biso   1.000  H
  N50      1.0000 0.29019  0.41865  0.09044  Biso   1.000  N
  H490     1.0000 0.34745  0.36850  0.07513  Biso   1.000  H
  C325     1.0000 0.46795  0.57679  0.08848  Biso   1.000  C
  C326     1.0000 0.26398  0.41297  0.06474  Biso   1.000  C
  H491     1.0000 0.45685  0.58635  0.10803  Biso   1.000  H
  C327     1.0000 0.50429  0.63964  0.06691  Biso   1.000  C
  C328     1.0000 0.20938  0.43658  0.05629  Biso   1.000  C
  H492     1.0000 0.28037  0.39200  0.04963  Biso   1.000  H
  C329     1.0000 0.52533  0.71250  0.07598  Biso   1.000  C
  C330     1.0000 0.52087  0.62733  0.03810  Biso   1.000  C
  C331     1.0000 0.18713  0.47464  0.07598  Biso   1.000  C
  C332     1.0000 0.17926  0.42005  0.02771  Biso   1.000  C
  H493     1.0000 0.51376  0.72110  0.09563  Biso   1.000  H
  C333     1.0000 0.56335  0.77276  0.05629  Biso   1.000  C
  C334     1.0000 0.55885  0.68624  0.01817  Biso   1.000  C
  H494     1.0000 0.50585  0.57752  0.03194  Biso   1.000  H
  C335     1.0000 0.13532  0.49567  0.06691  Biso   1.000  C
  H495     1.0000 0.20738  0.48622  0.09563  Biso   1.000  H
  H496     1.0000 0.19404  0.39391  0.01432  Biso   1.000  H
  C336     1.0000 0.12741  0.44119  0.01817  Biso   1.000  C
  C337     1.0000 0.57990  0.75921  0.02771  Biso   1.000  C
  C338     1.0000 0.58700  0.85102  0.06474  Biso   1.000  C
  C339     1.0000 0.57674  0.67129  0.98804  Biso   1.000  C
  C340     1.0000 0.10881  0.53204  0.08848  Biso   1.000  C
  C341     1.0000 0.10646  0.47914  0.03810  Biso   1.000  C
  C342     1.0000 0.09454  0.42326  0.98804  Biso   1.000  C
  H497     1.0000 0.60606  0.80014  0.01432  Biso   1.000  H
  N51      1.0000 0.58131  0.87148  0.09044  Biso   1.000  N
  H498     1.0000 0.60795  0.88834  0.04963  Biso   1.000  H
  N52      1.0000 0.61948  0.72290  0.97014  Biso   1.000  N
  H499     1.0000 0.55525  0.62053  0.98163  Biso   1.000  H
  N53      1.0000 0.05914  0.54857  0.08130  Biso   1.000  N
  H500     1.0000 0.12944  0.54311  0.10803  Biso   1.000  H
  H501     1.0000 0.07166  0.49415  0.03194  Biso   1.000  H
  N54      1.0000 0.10338  0.38048  0.97014  Biso   1.000  N
  H502     1.0000 0.06526  0.44473  0.98163  Biso   1.000  H
  C343     1.0000 0.61013  0.95221  0.09453  Biso   1.000  C
  C344     1.0000 0.63462  0.70069  0.94114  Biso   1.000  C
  C345     1.0000 0.03382  0.58078  0.10457  Biso   1.000  C
  C346     1.0000 0.06608  0.36536  0.94114  Biso   1.000  C
  H503     1.0000 0.63147  0.97891  0.07513  Biso   1.000  H
  C347     1.0000 0.67200  0.98217  0.11806  Biso   1.000  C
  C348     1.0000 0.54695  0.96615  0.10457  Biso   1.000  C
  H504     1.0000 0.60918  0.64464  0.94004  Biso   1.000  H
  C349     1.0000 0.60424  0.73009  0.91646  Biso   1.000  C
  C350     1.0000 0.71944  0.73431  0.93736  Biso   1.000  C
  C351     1.0000 0.04775  0.65791  0.09453  Biso   1.000  C
  H505     1.0000 0.06116  0.58561  0.12363  Biso   1.000  H
  C352     1.0000 0.94891  0.52878  0.10906  Biso   1.000  C
  H506     1.0000 0.03548  0.39082  0.94004  Biso   1.000  H
  C353     1.0000 0.12583  0.39577  0.91646  Biso   1.000  C
  C354     1.0000 0.01485  0.28052  0.93736  Biso   1.000  C
  H507     1.0000 0.71215  0.97183  0.11183  Biso   1.000  H
  H508     1.0000 0.65103  0.95580  0.13724  Biso   1.000  H
  C355     1.0000 0.70546  0.06672  0.12256  Biso   1.000  C
  N55      1.0000 0.48938  0.94079  0.08130  Biso   1.000  N
  H509     1.0000 0.52448  0.93883  0.12363  Biso   1.000  H
  C356     1.0000 0.57983  0.05109  0.10906  Biso   1.000  C
  N56      1.0000 0.52270  0.69243  0.91953  Biso   1.000  N
  H510     1.0000 0.62617  0.78563  0.91863  Biso   1.000  H
  C357     1.0000 0.62316  0.71233  0.88553  Biso   1.000  C
  C358     1.0000 0.73944  0.71812  0.90674  Biso   1.000  C
  H511     1.0000 0.74475  0.78940  0.94033  Biso   1.000  H
  H512     1.0000 0.73827  0.71334  0.95282  Biso   1.000  H
  N57      1.0000 0.12851  0.70980  0.09044  Biso   1.000  N
  H513     1.0000 0.02105  0.65251  0.07513  Biso   1.000  H
  C359     1.0000 0.01777  0.68978  0.11806  Biso   1.000  C
  C360     1.0000 0.91586  0.56015  0.13132  Biso   1.000  C
  H514     1.0000 0.92308  0.52113  0.08964  Biso   1.000  H
  H515     1.0000 0.93947  0.47914  0.11623  Biso   1.000  H
  N58      1.0000 0.16973  0.47734  0.91953  Biso   1.000  N
  H516     1.0000 0.15946  0.37384  0.91863  Biso   1.000  H
  C361     1.0000 0.08914  0.37682  0.88553  Biso   1.000  C
  C362     1.0000 0.97865  0.26051  0.90674  Biso   1.000  C
  H517     1.0000 0.97508  0.26175  0.95282  Biso   1.000  H
  H518     1.0000 0.04465  0.25523  0.94033  Biso   1.000  H
  H519     1.0000 0.74417  0.08454  0.13842  Biso   1.000  H
  H520     1.0000 0.72987  0.09354  0.10383  Biso   1.000  H
  C363     1.0000 0.64426  0.08415  0.13132  Biso   1.000  C
  C364     1.0000 0.42318  0.89115  0.08848  Biso   1.000  C
  H521     1.0000 0.59804  0.07690  0.08964  Biso   1.000  H
  H522     1.0000 0.53966  0.06054  0.11623  Biso   1.000  H
  C365     1.0000 0.49376  0.73212  0.92592  Biso   1.000  C
  H523     1.0000 0.59785  0.65723  0.88283  Biso   1.000  H
  H524     1.0000 0.60444  0.73313  0.86994  Biso   1.000  H
  C366     1.0000 0.70788  0.74595  0.88191  Biso   1.000  C
  H525     1.0000 0.71885  0.66331  0.90453  Biso   1.000  H
  H526     1.0000 0.79475  0.74325  0.90484  Biso   1.000  H
  C367     1.0000 0.14901  0.73600  0.06474  Biso   1.000  C
  H527     1.0000 0.02815  0.74032  0.11183  Biso   1.000  H
  H528     1.0000 0.04416  0.69524  0.13724  Biso   1.000  H
  C368     1.0000 0.93325  0.63874  0.12256  Biso   1.000  C
  H529     1.0000 0.93674  0.56161  0.15143  Biso   1.000  H
  H530     1.0000 0.86063  0.52642  0.13223  Biso   1.000  H
  C369     1.0000 0.23837  0.50624  0.92592  Biso   1.000  C
  H531     1.0000 0.05939  0.40212  0.88283  Biso   1.000  H
  H532     1.0000 0.12869  0.39554  0.86994  Biso   1.000  H
  C370     1.0000 0.03807  0.29210  0.88191  Biso   1.000  C
  H533     1.0000 0.94447  0.28114  0.90453  Biso   1.000  H
  H534     1.0000 0.94849  0.20525  0.90484  Biso   1.000  H
  H535     1.0000 0.62485  0.06324  0.15143  Biso   1.000  H
  H536     1.0000 0.66575  0.13930  0.13223  Biso   1.000  H
  H537     1.0000 0.41365  0.87052  0.10803  Biso   1.000  H
  C371     1.0000 0.36030  0.86462  0.06691  Biso   1.000  C
  H538     1.0000 0.52526  0.78451  0.92913  Biso   1.000  H
  C372     1.0000 0.41150  0.69827  0.92842  Biso   1.000  C
  H539     1.0000 0.73275  0.80143  0.88263  Biso   1.000  H
  H540     1.0000 0.71854  0.73144  0.86223  Biso   1.000  H
  C373     1.0000 0.22723  0.79058  0.05629  Biso   1.000  C
  H541     1.0000 0.11167  0.71964  0.04963  Biso   1.000  H
  H542     1.0000 0.91544  0.65960  0.13842  Biso   1.000  H
  H543     1.0000 0.90648  0.63632  0.10383  Biso   1.000  H
  H544     1.0000 0.25929  0.47475  0.92913  Biso   1.000  H
  C374     1.0000 0.28679  0.58848  0.92842  Biso   1.000  C
  H545     1.0000 0.06868  0.26726  0.88263  Biso   1.000  H
  H546     1.0000 0.01286  0.28142  0.86223  Biso   1.000  H
  C375     1.0000 0.28753  0.81284  0.07598  Biso   1.000  C
  C376     1.0000 0.37266  0.89352  0.03810  Biso   1.000  C
  C377     1.0000 0.36442  0.62008  0.92860  Biso   1.000  C
  C378     1.0000 0.37990  0.74432  0.92860  Biso   1.000  C
  C379     1.0000 0.24079  0.82071  0.02771  Biso   1.000  C
  C380     1.0000 0.25564  0.63554  0.92860  Biso   1.000  C
  H547     1.0000 0.27887  0.79261  0.09563  Biso   1.000  H
  C381     1.0000 0.31373  0.87255  0.01817  Biso   1.000  C
  H548     1.0000 0.42243  0.92831  0.03194  Biso   1.000  H
  H549     1.0000 0.38573  0.58831  0.92884  Biso   1.000  H
  C382     1.0000 0.30170  0.71323  0.92842  Biso   1.000  C
  H550     1.0000 0.41167  0.79744  0.92884  Biso   1.000  H
  H551     1.0000 0.19985  0.80593  0.01432  Biso   1.000  H
  H552     1.0000 0.20259  0.61423  0.92884  Biso   1.000  H
  C383     1.0000 0.32871  0.90543  0.98804  Biso   1.000  C
  C384     1.0000 0.26786  0.76163  0.92592  Biso   1.000  C
  N59      1.0000 0.27708  0.89661  0.97014  Biso   1.000  N
  H553     1.0000 0.37948  0.93472  0.98163  Biso   1.000  H
  N60      1.0000 0.30759  0.83027  0.91953  Biso   1.000  N
  H554     1.0000 0.21544  0.74072  0.92913  Biso   1.000  H
  C385     1.0000 0.29927  0.93388  0.94114  Biso   1.000  C
  C386     1.0000 0.26992  0.87412  0.91646  Biso   1.000  C
  H555     1.0000 0.35538  0.96452  0.94004  Biso   1.000  H
  C387     1.0000 0.26567  0.98509  0.93736  Biso   1.000  C
  H556     1.0000 0.21436  0.84050  0.91863  Biso   1.000  H
  C388     1.0000 0.28765  0.91083  0.88553  Biso   1.000  C
  H557     1.0000 0.21056  0.95530  0.94033  Biso   1.000  H
  C389     1.0000 0.28183  0.02130  0.90674  Biso   1.000  C
  H558     1.0000 0.28667  0.02495  0.95282  Biso   1.000  H
  H559     1.0000 0.34276  0.94063  0.88283  Biso   1.000  H
  H560     1.0000 0.26686  0.87131  0.86994  Biso   1.000  H
  C390     1.0000 0.25409  0.96193  0.88191  Biso   1.000  C
  H561     1.0000 0.33668  0.05553  0.90453  Biso   1.000  H
  H562     1.0000 0.25678  0.05154  0.90484  Biso   1.000  H
  H563     1.0000 0.19856  0.93129  0.88263  Biso   1.000  H
  H564     1.0000 0.26858  0.98712  0.86223  Biso   1.000  H
  C391     1.0000 0.54258  0.50697  0.81880  Biso   1.000  C
  O37      1.0000 0.53081  0.43231  0.81699  Biso   1.000  O
  H565     1.0000 0.56118  0.53249  0.79961  Biso   1.000  H
  H566     1.0000 0.57958  0.53502  0.83449  Biso   1.000  H
  H567     1.0000 0.49499  0.50489  0.82361  Biso   1.000  H
  O38      1.0000 0.62199  0.53502  0.82450  Biso   1.000  O
  C392     1.0000 0.55199  0.37098  0.81319  Biso   1.000  C
  H568     1.0000 0.53171  0.40471  0.81521  Biso   1.000  H
  H569     1.0000 0.48438  0.40128  0.81731  Biso   1.000  H
  C393     1.0000 0.66672  0.50101  0.83331  Biso   1.000  C
  H570     1.0000 0.62372  0.49437  0.82137  Biso   1.000  H
  H571     1.0000 0.64458  0.58010  0.82960  Biso   1.000  H
  O39      1.0000 0.59501  0.37570  0.83961  Biso   1.000  O
  H572     1.0000 0.58441  0.38469  0.79549  Biso   1.000  H
  H573     1.0000 0.51019  0.31892  0.81089  Biso   1.000  H
  H574     1.0000 0.68488  0.48757  0.81550  Biso   1.000  H
  H575     1.0000 0.64841  0.46936  0.85116  Biso   1.000  H
  H576     1.0000 0.63558  0.45598  0.84520  Biso   1.000  H
  H577     1.0000 0.69772  0.48707  0.82146  Biso   1.000  H
  H578     1.0000 0.70958  0.53727  0.84531  Biso   1.000  H
  O40      1.0000 0.71130  0.57966  0.84216  Biso   1.000  O
  O41      1.0000 0.55265  0.29098  0.82707  Biso   1.000  O
  H579     1.0000 0.64097  0.40229  0.83581  Biso   1.000  H
  C394     1.0000 0.79069  0.63104  0.84786  Biso   1.000  C
  H580     1.0000 0.75372  0.62204  0.83217  Biso   1.000  H
  H581     1.0000 0.68870  0.60214  0.83706  Biso   1.000  H
  H582     1.0000 0.57202  0.26439  0.83087  Biso   1.000  H
  C395     1.0000 0.51433  0.29565  0.85347  Biso   1.000  C
  O42      1.0000 0.80252  0.56813  0.84967  Biso   1.000  O
  H583     1.0000 0.77214  0.63795  0.86707  Biso   1.000  H
  H584     1.0000 0.83834  0.67657  0.84307  Biso   1.000  H
  O43      1.0000 0.43184  0.23437  0.84967  Biso   1.000  O
  H585     1.0000 0.53306  0.28199  0.87116  Biso   1.000  H
  H586     1.0000 0.46034  0.26197  0.85148  Biso   1.000  H
  H587     1.0000 0.52461  0.34776  0.85577  Biso   1.000  H
  H588     1.0000 0.84892  0.58353  0.84938  Biso   1.000  H
  C396     1.0000 0.78134  0.48566  0.85347  Biso   1.000  C
  H589     1.0000 0.80163  0.53968  0.85148  Biso   1.000  H
  H590     1.0000 0.41641  0.26535  0.84938  Biso   1.000  H
  C397     1.0000 0.36892  0.15966  0.84786  Biso   1.000  C
  O44      1.0000 0.73834  0.44738  0.82707  Biso   1.000  O
  H591     1.0000 0.74890  0.46694  0.87116  Biso   1.000  H
  H592     1.0000 0.82313  0.47537  0.85577  Biso   1.000  H
  H593     1.0000 0.36203  0.13419  0.86707  Biso   1.000  H
  H594     1.0000 0.37790  0.13166  0.83217  Biso   1.000  H
  H595     1.0000 0.32342  0.16174  0.84307  Biso   1.000  H
  O45      1.0000 0.42031  0.13166  0.84216  Biso   1.000  O
  O46      1.0000 0.78068  0.40499  0.83961  Biso   1.000  O
  H596     1.0000 0.69233  0.42798  0.83087  Biso   1.000  H
  C398     1.0000 0.49900  0.16567  0.83331  Biso   1.000  C
  H597     1.0000 0.46269  0.17231  0.84531  Biso   1.000  H
  H598     1.0000 0.39781  0.08657  0.83706  Biso   1.000  H
  H599     1.0000 0.76129  0.35900  0.83581  Biso   1.000  H
  C399     1.0000 0.81898  0.44799  0.81319  Biso   1.000  C
  H600     1.0000 0.51239  0.19732  0.81550  Biso   1.000  H
  H601     1.0000 0.53062  0.17905  0.85116  Biso   1.000  H
  H602     1.0000 0.54399  0.17961  0.84520  Biso   1.000  H
  H603     1.0000 0.51292  0.21065  0.82146  Biso   1.000  H
  H604     1.0000 0.50562  0.12936  0.82137  Biso   1.000  H
  O47      1.0000 0.46498  0.08702  0.82450  Biso   1.000  O
  O48      1.0000 0.90149  0.46919  0.81699  Biso   1.000  O
  H605     1.0000 0.80031  0.41561  0.79549  Biso   1.000  H
  H606     1.0000 0.87300  0.46829  0.81521  Biso   1.000  H
  H607     1.0000 0.80869  0.48982  0.81089  Biso   1.000  H
  C400     1.0000 0.49296  0.03559  0.81880  Biso   1.000  C
  H608     1.0000 0.46499  0.04458  0.83449  Biso   1.000  H
  H609     1.0000 0.41987  0.06448  0.82960  Biso   1.000  H
  H610     1.0000 0.91689  0.51557  0.81731  Biso   1.000  H
  C401     1.0000 0.96438  0.45738  0.81880  Biso   1.000  C
  O49      1.0000 0.56770  0.09849  0.81699  Biso   1.000  O
  H611     1.0000 0.46753  0.02873  0.79961  Biso   1.000  H
  H612     1.0000 0.49510  0.99011  0.82361  Biso   1.000  H
  H613     1.0000 0.97129  0.43877  0.79961  Biso   1.000  H
  H614     1.0000 0.95538  0.42039  0.83449  Biso   1.000  H
  O50      1.0000 0.91300  0.37800  0.82450  Biso   1.000  O
  H615     1.0000 0.00990  0.50500  0.82361  Biso   1.000  H
  H616     1.0000 0.59870  0.08309  0.81731  Biso   1.000  H
  C402     1.0000 0.62902  0.18102  0.81319  Biso   1.000  C
  H617     1.0000 0.59529  0.12699  0.81521  Biso   1.000  H
  C403     1.0000 0.83428  0.33331  0.83331  Biso   1.000  C
  H618     1.0000 0.87060  0.37626  0.82137  Biso   1.000  H
  H619     1.0000 0.93549  0.35540  0.82960  Biso   1.000  H
  O51      1.0000 0.62431  0.21930  0.83961  Biso   1.000  O
  H620     1.0000 0.61527  0.19968  0.79549  Biso   1.000  H
  H621     1.0000 0.68110  0.19131  0.81089  Biso   1.000  H
  H622     1.0000 0.80268  0.31510  0.81550  Biso   1.000  H
  H623     1.0000 0.82092  0.35158  0.85116  Biso   1.000  H
  H624     1.0000 0.82037  0.36440  0.84520  Biso   1.000  H
  H625     1.0000 0.78931  0.30228  0.82146  Biso   1.000  H
  H626     1.0000 0.82768  0.29042  0.84531  Biso   1.000  H
  O52      1.0000 0.86834  0.28868  0.84216  Biso   1.000  O
  O53      1.0000 0.70903  0.26169  0.82707  Biso   1.000  O
  H627     1.0000 0.59768  0.23870  0.83581  Biso   1.000  H
  C404     1.0000 0.84031  0.20924  0.84786  Biso   1.000  C
  H628     1.0000 0.86832  0.24629  0.83217  Biso   1.000  H
  H629     1.0000 0.91343  0.31127  0.83706  Biso   1.000  H
  H630     1.0000 0.73563  0.30768  0.83087  Biso   1.000  H
  C405     1.0000 0.70433  0.21868  0.85347  Biso   1.000  C
  O54      1.0000 0.76564  0.19749  0.84967  Biso   1.000  O
  H631     1.0000 0.86582  0.22785  0.86707  Biso   1.000  H
  H632     1.0000 0.83824  0.16168  0.84307  Biso   1.000  H
  H633     1.0000 0.71804  0.25107  0.87116  Biso   1.000  H
  H634     1.0000 0.73805  0.19839  0.85148  Biso   1.000  H
  H635     1.0000 0.65221  0.17686  0.85577  Biso   1.000  H
  H636     1.0000 0.73463  0.15106  0.84938  Biso   1.000  H
  C406     1.0000 0.35571  0.43984  0.86868  Biso   1.000  C
  C407     1.0000 0.29450  0.36125  0.87744  Biso   1.000  C
  H637     1.0000 0.37513  0.43838  0.84857  Biso   1.000  H
  H638     1.0000 0.33426  0.47357  0.86777  Biso   1.000  H
  C408     1.0000 0.42012  0.47121  0.89094  Biso   1.000  C
  C409     1.0000 0.32799  0.31021  0.88194  Biso   1.000  C
  H639     1.0000 0.25581  0.34034  0.86158  Biso   1.000  H
  H640     1.0000 0.27015  0.36367  0.89617  Biso   1.000  H
  H641     1.0000 0.40194  0.47886  0.91036  Biso   1.000  H
  H642     1.0000 0.46033  0.52085  0.88377  Biso   1.000  H
  C410     1.0000 0.45303  0.41921  0.89543  Biso   1.000  C
  C411     1.0000 0.38983  0.34208  0.90547  Biso   1.000  C
  H643     1.0000 0.28782  0.25967  0.88817  Biso   1.000  H
  H644     1.0000 0.34892  0.30475  0.86276  Biso   1.000  H
  N61      1.0000 0.51057  0.45142  0.91870  Biso   1.000  N
  H645     1.0000 0.47554  0.41438  0.87637  Biso   1.000  H
  N62      1.0000 0.41866  0.29019  0.90956  Biso   1.000  N
  H646     1.0000 0.36853  0.34748  0.92487  Biso   1.000  H
  C412     1.0000 0.57677  0.46795  0.91152  Biso   1.000  C
  C413     1.0000 0.41301  0.26400  0.93526  Biso   1.000  C
  H647     1.0000 0.58633  0.45688  0.89197  Biso   1.000  H
  C414     1.0000 0.63965  0.50432  0.93309  Biso   1.000  C
  C415     1.0000 0.43659  0.20941  0.94371  Biso   1.000  C
  H648     1.0000 0.39203  0.28035  0.95037  Biso   1.000  H
  C416     1.0000 0.71248  0.52535  0.92402  Biso   1.000  C
  C417     1.0000 0.62732  0.52085  0.96190  Biso   1.000  C
  C418     1.0000 0.47463  0.18715  0.92402  Biso   1.000  C
  C419     1.0000 0.42007  0.17928  0.97229  Biso   1.000  C
  H649     1.0000 0.72115  0.51377  0.90437  Biso   1.000  H
  C420     1.0000 0.77277  0.56335  0.94371  Biso   1.000  C
  C421     1.0000 0.68622  0.55880  0.98183  Biso   1.000  C
  H650     1.0000 0.57751  0.50584  0.96806  Biso   1.000  H
  C422     1.0000 0.49568  0.13537  0.93309  Biso   1.000  C
  H651     1.0000 0.48621  0.20739  0.90437  Biso   1.000  H
  H652     1.0000 0.39391  0.19406  0.98568  Biso   1.000  H
  C423     1.0000 0.44115  0.12739  0.98183  Biso   1.000  C
  C424     1.0000 0.75920  0.57994  0.97229  Biso   1.000  C
  C425     1.0000 0.85101  0.58702  0.93526  Biso   1.000  C
  C426     1.0000 0.67128  0.57673  0.01196  Biso   1.000  C
  C427     1.0000 0.53202  0.10884  0.91152  Biso   1.000  C
  C428     1.0000 0.47914  0.10648  0.96190  Biso   1.000  C
  C429     1.0000 0.42328  0.09456  0.01196  Biso   1.000  C
  H653     1.0000 0.80012  0.60608  0.98568  Biso   1.000  H
  N63      1.0000 0.87151  0.58129  0.90956  Biso   1.000  N
  H654     1.0000 0.88829  0.60793  0.95037  Biso   1.000  H
  N64      1.0000 0.72290  0.61951  0.02986  Biso   1.000  N
  H655     1.0000 0.62052  0.55526  0.01837  Biso   1.000  H
  N65      1.0000 0.54856  0.05914  0.91870  Biso   1.000  N
  H656     1.0000 0.54312  0.12947  0.89197  Biso   1.000  H
  H657     1.0000 0.49411  0.07168  0.96806  Biso   1.000  H
  N66      1.0000 0.38046  0.10338  0.02986  Biso   1.000  N
  H658     1.0000 0.44471  0.06527  0.01837  Biso   1.000  H
  C430     1.0000 0.95222  0.61018  0.90547  Biso   1.000  C
  C431     1.0000 0.70069  0.63458  0.05886  Biso   1.000  C
  C432     1.0000 0.58080  0.03384  0.89543  Biso   1.000  C
  C433     1.0000 0.36538  0.06611  0.05886  Biso   1.000  C
  H659     1.0000 0.97891  0.63143  0.92487  Biso   1.000  H
  C434     1.0000 0.98218  0.67196  0.88194  Biso   1.000  C
  C435     1.0000 0.96617  0.54694  0.89543  Biso   1.000  C
  H660     1.0000 0.64465  0.60917  0.05996  Biso   1.000  H
  C436     1.0000 0.73006  0.60422  0.08354  Biso   1.000  C
  C437     1.0000 0.73432  0.71947  0.06264  Biso   1.000  C
  C438     1.0000 0.65790  0.04773  0.90547  Biso   1.000  C
  H661     1.0000 0.58565  0.06116  0.87637  Biso   1.000  H
  C439     1.0000 0.52878  0.94890  0.89094  Biso   1.000  C
  H662     1.0000 0.39081  0.03547  0.05996  Biso   1.000  H
  C440     1.0000 0.39575  0.12587  0.08354  Biso   1.000  C
  C441     1.0000 0.28053  0.01490  0.06264  Biso   1.000  C
  H663     1.0000 0.97180  0.71216  0.88817  Biso   1.000  H
  H664     1.0000 0.95581  0.65105  0.86276  Biso   1.000  H
  C442     1.0000 0.06676  0.70547  0.87744  Biso   1.000  C
  N67      1.0000 0.94082  0.48943  0.91870  Biso   1.000  N
  H665     1.0000 0.93881  0.52445  0.87637  Biso   1.000  H
  C443     1.0000 0.05114  0.57988  0.89094  Biso   1.000  C
  N68      1.0000 0.69239  0.52265  0.08047  Biso   1.000  N
  H666     1.0000 0.78561  0.62615  0.08137  Biso   1.000  H
  C444     1.0000 0.71231  0.62317  0.11447  Biso   1.000  C
  C445     1.0000 0.71813  0.73948  0.09326  Biso   1.000  C
  H667     1.0000 0.78942  0.74476  0.05967  Biso   1.000  H
  H668     1.0000 0.71333  0.73824  0.04718  Biso   1.000  H
  N69      1.0000 0.70983  0.12851  0.90956  Biso   1.000  N
  H669     1.0000 0.65251  0.02108  0.92487  Biso   1.000  H
  C446     1.0000 0.68978  0.01782  0.88194  Biso   1.000  C
  C447     1.0000 0.56011  0.91584  0.86868  Biso   1.000  C
  H670     1.0000 0.52111  0.92304  0.91036  Biso   1.000  H
  H671     1.0000 0.47912  0.93945  0.88377  Biso   1.000  H
  N70      1.0000 0.47731  0.16972  0.08047  Biso   1.000  N
  H672     1.0000 0.37385  0.15949  0.08137  Biso   1.000  H
  C448     1.0000 0.37681  0.08916  0.11447  Biso   1.000  C
  C449     1.0000 0.26055  0.97864  0.09326  Biso   1.000  C
  H673     1.0000 0.26172  0.97504  0.04718  Biso   1.000  H
  H674     1.0000 0.25526  0.04469  0.05967  Biso   1.000  H
  H675     1.0000 0.08454  0.74415  0.86158  Biso   1.000  H
  H676     1.0000 0.09356  0.72987  0.89617  Biso   1.000  H
  C450     1.0000 0.08415  0.64425  0.86868  Biso   1.000  C
  C451     1.0000 0.89115  0.42320  0.91152  Biso   1.000  C
  H677     1.0000 0.07692  0.59804  0.91036  Biso   1.000  H
  H678     1.0000 0.06054  0.53968  0.88377  Biso   1.000  H
  C452     1.0000 0.73208  0.49376  0.07408  Biso   1.000  C
  H679     1.0000 0.65721  0.59787  0.11717  Biso   1.000  H
  H680     1.0000 0.73314  0.60445  0.13006  Biso   1.000  H
  C453     1.0000 0.74593  0.70783  0.11809  Biso   1.000  C
  H681     1.0000 0.66332  0.71885  0.09547  Biso   1.000  H
  H682     1.0000 0.74323  0.79474  0.09516  Biso   1.000  H
  C454     1.0000 0.73598  0.14898  0.93526  Biso   1.000  C
  H683     1.0000 0.74032  0.02816  0.88817  Biso   1.000  H
  H684     1.0000 0.69522  0.04419  0.86276  Biso   1.000  H
  C455     1.0000 0.63874  0.93327  0.87744  Biso   1.000  C
  H685     1.0000 0.56161  0.93676  0.84857  Biso   1.000  H
  H686     1.0000 0.52642  0.86064  0.86777  Biso   1.000  H
  C456     1.0000 0.50623  0.23836  0.07408  Biso   1.000  C
  H687     1.0000 0.40213  0.05937  0.11717  Biso   1.000  H
  H688     1.0000 0.39555  0.12868  0.13006  Biso   1.000  H
  C457     1.0000 0.29211  0.03806  0.11809  Biso   1.000  C
  H689     1.0000 0.28114  0.94446  0.09547  Biso   1.000  H
  H690     1.0000 0.20524  0.94845  0.09516  Biso   1.000  H
  H691     1.0000 0.06325  0.62485  0.84857  Biso   1.000  H
  H692     1.0000 0.13937  0.66578  0.86777  Biso   1.000  H
  H693     1.0000 0.87050  0.41365  0.89197  Biso   1.000  H
  C458     1.0000 0.86465  0.36035  0.93309  Biso   1.000  C
  H694     1.0000 0.78453  0.52524  0.07087  Biso   1.000  H
  C459     1.0000 0.69826  0.41151  0.07158  Biso   1.000  C
  H695     1.0000 0.80142  0.73273  0.11737  Biso   1.000  H
  H696     1.0000 0.73144  0.71857  0.13777  Biso   1.000  H
  C460     1.0000 0.79059  0.22723  0.94371  Biso   1.000  C
  H697     1.0000 0.71960  0.11165  0.95037  Biso   1.000  H
  H698     1.0000 0.65962  0.91545  0.86158  Biso   1.000  H
  H699     1.0000 0.63633  0.90645  0.89617  Biso   1.000  H
  H700     1.0000 0.47472  0.25927  0.07087  Biso   1.000  H
  C461     1.0000 0.58846  0.28676  0.07158  Biso   1.000  C
  H701     1.0000 0.26723  0.06864  0.11737  Biso   1.000  H
  H702     1.0000 0.28141  0.01287  0.13777  Biso   1.000  H
  C462     1.0000 0.81283  0.28749  0.92402  Biso   1.000  C
  C463     1.0000 0.89354  0.37266  0.96190  Biso   1.000  C
  C464     1.0000 0.62011  0.36446  0.07140  Biso   1.000  C
  C465     1.0000 0.74434  0.37992  0.07140  Biso   1.000  C
  C466     1.0000 0.82068  0.24078  0.97229  Biso   1.000  C
  C467     1.0000 0.63555  0.25562  0.07140  Biso   1.000  C
  H703     1.0000 0.79263  0.27884  0.90437  Biso   1.000  H
  C468     1.0000 0.87255  0.31375  0.98183  Biso   1.000  C
  H704     1.0000 0.92832  0.42247  0.96806  Biso   1.000  H
  H705     1.0000 0.58830  0.38576  0.07116  Biso   1.000  H
  C469     1.0000 0.71322  0.30172  0.07158  Biso   1.000  C
  H706     1.0000 0.79742  0.41168  0.07116  Biso   1.000  H
  H707     1.0000 0.80591  0.19985  0.98568  Biso   1.000  H
  H708     1.0000 0.61423  0.20255  0.07116  Biso   1.000  H
  C470     1.0000 0.90544  0.32870  0.01196  Biso   1.000  C
  C471     1.0000 0.76164  0.26787  0.07408  Biso   1.000  C
  N71      1.0000 0.89658  0.27709  0.02986  Biso   1.000  N
  H709     1.0000 0.93472  0.37947  0.01837  Biso   1.000  H
  N72      1.0000 0.83022  0.30756  0.08047  Biso   1.000  N
  H710     1.0000 0.74075  0.21548  0.07087  Biso   1.000  H
  C472     1.0000 0.93388  0.29930  0.05886  Biso   1.000  C
  C473     1.0000 0.87414  0.26990  0.08354  Biso   1.000  C
  H711     1.0000 0.96453  0.35535  0.05996  Biso   1.000  H
  C474     1.0000 0.98513  0.26568  0.06264  Biso   1.000  C
  H712     1.0000 0.84053  0.21436  0.08137  Biso   1.000  H
  C475     1.0000 0.91082  0.28766  0.11447  Biso   1.000  C
  H713     1.0000 0.95534  0.21059  0.05967  Biso   1.000  H
  C476     1.0000 0.02132  0.28187  0.09326  Biso   1.000  C
  H714     1.0000 0.02492  0.28665  0.04718  Biso   1.000  H
  H715     1.0000 0.94061  0.34276  0.11717  Biso   1.000  H
  H716     1.0000 0.87131  0.26686  0.13006  Biso   1.000  H
  C477     1.0000 0.96193  0.25405  0.11809  Biso   1.000  C
  H717     1.0000 0.05554  0.33668  0.09547  Biso   1.000  H
  H718     1.0000 0.05155  0.25674  0.09516  Biso   1.000  H
  H719     1.0000 0.93131  0.19856  0.11737  Biso   1.000  H
  H720     1.0000 0.98710  0.26855  0.13777  Biso   1.000  H
