
#######################################################################
#
#                 Cambridge Crystallographic Data Centre
#                                CCDC 
#
#######################################################################
#
# If this CIF has been generated from an entry in the Cambridge 
# Structural Database, then it will include bibliographic, chemical, 
# crystal, experimental, refinement or atomic coordinate data resulting 
# from the CCDC's data processing and validation procedures.
#
#######################################################################

data_ABABEM
_chemical_name_common            
8-Thia-1,6-diazabicyclo[4.3.0]nonane-7,9-dione
_chemical_formula_moiety         'C6 H8 N2 O2 S1'
_chemical_name_systematic        
Tetrahydro[1,3,4]thiadiazolo[3,4-a]pyridazine-1,3-dione
_symmetry_cell_setting           triclinic
_symmetry_space_group_name_H-M   'P -1'
_symmetry_Int_Tables_number      2
_space_group_name_Hall           '-P 1'
loop_
_symmetry_equiv_pos_site_id
_symmetry_equiv_pos_as_xyz
1 x,y,z
2 -x,-y,-z
_cell_length_a                   7.8400(16)
_cell_length_b                   10.464(2)
_cell_length_c                   10.514(2)
_cell_angle_alpha                63.84(3)
_cell_angle_beta                 79.62(3)
_cell_angle_gamma                89.42(3)
_cell_volume                     759.171
_exptl_crystal_colour            colorless
_exptl_crystal_description       block
_cell_formula_units_Z            4
loop_
_atom_site_label
_atom_site_type_symbol
_atom_site_fract_x
_atom_site_fract_y
_atom_site_fract_z
S1 S -0.09731(11) 0.82576(8) 0.04086(8)
O1 O -0.3185(3) 0.5944(3) 0.1791(3)
O2 O 0.2479(3) 0.8734(2) -0.0219(2)
N1 N -0.0292(2) 0.5625(2) 0.1507(2)
N2 N 0.1318(3) 0.6432(2) 0.1083(2)
C1 C 0.2837(3) 0.5721(3) 0.0768(3)
H1 H 0.3892 0.6300 0.0591
H2 H 0.2803 0.5604 -0.0092
C2 C 0.2842(4) 0.4278(3) 0.2034(3)
H3 H 0.3027 0.4404 0.2860
H4 H 0.3789 0.3771 0.1791
C3 C 0.1134(4) 0.3408(3) 0.2418(3)
H5 H 0.1002 0.3205 0.1623
H6 H 0.1137 0.2505 0.3261
C4 C -0.0370(4) 0.4199(3) 0.2726(3)
H7 H -0.1456 0.3669 0.2878
H8 H -0.0326 0.4290 0.3599
C5 C -0.1691(3) 0.6421(3) 0.1356(3)
C6 C 0.1243(4) 0.7859(3) 0.0365(3)
S2 S 0.16047(9) 0.00770(8) 0.62686(8)
O3 O 0.3930(3) -0.1856(2) 0.6988(2)
O4 O 0.1494(2) 0.2796(2) 0.5788(2)
N3 N 0.4698(2) 0.0396(2) 0.6615(2)
N4 N 0.3934(3) 0.1675(2) 0.6431(2)
C7 C 0.5149(3) 0.2948(3) 0.5815(3)
H9 H 0.4534 0.3749 0.5837
H10 H 0.5648 0.3187 0.4817
C8 C 0.6568(4) 0.2672(3) 0.6669(3)
H11 H 0.6083 0.2567 0.7629
H12 H 0.7430 0.3483 0.6203
C9 C 0.7431(3) 0.1341(3) 0.6786(3)
H13 H 0.8298 0.1158 0.7384
H14 H 0.8015 0.1481 0.5833
C10 C 0.6102(3) 0.0070(3) 0.7438(3)
H15 H 0.6655 -0.0756 0.7418
H16 H 0.5628 -0.0153 0.8437
C11 C 0.3614(3) -0.0634(3) 0.6686(3)
C12 C 0.2314(3) 0.1752(3) 0.6121(3)
loop_
_geom_bond_atom_site_label_1
_geom_bond_atom_site_label_2
_geom_bond_site_symmetry_1
_geom_bond_site_symmetry_2
S1 C5 1_555 1_555
O1 C5 1_555 1_555
O2 C6 1_555 1_555
N1 N2 1_555 1_555
N2 C1 1_555 1_555
C1 H1 1_555 1_555
H2 C1 1_555 1_555
C2 C1 1_555 1_555
H3 C2 1_555 1_555
H4 C2 1_555 1_555
C3 C2 1_555 1_555
H5 C3 1_555 1_555
H6 C3 1_555 1_555
C4 N1 1_555 1_555
H7 C4 1_555 1_555
H8 C4 1_555 1_555
C5 N1 1_555 1_555
C6 S1 1_555 1_555
S2 C11 1_555 1_555
O3 C11 1_555 1_555
O4 C12 1_555 1_555
N3 N4 1_555 1_555
N4 C7 1_555 1_555
C7 H9 1_555 1_555
H10 C7 1_555 1_555
C8 C7 1_555 1_555
H11 C8 1_555 1_555
H12 C8 1_555 1_555
C9 C8 1_555 1_555
H13 C9 1_555 1_555
H14 C9 1_555 1_555
C10 N3 1_555 1_555
H15 C10 1_555 1_555
H16 C10 1_555 1_555
C11 N3 1_555 1_555
C12 S2 1_555 1_555
N2 C6 1_555 1_555
C3 C4 1_555 1_555
N4 C12 1_555 1_555
C9 C10 1_555 1_555

#END
