
#######################################################################
#
#                 Cambridge Crystallographic Data Centre
#                                CCDC 
#
#######################################################################
#
# If this CIF has been generated from an entry in the Cambridge 
# Structural Database, then it will include bibliographic, chemical, 
# crystal, experimental, refinement or atomic coordinate data resulting 
# from the CCDC's data processing and validation procedures.
#
#######################################################################

data_ABABUB
_chemical_formula_moiety         'C12 H15 N1 O2'
_chemical_name_systematic        
2,3,4,6,7,8,9,10-Octahydro-5H-pyrano(3,2-c)quinolin-5-one
_symmetry_cell_setting           monoclinic
_symmetry_space_group_name_H-M   'P 21/n'
_symmetry_Int_Tables_number      14
_space_group_name_Hall           '-P 2yn'
loop_
_symmetry_equiv_pos_site_id
_symmetry_equiv_pos_as_xyz
1 x,y,z
2 1/2-x,1/2+y,1/2-z
3 -x,-y,-z
4 1/2+x,1/2-y,1/2+z
_cell_length_a                   12.3047(18)
_cell_length_b                   6.3689(9)
_cell_length_c                   13.238(2)
_cell_angle_alpha                90
_cell_angle_beta                 96.223(2)
_cell_angle_gamma                90
_cell_volume                     1031.31
_chemical_melting_point          '261-263 deg.C'
_cell_formula_units_Z            4
loop_
_atom_site_label
_atom_site_type_symbol
_atom_site_fract_x
_atom_site_fract_y
_atom_site_fract_z
O1 O 0.40613(6) 0.06727(11) 0.09111(6)
O2 O 0.53580(6) 0.68437(12) 0.26514(7)
N1 N 0.56547(7) 0.22366(13) 0.06011(7)
H1 H 0.5738 0.1273 0.0150
C1 C 0.64413(8) 0.37454(15) 0.07543(8)
C2 C 0.74071(14) 0.3492(4) 0.01363(17)
H2 H 0.7862 0.2314 0.0405
H3 H 0.7139 0.3178 -0.0572
C3 C 0.80838(17) 0.5469(3) 0.01794(16)
H4 H 0.8791 0.5159 -0.0063
H5 H 0.7712 0.6517 -0.0277
C4 C 0.82742(16) 0.6373(3) 0.12319(17)
H6 H 0.8732 0.7630 0.1219
H7 H 0.8670 0.5347 0.1685
C5 C 0.72184(15) 0.6943(3) 0.16463(16)
H8 H 0.7361 0.7147 0.2383
H9 H 0.6951 0.8278 0.1345
C6 C 0.63510(8) 0.53115(15) 0.14347(8)
C7 C 0.54054(9) 0.52485(15) 0.19723(9)
C8 C 0.43131(10) 0.71216(19) 0.30268(11)
H10 H 0.3799 0.7732 0.2490
H11 H 0.4391 0.8107 0.3599
C9 C 0.38603(11) 0.50893(18) 0.33674(10)
H12 H 0.3164 0.5342 0.3643
H13 H 0.4370 0.4466 0.3905
C10 C 0.36874(9) 0.36047(17) 0.24766(9)
H14 H 0.3615 0.2167 0.2725
H15 H 0.3009 0.3972 0.2056
C11 C 0.46330(8) 0.37170(15) 0.18443(8)
C12 C 0.47422(9) 0.21291(16) 0.11065(9)
C13? C 0.7407(3) 0.3512(4) 0.0194(3)
H16? H 0.7190 0.3779 -0.0529
H17? H 0.7669 0.2060 0.0262
C14? C 0.8321(3) 0.4964(5) 0.0561(3)
H18? H 0.8841 0.5025 0.0050
H19? H 0.8708 0.4396 0.1188
C15? C 0.7928(2) 0.7198(4) 0.0765(3)
H20? H 0.7563 0.7795 0.0135
H21? H 0.8559 0.8085 0.0990
C16? C 0.7121(3) 0.7182(6) 0.1595(3)
H22? H 0.7534 0.7096 0.2270
H23? H 0.6697 0.8487 0.1559
loop_
_geom_bond_atom_site_label_1
_geom_bond_atom_site_label_2
_geom_bond_site_symmetry_1
_geom_bond_site_symmetry_2
O1 C12 1_555 1_555
O2 C7 1_555 1_555
N1 H1 1_555 1_555
C1 N1 1_555 1_555
C2 C1 1_555 1_555
H2 C2 1_555 1_555
H3 C2 1_555 1_555
C3 C2 1_555 1_555
H4 C3 1_555 1_555
H5 C3 1_555 1_555
C4 C3 1_555 1_555
H6 C4 1_555 1_555
H7 C4 1_555 1_555
C5 C4 1_555 1_555
H8 C5 1_555 1_555
H9 C5 1_555 1_555
C6 C1 1_555 1_555
C7 C6 1_555 1_555
C8 O2 1_555 1_555
H10 C8 1_555 1_555
H11 C8 1_555 1_555
C9 C8 1_555 1_555
H12 C9 1_555 1_555
H13 C9 1_555 1_555
C10 C9 1_555 1_555
H14 C10 1_555 1_555
H15 C10 1_555 1_555
C11 C7 1_555 1_555
C12 N1 1_555 1_555
C5 C6 1_555 1_555
C10 C11 1_555 1_555
C11 C12 1_555 1_555

#END
