
#######################################################################
#
#                 Cambridge Crystallographic Data Centre
#                                CCDC 
#
#######################################################################
#
# If this CIF has been generated from an entry in the Cambridge 
# Structural Database, then it will include bibliographic, chemical, 
# crystal, experimental, refinement or atomic coordinate data resulting 
# from the CCDC's data processing and validation procedures.
#
#######################################################################

data_ABABIP
_chemical_formula_moiety         'C17 H13 N1 O1'
_chemical_name_systematic        7,8-Dihydrobenzo(k)phenanthridin-6(5H)-one
_symmetry_cell_setting           monoclinic
_symmetry_space_group_name_H-M   'P 21/c'
_symmetry_Int_Tables_number      14
_space_group_name_Hall           '-P 2ybc'
loop_
_symmetry_equiv_pos_site_id
_symmetry_equiv_pos_as_xyz
1 x,y,z
2 -x,1/2+y,1/2-z
3 -x,-y,-z
4 x,1/2-y,1/2+z
_cell_length_a                   10.780(3)
_cell_length_b                   14.555(4)
_cell_length_c                   8.028(2)
_cell_angle_alpha                90
_cell_angle_beta                 102.417(5)
_cell_angle_gamma                90
_cell_volume                     1230.15
_chemical_melting_point          '245-246 deg.C'
_cell_formula_units_Z            4
loop_
_atom_site_label
_atom_site_type_symbol
_atom_site_fract_x
_atom_site_fract_y
_atom_site_fract_z
O1 O 0.38503(14) 0.08933(10) 1.45650(16)
N1 N 0.43285(14) -0.01705(11) 1.27570(18)
H1 H 0.4957 -0.0347 1.3544
C1 C 0.36275(19) 0.05403(13) 1.3111(2)
C2 C 0.26177(17) 0.08529(12) 1.1741(2)
C3 C 0.17672(18) 0.16008(13) 1.2112(2)
H2 H 0.1977 0.2177 1.1630
H3 H 0.1871 0.1678 1.3334
C4 C 0.04091(18) 0.13291(13) 1.1321(2)
H4 H 0.0194 0.0763 1.1831
H5 H -0.0170 0.1805 1.1525
C5 C 0.02874(18) 0.11985(12) 0.9441(2)
C6 C -0.0799(2) 0.14602(13) 0.8270(2)
H6 H -0.1493 0.1686 0.8657
C7 C -0.0862(2) 0.13893(15) 0.6545(2)
H7 H -0.1608 0.1540 0.5772
C8 C 0.0182(2) 0.10955(14) 0.5972(2)
H8 H 0.0158 0.1084 0.4807
C9 C 0.1269(2) 0.08158(13) 0.7111(2)
H9 H 0.1974 0.0625 0.6709
C10 C 0.13136(18) 0.08182(12) 0.8860(2)
C11 C 0.23883(17) 0.04459(13) 1.0170(2)
C12 C 0.31248(17) -0.03499(12) 0.9884(2)
C13 C 0.28931(19) -0.09057(14) 0.8414(2)
H10 H 0.2224 -0.0756 0.7515
C14 C 0.3620(2) -0.16564(15) 0.8268(3)
H11 H 0.3446 -0.2007 0.7276
C15 C 0.4619(2) -0.18991(15) 0.9593(3)
H12 H 0.5123 -0.2404 0.9482
C16 C 0.4861(2) -0.13937(14) 1.1064(2)
H13 H 0.5527 -0.1558 1.1956
C17 C 0.41129(18) -0.06340(13) 1.1229(2)
loop_
_geom_bond_atom_site_label_1
_geom_bond_atom_site_label_2
_geom_bond_site_symmetry_1
_geom_bond_site_symmetry_2
O1 C1 1_555 1_555
N1 H1 1_555 1_555
C1 N1 1_555 1_555
C2 C1 1_555 1_555
C3 C2 1_555 1_555
H2 C3 1_555 1_555
H3 C3 1_555 1_555
C4 C3 1_555 1_555
H4 C4 1_555 1_555
H5 C4 1_555 1_555
C5 C4 1_555 1_555
C6 C5 1_555 1_555
H6 C6 1_555 1_555
C7 C6 1_555 1_555
H7 C7 1_555 1_555
C8 C7 1_555 1_555
H8 C8 1_555 1_555
C9 C8 1_555 1_555
H9 C9 1_555 1_555
C10 C5 1_555 1_555
C11 C2 1_555 1_555
C12 C11 1_555 1_555
C13 C12 1_555 1_555
H10 C13 1_555 1_555
C14 C13 1_555 1_555
H11 C14 1_555 1_555
C15 C14 1_555 1_555
H12 C15 1_555 1_555
C16 C15 1_555 1_555
H13 C16 1_555 1_555
C17 N1 1_555 1_555
C9 C10 1_555 1_555
C10 C11 1_555 1_555
C12 C17 1_555 1_555
C16 C17 1_555 1_555

#END
