
#######################################################################
#
#                 Cambridge Crystallographic Data Centre
#                                CCDC 
#
#######################################################################
#
# If this CIF has been generated from an entry in the Cambridge 
# Structural Database, then it will include bibliographic, chemical, 
# crystal, experimental, refinement or atomic coordinate data resulting 
# from the CCDC's data processing and validation procedures.
#
#######################################################################

data_ABABEL
_chemical_name_common            'Teaching Subset: Fundamental Chemistry'
_chemical_formula_moiety         'C15 H10 Cl1 N1 O1'
_chemical_name_systematic        4-Chloro-3-phenylquinolin-2(1H)-one
_symmetry_cell_setting           monoclinic
_symmetry_space_group_name_H-M   'P 21/c'
_symmetry_Int_Tables_number      14
_space_group_name_Hall           '-P 2ybc'
loop_
_symmetry_equiv_pos_site_id
_symmetry_equiv_pos_as_xyz
1 x,y,z
2 -x,1/2+y,1/2-z
3 -x,-y,-z
4 x,1/2-y,1/2+z
_cell_length_a                   11.1366(12)
_cell_length_b                   6.9872(7)
_cell_length_c                   15.3869(16)
_cell_angle_alpha                90
_cell_angle_beta                 93.796(2)
_cell_angle_gamma                90
_cell_volume                     1194.68
_exptl_crystal_colour            white
_cell_formula_units_Z            4
loop_
_atom_site_label
_atom_site_type_symbol
_atom_site_fract_x
_atom_site_fract_y
_atom_site_fract_z
Cl1 Cl 0.72083(6) 1.09418(9) 0.68032(5)
O1 O 0.84300(14) 0.4969(2) 0.52577(12)
N1 N 0.98694(15) 0.7154(2) 0.56335(12)
H1 H 1.0395 0.6419 0.5420
C1 C 0.87130(19) 0.6517(3) 0.56084(15)
C2 C 0.78474(18) 0.7753(3) 0.60122(14)
C3 C 0.8225(2) 0.9459(3) 0.63380(14)
C4 C 0.94472(19) 1.0112(3) 0.63352(14)
C5 C 0.9874(2) 1.1899(3) 0.66585(16)
H2 H 0.9345 1.2749 0.6899
C6 C 1.1052(3) 1.2382(4) 0.66196(17)
H3 H 1.1320 1.3565 0.6831
C7 C 1.1857(2) 1.1136(4) 0.62701(17)
H4 H 1.2661 1.1481 0.6254
C8 C 1.1473(2) 0.9387(3) 0.59469(16)
H5 H 1.2014 0.8549 0.5712
C9 C 1.02672(19) 0.8885(3) 0.59747(14)
C10 C 0.65855(19) 0.7054(3) 0.60428(15)
C11 C 0.6305(2) 0.5733(3) 0.66680(17)
H6 H 0.6908 0.5265 0.7058
C12 C 0.5135(2) 0.5104(4) 0.6718(2)
H7 H 0.4953 0.4228 0.7145
C13 C 0.4241(2) 0.5771(4) 0.6136(2)
H8 H 0.3453 0.5347 0.6169
C14 C 0.4510(2) 0.7052(4) 0.5512(2)
H9 H 0.3908 0.7491 0.5114
C15 C 0.5678(2) 0.7703(3) 0.54690(18)
H10 H 0.5851 0.8593 0.5045
loop_
_geom_bond_atom_site_label_1
_geom_bond_atom_site_label_2
_geom_bond_site_symmetry_1
_geom_bond_site_symmetry_2
Cl1 C3 1_555 1_555
O1 C1 1_555 1_555
N1 H1 1_555 1_555
C1 N1 1_555 1_555
C2 C1 1_555 1_555
C3 C2 1_555 1_555
C4 C3 1_555 1_555
C5 C4 1_555 1_555
H2 C5 1_555 1_555
C6 C5 1_555 1_555
H3 C6 1_555 1_555
C7 C6 1_555 1_555
H4 C7 1_555 1_555
C8 C7 1_555 1_555
H5 C8 1_555 1_555
C9 N1 1_555 1_555
C10 C2 1_555 1_555
C11 C10 1_555 1_555
H6 C11 1_555 1_555
C12 C11 1_555 1_555
H7 C12 1_555 1_555
C13 C12 1_555 1_555
H8 C13 1_555 1_555
C14 C13 1_555 1_555
H9 C14 1_555 1_555
C15 C10 1_555 1_555
H10 C15 1_555 1_555
C4 C9 1_555 1_555
C8 C9 1_555 1_555
C14 C15 1_555 1_555

#END
