
#######################################################################
#
#                 Cambridge Crystallographic Data Centre
#                                CCDC 
#
#######################################################################
#
# If this CIF has been generated from an entry in the Cambridge 
# Structural Database, then it will include bibliographic, chemical, 
# crystal, experimental, refinement or atomic coordinate data resulting 
# from the CCDC's data processing and validation procedures.
#
#######################################################################

data_ABABAI
_chemical_name_common            2-(2-p-Tolylbenzo[g]quinolin-3-yl)ethanol
_chemical_formula_moiety         'C22 H19 N1 O1'
_chemical_name_systematic        
2-(3-(4-Methylphenyl)benzo[f]quinolin-2-yl)ethanol
_symmetry_cell_setting           triclinic
_symmetry_space_group_name_H-M   'P -1'
_symmetry_Int_Tables_number      2
_space_group_name_Hall           '-P 1'
loop_
_symmetry_equiv_pos_site_id
_symmetry_equiv_pos_as_xyz
1 x,y,z
2 -x,-y,-z
_cell_length_a                   7.2044(4)
_cell_length_b                   10.1704(4)
_cell_length_c                   12.1194(3)
_cell_angle_alpha                108.125(3)
_cell_angle_beta                 98.115(4)
_cell_angle_gamma                99.370(5)
_cell_volume                     815.078
_exptl_crystal_colour            yellow
_exptl_crystal_description       sheet
_cell_formula_units_Z            2
loop_
_atom_site_label
_atom_site_type_symbol
_atom_site_fract_x
_atom_site_fract_y
_atom_site_fract_z
O1 O 0.94638(19) 0.74485(14) 0.16847(12)
N1 N 0.34813(18) 0.89390(13) 0.23730(12)
C1 C 0.5880(2) 1.05942(15) 0.19621(13)
C2 C 0.3959(2) 0.99592(15) 0.18921(13)
C3 C 0.4871(2) 0.84951(15) 0.29047(13)
C4 C 0.7299(2) 1.00948(15) 0.25305(14)
H1 H 0.8585 1.0487 0.2594
C5 C 0.6286(2) 1.16905(15) 0.14470(13)
C6 C 0.2436(2) 1.03711(17) 0.12868(15)
H2 H 0.1167 0.9958 0.1250
C7 C 0.6844(2) 0.90436(15) 0.29965(13)
C8 C 0.4736(2) 1.20451(15) 0.08298(13)
C9 C 0.4202(2) 0.73826(16) 0.34132(14)
C10 C 0.5119(3) 1.30789(17) 0.03012(15)
H3 H 0.4103 1.3303 -0.0115
C11 C 0.2812(2) 1.13509(17) 0.07688(15)
H4 H 0.1795 1.1583 0.0360
C12 C 0.2814(2) 0.52892(18) 0.43403(17)
C13 C 0.8416(2) 0.84739(17) 0.35334(15)
H5 H 0.9579 0.9215 0.3842
H6 H 0.8043 0.8229 0.4195
C14 C 0.3153(2) 0.49386(18) 0.32095(16)
H7 H 0.2917 0.3987 0.2741
C15 C 0.3831(3) 0.59584(17) 0.27504(15)
H8 H 0.4043 0.5683 0.1980
C16 C 0.8149(2) 1.24194(17) 0.15198(16)
H9 H 0.9188 1.2210 0.1929
C17 C 0.8479(3) 1.34320(18) 0.10038(17)
H10 H 0.9730 1.3902 0.1066
C18 C 0.8844(2) 0.71879(18) 0.26679(17)
H11 H 0.9832 0.6864 0.3079
H12 H 0.7695 0.6433 0.2384
C19 C 0.3886(3) 0.77368(18) 0.45560(16)
H13 H 0.4142 0.8686 0.5032
C20 C 0.2070(3) 0.4166(2) 0.4833(2)
H14 H 0.2832 0.3461 0.4697
H15 H 0.0756 0.3728 0.4446
H16 H 0.2147 0.4591 0.5669
C21 C 0.6947(3) 1.37576(18) 0.03868(16)
H17 H 0.7174 1.4442 0.0032
C22 C 0.3197(3) 0.6706(2) 0.50019(17)
H18 H 0.2985 0.6978 0.5772
H19 H 1.074(4) 0.793(3) 0.196(2)
loop_
_geom_bond_atom_site_label_1
_geom_bond_atom_site_label_2
_geom_bond_site_symmetry_1
_geom_bond_site_symmetry_2
O1 C18 1_555 1_555
N1 C2 1_555 1_555
C1 C2 1_555 1_555
C2 C6 1_555 1_555
C3 N1 1_555 1_555
C4 C1 1_555 1_555
H1 C4 1_555 1_555
C5 C1 1_555 1_555
C6 H2 1_555 1_555
C7 C3 1_555 1_555
C8 C5 1_555 1_555
C9 C3 1_555 1_555
C10 C8 1_555 1_555
H3 C10 1_555 1_555
C11 C6 1_555 1_555
H4 C11 1_555 1_555
C12 C14 1_555 1_555
C13 C7 1_555 1_555
H5 C13 1_555 1_555
H6 C13 1_555 1_555
C14 H7 1_555 1_555
C15 C9 1_555 1_555
H8 C15 1_555 1_555
C16 C5 1_555 1_555
H9 C16 1_555 1_555
C17 C16 1_555 1_555
H10 C17 1_555 1_555
C18 C13 1_555 1_555
H11 C18 1_555 1_555
H12 C18 1_555 1_555
C19 C9 1_555 1_555
H13 C19 1_555 1_555
C20 C12 1_555 1_555
H14 C20 1_555 1_555
H15 C20 1_555 1_555
H16 C20 1_555 1_555
C21 C10 1_555 1_555
H17 C21 1_555 1_555
C22 C12 1_555 1_555
H18 C22 1_555 1_555
H19 O1 1_555 1_555
C4 C7 1_555 1_555
C8 C11 1_555 1_555
C14 C15 1_555 1_555
C17 C21 1_555 1_555
C19 C22 1_555 1_555

#END
