
#######################################################################
#
#                 Cambridge Crystallographic Data Centre
#                                CCDC 
#
#######################################################################
#
# If this CIF has been generated from an entry in the Cambridge 
# Structural Database, then it will include bibliographic, chemical, 
# crystal, experimental, refinement or atomic coordinate data resulting 
# from the CCDC's data processing and validation procedures.
#
#######################################################################

data_ABACOX
_chemical_formula_moiety         'C8 H12 N1 1+,C7 H7 O3 S1 1-'
_chemical_name_systematic        
'3,4-Dimethylanilinium 4-methylbenzenesulfonate'
_symmetry_cell_setting           monoclinic
_symmetry_space_group_name_H-M   'P 21/n'
_symmetry_Int_Tables_number      14
_space_group_name_Hall           '-P 2yn'
loop_
_symmetry_equiv_pos_site_id
_symmetry_equiv_pos_as_xyz
1 x,y,z
2 1/2-x,1/2+y,1/2-z
3 -x,-y,-z
4 1/2+x,1/2-y,1/2+z
_cell_length_a                   12.373(3)
_cell_length_b                   7.3011(15)
_cell_length_c                   17.556(4)
_cell_angle_alpha                90
_cell_angle_beta                 106.88(3)
_cell_angle_gamma                90
_cell_volume                     1517.62
_exptl_crystal_colour            colorless
_exptl_crystal_description       prism
_cell_formula_units_Z            4
loop_
_atom_site_label
_atom_site_type_symbol
_atom_site_fract_x
_atom_site_fract_y
_atom_site_fract_z
S1 S 0.32958(7) 0.27384(11) 0.06233(5)
C1 C 0.3539(3) 0.2660(4) 0.16787(19)
C2 C 0.2706(3) 0.1959(5) 0.1992(2)
H1 H 0.2031 0.1522 0.1654
C3 C 0.4558(3) 0.3289(4) 0.21888(19)
H2 H 0.5119 0.3735 0.1983
C4 C 0.3897(4) 0.2572(5) 0.3338(2)
O1 O 0.4053(3) 0.1381(4) 0.04418(16)
C5 C 0.4728(3) 0.3244(5) 0.3013(2)
H3 H 0.5407 0.3668 0.3351
C6 C 0.2890(3) 0.1918(5) 0.2808(2)
H4 H 0.2332 0.1446 0.3011
O2 O 0.3571(4) 0.4547(4) 0.04248(16)
C7 C 0.4082(5) 0.2539(7) 0.4234(3)
H5 H 0.4811 0.3042 0.4499
H6 H 0.4044 0.1299 0.4406
H7 H 0.3508 0.3255 0.4362
O3 O 0.2122(3) 0.2272(6) 0.0250(2)
N1 N 0.4796(2) 0.7784(4) 0.07083(15)
H8 H 0.5143 0.7406 0.0358
H9 H 0.4597 0.8952 0.0615
H10 H 0.4182 0.7105 0.0661
C8 C 0.5882(3) 0.7845(4) 0.29494(18)
C9 C 0.6969(3) 0.7113(4) 0.30705(18)
C10 C 0.5569(3) 0.7596(4) 0.15244(17)
C11 C 0.5186(3) 0.8113(4) 0.21675(17)
H11 H 0.4474 0.8632 0.2079
C12 C 0.6634(3) 0.6868(4) 0.16339(19)
H12 H 0.6880 0.6540 0.1200
C13 C 0.7330(3) 0.6636(5) 0.2409(2)
H13 H 0.8051 0.6155 0.2490
C14 C 0.5443(4) 0.8386(6) 0.3646(2)
H14 H 0.6009 0.8124 0.4138
H15 H 0.4771 0.7703 0.3621
H16 H 0.5275 0.9672 0.3618
C15 C 0.7761(3) 0.6797(6) 0.3905(2)
H17 H 0.7398 0.7184 0.4293
H18 H 0.8441 0.7491 0.3972
H19 H 0.7943 0.5519 0.3977
loop_
_geom_bond_atom_site_label_1
_geom_bond_atom_site_label_2
_geom_bond_site_symmetry_1
_geom_bond_site_symmetry_2
S1 C1 1_555 1_555
C1 C2 1_555 1_555
C2 H1 1_555 1_555
C3 C1 1_555 1_555
H2 C3 1_555 1_555
C4 C5 1_555 1_555
O1 S1 1_555 1_555
C5 C3 1_555 1_555
H3 C5 1_555 1_555
C6 C2 1_555 1_555
H4 C6 1_555 1_555
O2 S1 1_555 1_555
C7 C4 1_555 1_555
H5 C7 1_555 1_555
H6 C7 1_555 1_555
H7 C7 1_555 1_555
O3 S1 1_555 1_555
N1 H8 1_555 1_555
H9 N1 1_555 1_555
H10 N1 1_555 1_555
C8 C9 1_555 1_555
C9 C13 1_555 1_555
C10 N1 1_555 1_555
C11 C8 1_555 1_555
H11 C11 1_555 1_555
C12 C10 1_555 1_555
H12 C12 1_555 1_555
C13 C12 1_555 1_555
H13 C13 1_555 1_555
C14 C8 1_555 1_555
H14 C14 1_555 1_555
H15 C14 1_555 1_555
H16 C14 1_555 1_555
C15 C9 1_555 1_555
H17 C15 1_555 1_555
H18 C15 1_555 1_555
H19 C15 1_555 1_555
C4 C6 1_555 1_555
C10 C11 1_555 1_555

#END
