
#######################################################################
#
#                 Cambridge Crystallographic Data Centre
#                                CCDC 
#
#######################################################################
#
# If this CIF has been generated from an entry in the Cambridge 
# Structural Database, then it will include bibliographic, chemical, 
# crystal, experimental, refinement or atomic coordinate data resulting 
# from the CCDC's data processing and validation procedures.
#
#######################################################################

data_ABACIQ
_chemical_formula_moiety         'C14 H11 N1 O2'
_chemical_name_systematic        
1,2,3,4-Tetrahydro-5H-(1)benzofuro(2,3-d)cyclopenta(b)pyridin-5-one
_symmetry_cell_setting           triclinic
_symmetry_space_group_name_H-M   'P -1'
_symmetry_Int_Tables_number      2
_space_group_name_Hall           '-P 1'
loop_
_symmetry_equiv_pos_site_id
_symmetry_equiv_pos_as_xyz
1 x,y,z
2 -x,-y,-z
_cell_length_a                   5.4105(6)
_cell_length_b                   9.3372(11)
_cell_length_c                   10.7931(13)
_cell_angle_alpha                76.442(2)
_cell_angle_beta                 87.201(2)
_cell_angle_gamma                82.199(2)
_cell_volume                     525.074
_chemical_melting_point          '305 deg.C(dec.)'
_cell_formula_units_Z            2
loop_
_atom_site_label
_atom_site_type_symbol
_atom_site_fract_x
_atom_site_fract_y
_atom_site_fract_z
O1 O 0.0451(2) 0.62523(13) 0.09581(12)
O2 O 0.7482(2) 0.45820(14) 0.34624(11)
N1 N 0.2734(2) 0.40279(16) 0.08571(13)
H1 H 0.1743 0.3920 0.0296
C1 C 0.4676(3) 0.29368(19) 0.12299(16)
C2 C 0.5149(3) 0.1556(2) 0.07453(19)
H2 H 0.5223 0.1782 -0.0179
H3 H 0.3867 0.0917 0.1043
C3 C 0.7691(4) 0.0831(2) 0.1310(2)
H4 H 0.8983 0.0942 0.0652
H5 H 0.7652 -0.0220 0.1669
C4 C 0.8225(3) 0.1616(2) 0.23569(19)
H6 H 0.7962 0.1001 0.3199
H7 H 0.9921 0.1858 0.2284
C5 C 0.6375(3) 0.29918(19) 0.21026(16)
C6 C 0.6005(3) 0.4265(2) 0.25885(15)
C7 C 0.4040(3) 0.53819(18) 0.22374(15)
C8 C 0.2264(3) 0.52973(18) 0.13273(16)
C9 C 0.4279(3) 0.64822(19) 0.29415(16)
C10 C 0.2930(3) 0.7827(2) 0.30484(18)
H8 H 0.1503 0.8214 0.2573
C11 C 0.3761(4) 0.8572(2) 0.3877(2)
H9 H 0.2876 0.9470 0.3965
C12 C 0.5909(4) 0.8000(2) 0.4586(2)
H10 H 0.6427 0.8530 0.5134
C13 C 0.7282(3) 0.6674(2) 0.44959(18)
H11 H 0.8714 0.6293 0.4967
C14 C 0.6416(3) 0.59423(19) 0.36696(16)
loop_
_geom_bond_atom_site_label_1
_geom_bond_atom_site_label_2
_geom_bond_site_symmetry_1
_geom_bond_site_symmetry_2
O1 C8 1_555 1_555
O2 C6 1_555 1_555
N1 H1 1_555 1_555
C1 N1 1_555 1_555
C2 C1 1_555 1_555
H2 C2 1_555 1_555
H3 C2 1_555 1_555
C3 C2 1_555 1_555
H4 C3 1_555 1_555
H5 C3 1_555 1_555
C4 C3 1_555 1_555
H6 C4 1_555 1_555
H7 C4 1_555 1_555
C5 C1 1_555 1_555
C6 C5 1_555 1_555
C7 C6 1_555 1_555
C8 N1 1_555 1_555
C9 C7 1_555 1_555
C10 C9 1_555 1_555
H8 C10 1_555 1_555
C11 C10 1_555 1_555
H9 C11 1_555 1_555
C12 C11 1_555 1_555
H10 C12 1_555 1_555
C13 C12 1_555 1_555
H11 C13 1_555 1_555
C14 O2 1_555 1_555
C4 C5 1_555 1_555
C7 C8 1_555 1_555
C9 C14 1_555 1_555
C13 C14 1_555 1_555

#END
