
#######################################################################
#
#                 Cambridge Crystallographic Data Centre
#                                CCDC 
#
#######################################################################
#
# If this CIF has been generated from an entry in the Cambridge 
# Structural Database, then it will include bibliographic, chemical, 
# crystal, experimental, refinement or atomic coordinate data resulting 
# from the CCDC's data processing and validation procedures.
#
#######################################################################

data_ABACAI
_chemical_formula_moiety         'C16 H15 N1 O1'
_chemical_name_systematic        
1,2,3,4,6,7-Hexahydro-5H-benzo(f)cyclopenta(c)isoquinolin-5-one
_symmetry_cell_setting           triclinic
_symmetry_space_group_name_H-M   'P -1'
_symmetry_Int_Tables_number      2
_space_group_name_Hall           '-P 1'
loop_
_symmetry_equiv_pos_site_id
_symmetry_equiv_pos_as_xyz
1 x,y,z
2 -x,-y,-z
_cell_length_a                   10.803(2)
_cell_length_b                   11.090(2)
_cell_length_c                   11.7230(10)
_cell_angle_alpha                76.48(2)
_cell_angle_beta                 79.630(10)
_cell_angle_gamma                62.65(2)
_cell_volume                     1208.62
_exptl_crystal_colour            'light yellow'
_chemical_melting_point          '244-245 deg.C'
_cell_formula_units_Z            4
loop_
_atom_site_label
_atom_site_type_symbol
_atom_site_fract_x
_atom_site_fract_y
_atom_site_fract_z
N1 N -0.1102(4) -0.0313(4) -0.3707(3)
H1 H -0.0606(42) 0.0261(42) -0.4079(35)
O1 O 0.0174(3) -0.1627(3) -0.5103(3)
C1 C -0.2037(5) -0.0057(5) -0.2764(4)
C2 C -0.2547(5) 0.1189(5) -0.2209(4)
H2 H -0.3176(5) 0.2005(5) -0.2697(4)
H3 H -0.1775(5) 0.1338(5) -0.2069(4)
C3 C -0.3311(6) 0.0828(5) -0.1056(5)
H4 H -0.4160(6) 0.1630(5) -0.0883(5)
H5 H -0.2721(6) 0.0505(5) -0.0412(5)
C4 C -0.3661(5) -0.0317(5) -0.1220(4)
H6 H -0.3508(5) -0.1021(5) -0.0520(4)
H7 H -0.4623(5) 0.0056(5) -0.1403(4)
C5 C -0.2653(4) -0.0890(4) -0.2247(4)
C6 C -0.2259(4) -0.2127(4) -0.2707(4)
C7 C -0.2911(5) -0.3100(5) -0.2262(4)
C8 C -0.4256(5) -0.2692(5) -0.1688(4)
H8 H -0.4758(5) -0.1794(5) -0.1542(4)
C9 C -0.4844(5) -0.3593(6) -0.1338(4)
H9 H -0.5741(5) -0.3302(6) -0.0960(4)
C10 C -0.4112(6) -0.4941(6) -0.1542(4)
H10 H -0.4512(6) -0.5554(6) -0.1308(4)
C11 C -0.2775(6) -0.5354(5) -0.2101(4)
H11 H -0.2271(6) -0.6260(5) -0.2226(4)
C12 C -0.2168(5) -0.4443(5) -0.2481(4)
C13 C -0.0749(5) -0.4887(4) -0.3122(4)
H12 H -0.0518(5) -0.5697(4) -0.3452(4)
H13 H -0.0059(5) -0.5126(4) -0.2579(4)
C14 C -0.0718(5) -0.3727(5) -0.4102(4)
H14 H 0.0232(5) -0.3975(5) -0.4456(4)
H15 H -0.1298(5) -0.3589(5) -0.4707(4)
C15 C -0.1243(4) -0.2414(4) -0.3627(4)
C16 C -0.0661(5) -0.1477(5) -0.4189(4)
O2 O -0.0110(4) -0.1565(3) 0.0181(3)
N2 N 0.1016(4) -0.0637(4) -0.1324(3)
H16 H 0.0554(44) 0.0235(46) -0.1022(36)
C17 C 0.1848(5) -0.0693(5) -0.2340(4)
C18 C 0.2301(5) 0.0405(5) -0.2935(4)
H17 H 0.2676(5) 0.0657(5) -0.2385(4)
H18 H 0.1528(5) 0.1222(5) -0.3286(4)
C19 C 0.3431(6) -0.0266(5) -0.3879(4)
H19 H 0.4348(6) -0.0496(5) -0.3661(4)
H20 H 0.3280(6) 0.0356(5) -0.4629(4)
C20 C 0.3327(5) -0.1589(5) -0.3966(4)
H21 H 0.2930(5) -0.1471(5) -0.4686(4)
H22 H 0.4240(5) -0.2373(5) -0.3946(4)
C21 C 0.2373(4) -0.1785(4) -0.2897(4)
C22 C 0.2062(4) -0.2933(4) -0.2376(4)
C23 C 0.2613(4) -0.4210(5) -0.2892(4)
C24 C 0.3017(5) -0.4252(5) -0.4074(4)
H23 H 0.2952(5) -0.3446(5) -0.4580(4)
C25 C 0.3513(5) -0.5446(6) -0.4533(5)
H24 H 0.3764(5) -0.5440(6) -0.5335(5)
C26 C 0.3630(6) -0.6647(6) -0.3783(5)
H25 H 0.3994(6) -0.7466(6) -0.4074(5)
C27 C 0.3209(5) -0.6634(5) -0.2604(5)
H26 H 0.3273(5) -0.7445(5) -0.2108(5)
C28 C 0.2691(4) -0.5431(5) -0.2142(4)
C29 C 0.2194(5) -0.5405(4) -0.0869(4)
H27 H 0.2940(5) -0.5520(4) -0.0439(4)
H28 H 0.1948(5) -0.6163(4) -0.0548(4)
C30 C 0.0928(5) -0.4047(4) -0.0717(4)
H29 H 0.0136(5) -0.3998(4) -0.1038(4)
H30 H 0.0686(5) -0.3998(4) 0.0114(4)
C31 C 0.1237(5) -0.2864(4) -0.1332(4)
C32 C 0.0650(5) -0.1671(4) -0.0769(4)
loop_
_geom_bond_atom_site_label_1
_geom_bond_atom_site_label_2
_geom_bond_site_symmetry_1
_geom_bond_site_symmetry_2
N1 H1 1_555 1_555
O1 C16 1_555 1_555
C1 N1 1_555 1_555
C2 C1 1_555 1_555
H2 C2 1_555 1_555
H3 C2 1_555 1_555
C3 C2 1_555 1_555
H4 C3 1_555 1_555
H5 C3 1_555 1_555
C4 C3 1_555 1_555
H6 C4 1_555 1_555
H7 C4 1_555 1_555
C5 C1 1_555 1_555
C6 C5 1_555 1_555
C7 C6 1_555 1_555
C8 C7 1_555 1_555
H8 C8 1_555 1_555
C9 C8 1_555 1_555
H9 C9 1_555 1_555
C10 C9 1_555 1_555
H10 C10 1_555 1_555
C11 C10 1_555 1_555
H11 C11 1_555 1_555
C12 C7 1_555 1_555
C13 C12 1_555 1_555
H12 C13 1_555 1_555
H13 C13 1_555 1_555
C14 C13 1_555 1_555
H14 C14 1_555 1_555
H15 C14 1_555 1_555
C15 C6 1_555 1_555
C16 N1 1_555 1_555
O2 C32 1_555 1_555
N2 H16 1_555 1_555
C17 N2 1_555 1_555
C18 C17 1_555 1_555
H17 C18 1_555 1_555
H18 C18 1_555 1_555
C19 C18 1_555 1_555
H19 C19 1_555 1_555
H20 C19 1_555 1_555
C20 C19 1_555 1_555
H21 C20 1_555 1_555
H22 C20 1_555 1_555
C21 C17 1_555 1_555
C22 C21 1_555 1_555
C23 C22 1_555 1_555
C24 C23 1_555 1_555
H23 C24 1_555 1_555
C25 C24 1_555 1_555
H24 C25 1_555 1_555
C26 C25 1_555 1_555
H25 C26 1_555 1_555
C27 C26 1_555 1_555
H26 C27 1_555 1_555
C28 C23 1_555 1_555
C29 C28 1_555 1_555
H27 C29 1_555 1_555
H28 C29 1_555 1_555
C30 C29 1_555 1_555
H29 C30 1_555 1_555
H30 C30 1_555 1_555
C31 C22 1_555 1_555
C32 N2 1_555 1_555
C4 C5 1_555 1_555
C11 C12 1_555 1_555
C14 C15 1_555 1_555
C15 C16 1_555 1_555
C20 C21 1_555 1_555
C27 C28 1_555 1_555
C30 C31 1_555 1_555
C31 C32 1_555 1_555

#END
