
#######################################################################
#
#                 Cambridge Crystallographic Data Centre
#                                CCDC 
#
#######################################################################
#
# If this CIF has been generated from an entry in the Cambridge 
# Structural Database, then it will include bibliographic, chemical, 
# crystal, experimental, refinement or atomic coordinate data resulting 
# from the CCDC's data processing and validation procedures.
#
#######################################################################

data_ABACUC
_chemical_formula_moiety         'C16 H16 N2 O1'
_chemical_name_systematic        
5-Methoxy-10-methyl-1,2,3,10-tetrahydrocyclopenta(5,6)pyrido(4,3-b)indole
_symmetry_cell_setting           triclinic
_symmetry_space_group_name_H-M   'P -1'
_symmetry_Int_Tables_number      2
_space_group_name_Hall           '-P 1'
loop_
_symmetry_equiv_pos_site_id
_symmetry_equiv_pos_as_xyz
1 x,y,z
2 -x,-y,-z
_cell_length_a                   7.4460(10)
_cell_length_b                   9.579(2)
_cell_length_c                   10.5460(10)
_cell_angle_alpha                113.440(10)
_cell_angle_beta                 105.85(2)
_cell_angle_gamma                99.42(2)
_cell_volume                     631.494
_exptl_crystal_colour            yellow
_chemical_melting_point          '205-206 deg.C'
_cell_formula_units_Z            2
loop_
_atom_site_label
_atom_site_type_symbol
_atom_site_fract_x
_atom_site_fract_y
_atom_site_fract_z
O1 O -0.2366(3) 0.3659(2) 0.4040(2)
N1 N -0.2579(3) 0.1382(2) 0.4347(2)
N2 N -0.2566(3) -0.0834(2) 0.0069(2)
C1 C -0.2686(3) -0.0188(3) 0.3734(2)
C2 C -0.2804(4) -0.1147(3) 0.4552(3)
H1 H -0.3922(4) -0.1124(3) 0.4855(3)
H2 H -0.1618(4) -0.0740(3) 0.5429(3)
C3 C -0.3037(5) -0.2828(3) 0.3432(3)
H3 H -0.4330(5) -0.3533(3) 0.3146(3)
H4 H -0.2065(5) -0.3233(3) 0.3871(3)
C4 C -0.2769(4) -0.2778(3) 0.2069(3)
H5 H -0.1566(4) -0.2996(3) 0.1988(3)
H6 H -0.3867(4) -0.3550(3) 0.1164(3)
C5 C -0.2673(3) -0.1090(3) 0.2349(2)
C6 C -0.2566(3) -0.0303(3) 0.1495(2)
C7 C -0.2428(3) 0.0433(3) -0.0258(2)
C8 C -0.2374(3) 0.0466(3) -0.1552(3)
H7 H -0.2435(3) -0.0448(3) -0.2358(3)
C9 C -0.2228(4) 0.1884(3) -0.1608(3)
H8 H -0.2200(4) 0.1928(3) -0.2468(3)
C10 C -0.2121(4) 0.3261(3) -0.0402(3)
H9 H -0.2005(4) 0.4210(3) -0.0467(3)
C11 C -0.2183(3) 0.3246(3) 0.0886(3)
H10 H -0.2127(3) 0.4169(3) 0.1681(3)
C12 C -0.2333(3) 0.1818(3) 0.0974(2)
C13 C -0.2430(3) 0.1328(3) 0.2090(2)
C14 C -0.2462(3) 0.2086(3) 0.3518(2)
C15 C -0.2778(4) -0.2443(3) -0.0974(3)
H11 H -0.234(10) -0.3010(27) -0.0438(4)
H12 H -0.2001(85) -0.2405(3) -0.1558(56)
H13 H -0.4132(17) -0.2984(29) -0.1619(53)
C16 C -0.2383(5) 0.4468(3) 0.5502(3)
H14 H -0.2157(25) 0.5586(5) 0.5791(8)
H15 H -0.1369(16) 0.4335(17) 0.6193(4)
H16 H -0.3635(9) 0.4026(14) 0.5505(5)
H17? H -0.1509(11) -0.2538(24) -0.0957(60)
H18? H -0.3587(89) -0.2675(31) -0.1959(12)
H19? H -0.3380(98) -0.3186(7) -0.0700(47)
loop_
_geom_bond_atom_site_label_1
_geom_bond_atom_site_label_2
_geom_bond_site_symmetry_1
_geom_bond_site_symmetry_2
O1 C14 1_555 1_555
N1 C1 1_555 1_555
N2 C6 1_555 1_555
C1 C2 1_555 1_555
C2 H1 1_555 1_555
H2 C2 1_555 1_555
C3 C2 1_555 1_555
H3 C3 1_555 1_555
H4 C3 1_555 1_555
C4 C3 1_555 1_555
H5 C4 1_555 1_555
H6 C4 1_555 1_555
C5 C1 1_555 1_555
C6 C5 1_555 1_555
C7 N2 1_555 1_555
C8 C7 1_555 1_555
H7 C8 1_555 1_555
C9 C8 1_555 1_555
H8 C9 1_555 1_555
C10 C9 1_555 1_555
H9 C10 1_555 1_555
C11 C10 1_555 1_555
H10 C11 1_555 1_555
C12 C7 1_555 1_555
C13 C6 1_555 1_555
C14 N1 1_555 1_555
C15 N2 1_555 1_555
H11 C15 1_555 1_555
H12 C15 1_555 1_555
H13 C15 1_555 1_555
C16 O1 1_555 1_555
H14 C16 1_555 1_555
H15 C16 1_555 1_555
H16 C16 1_555 1_555
C4 C5 1_555 1_555
C11 C12 1_555 1_555
C12 C13 1_555 1_555
C13 C14 1_555 1_555

#END
