
#######################################################################
#
#                 Cambridge Crystallographic Data Centre
#                                CCDC 
#
#######################################################################
#
# If this CIF has been generated from an entry in the Cambridge 
# Structural Database, then it will include bibliographic, chemical, 
# crystal, experimental, refinement or atomic coordinate data resulting 
# from the CCDC's data processing and validation procedures.
#
#######################################################################

data_ABACEM
_chemical_formula_moiety         'C15 H13 N1 O1'
_chemical_name_systematic        
5,8,9,10-Tetrahydro-(2)benzopyrano(3,4-b)cyclopenta(e)pyridine
_symmetry_cell_setting           orthorhombic
_symmetry_space_group_name_H-M   'P 21 21 21'
_symmetry_Int_Tables_number      19
_space_group_name_Hall           'P 2ac 2ab'
loop_
_symmetry_equiv_pos_site_id
_symmetry_equiv_pos_as_xyz
1 x,y,z
2 1/2-x,-y,1/2+z
3 -x,1/2+y,1/2-z
4 1/2+x,1/2-y,-z
_cell_length_a                   13.6695(8)
_cell_length_b                   14.6107(9)
_cell_length_c                   22.7212(14)
_cell_angle_alpha                90
_cell_angle_beta                 90
_cell_angle_gamma                90
_cell_volume                     4537.9
_exptl_crystal_colour            brown
_chemical_melting_point          '103-104 deg.C'
_cell_formula_units_Z            16
_exptl_crystal_recrystallization_method dichloromethane/hexanes
loop_
_atom_site_label
_atom_site_type_symbol
_atom_site_fract_x
_atom_site_fract_y
_atom_site_fract_z
N1 N 0.71584(13) 0.37751(15) 0.45821(10)
O1 O 0.76082(11) 0.34164(14) 0.36602(8)
C1 C 0.64557(17) 0.39678(18) 0.49656(12)
C2 C 0.66224(19) 0.4076(2) 0.56145(12)
H1 H 0.7004 0.4621 0.5697
H2 H 0.6958 0.3548 0.5776
C3 C 0.5602(2) 0.4159(3) 0.58631(14)
H3 H 0.5434 0.3607 0.6078
H4 H 0.5569 0.4673 0.6133
C4 C 0.48955(18) 0.4299(2) 0.53617(12)
H5 H 0.4345 0.3883 0.5393
H6 H 0.4653 0.4923 0.5357
C5 C 0.54834(16) 0.41008(18) 0.48215(12)
C6 C 0.52169(16) 0.40202(18) 0.42404(12)
H7 H 0.4570 0.4115 0.4128
C7 C 0.59174(15) 0.37972(17) 0.38223(11)
C8 C 0.57040(16) 0.35888(17) 0.32037(11)
C9 C 0.47606(18) 0.3451(2) 0.29855(13)
H8 H 0.4225 0.3498 0.3236
C10 C 0.4621(2) 0.3245(2) 0.24034(14)
H9 H 0.3989 0.3171 0.2259
C11 C 0.5404(2) 0.3146(2) 0.20300(14)
H10 H 0.5303 0.3000 0.1636
C12 C 0.6342(2) 0.3264(2) 0.22417(14)
H11 H 0.6875 0.3187 0.1993
C13 C 0.64871(17) 0.34980(19) 0.28241(12)
C14 C 0.74937(18) 0.3684(2) 0.30648(13)
H12 H 0.7970 0.3360 0.2827
H13 H 0.7630 0.4333 0.3031
C15 C 0.68750(16) 0.36912(17) 0.40316(12)
N2 N 0.21746(14) 0.34554(16) 0.31738(10)
O2 O 0.25614(11) 0.31962(14) 0.41158(9)
C16 C 0.15017(18) 0.36451(18) 0.27632(13)
C17 C 0.1714(2) 0.3701(2) 0.21208(13)
H14 H 0.2015 0.3140 0.1981
H15 H 0.2146 0.4211 0.2036
C18 C 0.0730(2) 0.3841(3) 0.18406(14)
H16 H 0.0544 0.3300 0.1620
H17 H 0.0754 0.4356 0.1571
C19 C -0.0016(2) 0.4025(2) 0.23264(12)
H18 H -0.0235 0.4657 0.2317
H19 H -0.0580 0.3626 0.2287
C20 C 0.05286(17) 0.38265(18) 0.28823(12)
C21 C 0.02283(16) 0.38054(18) 0.34600(12)
H20 H -0.0421 0.3929 0.3554
C22 C 0.08917(15) 0.36000(17) 0.39038(12)
C23 C 0.06460(16) 0.35101(18) 0.45250(11)
C24 C -0.03109(17) 0.3481(2) 0.47381(12)
H21 H -0.0832 0.3512 0.4476
C25 C -0.0491(2) 0.3407(2) 0.53301(13)
H22 H -0.1133 0.3398 0.5466
C26 C 0.0263(2) 0.3345(2) 0.57222(13)
H23 H 0.0134 0.3290 0.6123
C27 C 0.12144(19) 0.33645(19) 0.55241(13)
H24 H 0.1728 0.3323 0.5791
C28 C 0.14087(17) 0.34461(18) 0.49280(12)
C29 C 0.24359(17) 0.3504(2) 0.47104(13)
H25 H 0.2654 0.4134 0.4738
H26 H 0.2851 0.3140 0.4966
C30 C 0.18601(16) 0.34391(19) 0.37224(13)
O3 O 0.14579(11) 0.38479(16) 0.86343(10)
N3 N 0.19134(14) 0.39217(18) 0.95827(11)
C31 C 0.26186(17) 0.3995(2) 0.99848(13)
C32 C 0.2447(2) 0.3985(2) 1.06329(14)
H27 H 0.2145 0.3414 1.0754
H28 H 0.2026 0.4488 1.0749
C33 C 0.3445(2) 0.4084(3) 1.09008(15)
H29 H 0.3586 0.3563 1.1151
H30 H 0.3472 0.4634 1.1139
C34 C 0.41909(19) 0.4141(2) 1.04068(12)
H31 H 0.4550 0.4713 1.0425
H32 H 0.4651 0.3637 1.0429
C35 C 0.36027(17) 0.40861(18) 0.98592(12)
C36 C 0.38829(16) 0.40870(18) 0.92743(12)
H33 H 0.4539 0.4149 0.9173
C37 C 0.31769(16) 0.39948(18) 0.88389(12)
C38 C 0.33826(17) 0.38611(19) 0.82127(13)
C39 C 0.42992(19) 0.3625(2) 0.79912(13)
H34 H 0.4830 0.3581 0.8245
C40 C 0.4425(2) 0.3458(2) 0.74026(14)
H35 H 0.5042 0.3301 0.7261
C41 C 0.3649(3) 0.3519(2) 0.70184(15)
H36 H 0.3738 0.3400 0.6620
C42 C 0.2741(2) 0.3757(2) 0.72290(15)
H37 H 0.2215 0.3799 0.6971
C43 C 0.26048(19) 0.39339(19) 0.78210(14)
C44 C 0.1645(2) 0.4239(3) 0.80677(15)
H38 H 0.1643 0.4901 0.8100
H39 H 0.1125 0.4065 0.7800
C45 C 0.21981(17) 0.3945(2) 0.90322(14)
O4 O 0.64714(12) 0.35101(17) 0.91149(10)
N4 N 0.68763(14) 0.37438(18) 0.81713(12)
C46 C 0.75670(18) 0.3878(2) 0.77606(14)
C47 C 0.7358(2) 0.3985(2) 0.71193(14)
H40 H 0.6996 0.4544 0.7045
H41 H 0.6984 0.3470 0.6972
C48 C 0.8345(2) 0.4022(3) 0.68375(15)
H42 H 0.8377 0.4532 0.6564
H43 H 0.8467 0.3462 0.6621
C49 C 0.91126(18) 0.4142(2) 0.73242(12)
H44 H 0.9640 0.3703 0.7280
H45 H 0.9384 0.4755 0.7319
C50 C 0.85515(17) 0.39728(19) 0.78820(13)
C51 C 0.88518(17) 0.39048(18) 0.84560(12)
H46 H 0.9512 0.3964 0.8548
C52 C 0.81765(17) 0.37483(18) 0.89007(13)
C53 C 0.84156(18) 0.35888(18) 0.95187(13)
C54 C 0.93591(19) 0.3414(2) 0.97207(13)
H47 H 0.9880 0.3419 0.9457
C55 C 0.9528(2) 0.3234(2) 1.03063(15)
H48 H 1.0160 0.3121 1.0439
C56 C 0.8754(3) 0.3222(2) 1.06964(15)
H49 H 0.8866 0.3098 1.1092
C57 C 0.7822(3) 0.3392(2) 1.05048(15)
H50 H 0.7303 0.3379 1.0769
C58 C 0.7652(2) 0.3584(2) 0.99176(14)
C59 C 0.6653(2) 0.3838(3) 0.96947(16)
H51 H 0.6163 0.3589 0.9959
H52 H 0.6589 0.4499 0.9698
C60 C 0.71923(18) 0.3688(2) 0.87143(14)
loop_
_geom_bond_atom_site_label_1
_geom_bond_atom_site_label_2
_geom_bond_site_symmetry_1
_geom_bond_site_symmetry_2
N1 C1 1_555 1_555
O1 C14 1_555 1_555
C1 C2 1_555 1_555
C2 H1 1_555 1_555
H2 C2 1_555 1_555
C3 C2 1_555 1_555
H3 C3 1_555 1_555
H4 C3 1_555 1_555
C4 C3 1_555 1_555
H5 C4 1_555 1_555
H6 C4 1_555 1_555
C5 C1 1_555 1_555
C6 C5 1_555 1_555
H7 C6 1_555 1_555
C7 C6 1_555 1_555
C8 C7 1_555 1_555
C9 C8 1_555 1_555
H8 C9 1_555 1_555
C10 C9 1_555 1_555
H9 C10 1_555 1_555
C11 C10 1_555 1_555
H10 C11 1_555 1_555
C12 C11 1_555 1_555
H11 C12 1_555 1_555
C13 C8 1_555 1_555
C14 C13 1_555 1_555
H12 C14 1_555 1_555
H13 C14 1_555 1_555
C15 N1 1_555 1_555
N2 C16 1_555 1_555
O2 C29 1_555 1_555
C16 C17 1_555 1_555
C17 H14 1_555 1_555
H15 C17 1_555 1_555
C18 C17 1_555 1_555
H16 C18 1_555 1_555
H17 C18 1_555 1_555
C19 C18 1_555 1_555
H18 C19 1_555 1_555
H19 C19 1_555 1_555
C20 C16 1_555 1_555
C21 C20 1_555 1_555
H20 C21 1_555 1_555
C22 C21 1_555 1_555
C23 C22 1_555 1_555
C24 C23 1_555 1_555
H21 C24 1_555 1_555
C25 C24 1_555 1_555
H22 C25 1_555 1_555
C26 C25 1_555 1_555
H23 C26 1_555 1_555
C27 C26 1_555 1_555
H24 C27 1_555 1_555
C28 C23 1_555 1_555
C29 C28 1_555 1_555
H25 C29 1_555 1_555
H26 C29 1_555 1_555
C30 N2 1_555 1_555
O3 C44 1_555 1_555
N3 C31 1_555 1_555
C31 C32 1_555 1_555
C32 H27 1_555 1_555
H28 C32 1_555 1_555
C33 C32 1_555 1_555
H29 C33 1_555 1_555
H30 C33 1_555 1_555
C34 C33 1_555 1_555
H31 C34 1_555 1_555
H32 C34 1_555 1_555
C35 C31 1_555 1_555
C36 C35 1_555 1_555
H33 C36 1_555 1_555
C37 C36 1_555 1_555
C38 C37 1_555 1_555
C39 C38 1_555 1_555
H34 C39 1_555 1_555
C40 C39 1_555 1_555
H35 C40 1_555 1_555
C41 C40 1_555 1_555
H36 C41 1_555 1_555
C42 C41 1_555 1_555
H37 C42 1_555 1_555
C43 C38 1_555 1_555
C44 C43 1_555 1_555
H38 C44 1_555 1_555
H39 C44 1_555 1_555
C45 O3 1_555 1_555
O4 C59 1_555 1_555
N4 C46 1_555 1_555
C46 C47 1_555 1_555
C47 H40 1_555 1_555
H41 C47 1_555 1_555
C48 C47 1_555 1_555
H42 C48 1_555 1_555
H43 C48 1_555 1_555
C49 C48 1_555 1_555
H44 C49 1_555 1_555
H45 C49 1_555 1_555
C50 C46 1_555 1_555
C51 C50 1_555 1_555
H46 C51 1_555 1_555
C52 C51 1_555 1_555
C53 C52 1_555 1_555
C54 C53 1_555 1_555
H47 C54 1_555 1_555
C55 C54 1_555 1_555
H48 C55 1_555 1_555
C56 C55 1_555 1_555
H49 C56 1_555 1_555
C57 C56 1_555 1_555
H50 C57 1_555 1_555
C58 C53 1_555 1_555
C59 C58 1_555 1_555
H51 C59 1_555 1_555
H52 C59 1_555 1_555
C60 O4 1_555 1_555
O1 C15 1_555 1_555
C4 C5 1_555 1_555
C7 C15 1_555 1_555
C12 C13 1_555 1_555
O2 C30 1_555 1_555
C19 C20 1_555 1_555
C22 C30 1_555 1_555
C27 C28 1_555 1_555
N3 C45 1_555 1_555
C34 C35 1_555 1_555
C37 C45 1_555 1_555
C42 C43 1_555 1_555
N4 C60 1_555 1_555
C49 C50 1_555 1_555
C52 C60 1_555 1_555
C57 C58 1_555 1_555

#END
