
#######################################################################
#
#                 Cambridge Crystallographic Data Centre
#                                CCDC 
#
#######################################################################
#
# If this CIF has been generated from an entry in the Cambridge 
# Structural Database, then it will include bibliographic, chemical, 
# crystal, experimental, refinement or atomic coordinate data resulting 
# from the CCDC's data processing and validation procedures.
#
#######################################################################

data_ABADEN
_chemical_formula_moiety         'C16 H15 N1 O2'
_chemical_name_systematic        
11-Methoxy-5,8,9,10-tetrahydro-(2)benzopyrano(3,4-b)cyclopenta(e)pyridine
_symmetry_cell_setting           orthorhombic
_symmetry_space_group_name_H-M   'P 21 21 21'
_symmetry_Int_Tables_number      19
_space_group_name_Hall           'P 2ac 2ab'
loop_
_symmetry_equiv_pos_site_id
_symmetry_equiv_pos_as_xyz
1 x,y,z
2 1/2-x,-y,1/2+z
3 -x,1/2+y,1/2-z
4 1/2+x,1/2-y,-z
_cell_length_a                   12.2280(10)
_cell_length_b                   13.9240(10)
_cell_length_c                   14.838(2)
_cell_angle_alpha                90
_cell_angle_beta                 90
_cell_angle_gamma                90
_cell_volume                     2526.36
_exptl_crystal_colour            white
_chemical_melting_point          '125-126 deg.C'
_cell_formula_units_Z            8
loop_
_atom_site_label
_atom_site_type_symbol
_atom_site_fract_x
_atom_site_fract_y
_atom_site_fract_z
N1 N 0.2160(3) 0.3865(2) 0.0551(2)
O1 O 0.0581(2) 0.3074(2) 0.0416(2)
O2 O 0.0556(2) 0.6489(2) 0.0293(2)
C1 C 0.1113(4) 0.5650(3) 0.0392(2)
C2 C 0.2243(3) 0.5601(3) 0.0472(3)
C3 C 0.3121(4) 0.6364(3) 0.0465(3)
H1 H 0.3114(4) 0.6730(3) 0.1022(3)
H2 H 0.3023(4) 0.6800(3) -0.0038(3)
C4 C 0.4182(4) 0.5799(3) 0.0371(3)
H3 H 0.4736(4) 0.6058(3) 0.0770(3)
H4 H 0.4450(4) 0.5836(3) -0.0244(3)
C5 C 0.3928(3) 0.4758(3) 0.0620(3)
H5 H 0.4268(3) 0.4316(3) 0.0199(3)
H6 H 0.4180(3) 0.4612(3) 0.1224(3)
C6 C 0.2703(3) 0.4704(3) 0.0562(2)
C7 C 0.1098(3) 0.3947(3) 0.0428(3)
C8 C -0.0331(3) 0.3053(3) -0.0180(3)
H7 H -0.0693(3) 0.2435(3) -0.0134(3)
H8 H -0.0077(3) 0.3129(3) -0.0795(3)
C9 C -0.1134(3) 0.3837(3) 0.0037(3)
C10 C -0.2258(4) 0.3688(4) -0.0036(3)
H9 H -0.2529(4) 0.3091(4) -0.0206(3)
C11 C -0.2961(4) 0.4435(4) 0.0145(3)
H10 H -0.3711(4) 0.4347(4) 0.0078(3)
C12 C -0.2565(4) 0.5307(4) 0.0423(3)
H11 H -0.3050(4) 0.5798(4) 0.0565(3)
C13 C -0.1444(3) 0.5465(4) 0.0495(3)
H12 H -0.1182(3) 0.6062(4) 0.0673(3)
C14 C -0.0715(3) 0.4722(3) 0.0297(2)
C15 C 0.0500(3) 0.4801(3) 0.0365(2)
C16 C 0.0832(5) 0.7271(3) 0.0846(3)
H13 H 0.0188(6) 0.7643(13) 0.0969(17)
H14 H 0.1362(19) 0.7665(12) 0.0544(9)
H15 H 0.1134(24) 0.7039(3) 0.1402(9)
O3 O 0.2059(2) 0.3408(2) 0.7875(2)
O4 O 0.2196(2) 0.6814(2) 0.8204(2)
N2 N 0.0489(3) 0.4241(2) 0.7851(2)
C17 C 0.1606(3) 0.5989(3) 0.8056(2)
C18 C 0.0472(3) 0.5968(3) 0.8005(2)
C19 C -0.0380(3) 0.6748(3) 0.8087(3)
H16 H -0.0360(3) 0.7039(3) 0.8680(3)
H17 H -0.0265(3) 0.7243(3) 0.7637(3)
C20 C -0.1443(4) 0.6245(3) 0.7934(4)
H18 H -0.1786(4) 0.6489(3) 0.7391(4)
H19 H -0.1930(4) 0.6364(3) 0.8437(4)
C21 C -0.1244(3) 0.5176(3) 0.7840(3)
H20 H -0.1596(3) 0.4823(3) 0.8324(3)
H21 H -0.1515(3) 0.4940(3) 0.7267(3)
C22 C -0.0025(3) 0.5087(3) 0.7895(3)
C23 C 0.1571(3) 0.4289(3) 0.7930(2)
C24 C 0.3052(3) 0.3344(3) 0.8397(3)
H22 H 0.3391(3) 0.2724(3) 0.8295(3)
H23 H 0.2876(3) 0.3392(3) 0.9033(3)
C25 C 0.3842(3) 0.4124(3) 0.8151(2)
C26 C 0.4966(3) 0.3961(3) 0.8127(3)
H24 H 0.5245(3) 0.3355(3) 0.8257(3)
C27 C 0.5660(4) 0.4705(3) 0.7908(3)
H25 H 0.6413(4) 0.4608(3) 0.7912(3)
C28 C 0.5241(4) 0.5592(3) 0.7685(3)
H26 H 0.5712(4) 0.6085(3) 0.7517(3)
C29 C 0.4131(3) 0.5754(3) 0.7708(3)
H27 H 0.3862(3) 0.6358(3) 0.7556(3)
C30 C 0.3402(3) 0.5029(3) 0.7956(2)
C31 C 0.2198(3) 0.5128(3) 0.7993(2)
C32 C 0.1971(4) 0.7620(3) 0.7657(4)
H28 H 0.2572(13) 0.8062(12) 0.7688(19)
H29 H 0.1317(17) 0.7929(14) 0.7866(15)
H30 H 0.1871(27) 0.7415(4) 0.7045(5)
loop_
_geom_bond_atom_site_label_1
_geom_bond_atom_site_label_2
_geom_bond_site_symmetry_1
_geom_bond_site_symmetry_2
N1 C6 1_555 1_555
O1 C7 1_555 1_555
O2 C1 1_555 1_555
C1 C2 1_555 1_555
C2 C3 1_555 1_555
C3 H1 1_555 1_555
H2 C3 1_555 1_555
C4 C3 1_555 1_555
H3 C4 1_555 1_555
H4 C4 1_555 1_555
C5 C4 1_555 1_555
H5 C5 1_555 1_555
H6 C5 1_555 1_555
C6 C2 1_555 1_555
C7 N1 1_555 1_555
C8 O1 1_555 1_555
H7 C8 1_555 1_555
H8 C8 1_555 1_555
C9 C8 1_555 1_555
C10 C9 1_555 1_555
H9 C10 1_555 1_555
C11 C10 1_555 1_555
H10 C11 1_555 1_555
C12 C11 1_555 1_555
H11 C12 1_555 1_555
C13 C12 1_555 1_555
H12 C13 1_555 1_555
C14 C9 1_555 1_555
C15 C1 1_555 1_555
C16 O2 1_555 1_555
H13 C16 1_555 1_555
H14 C16 1_555 1_555
H15 C16 1_555 1_555
O3 C23 1_555 1_555
O4 C17 1_555 1_555
N2 C22 1_555 1_555
C17 C18 1_555 1_555
C18 C19 1_555 1_555
C19 H16 1_555 1_555
H17 C19 1_555 1_555
C20 C19 1_555 1_555
H18 C20 1_555 1_555
H19 C20 1_555 1_555
C21 C20 1_555 1_555
H20 C21 1_555 1_555
H21 C21 1_555 1_555
C22 C18 1_555 1_555
C23 N2 1_555 1_555
C24 O3 1_555 1_555
H22 C24 1_555 1_555
H23 C24 1_555 1_555
C25 C24 1_555 1_555
C26 C25 1_555 1_555
H24 C26 1_555 1_555
C27 C26 1_555 1_555
H25 C27 1_555 1_555
C28 C27 1_555 1_555
H26 C28 1_555 1_555
C29 C28 1_555 1_555
H27 C29 1_555 1_555
C30 C25 1_555 1_555
C31 C17 1_555 1_555
C32 O4 1_555 1_555
H28 C32 1_555 1_555
H29 C32 1_555 1_555
H30 C32 1_555 1_555
C5 C6 1_555 1_555
C7 C15 1_555 1_555
C13 C14 1_555 1_555
C14 C15 1_555 1_555
C21 C22 1_555 1_555
C23 C31 1_555 1_555
C29 C30 1_555 1_555
C30 C31 1_555 1_555

#END
