
#######################################################################
#
#                 Cambridge Crystallographic Data Centre
#                                CCDC 
#
#######################################################################
#
# If this CIF has been generated from an entry in the Cambridge 
# Structural Database, then it will include bibliographic, chemical, 
# crystal, experimental, refinement or atomic coordinate data resulting 
# from the CCDC's data processing and validation procedures.
#
#######################################################################

data_ABADIR
_chemical_formula_moiety         'C42 H40'
_chemical_name_systematic        
1,2,3,4-Tetraethyl-5,6,7,8-tetraphenylnaphthalene
_symmetry_cell_setting           monoclinic
_symmetry_space_group_name_H-M   'P 21/a'
_symmetry_Int_Tables_number      14
_space_group_name_Hall           '-P 2yab'
loop_
_symmetry_equiv_pos_site_id
_symmetry_equiv_pos_as_xyz
1 x,y,z
2 1/2-x,1/2+y,-z
3 -x,-y,-z
4 1/2+x,1/2-y,z
_cell_length_a                   14.368(2)
_cell_length_b                   18.072(2)
_cell_length_c                   12.858(2)
_cell_angle_alpha                90
_cell_angle_beta                 105.244(9)
_cell_angle_gamma                90
_cell_volume                     3221.22
_exptl_crystal_colour            colorless
_exptl_crystal_description       prismatic
_cell_formula_units_Z            4
_exptl_crystal_recrystallization_method 'ethyl acetate/hexane'
loop_
_atom_site_label
_atom_site_type_symbol
_atom_site_fract_x
_atom_site_fract_y
_atom_site_fract_z
C1 C 0.7979(2) 0.0506(1) 0.2617(2)
C2 C 0.7633(2) 0.0436(2) 0.3571(2)
C3 C 0.7125(2) -0.0190(2) 0.3702(2)
C4 C 0.6995(2) -0.0787(2) 0.2943(2)
C5 C 0.7206(2) -0.0686(2) 0.1960(2)
C6 C 0.7604(2) 0.0013(1) 0.1735(2)
C7 C 0.7680(2) 0.0227(1) 0.0683(2)
C8 C 0.8277(2) 0.0803(1) 0.0563(2)
C9 C 0.8837(2) 0.1183(1) 0.1494(2)
C10 C 0.8679(2) 0.1052(1) 0.2494(2)
C11 C 0.7693(2) 0.1077(2) 0.4347(2)
C12 C 0.7070(3) 0.1710(3) 0.3858(4)
C13 C 0.6731(5) -0.0280(3) 0.4694(4)
C14 C 0.7322(8) -0.0515(6) 0.5600(6)
C15 C 0.6624(3) -0.1527(2) 0.3217(3)
C16 C 0.5540(3) -0.1650(2) 0.2706(5)
C17 C 0.7176(2) -0.1336(2) 0.1212(2)
C18 C 0.8168(3) -0.1621(2) 0.1248(3)
C19 C 0.7020(2) -0.0092(1) -0.0317(2)
C20 C 0.6041(2) 0.0062(2) -0.0540(2)
C21 C 0.5408(2) -0.0195(2) -0.1480(2)
C22 C 0.5746(3) -0.0604(2) -0.2191(2)
C23 C 0.6713(3) -0.0760(2) -0.1982(2)
C24 C 0.7349(2) -0.0498(2) -0.1056(2)
C25 C 0.8351(2) 0.1018(1) -0.0527(2)
C26 C 0.7574(2) 0.1361(2) -0.1256(2)
C27 C 0.7625(4) 0.1527(2) -0.2287(3)
C28 C 0.8429(5) 0.1353(3) -0.2606(3)
C29 C 0.9196(4) 0.1029(3) -0.1916(3)
C30 C 0.9168(2) 0.0845(2) -0.0848(2)
C31 C 0.9580(2) 0.1729(1) 0.1356(2)
C32 C 0.9311(2) 0.2399(2) 0.0844(2)
C33 C 0.9993(2) 0.2899(2) 0.0697(2)
C34 C 1.0951(2) 0.2741(2) 0.1051(3)
C35 C 1.1227(2) 0.2082(2) 0.1550(3)
C36 C 1.0551(2) 0.1575(2) 0.1713(2)
C37 C 0.9326(2) 0.1420(2) 0.3463(2)
C38 C 0.9324(2) 0.2178(2) 0.3614(2)
C39 C 0.9905(3) 0.2491(2) 0.4540(3)
C40 C 1.0504(3) 0.2052(3) 0.5300(3)
C41 C 1.0534(3) 0.1307(3) 0.5144(3)
C42 C 0.9953(2) 0.0991(2) 0.4228(2)
H1 H 0.7497 0.0908 0.4957
H2 H 0.8343 0.1243 0.4569
H3 H 0.7132 0.2095 0.4374
H4 H 0.7263 0.1887 0.3251
H5 H 0.6417 0.1551 0.3636
H6 H 0.6970 -0.1908 0.2972
H7 H 0.6739 -0.1558 0.3978
H8 H 0.5181 -0.1280 0.2956
H9 H 0.5412 -0.1621 0.1944
H10 H 0.5359 -0.2124 0.2904
H11 H 0.6814 -0.1723 0.1417
H12 H 0.6870 -0.1185 0.0496
H13 H 0.8484 -0.1768 0.1964
H14 H 0.8115 -0.2034 0.0780
H15 H 0.8531 -0.1242 0.1025
H16 H 0.5802 0.0345 -0.0044
H17 H 0.4740 -0.0085 -0.1627
H18 H 0.5312 -0.0781 -0.2833
H19 H 0.6945 -0.1049 -0.2478
H20 H 0.8018 -0.0599 -0.0926
H21 H 0.7008 0.1480 -0.1039
H22 H 0.7097 0.1763 -0.2775
H23 H 0.8452 0.1461 -0.3322
H24 H 0.9758 0.0923 -0.2146
H25 H 0.9701 0.0609 -0.0367
H26 H 0.8646 0.2518 0.0589
H27 H 0.9793 0.3356 0.0346
H28 H 1.1420 0.3085 0.0952
H29 H 1.1894 0.1966 0.1791
H30 H 1.0759 0.1121 0.2072
H31 H 0.8922 0.2484 0.3080
H32 H 0.9890 0.3010 0.4650
H33 H 1.0900 0.2268 0.5938
H34 H 1.0956 0.1006 0.5668
H35 H 0.9982 0.0473 0.4120
C43? C 0.5964(9) 0.0038(9) 0.4754(8)
loop_
_geom_bond_atom_site_label_1
_geom_bond_atom_site_label_2
_geom_bond_site_symmetry_1
_geom_bond_site_symmetry_2
C1 C2 1_555 1_555
C2 C3 1_555 1_555
C3 C4 1_555 1_555
C4 C5 1_555 1_555
C5 C6 1_555 1_555
C6 C1 1_555 1_555
C7 C6 1_555 1_555
C8 C7 1_555 1_555
C9 C8 1_555 1_555
C10 C1 1_555 1_555
C11 C2 1_555 1_555
C12 C11 1_555 1_555
C13 C3 1_555 1_555
C14 C13 1_555 1_555
C15 C4 1_555 1_555
C16 C15 1_555 1_555
C17 C5 1_555 1_555
C18 C17 1_555 1_555
C19 C7 1_555 1_555
C20 C19 1_555 1_555
C21 C20 1_555 1_555
C22 C21 1_555 1_555
C23 C22 1_555 1_555
C24 C19 1_555 1_555
C25 C8 1_555 1_555
C26 C25 1_555 1_555
C27 C26 1_555 1_555
C28 C27 1_555 1_555
C29 C28 1_555 1_555
C30 C25 1_555 1_555
C31 C9 1_555 1_555
C32 C31 1_555 1_555
C33 C32 1_555 1_555
C34 C33 1_555 1_555
C35 C34 1_555 1_555
C36 C31 1_555 1_555
C37 C10 1_555 1_555
C38 C37 1_555 1_555
C39 C38 1_555 1_555
C40 C39 1_555 1_555
C41 C40 1_555 1_555
C42 C37 1_555 1_555
H1 C11 1_555 1_555
H2 C11 1_555 1_555
H3 C12 1_555 1_555
H4 C12 1_555 1_555
H5 C12 1_555 1_555
H6 C15 1_555 1_555
H7 C15 1_555 1_555
H8 C16 1_555 1_555
H9 C16 1_555 1_555
H10 C16 1_555 1_555
H11 C17 1_555 1_555
H12 C17 1_555 1_555
H13 C18 1_555 1_555
H14 C18 1_555 1_555
H15 C18 1_555 1_555
H16 C20 1_555 1_555
H17 C21 1_555 1_555
H18 C22 1_555 1_555
H19 C23 1_555 1_555
H20 C24 1_555 1_555
H21 C26 1_555 1_555
H22 C27 1_555 1_555
H23 C28 1_555 1_555
H24 C29 1_555 1_555
H25 C30 1_555 1_555
H26 C32 1_555 1_555
H27 C33 1_555 1_555
H28 C34 1_555 1_555
H29 C35 1_555 1_555
H30 C36 1_555 1_555
H31 C38 1_555 1_555
H32 C39 1_555 1_555
H33 C40 1_555 1_555
H34 C41 1_555 1_555
H35 C42 1_555 1_555
C9 C10 1_555 1_555
C23 C24 1_555 1_555
C29 C30 1_555 1_555
C35 C36 1_555 1_555
C41 C42 1_555 1_555

#END
