
#######################################################################
#
#                 Cambridge Crystallographic Data Centre
#                                CCDC 
#
#######################################################################
#
# If this CIF has been generated from an entry in the Cambridge 
# Structural Database, then it will include bibliographic, chemical, 
# crystal, experimental, refinement or atomic coordinate data resulting 
# from the CCDC's data processing and validation procedures.
#
#######################################################################

data_ABADOY
_chemical_formula_moiety         'C6 H9 N2 O2 S1 1+,N1 O3 1-'
_chemical_name_systematic        '4-Sulfamoylanilinium nitrate'
_symmetry_cell_setting           monoclinic
_symmetry_space_group_name_H-M   'C c'
_symmetry_Int_Tables_number      9
_space_group_name_Hall           'C -2yc'
loop_
_symmetry_equiv_pos_site_id
_symmetry_equiv_pos_as_xyz
1 x,y,z
2 x,-y,1/2+z
3 1/2+x,1/2+y,z
4 1/2+x,1/2-y,1/2+z
_cell_length_a                   14.1489(19)
_cell_length_b                   8.1786(11)
_cell_length_c                   8.6931(12)
_cell_angle_alpha                90
_cell_angle_beta                 107.129(2)
_cell_angle_gamma                90
_cell_volume                     961.33
_exptl_crystal_colour            colorless
_exptl_crystal_description       block
_cell_formula_units_Z            4
loop_
_atom_site_label
_atom_site_type_symbol
_atom_site_fract_x
_atom_site_fract_y
_atom_site_fract_z
C1 C 0.29701(12) 0.3638(2) 0.66596(19)
C2 C 0.20184(13) 0.3652(2) 0.5630(2)
H1 H 0.1737 0.2705 0.5098
C3 C 0.14895(12) 0.5103(2) 0.5403(2)
H2 H 0.0845 0.5138 0.4721
C4 C 0.19244(12) 0.6488(2) 0.6193(2)
C5 C 0.28819(14) 0.6483(2) 0.7208(2)
H3 H 0.3166 0.7437 0.7723
C6 C 0.34101(13) 0.5037(2) 0.7443(2)
H4 H 0.4055 0.5005 0.8122
N1 N 0.39052(16) 0.1289(2) 0.8816(2)
N2 N 0.13535(11) 0.79981(18) 0.59414(18)
O1 O 0.45798(12) 0.21351(19) 0.6684(2)
O2 O 0.30328(10) 0.05499(16) 0.60456(18)
S1 S 0.36568(3) 0.17908(4) 0.69713(4)
H5 H 0.343(2) 0.088(3) 0.900(3)
H6 H 0.4231(19) 0.194(4) 0.932(3)
H7 H 0.156(2) 0.875(4) 0.678(4)
H8 H 0.0721(18) 0.783(3) 0.599(3)
H9 H 0.1270(18) 0.837(3) 0.503(3)
N3 N 0.55860(12) 0.64779(19) 0.6987(2)
O3 O 0.51772(13) 0.76152(19) 0.7468(2)
O4 O 0.53047(11) 0.60273(18) 0.55635(17)
O5 O 0.63098(11) 0.57493(19) 0.79609(15)
loop_
_geom_bond_atom_site_label_1
_geom_bond_atom_site_label_2
_geom_bond_site_symmetry_1
_geom_bond_site_symmetry_2
C1 C2 1_555 1_555
C2 H1 1_555 1_555
C3 C2 1_555 1_555
H2 C3 1_555 1_555
C4 C3 1_555 1_555
C5 C4 1_555 1_555
H3 C5 1_555 1_555
C6 C1 1_555 1_555
H4 C6 1_555 1_555
N1 S1 1_555 1_555
N2 C4 1_555 1_555
O1 S1 1_555 1_555
O2 S1 1_555 1_555
S1 C1 1_555 1_555
H5 N1 1_555 1_555
H6 N1 1_555 1_555
H7 N2 1_555 1_555
H8 N2 1_555 1_555
H9 N2 1_555 1_555
N3 O3 1_555 1_555
O4 N3 1_555 1_555
O5 N3 1_555 1_555
C5 C6 1_555 1_555

#END
