
#######################################################################
#
#                 Cambridge Crystallographic Data Centre
#                                CCDC 
#
#######################################################################
#
# If this CIF has been generated from an entry in the Cambridge 
# Structural Database, then it will include bibliographic, chemical, 
# crystal, experimental, refinement or atomic coordinate data resulting 
# from the CCDC's data processing and validation procedures.
#
#######################################################################

data_ABADAJ
_chemical_formula_moiety         'C15 H14 N2 O1'
_chemical_name_systematic        
10-Methyl-2,3,4,10-tetrahydrocyclopenta(5,6)pyrido(4,3-b)indol-5(1H)-one
_symmetry_cell_setting           monoclinic
_symmetry_space_group_name_H-M   'P 21/n'
_symmetry_Int_Tables_number      14
_space_group_name_Hall           '-P 2yn'
loop_
_symmetry_equiv_pos_site_id
_symmetry_equiv_pos_as_xyz
1 x,y,z
2 1/2-x,1/2+y,1/2-z
3 -x,-y,-z
4 1/2+x,1/2-y,1/2+z
_cell_length_a                   7.9287(7)
_cell_length_b                   7.6930(7)
_cell_length_c                   19.2741(18)
_cell_angle_alpha                90
_cell_angle_beta                 96.005(2)
_cell_angle_gamma                90
_cell_volume                     1169.18
_chemical_melting_point          '318 deg.C (dec.)'
_cell_formula_units_Z            4
loop_
_atom_site_label
_atom_site_type_symbol
_atom_site_fract_x
_atom_site_fract_y
_atom_site_fract_z
O1 O 0.59651(17) -0.38700(15) -0.06783(7)
N1 N 0.58714(18) -0.30916(17) 0.04607(7)
H1 H 0.5390 -0.4065 0.0537
N2 N 0.81150(18) 0.15134(17) 0.00412(8)
C1 C 0.6167(2) -0.1955(2) 0.10038(9)
C2 C 0.5705(2) -0.2319(2) 0.17161(9)
H2 H 0.6171 -0.3420 0.1890
H3 H 0.4484 -0.2336 0.1724
C3 C 0.6508(3) -0.0793(2) 0.21432(10)
H4 H 0.7520 -0.1174 0.2429
H5 H 0.5716 -0.0329 0.2447
C4 C 0.6960(3) 0.0604(2) 0.16218(10)
H6 H 0.6144 0.1547 0.1594
H7 H 0.8084 0.1072 0.1753
C5 C 0.6891(2) -0.0366(2) 0.09410(9)
C6 C 0.7366(2) 0.00384(19) 0.02749(9)
C7 C 0.7111(2) -0.11422(19) -0.02796(9)
C8 C 0.6298(2) -0.2771(2) -0.02020(9)
C9 C 0.7733(2) -0.0359(2) -0.08767(9)
C10 C 0.7820(2) -0.0870(2) -0.15658(10)
H8 H 0.7437 -0.1961 -0.1719
C11 C 0.8487(3) 0.0275(3) -0.20185(11)
H9 H 0.8542 -0.0047 -0.2481
C12 C 0.9076(3) 0.1907(3) -0.17905(11)
H10 H 0.9517 0.2653 -0.2105
C13 C 0.9023(2) 0.2443(2) -0.11106(11)
H11 H 0.9424 0.3530 -0.0961
C14 C 0.8345(2) 0.1295(2) -0.06591(10)
C15 C 0.8565(3) 0.3083(2) 0.04383(11)
H12 H 0.8008 0.3083 0.0857
H13 H 0.8215 0.4083 0.0162
H14 H 0.9771 0.3118 0.0558
C16? C 0.8565(3) 0.3083(2) 0.04383(11)
H15? H 0.9279 0.2786 0.0855
H16? H 0.7554 0.3637 0.0562
H17? H 0.9161 0.3862 0.0161
loop_
_geom_bond_atom_site_label_1
_geom_bond_atom_site_label_2
_geom_bond_site_symmetry_1
_geom_bond_site_symmetry_2
O1 C8 1_555 1_555
N1 H1 1_555 1_555
N2 C6 1_555 1_555
C1 N1 1_555 1_555
C2 C1 1_555 1_555
H2 C2 1_555 1_555
H3 C2 1_555 1_555
C3 C2 1_555 1_555
H4 C3 1_555 1_555
H5 C3 1_555 1_555
C4 C3 1_555 1_555
H6 C4 1_555 1_555
H7 C4 1_555 1_555
C5 C1 1_555 1_555
C6 C5 1_555 1_555
C7 C6 1_555 1_555
C8 N1 1_555 1_555
C9 C7 1_555 1_555
C10 C9 1_555 1_555
H8 C10 1_555 1_555
C11 C10 1_555 1_555
H9 C11 1_555 1_555
C12 C11 1_555 1_555
H10 C12 1_555 1_555
C13 C12 1_555 1_555
H11 C13 1_555 1_555
C14 N2 1_555 1_555
C15 N2 1_555 1_555
H12 C15 1_555 1_555
H13 C15 1_555 1_555
H14 C15 1_555 1_555
C4 C5 1_555 1_555
C7 C8 1_555 1_555
C9 C14 1_555 1_555
C13 C14 1_555 1_555

#END
