
#######################################################################
#
#                 Cambridge Crystallographic Data Centre
#                                CCDC 
#
#######################################################################
#
# If this CIF has been generated from an entry in the Cambridge 
# Structural Database, then it will include bibliographic, chemical, 
# crystal, experimental, refinement or atomic coordinate data resulting 
# from the CCDC's data processing and validation procedures.
#
#######################################################################

data_ABAFUG
_chemical_formula_moiety         'C17 H14 N2 O1'
_chemical_name_systematic        
6-Methoxy-2-methyl-1-phenyl-1H-indole-3-carbonitrile
_symmetry_cell_setting           triclinic
_symmetry_space_group_name_H-M   'P -1'
_symmetry_Int_Tables_number      2
_space_group_name_Hall           '-P 1'
loop_
_symmetry_equiv_pos_site_id
_symmetry_equiv_pos_as_xyz
1 x,y,z
2 -x,-y,-z
_cell_length_a                   6.3699(7)
_cell_length_b                   10.6084(10)
_cell_length_c                   10.8139(11)
_cell_angle_alpha                70.059(10)
_cell_angle_beta                 79.455(13)
_cell_angle_gamma                78.869(12)
_cell_volume                     668.549
_exptl_crystal_colour            colorless
_exptl_crystal_description       prism
_cell_formula_units_Z            2
loop_
_atom_site_label
_atom_site_type_symbol
_atom_site_fract_x
_atom_site_fract_y
_atom_site_fract_z
O1 O 1.04602(18) 0.50144(11) 0.16822(10)
N1 N 0.4880(2) 0.22413(13) 0.23013(11)
N2 N 0.1580(2) 0.13570(16) 0.67436(13)
C1 C 0.6199(3) 0.29364(16) 0.26611(14)
C2 C 0.7805(3) 0.36887(16) 0.18802(15)
H1 H 0.8173 0.3779 0.0965
C3 C 0.8845(3) 0.42998(17) 0.24916(15)
C4 C 0.8278(3) 0.41970(18) 0.38350(15)
H2 H 0.9008 0.4634 0.4228
C5 C 0.6652(3) 0.34576(17) 0.45878(15)
H3 H 0.6261 0.3392 0.5496
C6 C 0.5590(3) 0.28104(17) 0.40116(14)
C7 C 0.3836(3) 0.20116(17) 0.44466(14)
C8 C 0.3453(3) 0.16698(17) 0.33986(15)
C9 C 0.1853(3) 0.08298(18) 0.33621(15)
H4 H 0.2120 0.0657 0.2508
H5 H 0.0392 0.1314 0.3472
H6 H 0.1996 -0.0033 0.4082
C10 C 1.1759(3) 0.55522(18) 0.22829(15)
H7 H 1.0862 0.6254 0.2622
H8 H 1.2925 0.5947 0.1620
H9 H 1.2377 0.4823 0.3016
C11 C 0.2601(3) 0.16396(18) 0.57217(16)
C12 C 0.5114(3) 0.20522(17) 0.10210(14)
C13 C 0.3439(3) 0.25740(17) 0.02478(15)
H10 H 0.2171 0.3088 0.0539
C14 C 0.3643(3) 0.23346(17) -0.09557(15)
H11 H 0.2488 0.2655 -0.1480
C15 C 0.5530(3) 0.16287(17) -0.13911(15)
H12 H 0.5666 0.1472 -0.2218
C16 C 0.7218(3) 0.11496(17) -0.06358(15)
H13 H 0.8522 0.0684 -0.0952
C17 C 0.7001(3) 0.13519(17) 0.05889(15)
H14 H 0.8142 0.1011 0.1123
loop_
_geom_bond_atom_site_label_1
_geom_bond_atom_site_label_2
_geom_bond_site_symmetry_1
_geom_bond_site_symmetry_2
O1 C3 1_555 1_555
N1 C1 1_555 1_555
N2 C11 1_555 1_555
C1 C2 1_555 1_555
C2 H1 1_555 1_555
C3 C2 1_555 1_555
C4 C3 1_555 1_555
H2 C4 1_555 1_555
C5 C4 1_555 1_555
H3 C5 1_555 1_555
C6 C1 1_555 1_555
C7 C6 1_555 1_555
C8 N1 1_555 1_555
C9 C8 1_555 1_555
H4 C9 1_555 1_555
H5 C9 1_555 1_555
H6 C9 1_555 1_555
C10 O1 1_555 1_555
H7 C10 1_555 1_555
H8 C10 1_555 1_555
H9 C10 1_555 1_555
C11 C7 1_555 1_555
C12 N1 1_555 1_555
C13 C12 1_555 1_555
H10 C13 1_555 1_555
C14 C13 1_555 1_555
H11 C14 1_555 1_555
C15 C14 1_555 1_555
H12 C15 1_555 1_555
C16 C15 1_555 1_555
H13 C16 1_555 1_555
C17 C12 1_555 1_555
H14 C17 1_555 1_555
C5 C6 1_555 1_555
C7 C8 1_555 1_555
C16 C17 1_555 1_555

#END
