
#######################################################################
#
#                 Cambridge Crystallographic Data Centre
#                                CCDC 
#
#######################################################################
#
# If this CIF has been generated from an entry in the Cambridge 
# Structural Database, then it will include bibliographic, chemical, 
# crystal, experimental, refinement or atomic coordinate data resulting 
# from the CCDC's data processing and validation procedures.
#
#######################################################################

data_ABAGOB
_chemical_formula_moiety         'C32 H48 O4 P2 S2'
_chemical_name_systematic        
'Disulfanediylbis(((2-isopropyl-5-methylcyclohexyl)oxy)(phenyl)phosphine) dioxide'
_symmetry_cell_setting           orthorhombic
_symmetry_space_group_name_H-M   'P 21 21 2'
_symmetry_Int_Tables_number      18
_space_group_name_Hall           'P 2 2ab'
loop_
_symmetry_equiv_pos_site_id
_symmetry_equiv_pos_as_xyz
1 x,y,z
2 -x,-y,z
3 1/2-x,1/2+y,-z
4 1/2+x,1/2-y,-z
_cell_length_a                   9.9910(9)
_cell_length_b                   18.9100(17)
_cell_length_c                   8.9747(7)
_cell_angle_alpha                90
_cell_angle_beta                 90
_cell_angle_gamma                90
_cell_volume                     1695.59
_exptl_crystal_colour            colorless
_exptl_crystal_description       block
_cell_formula_units_Z            2
loop_
_atom_site_label
_atom_site_type_symbol
_atom_site_fract_x
_atom_site_fract_y
_atom_site_fract_z
P1 P 0.89547(8) 0.39154(4) 0.02808(9)
S1 S 1.05009(7) 0.45208(4) -0.06827(9)
O1 O 0.97493(16) 0.31924(8) 0.0227(2)
O2 O 0.76990(17) 0.39533(10) -0.0544(2)
C1 C 0.8604(3) 0.13924(16) 0.1576(4)
H1 H 0.7641 0.1447 0.1399
C2 C 0.9227(3) 0.21278(15) 0.1605(3)
H2 H 0.8801 0.2408 0.2376
H3 H 1.0171 0.2089 0.1847
C3 C 0.9073(3) 0.24950(13) 0.0128(3)
H4 H 0.8118 0.2572 -0.0061
C4 C 0.9659(3) 0.20881(14) -0.1165(3)
H5 H 1.0612 0.2021 -0.0953
C5 C 0.9012(3) 0.13521(15) -0.1183(4)
H6 H 0.8066 0.1399 -0.1405
H7 H 0.9417 0.1071 -0.1966
C6 C 0.9178(3) 0.09692(14) 0.0308(4)
H8 H 0.8732 0.0514 0.0259
H9 H 1.0122 0.0885 0.0490
C7 C 0.8786(5) 0.10092(19) 0.3060(5)
H10 H 0.8379 0.0550 0.3005
H11 H 0.8371 0.1278 0.3841
H12 H 0.9724 0.0958 0.3268
C8 C 0.9561(3) 0.24793(17) -0.2669(3)
H13 H 0.9846 0.2967 -0.2479
C9 C 0.8146(3) 0.2525(2) -0.3295(4)
H14 H 0.8159 0.2785 -0.4214
H15 H 0.7577 0.2762 -0.2592
H16 H 0.7811 0.2057 -0.3473
C10 C 1.0536(4) 0.2180(2) -0.3807(4)
H17 H 1.1426 0.2190 -0.3404
H18 H 1.0505 0.2461 -0.4698
H19 H 1.0293 0.1701 -0.4037
C11 C 0.8768(3) 0.41490(14) 0.2192(3)
C12 C 0.9730(3) 0.39822(16) 0.3243(4)
H20 H 1.0529 0.3774 0.2941
C13 C 0.9515(5) 0.41225(17) 0.4747(4)
H21 H 1.0163 0.4012 0.5454
C14 C 0.8321(5) 0.4428(2) 0.5164(5)
H22 H 0.8155 0.4510 0.6169
C15 C 0.7377(4) 0.4614(2) 0.4142(5)
H23 H 0.6592 0.4836 0.4444
C16 C 0.7594(3) 0.44701(18) 0.2661(4)
H24 H 0.6944 0.4590 0.1963
P1A P 1.10453(8) 0.60846(4) 0.02808(9)
S1A S 0.94991(7) 0.54792(4) -0.06827(9)
O1A O 1.02507(16) 0.68076(8) 0.0227(2)
O2A O 1.23010(17) 0.60467(10) -0.0544(2)
C1A C 1.1396(3) 0.86076(16) 0.1576(4)
H1A H 1.2359 0.8553 0.1399
C2A C 1.0773(3) 0.78722(15) 0.1605(3)
H2A H 1.1199 0.7592 0.2376
H3A H 0.9829 0.7911 0.1847
C3A C 1.0927(3) 0.75050(13) 0.0128(3)
H4A H 1.1882 0.7428 -0.0061
C4A C 1.0341(3) 0.79119(14) -0.1165(3)
H5A H 0.9388 0.7979 -0.0953
C5A C 1.0988(3) 0.86479(15) -0.1183(4)
H6A H 1.1934 0.8601 -0.1405
H7A H 1.0583 0.8929 -0.1966
C6A C 1.0822(3) 0.90308(14) 0.0308(4)
H8A H 1.1268 0.9486 0.0259
H9A H 0.9878 0.9115 0.0490
C7A C 1.1214(5) 0.89908(19) 0.3060(5)
H10A H 1.1621 0.9450 0.3005
H11A H 1.1629 0.8722 0.3841
H12A H 1.0276 0.9042 0.3268
C8A C 1.0439(3) 0.75207(17) -0.2669(3)
H13A H 1.0154 0.7033 -0.2479
C9A C 1.1854(3) 0.7475(2) -0.3295(4)
H14A H 1.1841 0.7215 -0.4214
H15A H 1.2423 0.7238 -0.2592
H16A H 1.2189 0.7943 -0.3473
C10A C 0.9464(4) 0.7820(2) -0.3807(4)
H17A H 0.8574 0.7810 -0.3404
H18A H 0.9495 0.7539 -0.4698
H19A H 0.9707 0.8299 -0.4037
C11A C 1.1232(3) 0.58510(14) 0.2192(3)
C12A C 1.0270(3) 0.60178(16) 0.3243(4)
H20A H 0.9471 0.6226 0.2941
C13A C 1.0485(5) 0.58775(17) 0.4747(4)
H21A H 0.9837 0.5988 0.5454
C14A C 1.1679(5) 0.5572(2) 0.5164(5)
H22A H 1.1845 0.5490 0.6169
C15A C 1.2623(4) 0.5386(2) 0.4142(5)
H23A H 1.3408 0.5164 0.4444
C16A C 1.2406(3) 0.55299(18) 0.2661(4)
H24A H 1.3056 0.5410 0.1963
loop_
_geom_bond_atom_site_label_1
_geom_bond_atom_site_label_2
_geom_bond_site_symmetry_1
_geom_bond_site_symmetry_2
P1 S1 1_555 1_555
S1 S1A 1_555 1_555
O1 P1 1_555 1_555
O2 P1 1_555 1_555
C1 H1 1_555 1_555
C2 C1 1_555 1_555
H2 C2 1_555 1_555
H3 C2 1_555 1_555
C3 O1 1_555 1_555
H4 C3 1_555 1_555
C4 C3 1_555 1_555
H5 C4 1_555 1_555
C5 C4 1_555 1_555
H6 C5 1_555 1_555
H7 C5 1_555 1_555
C6 C1 1_555 1_555
H8 C6 1_555 1_555
H9 C6 1_555 1_555
C7 C1 1_555 1_555
H10 C7 1_555 1_555
H11 C7 1_555 1_555
H12 C7 1_555 1_555
C8 C4 1_555 1_555
H13 C8 1_555 1_555
C9 C8 1_555 1_555
H14 C9 1_555 1_555
H15 C9 1_555 1_555
H16 C9 1_555 1_555
C10 C8 1_555 1_555
H17 C10 1_555 1_555
H18 C10 1_555 1_555
H19 C10 1_555 1_555
C11 P1 1_555 1_555
C12 C11 1_555 1_555
H20 C12 1_555 1_555
C13 C12 1_555 1_555
H21 C13 1_555 1_555
C14 C13 1_555 1_555
H22 C14 1_555 1_555
C15 C14 1_555 1_555
H23 C15 1_555 1_555
C16 C11 1_555 1_555
H24 C16 1_555 1_555
P1A S1A 1_555 1_555
O1A P1A 1_555 1_555
O2A P1A 1_555 1_555
C1A H1A 1_555 1_555
C2A C1A 1_555 1_555
H2A C2A 1_555 1_555
H3A C2A 1_555 1_555
C3A O1A 1_555 1_555
H4A C3A 1_555 1_555
C4A C3A 1_555 1_555
H5A C4A 1_555 1_555
C5A C4A 1_555 1_555
H6A C5A 1_555 1_555
H7A C5A 1_555 1_555
C6A C1A 1_555 1_555
H8A C6A 1_555 1_555
H9A C6A 1_555 1_555
C7A C1A 1_555 1_555
H10A C7A 1_555 1_555
H11A C7A 1_555 1_555
H12A C7A 1_555 1_555
C8A C4A 1_555 1_555
H13A C8A 1_555 1_555
C9A C8A 1_555 1_555
H14A C9A 1_555 1_555
H15A C9A 1_555 1_555
H16A C9A 1_555 1_555
C10A C8A 1_555 1_555
H17A C10A 1_555 1_555
H18A C10A 1_555 1_555
H19A C10A 1_555 1_555
C11A P1A 1_555 1_555
C12A C11A 1_555 1_555
H20A C12A 1_555 1_555
C13A C12A 1_555 1_555
H21A C13A 1_555 1_555
C14A C13A 1_555 1_555
H22A C14A 1_555 1_555
C15A C14A 1_555 1_555
H23A C15A 1_555 1_555
C16A C11A 1_555 1_555
H24A C16A 1_555 1_555
C2 C3 1_555 1_555
C5 C6 1_555 1_555
C15 C16 1_555 1_555
C2A C3A 1_555 1_555
C5A C6A 1_555 1_555
C15A C16A 1_555 1_555

#END
