
#######################################################################
#
#                 Cambridge Crystallographic Data Centre
#                                CCDC 
#
#######################################################################
#
# If this CIF has been generated from an entry in the Cambridge 
# Structural Database, then it will include bibliographic, chemical, 
# crystal, experimental, refinement or atomic coordinate data resulting 
# from the CCDC's data processing and validation procedures.
#
#######################################################################

data_ABAGAN
_chemical_formula_moiety         'C26 H17 O1 P1'
_chemical_name_systematic        
'7-Phenyl-7H-benzo[e]naphtho[2,1-b]phosphindole 7-oxide'
_symmetry_cell_setting           monoclinic
_symmetry_space_group_name_H-M   'P 21'
_symmetry_Int_Tables_number      4
_space_group_name_Hall           'P 2yb'
loop_
_symmetry_equiv_pos_site_id
_symmetry_equiv_pos_as_xyz
1 x,y,z
2 -x,1/2+y,-z
_cell_length_a                   10.9637(12)
_cell_length_b                   8.0627(8)
_cell_length_c                   11.0352(13)
_cell_angle_alpha                90
_cell_angle_beta                 94.7460(10)
_cell_angle_gamma                90
_cell_volume                     972.134
_exptl_crystal_colour            colorless
_exptl_crystal_description       block
_cell_formula_units_Z            2
loop_
_atom_site_label
_atom_site_type_symbol
_atom_site_fract_x
_atom_site_fract_y
_atom_site_fract_z
O1 O 0.90190(19) 0.5234(2) 0.13528(15)
P1 P 0.81611(7) 0.41973(10) 0.20150(6)
C1 C 0.6484(3) 0.4877(3) 0.3524(2)
C2 C 0.6672(3) 0.4991(3) 0.2295(2)
C3 C 0.5726(3) 0.5462(4) 0.1420(2)
H1 H 0.5873 0.5517 0.0603
C4 C 0.4601(3) 0.5835(3) 0.1773(3)
H2 H 0.4009 0.6272 0.1210
C5 C 0.4318(3) 0.5569(3) 0.2986(3)
C6 C 0.5254(3) 0.4972(3) 0.3874(2)
C7 C 0.4870(3) 0.4388(4) 0.5001(2)
H3 H 0.5438 0.3892 0.5561
C8 C 0.3681(3) 0.4543(4) 0.5274(3)
H4 H 0.3448 0.4142 0.6010
C9 C 0.2806(3) 0.5308(4) 0.4447(3)
H5 H 0.2018 0.5496 0.4670
C10 C 0.3107(3) 0.5773(4) 0.3326(3)
H6 H 0.2512 0.6229 0.2775
C11 C 0.7644(2) 0.4480(3) 0.4292(2)
C12 C 0.8558(2) 0.3895(3) 0.3616(2)
C13 C 0.9672(3) 0.3282(4) 0.4170(3)
H7 H 1.0266 0.2876 0.3693
C14 C 0.9880(3) 0.3285(4) 0.5413(3)
H8 H 1.0580 0.2786 0.5781
C15 C 0.9036(3) 0.4043(4) 0.6133(2)
C16 C 0.7915(3) 0.4729(3) 0.5589(2)
C17 C 0.7202(3) 0.5734(3) 0.6322(2)
H9 H 0.6510 0.6268 0.5968
C18 C 0.7516(3) 0.5927(4) 0.7538(3)
H10 H 0.7039 0.6589 0.8002
C19 C 0.8567(3) 0.5122(4) 0.8097(3)
H11 H 0.8749 0.5208 0.8933
C20 C 0.9316(3) 0.4221(4) 0.7416(2)
H12 H 1.0012 0.3720 0.7790
C21 C 0.7879(3) 0.2185(3) 0.1327(2)
C22 C 0.6998(3) 0.1138(4) 0.1745(2)
H13 H 0.6498 0.1511 0.2329
C23 C 0.6864(3) -0.0466(5) 0.1290(3)
H14 H 0.6280 -0.1174 0.1572
C24 C 0.7609(3) -0.0997(4) 0.0415(2)
H15 H 0.7527 -0.2075 0.0121
C25 C 0.8467(3) 0.0030(4) -0.0029(2)
H16 H 0.8951 -0.0340 -0.0627
C26 C 0.8599(3) 0.1633(4) 0.0430(2)
H17 H 0.9175 0.2341 0.0135
loop_
_geom_bond_atom_site_label_1
_geom_bond_atom_site_label_2
_geom_bond_site_symmetry_1
_geom_bond_site_symmetry_2
O1 P1 1_555 1_555
P1 C2 1_555 1_555
C1 C2 1_555 1_555
C2 C3 1_555 1_555
C3 H1 1_555 1_555
C4 C3 1_555 1_555
H2 C4 1_555 1_555
C5 C4 1_555 1_555
C6 C1 1_555 1_555
C7 C6 1_555 1_555
H3 C7 1_555 1_555
C8 C7 1_555 1_555
H4 C8 1_555 1_555
C9 C8 1_555 1_555
H5 C9 1_555 1_555
C10 C5 1_555 1_555
H6 C10 1_555 1_555
C11 C1 1_555 1_555
C12 P1 1_555 1_555
C13 C12 1_555 1_555
H7 C13 1_555 1_555
C14 C13 1_555 1_555
H8 C14 1_555 1_555
C15 C14 1_555 1_555
C16 C11 1_555 1_555
C17 C16 1_555 1_555
H9 C17 1_555 1_555
C18 C17 1_555 1_555
H10 C18 1_555 1_555
C19 C18 1_555 1_555
H11 C19 1_555 1_555
C20 C15 1_555 1_555
H12 C20 1_555 1_555
C21 P1 1_555 1_555
C22 C21 1_555 1_555
H13 C22 1_555 1_555
C23 C22 1_555 1_555
H14 C23 1_555 1_555
C24 C23 1_555 1_555
H15 C24 1_555 1_555
C25 C24 1_555 1_555
H16 C25 1_555 1_555
C26 C21 1_555 1_555
H17 C26 1_555 1_555
C5 C6 1_555 1_555
C9 C10 1_555 1_555
C11 C12 1_555 1_555
C15 C16 1_555 1_555
C19 C20 1_555 1_555
C25 C26 1_555 1_555

#END
