
#######################################################################
#
#                 Cambridge Crystallographic Data Centre
#                                CCDC 
#
#######################################################################
#
# If this CIF has been generated from an entry in the Cambridge 
# Structural Database, then it will include bibliographic, chemical, 
# crystal, experimental, refinement or atomic coordinate data resulting 
# from the CCDC's data processing and validation procedures.
#
#######################################################################

data_ABAGIW
_chemical_formula_moiety         'C11 H11 N1 O2'
_chemical_name_systematic        2-(1,3-oxazolidin-2-ylidene)-1-phenylethanone
_symmetry_cell_setting           monoclinic
_symmetry_space_group_name_H-M   'P 21/n'
_symmetry_Int_Tables_number      14
_space_group_name_Hall           '-P 2yn'
loop_
_symmetry_equiv_pos_site_id
_symmetry_equiv_pos_as_xyz
1 x,y,z
2 1/2-x,1/2+y,1/2-z
3 -x,-y,-z
4 1/2+x,1/2-y,1/2+z
_cell_length_a                   8.552(8)
_cell_length_b                   5.459(5)
_cell_length_c                   19.337(19)
_cell_angle_alpha                90
_cell_angle_beta                 90.668(11)
_cell_angle_gamma                90
_cell_volume                     902.694
_cell_formula_units_Z            4
loop_
_atom_site_label
_atom_site_type_symbol
_atom_site_fract_x
_atom_site_fract_y
_atom_site_fract_z
O1 O 0.70294(10) -0.11376(16) 0.10190(5)
O2 O 0.35686(10) 0.40276(16) 0.06384(5)
N1 N 0.64539(12) 0.21220(19) 0.04034(5)
H1 H 0.5905 0.3385 0.0256
C1 C -0.09269(14) 0.2337(2) 0.21941(6)
H2 H -0.1894 0.2341 0.2431
C2 C -0.05947(15) 0.4170(2) 0.17224(6)
H3 H -0.1335 0.5433 0.1635
C3 C 0.08193(14) 0.4164(2) 0.13764(6)
H4 H 0.1040 0.5433 0.1056
C4 C 0.19170(13) 0.2325(2) 0.14926(6)
C5 C 0.34255(13) 0.2413(2) 0.10940(6)
C6 C 0.45823(14) 0.0648(2) 0.12443(6)
H5 H 0.4406 -0.0530 0.1596
C7 C 0.59686(13) 0.0610(2) 0.08859(6)
C8 C 0.79780(13) 0.1499(2) 0.01406(6)
H6 H 0.8749 0.2817 0.0231
H7 H 0.7936 0.1145 -0.0361
C9 C 0.83503(14) -0.0803(2) 0.05628(6)
H8 H 0.8471 -0.2239 0.0255
H9 H 0.9329 -0.0582 0.0834
C10 C 0.01547(14) 0.0501(2) 0.23193(6)
H10 H -0.0068 -0.0752 0.2644
C11 C 0.15649(14) 0.0487(2) 0.19706(6)
H11 H 0.2299 -0.0785 0.2058
loop_
_geom_bond_atom_site_label_1
_geom_bond_atom_site_label_2
_geom_bond_site_symmetry_1
_geom_bond_site_symmetry_2
O1 C7 1_555 1_555
O2 C5 1_555 1_555
N1 H1 1_555 1_555
C1 H2 1_555 1_555
C2 C1 1_555 1_555
H3 C2 1_555 1_555
C3 C2 1_555 1_555
H4 C3 1_555 1_555
C4 C3 1_555 1_555
C5 C4 1_555 1_555
C6 C5 1_555 1_555
H5 C6 1_555 1_555
C7 N1 1_555 1_555
C8 N1 1_555 1_555
H6 C8 1_555 1_555
H7 C8 1_555 1_555
C9 O1 1_555 1_555
H8 C9 1_555 1_555
H9 C9 1_555 1_555
C10 C1 1_555 1_555
H10 C10 1_555 1_555
C11 C4 1_555 1_555
H11 C11 1_555 1_555
C6 C7 1_555 1_555
C8 C9 1_555 1_555
C10 C11 1_555 1_555

#END
