
#######################################################################
#
#                 Cambridge Crystallographic Data Centre
#                                CCDC 
#
#######################################################################
#
# If this CIF has been generated from an entry in the Cambridge 
# Structural Database, then it will include bibliographic, chemical, 
# crystal, experimental, refinement or atomic coordinate data resulting 
# from the CCDC's data processing and validation procedures.
#
#######################################################################

data_ABAGES
_chemical_formula_moiety         'C18 H17 N3 O3'
_chemical_name_systematic        
2-(1,3-oxazolidin-2-ylidene)-N,N'-diphenylmalonamide
_symmetry_cell_setting           monoclinic
_symmetry_space_group_name_H-M   'P 21/c'
_symmetry_Int_Tables_number      14
_space_group_name_Hall           '-P 2ybc'
loop_
_symmetry_equiv_pos_site_id
_symmetry_equiv_pos_as_xyz
1 x,y,z
2 -x,1/2+y,1/2-z
3 -x,-y,-z
4 x,1/2-y,1/2+z
_cell_length_a                   8.9690(4)
_cell_length_b                   20.3395(9)
_cell_length_c                   8.8711(4)
_cell_angle_alpha                90
_cell_angle_beta                 109.65
_cell_angle_gamma                90
_cell_volume                     1524.07
_cell_formula_units_Z            4
loop_
_atom_site_label
_atom_site_type_symbol
_atom_site_fract_x
_atom_site_fract_y
_atom_site_fract_z
O1 O 0.21590(9) 0.49995(4) 0.49135(9)
O2 O 0.40318(9) 0.67056(4) 0.35154(9)
O3 O 0.44947(9) 0.49519(4) 0.16321(9)
N1 N 0.27529(11) 0.60797(4) 0.54907(11)
H1 H 0.3074 0.6439 0.5139
N2 N 0.59526(11) 0.60536(4) 0.31625(11)
H2 H 0.6335 0.5651 0.3315
N3 N 0.28861(11) 0.44259(4) 0.26180(11)
H3 H 0.2236 0.4363 0.3159
C1 C 0.14839(14) 0.63856(6) 0.95930(14)
H4 H 0.1244 0.6458 1.0545
C2 C 0.10932(14) 0.57961(6) 0.87709(14)
H5 H 0.0571 0.5465 0.9163
C3 C 0.14482(13) 0.56772(6) 0.73810(13)
H6 H 0.1148 0.5275 0.6817
C4 C 0.22524(12) 0.61587(5) 0.68284(12)
C5 C 0.28018(12) 0.55159(5) 0.46743(12)
C6 C 0.36929(12) 0.55438(5) 0.35640(12)
C7 C 0.45413(12) 0.61470(5) 0.33964(12)
C8 C 0.68755(12) 0.65264(5) 0.27035(12)
C9 C 0.85041(13) 0.64200(5) 0.31554(13)
H7 H 0.8973 0.6058 0.3823
C10 C 0.94393(13) 0.68450(6) 0.26273(13)
H8 H 1.0549 0.6773 0.2940
C11 C 0.87614(13) 0.73741(6) 0.16445(13)
H9 H 0.9402 0.7662 0.1281
C12 C 0.26245(13) 0.67574(5) 0.76442(13)
H10 H 0.3151 0.7090 0.7264
C13 C 0.22293(13) 0.68677(6) 0.90047(14)
H11 H 0.2473 0.7279 0.9540
C14 C 0.71440(14) 0.74775(5) 0.11998(13)
H12 H 0.6677 0.7838 0.0526
C15 C 0.61962(13) 0.70597(5) 0.17280(13)
H13 H 0.5090 0.7137 0.1425
C16 C 0.36808(12) 0.49822(5) 0.26569(12)
C17 C 0.32152(14) 0.39329(5) 0.15777(14)
H14 H 0.2232 0.3724 0.0870
H15 H 0.3949 0.3590 0.2199
C18 C 0.39836(13) 0.43627(5) 0.06390(13)
H16 H 0.4899 0.4136 0.0486
H17 H 0.3214 0.4477 -0.0423
loop_
_geom_bond_atom_site_label_1
_geom_bond_atom_site_label_2
_geom_bond_site_symmetry_1
_geom_bond_site_symmetry_2
O1 C5 1_555 1_555
O2 C7 1_555 1_555
O3 C16 1_555 1_555
N1 H1 1_555 1_555
N2 H2 1_555 1_555
N3 H3 1_555 1_555
C1 H4 1_555 1_555
C2 C1 1_555 1_555
H5 C2 1_555 1_555
C3 C2 1_555 1_555
H6 C3 1_555 1_555
C4 N1 1_555 1_555
C5 N1 1_555 1_555
C6 C5 1_555 1_555
C7 N2 1_555 1_555
C8 N2 1_555 1_555
C9 C8 1_555 1_555
H7 C9 1_555 1_555
C10 C9 1_555 1_555
H8 C10 1_555 1_555
C11 C10 1_555 1_555
H9 C11 1_555 1_555
C12 C4 1_555 1_555
H10 C12 1_555 1_555
C13 C1 1_555 1_555
H11 C13 1_555 1_555
C14 C11 1_555 1_555
H12 C14 1_555 1_555
C15 C8 1_555 1_555
H13 C15 1_555 1_555
C16 N3 1_555 1_555
C17 N3 1_555 1_555
H14 C17 1_555 1_555
H15 C17 1_555 1_555
C18 O3 1_555 1_555
H16 C18 1_555 1_555
H17 C18 1_555 1_555
C3 C4 1_555 1_555
C6 C7 1_555 1_555
C6 C16 1_555 1_555
C12 C13 1_555 1_555
C14 C15 1_555 1_555
C17 C18 1_555 1_555

#END
