
#######################################################################
#
#                 Cambridge Crystallographic Data Centre
#                                CCDC 
#
#######################################################################
#
# If this CIF has been generated from an entry in the Cambridge 
# Structural Database, then it will include bibliographic, chemical, 
# crystal, experimental, refinement or atomic coordinate data resulting 
# from the CCDC's data processing and validation procedures.
#
#######################################################################

data_ABALEW
_chemical_name_common            
N-(bis(diethylamino)phosphoryl)-2-fluorobenzamide
_chemical_formula_moiety         'C15 H25 F1 N3 O2 P1'
_chemical_name_systematic        
"N,N,N',N'-Tetraethyl-N''-(2-fluorobenzoyl)phosphoric triamide"
_symmetry_cell_setting           monoclinic
_symmetry_space_group_name_H-M   'P 21/c'
_symmetry_Int_Tables_number      14
_space_group_name_Hall           '-P 2ybc'
loop_
_symmetry_equiv_pos_site_id
_symmetry_equiv_pos_as_xyz
1 x,y,z
2 -x,1/2+y,1/2-z
3 -x,-y,-z
4 x,1/2-y,1/2+z
_cell_length_a                   10.9296(9)
_cell_length_b                   12.2221(10)
_cell_length_c                   12.3423(10)
_cell_angle_alpha                90
_cell_angle_beta                 91.4430(10)
_cell_angle_gamma                90
_cell_volume                     1648.19
_exptl_crystal_colour            colorless
_exptl_crystal_description       block
_cell_formula_units_Z            4
loop_
_atom_site_label
_atom_site_type_symbol
_atom_site_fract_x
_atom_site_fract_y
_atom_site_fract_z
P1 P 0.62104(4) 0.64819(4) 0.52994(4)
F1 F 0.88953(13) 0.41423(11) 0.83105(10)
O1 O 0.83305(12) 0.57884(11) 0.68306(10)
O2 O 0.52742(11) 0.62160(11) 0.44464(10)
N1 N 0.66071(13) 0.52777(13) 0.58794(12)
H1 H 0.6116(17) 0.4741(15) 0.5750(16)
N2 N 0.57927(14) 0.72748(13) 0.62914(12)
N3 N 0.73894(13) 0.70810(12) 0.47587(11)
C1 C 0.86735(17) 0.34892(16) 0.74688(15)
C2 C 0.91255(17) 0.24343(17) 0.75327(17)
H2 H 0.9557 0.2194 0.8167
C3 C 0.89453(18) 0.17367(17) 0.66716(17)
H3 H 0.9265 0.1014 0.6704
C4 C 0.82999(18) 0.20843(16) 0.57575(16)
H4 H 0.8176 0.1603 0.5161
C5 C 0.78342(17) 0.31405(16) 0.57156(15)
H5 H 0.7374 0.3366 0.5092
C6 C 0.80224(15) 0.38782(15) 0.65610(14)
C7 C 0.76718(16) 0.50656(15) 0.64574(13)
C8 C 0.5579(3) 0.8451(2) 0.6092(2)
H6 H 0.5829 0.8629 0.5347
H7 H 0.6103 0.8880 0.6601
C9 C 0.4260(3) 0.8792(3) 0.6222(3)
H8 H 0.4164 0.9562 0.6016
H9 H 0.4033 0.8698 0.6980
H10 H 0.3728 0.8338 0.5756
C10 C 0.54246(19) 0.68425(18) 0.73515(15)
H11 H 0.5370 0.7459 0.7868
H12 H 0.6071 0.6341 0.7629
C11 C 0.4206(2) 0.6232(2) 0.7324(2)
H13 H 0.3562 0.6713 0.7029
H14 H 0.4002 0.6010 0.8061
H15 H 0.4271 0.5582 0.6865
C12 C 0.78030(17) 0.66718(17) 0.37025(15)
H16 H 0.8211 0.7276 0.3318
H17 H 0.7077 0.6450 0.3259
C13 C 0.86787(19) 0.57083(18) 0.37903(18)
H18 H 0.9365 0.5897 0.4281
H19 H 0.8989 0.5536 0.3072
H20 H 0.8247 0.5071 0.4074
C14 C 0.82939(17) 0.77616(15) 0.53521(15)
H21 H 0.9105 0.7403 0.5329
H22 H 0.8062 0.7812 0.6121
C15 C 0.8391(2) 0.89111(17) 0.48869(18)
H23 H 0.8554 0.8867 0.4111
H24 H 0.9060 0.9304 0.5259
H25 H 0.7620 0.9303 0.4991
C16? C 0.4916(9) 0.8158(7) 0.5807(7)
C17? C 0.5141(8) 0.9196(7) 0.6449(7)
F2? F 0.7449(9) 0.3460(7) 0.4748(4)
H26? H 0.8811 0.3968 0.8066
H27? H 0.5086 0.8280 0.5032
H28? H 0.4054 0.7922 0.5867
H29? H 0.4629 0.9785 0.6147
H30? H 0.6005 0.9403 0.6409
H31? H 0.4935 0.9073 0.7208
loop_
_geom_bond_atom_site_label_1
_geom_bond_atom_site_label_2
_geom_bond_site_symmetry_1
_geom_bond_site_symmetry_2
P1 O2 1_555 1_555
F1 C1 1_555 1_555
O1 C7 1_555 1_555
N1 P1 1_555 1_555
H1 N1 1_555 1_555
N2 P1 1_555 1_555
N3 P1 1_555 1_555
C1 C2 1_555 1_555
C2 H2 1_555 1_555
C3 C2 1_555 1_555
H3 C3 1_555 1_555
C4 C3 1_555 1_555
H4 C4 1_555 1_555
C5 C4 1_555 1_555
H5 C5 1_555 1_555
C6 C1 1_555 1_555
C7 N1 1_555 1_555
C8 N2 1_555 1_555
H6 C8 1_555 1_555
H7 C8 1_555 1_555
C9 C8 1_555 1_555
H8 C9 1_555 1_555
H9 C9 1_555 1_555
H10 C9 1_555 1_555
C10 N2 1_555 1_555
H11 C10 1_555 1_555
H12 C10 1_555 1_555
C11 C10 1_555 1_555
H13 C11 1_555 1_555
H14 C11 1_555 1_555
H15 C11 1_555 1_555
C12 N3 1_555 1_555
H16 C12 1_555 1_555
H17 C12 1_555 1_555
C13 C12 1_555 1_555
H18 C13 1_555 1_555
H19 C13 1_555 1_555
H20 C13 1_555 1_555
C14 N3 1_555 1_555
H21 C14 1_555 1_555
H22 C14 1_555 1_555
C15 C14 1_555 1_555
H23 C15 1_555 1_555
H24 C15 1_555 1_555
H25 C15 1_555 1_555
C5 C6 1_555 1_555
C6 C7 1_555 1_555

#END
