
#######################################################################
#
#                 Cambridge Crystallographic Data Centre
#                                CCDC 
#
#######################################################################
#
# If this CIF has been generated from an entry in the Cambridge 
# Structural Database, then it will include bibliographic, chemical, 
# crystal, experimental, refinement or atomic coordinate data resulting 
# from the CCDC's data processing and validation procedures.
#
#######################################################################

data_ABALIZ
_chemical_formula_moiety         'C68 H66,2(C6 H14)'
_chemical_name_systematic        
'2,5,8,10,15,17-hexakis(t-Butyl)-(bc,ef,hi,uv)tetrabenzoovalene hexane solvate'
_symmetry_cell_setting           orthorhombic
_symmetry_space_group_name_H-M   'P c a b'
_symmetry_Int_Tables_number      61
_space_group_name_Hall           '-P 2bc 2ac'
loop_
_symmetry_equiv_pos_site_id
_symmetry_equiv_pos_as_xyz
1 x,y,z
2 1/2-x,y,1/2+z
3 1/2+x,1/2-y,z
4 x,1/2+y,1/2-z
5 -x,-y,-z
6 1/2+x,-y,1/2-z
7 1/2-x,1/2+y,-z
8 -x,1/2-y,1/2+z
_cell_length_a                   17.2333(6)
_cell_length_b                   24.8954(8)
_cell_length_c                   29.6704(9)
_cell_angle_alpha                90
_cell_angle_beta                 90
_cell_angle_gamma                90
_cell_volume                     12729.5
_exptl_crystal_colour            orange
_exptl_crystal_description       plate
_cell_formula_units_Z            8
loop_
_atom_site_label
_atom_site_type_symbol
_atom_site_fract_x
_atom_site_fract_y
_atom_site_fract_z
C1 C 0.11379(17) 0.14216(11) 0.1898(1)
C2 C 0.14103(17) 0.11759(11) 0.1502(1)
C3 C 0.21350(17) 0.09116(11) 0.1498(1)
C4 C 0.25585(17) 0.08585(11) 0.1907(1)
C5 C 0.22710(16) 0.10843(11) 0.2307(1)
C6 C 0.15679(17) 0.13836(11) 0.2301(1)
C7 C 0.03976(17) 0.16837(11) 0.19071(11)
C8 C 0.01405(17) 0.19402(12) 0.23044(11)
C9 C -0.11562(18) 0.20223(13) 0.19811(12)
C10 C -0.00949(18) 0.16607(12) 0.15249(11)
C11 C 0.09468(17) 0.11922(12) 0.1096(1)
C12 C 0.01978(17) 0.14281(12) 0.11044(11)
C13 C 0.00146(19) 0.11872(14) 0.03119(11)
C14 C 0.12216(17) 0.09522(13) 0.0695(1)
C15 C 0.24462(17) 0.06999(12) 0.1088(1)
C16 C 0.20031(18) 0.07133(13) 0.06873(11)
C17 C 0.30599(19) 0.02792(15) 0.02806(11)
C18 C 0.32107(17) 0.04856(13) 0.1079(1)
C19 C 0.33124(17) 0.06172(11) 0.1907(1)
C20 C 0.36717(17) 0.04791(12) 0.1496(1)
C21 C 0.48888(18) 0.03230(13) 0.1892(1)
C22 C 0.37189(17) 0.05473(12) 0.2317(1)
C23 C 0.26827(16) 0.10012(11) 0.2728(1)
C24 C 0.33367(16) 0.06584(12) 0.2746(1)
C25 C 0.35958(17) 0.04759(12) 0.3182(1)
C26 C 0.27974(18) 0.11805(13) 0.3531(1)
C27 C 0.24122(17) 0.12693(12) 0.3117(1)
C28 C 0.13293(17) 0.16765(12) 0.2696(1)
C29 C 0.17709(18) 0.16242(12) 0.3096(1)
C30 C 0.15682(19) 0.19338(13) 0.34763(11)
C31 C 0.05852(18) 0.24171(13) 0.30277(11)
C32 C 0.06750(17) 0.20239(12) 0.26793(11)
C33 C -0.2021(2) 0.21787(15) 0.20130(14)
C34 C -0.0497(2) 0.11713(17) -0.01108(12)
C35 C 0.3409(2) 0.00401(18) -0.01519(12)
C36 C 0.57644(19) 0.01999(16) 0.18677(11)
C37 C 0.40381(18) -0.00584(13) 0.32827(11)
C38 C 0.0163(2) 0.29702(14) 0.29873(13)
C39 C -0.06504(18) 0.20692(12) 0.23430(12)
C40 C -0.08606(18) 0.18422(12) 0.15694(12)
C41 C -0.02408(18) 0.14256(14) 0.07078(11)
C42 C 0.07444(19) 0.09502(14) 0.03130(11)
C43 C 0.23261(18) 0.05023(14) 0.02926(11)
C44 C 0.34913(18) 0.02781(14) 0.06781(11)
C45 C 0.44535(18) 0.03302(13) 0.15001(11)
C46 C 0.45170(17) 0.04237(12) 0.22958(11)
C47 C 0.33519(18) 0.07692(13) 0.35499(11)
C48 C 0.09986(19) 0.23298(13) 0.34232(11)
C49 C 0.1984(2) 0.18515(15) 0.38875(12)
C50 C 0.2565(2) 0.14894(14) 0.39154(11)
H1 H -0.08466(18) 0.21898(12) 0.26243(12)
H2 H -0.11906(18) 0.18392(12) 0.13133(12)
H3 H -0.07333(18) 0.15965(14) 0.07078(11)
H4 H 0.09171(19) 0.07749(14) 0.00472(11)
H5 H 0.20245(18) 0.05088(14) 0.00250(11)
H6 H 0.39925(18) 0.01200(14) 0.06745(11)
H7 H 0.46964(18) 0.02303(13) 0.12255(11)
H8 H 0.48062(17) 0.04100(12) 0.25678(11)
H9 H 0.35810(18) 0.06887(13) 0.38329(11)
H10 H 0.08864(19) 0.25517(13) 0.36752(11)
H11 H 0.1848(2) 0.20574(15) 0.41449(12)
H12 H 0.2829(2) 0.14358(14) 0.41926(11)
C51 C -0.2248(2) 0.23296(18) 0.24950(15)
H13 H -0.2780(2) 0.24270(18) 0.25055(15)
H14 H -0.1941(2) 0.26212(18) 0.25986(15)
H15 H -0.2163(2) 0.20255(18) 0.26818(15)
C52 C -0.2162(3) 0.2662(2) 0.17065(16)
H16 H -0.2690(3) 0.2769(2) 0.17185(16)
H17 H -0.1843(3) 0.2949(2) 0.18066(16)
H18 H -0.2030(3) 0.2571(2) 0.14055(16)
C53 C -0.2522(2) 0.17053(19) 0.18674(19)
H19 H -0.3054(2) 0.18019(19) 0.18849(19)
H20 H -0.2429(2) 0.14019(19) 0.20537(19)
H21 H -0.2394(2) 0.16199(19) 0.15647(19)
C54 C -0.0656(5) 0.0563(4) -0.0224(3)
H22 H -0.0177(5) 0.0380(4) -0.0261(3)
H23 H -0.0949(5) 0.0537(4) -0.0494(3)
H24 H -0.0938(5) 0.0404(4) 0.0016(3)
C55 C -0.1269(5) 0.1430(5) -0.0049(3)
H25 H -0.1196(5) 0.1800(5) 0.0018(3)
H26 H -0.1557(5) 0.1396(5) -0.0321(3)
H27 H -0.1545(5) 0.1263(5) 0.0190(3)
C56 C -0.0039(5) 0.1406(5) -0.0500(3)
H28 H 0.0063(5) 0.1775(5) -0.0440(3)
H29 H -0.0335(5) 0.1376(5) -0.0768(3)
H30 H 0.0437(5) 0.1219(5) -0.0535(3)
C60 C 0.2839(2) 0.0049(2) -0.05394(13)
H40 H 0.3075(2) -0.0104(2) -0.07987(13)
H41 H 0.2691(2) 0.0409(2) -0.06016(13)
H42 H 0.2393(2) -0.0155(2) -0.04611(13)
C61 C 0.3657(3) -0.0537(2) -0.00668(15)
H43 H 0.3874(3) -0.0688(2) -0.03325(15)
H44 H 0.4032(3) -0.0544(2) 0.01675(15)
H45 H 0.3216(3) -0.0741(2) 0.00213(15)
C62 C 0.4124(2) 0.0382(2) -0.02801(14)
H46 H 0.4349(2) 0.0238(2) -0.05460(14)
H47 H 0.4491(2) 0.0368(2) -0.00418(14)
H48 H 0.3976(2) 0.0744(2) -0.03318(14)
C63 C 0.6144(2) 0.06329(18) 0.15781(13)
H49 H 0.6687(2) 0.05731(18) 0.15588(13)
H50 H 0.6050(2) 0.09750(18) 0.17090(13)
H51 H 0.5925(2) 0.06217(18) 0.12849(13)
C64 C 0.5890(2) -0.03516(17) 0.16543(14)
H52 H 0.6429(2) -0.04253(17) 0.16385(14)
H53 H 0.5641(2) -0.06194(17) 0.18308(14)
H54 H 0.5677(2) -0.03521(17) 0.13593(14)
C65 C 0.6150(2) 0.0197(2) 0.23339(13)
H55 H 0.6689(2) 0.0126(2) 0.23015(13)
H56 H 0.6080(2) 0.0538(2) 0.24718(13)
H57 H 0.5921(2) -0.0074(2) 0.25165(13)
C66 C 0.3997(2) -0.04741(13) 0.28979(12)
H58 H 0.4276(2) -0.07887(13) 0.29785(12)
H59 H 0.4219(2) -0.03207(13) 0.26350(12)
H60 H 0.3471(2) -0.05648(13) 0.28404(12)
C67 C 0.48783(19) 0.00374(16) 0.34318(12)
H61 H 0.51229(19) -0.02977(16) 0.34891(12)
H62 H 0.48784(19) 0.02473(16) 0.36990(12)
H63 H 0.51525(19) 0.02225(16) 0.32018(12)
C68 C 0.3621(2) -0.03320(15) 0.36836(12)
H64 H 0.3881(2) -0.06584(15) 0.37524(12)
H65 H 0.3628(2) -0.01036(15) 0.39398(12)
H66 H 0.3099(2) -0.04068(15) 0.36022(12)
C69 C 0.0729(2) 0.34024(15) 0.31727(16)
H67 H 0.0494(2) 0.37466(15) 0.31514(16)
H68 H 0.0834(2) 0.33228(15) 0.34796(16)
H69 H 0.1200(2) 0.34013(15) 0.30070(16)
C70 C -0.0571(2) 0.29881(18) 0.32717(17)
H70 H -0.0813(2) 0.33281(18) 0.32366(17)
H71 H -0.0437(2) 0.29363(18) 0.35790(17)
H72 H -0.0917(2) 0.27129(18) 0.31789(17)
C71 C 0.0003(3) 0.31516(15) 0.24974(15)
H73 H -0.0253(3) 0.34892(15) 0.25009(15)
H74 H 0.0481(3) 0.31846(15) 0.23411(15)
H75 H -0.0314(3) 0.28940(15) 0.23500(15)
C72 C 0.008(1) 0.3017(8) 0.0822(6)
H76 H -0.006(1) 0.3302(8) 0.1020(6)
H77 H -0.007(1) 0.3106(8) 0.0524(6)
H78 H -0.018(1) 0.2697(8) 0.0912(6)
C73 C 0.0896(11) 0.2908(8) 0.0876(8)
H79 H 0.1143(11) 0.3233(8) 0.0788(8)
H80 H 0.1033(11) 0.2824(8) 0.1177(8)
C74 C 0.1275(8) 0.2576(5) 0.0499(4)
H81 H 0.1095(8) 0.2636(5) 0.0201(4)
H82 H 0.1079(8) 0.2242(5) 0.0606(4)
C75 C 0.1972(7) 0.2464(5) 0.0509(4)
H83 H 0.2165(7) 0.2821(5) 0.0506(4)
H84 H 0.2139(7) 0.2287(5) 0.0775(4)
C76 C 0.2313(7) 0.2143(5) 0.0147(4)
H85 H 0.2380(7) 0.2391(5) -0.0093(4)
H86 H 0.1962(7) 0.1869(5) 0.0057(4)
C77 C 0.3019(7) 0.1973(5) 0.0249(4)
H87 H 0.3209(7) 0.1793(5) -0.0011(4)
H88 H 0.3377(7) 0.2243(5) 0.0337(4)
H89 H 0.2958(7) 0.1721(5) 0.0487(4)
C81 C 0.2066(9) 0.4332(6) 0.3615(6)
H97 H 0.1577(9) 0.4284(6) 0.3757(6)
H98 H 0.2248(9) 0.4686(6) 0.3670(6)
H99 H 0.2013(9) 0.4278(6) 0.3300(6)
C82 C 0.2576(12) 0.3962(8) 0.3683(7)
H100 H 0.2586(12) 0.4027(8) 0.3998(7)
H101 H 0.2351(12) 0.3619(8) 0.3627(7)
C83 C 0.3333(17) 0.3837(12) 0.360(1)
H102 H 0.3632(17) 0.4149(12) 0.366(1)
H103 H 0.3398(17) 0.3737(12) 0.330(1)
C84 C 0.3664(19) 0.3443(14) 0.4002(12)
H104 H 0.3448(19) 0.3520(14) 0.4289(12)
H105 H 0.3456(19) 0.3115(14) 0.3892(12)
C85 C 0.428(2) 0.3453(15) 0.3828(11)
H106 H 0.447(2) 0.3810(15) 0.3840(11)
H107 H 0.446(2) 0.3283(15) 0.3562(11)
C86 C 0.4503(19) 0.3174(15) 0.4273(12)
H108 H 0.5053(19) 0.3179(15) 0.4259(12)
H109 H 0.4337(19) 0.3340(15) 0.4544(12)
H110 H 0.4326(19) 0.2813(15) 0.4265(12)
C57? C -0.1246(6) 0.0872(5) -0.0005(3)
H31? H -0.1090(6) 0.0516(5) 0.0069(3)
H32? H -0.1522(6) 0.1023(5) 0.0241(3)
H33? H -0.1572(6) 0.0863(5) -0.0263(3)
C58? C -0.0729(8) 0.1774(5) -0.0235(4)
H34? H -0.0281(8) 0.1984(5) -0.0297(4)
H35? H -0.1003(8) 0.1927(5) 0.0011(4)
H36? H -0.1054(8) 0.1767(5) -0.0493(4)
C59? C -0.0120(7) 0.0936(6) -0.0526(3)
H37? H 0.0332(7) 0.1131(6) -0.0607(3)
H38? H -0.0481(7) 0.0946(6) -0.0768(3)
H39? H 0.0015(7) 0.0574(6) -0.0463(3)
C78? C -0.0251(13) 0.327(1) 0.0974(8)
H90? H -0.0379(13) 0.328(1) 0.1284(8)
H91? H -0.0188(13) 0.362(1) 0.0862(8)
H92? H -0.0656(13) 0.309(1) 0.0813(8)
C79? C 0.0613(19) 0.2984(15) 0.0993(11)
H93? H 0.0970(19) 0.3174(15) 0.1177(11)
H94? H 0.0502(19) 0.2646(15) 0.1127(11)
C80? C 0.1007(15) 0.2809(12) 0.055(1)
H95? H 0.1113(15) 0.3134(12) 0.040(1)
H96? H 0.0691(15) 0.2585(12) 0.037(1)
C87? C 0.232(1) 0.4334(7) 0.3292(6)
H111? H 0.222(1) 0.4593(7) 0.3066(6)
H112? H 0.225(1) 0.4490(7) 0.3581(6)
H113? H 0.198(1) 0.4037(7) 0.3257(6)
C88? C 0.272(1) 0.4101(7) 0.3240(6)
H114? H 0.298(1) 0.4436(7) 0.3259(6)
H115? H 0.272(1) 0.3982(7) 0.2936(6)
C89? C 0.3511(11) 0.3983(8) 0.3367(7)
H116? H 0.3990(11) 0.4136(8) 0.3275(7)
H117? H 0.3438(11) 0.3648(8) 0.3221(7)
C90? C 0.3697(16) 0.3673(13) 0.376(1)
H118? H 0.3494(16) 0.3958(13) 0.394(1)
H119? H 0.3424(16) 0.3351(13) 0.383(1)
C91? C 0.4518(12) 0.3573(9) 0.3998(8)
H120? H 0.4734(12) 0.3921(9) 0.4037(8)
H121? H 0.4751(12) 0.3404(9) 0.3745(8)
C92? C 0.4850(12) 0.3253(7) 0.4371(6)
H122? H 0.5399(12) 0.3242(7) 0.4396(6)
H123? H 0.4637(12) 0.3415(7) 0.4633(6)
H124? H 0.4655(12) 0.2898(7) 0.4341(6)
loop_
_geom_bond_atom_site_label_1
_geom_bond_atom_site_label_2
_geom_bond_site_symmetry_1
_geom_bond_site_symmetry_2
C1 C2 1_555 1_555
C2 C3 1_555 1_555
C3 C4 1_555 1_555
C4 C5 1_555 1_555
C5 C6 1_555 1_555
C6 C1 1_555 1_555
C7 C1 1_555 1_555
C8 C7 1_555 1_555
C9 C33 1_555 1_555
C10 C7 1_555 1_555
C11 C2 1_555 1_555
C12 C10 1_555 1_555
C13 C34 1_555 1_555
C14 C11 1_555 1_555
C15 C3 1_555 1_555
C16 C14 1_555 1_555
C17 C35 1_555 1_555
C18 C15 1_555 1_555
C19 C4 1_555 1_555
C20 C18 1_555 1_555
C21 C36 1_555 1_555
C22 C19 1_555 1_555
C23 C5 1_555 1_555
C24 C22 1_555 1_555
C25 C24 1_555 1_555
C26 C27 1_555 1_555
C27 C23 1_555 1_555
C28 C6 1_555 1_555
C29 C27 1_555 1_555
C30 C29 1_555 1_555
C31 C32 1_555 1_555
C32 C8 1_555 1_555
C33 C51 1_555 1_555
C34 C54 1_555 1_555
C35 C60 1_555 1_555
C36 C63 1_555 1_555
C37 C25 1_555 1_555
C38 C31 1_555 1_555
C39 C8 1_555 1_555
C40 C9 1_555 1_555
C41 C12 1_555 1_555
C42 C13 1_555 1_555
C43 C16 1_555 1_555
C44 C17 1_555 1_555
C45 C20 1_555 1_555
C46 C21 1_555 1_555
C47 C25 1_555 1_555
C48 C30 1_555 1_555
C49 C30 1_555 1_555
C50 C26 1_555 1_555
H1 C39 1_555 1_555
H2 C40 1_555 1_555
H3 C41 1_555 1_555
H4 C42 1_555 1_555
H5 C43 1_555 1_555
H6 C44 1_555 1_555
H7 C45 1_555 1_555
H8 C46 1_555 1_555
H9 C47 1_555 1_555
H10 C48 1_555 1_555
H11 C49 1_555 1_555
H12 C50 1_555 1_555
C51 H13 1_555 1_555
H14 C51 1_555 1_555
H15 C51 1_555 1_555
C52 C33 1_555 1_555
H16 C52 1_555 1_555
H17 C52 1_555 1_555
H18 C52 1_555 1_555
C53 C33 1_555 1_555
H19 C53 1_555 1_555
H20 C53 1_555 1_555
H21 C53 1_555 1_555
C54 H22 1_555 1_555
H23 C54 1_555 1_555
H24 C54 1_555 1_555
C55 C34 1_555 1_555
H25 C55 1_555 1_555
H26 C55 1_555 1_555
H27 C55 1_555 1_555
C56 C34 1_555 1_555
H28 C56 1_555 1_555
H29 C56 1_555 1_555
H30 C56 1_555 1_555
C60 H40 1_555 1_555
H41 C60 1_555 1_555
H42 C60 1_555 1_555
C61 C35 1_555 1_555
H43 C61 1_555 1_555
H44 C61 1_555 1_555
H45 C61 1_555 1_555
C62 C35 1_555 1_555
H46 C62 1_555 1_555
H47 C62 1_555 1_555
H48 C62 1_555 1_555
C63 H49 1_555 1_555
H50 C63 1_555 1_555
H51 C63 1_555 1_555
C64 C36 1_555 1_555
H52 C64 1_555 1_555
H53 C64 1_555 1_555
H54 C64 1_555 1_555
C65 C36 1_555 1_555
H55 C65 1_555 1_555
H56 C65 1_555 1_555
H57 C65 1_555 1_555
C66 C37 1_555 1_555
H58 C66 1_555 1_555
H59 C66 1_555 1_555
H60 C66 1_555 1_555
C67 C37 1_555 1_555
H61 C67 1_555 1_555
H62 C67 1_555 1_555
H63 C67 1_555 1_555
C68 C37 1_555 1_555
H64 C68 1_555 1_555
H65 C68 1_555 1_555
H66 C68 1_555 1_555
C69 C38 1_555 1_555
H67 C69 1_555 1_555
H68 C69 1_555 1_555
H69 C69 1_555 1_555
C70 C38 1_555 1_555
H70 C70 1_555 1_555
H71 C70 1_555 1_555
H72 C70 1_555 1_555
C71 C38 1_555 1_555
H73 C71 1_555 1_555
H74 C71 1_555 1_555
H75 C71 1_555 1_555
C72 H76 1_555 1_555
H77 C72 1_555 1_555
H78 C72 1_555 1_555
C73 C72 1_555 1_555
H79 C73 1_555 1_555
H80 C73 1_555 1_555
C74 C73 1_555 1_555
H81 C74 1_555 1_555
H82 C74 1_555 1_555
C75 C74 1_555 1_555
H83 C75 1_555 1_555
H84 C75 1_555 1_555
C76 C75 1_555 1_555
H85 C76 1_555 1_555
H86 C76 1_555 1_555
C77 C76 1_555 1_555
H87 C77 1_555 1_555
H88 C77 1_555 1_555
H89 C77 1_555 1_555
C81 H97 1_555 1_555
H98 C81 1_555 1_555
H99 C81 1_555 1_555
C82 C81 1_555 1_555
H100 C82 1_555 1_555
H101 C82 1_555 1_555
C83 C82 1_555 1_555
H102 C83 1_555 1_555
H103 C83 1_555 1_555
C84 C83 1_555 1_555
H104 C84 1_555 1_555
H105 C84 1_555 1_555
C85 C84 1_555 1_555
H106 C85 1_555 1_555
H107 C85 1_555 1_555
C86 C85 1_555 1_555
H108 C86 1_555 1_555
H109 C86 1_555 1_555
H110 C86 1_555 1_555
C9 C39 1_555 1_555
C10 C40 1_555 1_555
C11 C12 1_555 1_555
C13 C41 1_555 1_555
C14 C42 1_555 1_555
C15 C16 1_555 1_555
C17 C43 1_555 1_555
C18 C44 1_555 1_555
C19 C20 1_555 1_555
C21 C45 1_555 1_555
C22 C46 1_555 1_555
C23 C24 1_555 1_555
C26 C47 1_555 1_555
C28 C32 1_555 1_555
C28 C29 1_555 1_555
C31 C48 1_555 1_555
C49 C50 1_555 1_555

#END
