
#######################################################################
#
#                 Cambridge Crystallographic Data Centre
#                                CCDC 
#
#######################################################################
#
# If this CIF has been generated from an entry in the Cambridge 
# Structural Database, then it will include bibliographic, chemical, 
# crystal, experimental, refinement or atomic coordinate data resulting 
# from the CCDC's data processing and validation procedures.
#
#######################################################################

data_ABAMEX01
_chemical_formula_moiety         'C23 H20 N4 O1'
_chemical_name_systematic        
4-(((2-Aminophenyl)amino)(phenyl)methylene)-5-methyl-2-phenyl-2,4-dihydro-3H-pyrazol-3-one
_symmetry_cell_setting           monoclinic
_symmetry_space_group_name_H-M   'P 21/c'
_symmetry_Int_Tables_number      14
_space_group_name_Hall           '-P 2ybc'
loop_
_symmetry_equiv_pos_site_id
_symmetry_equiv_pos_as_xyz
1 x,y,z
2 -x,1/2+y,1/2-z
3 -x,-y,-z
4 x,1/2-y,1/2+z
_cell_length_a                   9.207(2)
_cell_length_b                   21.680(5)
_cell_length_c                   9.606(2)
_cell_angle_alpha                90
_cell_angle_beta                 97.806(4)
_cell_angle_gamma                90
_cell_volume                     1899.66
_exptl_crystal_colour            orange
_exptl_crystal_description       prism
_cell_formula_units_Z            4
loop_
_atom_site_label
_atom_site_type_symbol
_atom_site_fract_x
_atom_site_fract_y
_atom_site_fract_z
C1 C 0.2786(3) 0.67053(12) 1.1325(3)
H1 H 0.2255 0.6632 1.0446
C2 C 0.2832(4) 0.72920(14) 1.1901(3)
H2 H 0.2333 0.7612 1.1398
C3 C 0.3600(4) 0.74089(15) 1.3199(3)
H3 H 0.3636 0.7805 1.3573
C4 C 0.4317(3) 0.69302(15) 1.3938(3)
H4 H 0.4832 0.7003 1.4824
C5 C 0.4283(3) 0.63464(13) 1.3386(3)
H5 H 0.4767 0.6027 1.3903
C6 C 0.3536(3) 0.62297(11) 1.2067(2)
C7 C 0.3752(2) 0.46265(11) 1.1626(2)
C8 C 0.3015(2) 0.47637(11) 1.0252(2)
C9 C 0.2922(2) 0.54249(11) 1.0172(2)
C10 C 0.4281(3) 0.40279(12) 1.2258(3)
H6 H 0.4732 0.4094 1.3208
H7 H 0.4984 0.3853 1.1721
H8 H 0.3467 0.3751 1.2255
C11 C 0.2431(2) 0.43806(11) 0.9138(2)
C12 C 0.2175(2) 0.37153(11) 0.9348(2)
C13 C 0.1253(3) 0.35358(13) 1.0306(3)
H9 H 0.0806 0.3831 1.0807
C14 C 0.1006(3) 0.29164(16) 1.0510(3)
H10 H 0.0371 0.2796 1.1135
C15 C 0.1685(4) 0.24760(16) 0.9803(4)
H11 H 0.1541 0.2060 0.9973
C16 C 0.2579(4) 0.26534(14) 0.8844(3)
H12 H 0.3024 0.2355 0.8348
C17 C 0.2823(3) 0.32691(13) 0.8608(3)
H13 H 0.3424 0.3385 0.7949
C18 C 0.1297(2) 0.43748(10) 0.6622(2)
C19 C 0.0031(3) 0.40295(11) 0.6617(3)
H14 H -0.0300 0.3929 0.7461
C20 C -0.0739(3) 0.38344(11) 0.5369(3)
H15 H -0.1572 0.3591 0.5366
C21 C -0.0266(3) 0.40022(11) 0.4121(3)
H16 H -0.0800 0.3881 0.3273
C22 C 0.0976(3) 0.43434(11) 0.4120(2)
H17 H 0.1277 0.4452 0.3267
C23 C 0.1803(2) 0.45321(10) 0.5368(2)
N1 N 0.4039(2) 0.51338(9) 1.23634(18)
N2 N 0.3490(2) 0.56270(9) 1.14982(18)
N3 N 0.2057(2) 0.46327(9) 0.78792(17)
H18 H 0.2316 0.5012 0.7813
N4 N 0.3049(2) 0.48848(10) 0.53750(19)
H19 H 0.3334 0.4994 0.4595
H20 H 0.3543 0.4996 0.6160
O1 O 0.24352(19) 0.57592(8) 0.91558(16)
loop_
_geom_bond_atom_site_label_1
_geom_bond_atom_site_label_2
_geom_bond_site_symmetry_1
_geom_bond_site_symmetry_2
C1 H1 1_555 1_555
C2 C1 1_555 1_555
H2 C2 1_555 1_555
C3 C2 1_555 1_555
H3 C3 1_555 1_555
C4 C3 1_555 1_555
H4 C4 1_555 1_555
C5 C4 1_555 1_555
H5 C5 1_555 1_555
C6 C1 1_555 1_555
C7 C8 1_555 1_555
C8 C9 1_555 1_555
C9 N2 1_555 1_555
C10 C7 1_555 1_555
H6 C10 1_555 1_555
H7 C10 1_555 1_555
H8 C10 1_555 1_555
C11 C8 1_555 1_555
C12 C11 1_555 1_555
C13 C12 1_555 1_555
H9 C13 1_555 1_555
C14 C13 1_555 1_555
H10 C14 1_555 1_555
C15 C14 1_555 1_555
H11 C15 1_555 1_555
C16 C15 1_555 1_555
H12 C16 1_555 1_555
C17 C12 1_555 1_555
H13 C17 1_555 1_555
C18 C19 1_555 1_555
C19 H14 1_555 1_555
C20 C19 1_555 1_555
H15 C20 1_555 1_555
C21 C20 1_555 1_555
H16 C21 1_555 1_555
C22 C21 1_555 1_555
H17 C22 1_555 1_555
C23 C18 1_555 1_555
N1 C7 1_555 1_555
N2 C6 1_555 1_555
N3 C11 1_555 1_555
H18 N3 1_555 1_555
N4 C23 1_555 1_555
H19 N4 1_555 1_555
H20 N4 1_555 1_555
O1 C9 1_555 1_555
C5 C6 1_555 1_555
C16 C17 1_555 1_555
C18 N3 1_555 1_555
C22 C23 1_555 1_555
N1 N2 1_555 1_555

#END
