
#######################################################################
#
#                 Cambridge Crystallographic Data Centre
#                                CCDC 
#
#######################################################################
#
# If this CIF has been generated from an entry in the Cambridge 
# Structural Database, then it will include bibliographic, chemical, 
# crystal, experimental, refinement or atomic coordinate data resulting 
# from the CCDC's data processing and validation procedures.
#
#######################################################################

data_ABAMEX02
_chemical_formula_moiety         'C23 H20 N4 O1'
_chemical_name_systematic        
4-(((2-Aminophenyl)amino)(phenyl)methylene)-5-methyl-2-phenyl-2,4-dihydro-3H-pyrazol-3-one
_symmetry_cell_setting           monoclinic
_symmetry_space_group_name_H-M   'P 21/c'
_symmetry_Int_Tables_number      14
_space_group_name_Hall           '-P 2ybc'
loop_
_symmetry_equiv_pos_site_id
_symmetry_equiv_pos_as_xyz
1 x,y,z
2 -x,1/2+y,1/2-z
3 -x,-y,-z
4 x,1/2-y,1/2+z
_cell_length_a                   9.203(2)
_cell_length_b                   21.683(5)
_cell_length_c                   9.611(2)
_cell_angle_alpha                90
_cell_angle_beta                 97.880(3)
_cell_angle_gamma                90
_cell_volume                     1899.75
_exptl_crystal_colour            yellow
_exptl_crystal_description       block
_cell_formula_units_Z            4
loop_
_atom_site_label
_atom_site_type_symbol
_atom_site_fract_x
_atom_site_fract_y
_atom_site_fract_z
O1 O 0.25591(14) 0.57582(5) 0.08447(11)
N1 N 0.19492(14) 0.48852(7) 0.46268(14)
H1 H 0.1665 0.4995 0.5406
H2 H 0.1455 0.4996 0.3842
N2 N 0.29356(15) 0.46315(6) 0.21220(12)
H3 H 0.2665 0.5009 0.2191
N3 N 0.15064(14) 0.56271(6) -0.14996(12)
N4 N 0.09568(14) 0.51344(6) -0.23603(12)
C1 C 0.31956(16) 0.45326(7) 0.46359(15)
C2 C 0.40268(18) 0.43441(8) 0.58860(16)
H4 H 0.3725 0.4453 0.6737
C3 C 0.52815(18) 0.40010(8) 0.58881(17)
H5 H 0.5817 0.3880 0.6736
C4 C 0.57500(18) 0.38350(8) 0.46363(18)
H6 H 0.6586 0.3594 0.4638
C5 C 0.49725(18) 0.40284(8) 0.33824(17)
H7 H 0.5300 0.3927 0.2538
C6 C 0.37050(17) 0.43738(7) 0.33770(15)
C7 C 0.25710(16) 0.43788(7) 0.08586(14)
C8 C 0.28353(16) 0.37142(7) 0.06469(15)
C9 C 0.3756(2) 0.35362(9) -0.03127(18)
H8 H 0.4203 0.3832 -0.0812
C10 C 0.4003(2) 0.29164(11) -0.0521(2)
H9 H 0.4632 0.2797 -0.1151
C11 C 0.3331(3) 0.24760(10) 0.0194(3)
H10 H 0.3481 0.2060 0.0029
C12 C 0.2435(2) 0.26524(9) 0.1153(2)
H11 H 0.1993 0.2354 0.1648
C13 C 0.21866(19) 0.32671(8) 0.13896(18)
H12 H 0.1584 0.3382 0.2047
C14 C 0.19850(16) 0.47628(7) -0.02522(14)
C15 C 0.20740(17) 0.54260(7) -0.01704(15)
C16 C 0.12497(17) 0.46286(7) -0.16272(15)
C17 C 0.0718(2) 0.40274(8) -0.22613(18)
H13 H 0.0054 0.4102 -0.3105
H14 H 0.0221 0.3803 -0.1606
H15 H 0.1539 0.3791 -0.2481
C18 C 0.14654(17) 0.62311(7) -0.20628(16)
C19 C 0.2210(2) 0.67075(8) -0.13181(19)
H16 H 0.2734 0.6635 -0.0436
C20 C 0.2167(3) 0.72933(9) -0.1897(2)
H17 H 0.2670 0.7613 -0.1396
C21 C 0.1399(3) 0.74102(10) -0.3194(2)
H18 H 0.1363 0.7807 -0.3566
C22 C 0.0682(2) 0.69339(10) -0.3937(2)
H19 H 0.0171 0.7009 -0.4824
C23 C 0.07068(19) 0.63458(9) -0.33896(17)
H20 H 0.0218 0.6027 -0.3906
loop_
_geom_bond_atom_site_label_1
_geom_bond_atom_site_label_2
_geom_bond_site_symmetry_1
_geom_bond_site_symmetry_2
O1 C15 1_555 1_555
N1 H1 1_555 1_555
H2 N1 1_555 1_555
N2 H3 1_555 1_555
N3 N4 1_555 1_555
N4 C16 1_555 1_555
C1 N1 1_555 1_555
C2 C1 1_555 1_555
H4 C2 1_555 1_555
C3 C2 1_555 1_555
H5 C3 1_555 1_555
C4 C3 1_555 1_555
H6 C4 1_555 1_555
C5 C4 1_555 1_555
H7 C5 1_555 1_555
C6 N2 1_555 1_555
C7 N2 1_555 1_555
C8 C7 1_555 1_555
C9 C8 1_555 1_555
H8 C9 1_555 1_555
C10 C9 1_555 1_555
H9 C10 1_555 1_555
C11 C10 1_555 1_555
H10 C11 1_555 1_555
C12 C11 1_555 1_555
H11 C12 1_555 1_555
C13 C8 1_555 1_555
H12 C13 1_555 1_555
C14 C7 1_555 1_555
C15 N3 1_555 1_555
C16 C14 1_555 1_555
C17 C16 1_555 1_555
H13 C17 1_555 1_555
H14 C17 1_555 1_555
H15 C17 1_555 1_555
C18 N3 1_555 1_555
C19 C18 1_555 1_555
H16 C19 1_555 1_555
C20 C19 1_555 1_555
H17 C20 1_555 1_555
C21 C20 1_555 1_555
H18 C21 1_555 1_555
C22 C21 1_555 1_555
H19 C22 1_555 1_555
C23 C18 1_555 1_555
H20 C23 1_555 1_555
C1 C6 1_555 1_555
C5 C6 1_555 1_555
C12 C13 1_555 1_555
C14 C15 1_555 1_555
C22 C23 1_555 1_555

#END
