
#######################################################################
#
#                 Cambridge Crystallographic Data Centre
#                                CCDC 
#
#######################################################################
#
# If this CIF has been generated from an entry in the Cambridge 
# Structural Database, then it will include bibliographic, chemical, 
# crystal, experimental, refinement or atomic coordinate data resulting 
# from the CCDC's data processing and validation procedures.
#
#######################################################################

data_ABAPEA
_chemical_formula_moiety         'C19 H26 O4'
_chemical_name_systematic        11\a,15\a-Dihydroxyandrost-4-ene-3,17-dione
_symmetry_cell_setting           orthorhombic
_symmetry_space_group_name_H-M   'P 21 21 21'
_symmetry_Int_Tables_number      19
_space_group_name_Hall           'P 2ac 2ab'
loop_
_symmetry_equiv_pos_site_id
_symmetry_equiv_pos_as_xyz
1 x,y,z
2 1/2-x,-y,1/2+z
3 -x,1/2+y,1/2-z
4 1/2+x,1/2-y,-z
_cell_length_a                   7.8716(8)
_cell_length_b                   12.2725(12)
_cell_length_c                   17.2100(16)
_cell_angle_alpha                90
_cell_angle_beta                 90
_cell_angle_gamma                90
_cell_volume                     1662.56
_exptl_crystal_colour            colorless
_exptl_crystal_description       prism
_cell_formula_units_Z            4
loop_
_atom_site_label
_atom_site_type_symbol
_atom_site_fract_x
_atom_site_fract_y
_atom_site_fract_z
O1 O 0.31267(17) 0.53408(9) 0.26929(8)
O2 O 0.51158(16) 0.08691(11) 0.09715(8)
H1 H 0.563(3) 0.0711(19) 0.1363(15)
O3 O -0.27423(18) 0.05176(12) -0.03028(8)
H2 H -0.357(4) 0.064(2) 0.0029(16)
O4 O 0.16087(19) -0.21111(10) -0.06034(7)
C1 C 0.4080(2) 0.26310(14) 0.19535(12)
H3 H 0.4888 0.2042 0.2087
H4 H 0.4428 0.2935 0.1445
C2 C 0.4205(2) 0.35273(15) 0.25684(12)
H5 H 0.4037 0.3203 0.3089
H6 H 0.5357 0.3850 0.2553
C3 C 0.2921(2) 0.44021(14) 0.24442(10)
C4 C 0.1357(2) 0.40863(14) 0.20623(10)
H7 H 0.0535 0.4636 0.1964
C5 C 0.1002(2) 0.30692(13) 0.18408(10)
C6 C -0.0777(2) 0.28022(15) 0.15829(11)
H8 H -0.1398 0.3489 0.1482
H9 H -0.1371 0.2415 0.2008
C7 C -0.0825(2) 0.21006(14) 0.08549(11)
H10 H -0.0385 0.2522 0.0408
H11 H -0.2012 0.1890 0.0740
C8 C 0.0253(2) 0.10785(13) 0.09697(10)
H12 H -0.0158 0.0696 0.1447
C9 C 0.2132(2) 0.14340(14) 0.11087(9)
H13 H 0.2434 0.1930 0.0669
C10 C 0.2289(2) 0.21395(13) 0.18739(10)
C11 C 0.3406(2) 0.04730(14) 0.10728(10)
H14 H 0.3346 0.0064 0.1575
C12 C 0.3116(2) -0.03257(14) 0.04087(10)
H15 H 0.3401 0.0030 -0.0091
H16 H 0.3875 -0.0963 0.0474
C13 C 0.1278(2) -0.07058(13) 0.03913(9)
C14 C 0.0122(2) 0.02890(13) 0.02873(9)
H17 H 0.0545 0.0688 -0.0181
C15 C -0.1598(2) -0.02117(14) 0.00633(10)
H18 H -0.2147 -0.0537 0.0533
C16 C -0.1069(3) -0.11229(16) -0.05010(11)
H19 H -0.1820 -0.1765 -0.0440
H20 H -0.1139 -0.0866 -0.1045
C17 C 0.0746(2) -0.14129(15) -0.02929(10)
C18 C 0.0840(2) -0.13973(14) 0.11174(9)
H21 H -0.0316 -0.1685 0.1067
H22 H 0.0913 -0.0940 0.1583
H23 H 0.1645 -0.2003 0.1161
C19 C 0.1869(3) 0.14572(15) 0.26033(10)
H24 H 0.2029 0.1905 0.3069
H25 H 0.2625 0.0824 0.2627
H26 H 0.0686 0.1210 0.2577
loop_
_geom_bond_atom_site_label_1
_geom_bond_atom_site_label_2
_geom_bond_site_symmetry_1
_geom_bond_site_symmetry_2
O1 C3 1_555 1_555
O2 H1 1_555 1_555
O3 H2 1_555 1_555
O4 C17 1_555 1_555
C1 H3 1_555 1_555
H4 C1 1_555 1_555
C2 C1 1_555 1_555
H5 C2 1_555 1_555
H6 C2 1_555 1_555
C3 C2 1_555 1_555
C4 C3 1_555 1_555
H7 C4 1_555 1_555
C5 C4 1_555 1_555
C6 C5 1_555 1_555
H8 C6 1_555 1_555
H9 C6 1_555 1_555
C7 C6 1_555 1_555
H10 C7 1_555 1_555
H11 C7 1_555 1_555
C8 C7 1_555 1_555
H12 C8 1_555 1_555
C9 C8 1_555 1_555
H13 C9 1_555 1_555
C10 C1 1_555 1_555
C11 O2 1_555 1_555
H14 C11 1_555 1_555
C12 C11 1_555 1_555
H15 C12 1_555 1_555
H16 C12 1_555 1_555
C13 C12 1_555 1_555
C14 C8 1_555 1_555
H17 C14 1_555 1_555
C15 O3 1_555 1_555
H18 C15 1_555 1_555
C16 C15 1_555 1_555
H19 C16 1_555 1_555
H20 C16 1_555 1_555
C17 C13 1_555 1_555
C18 C13 1_555 1_555
H21 C18 1_555 1_555
H22 C18 1_555 1_555
H23 C18 1_555 1_555
C19 C10 1_555 1_555
H24 C19 1_555 1_555
H25 C19 1_555 1_555
H26 C19 1_555 1_555
C5 C10 1_555 1_555
C9 C10 1_555 1_555
C9 C11 1_555 1_555
C13 C14 1_555 1_555
C14 C15 1_555 1_555
C16 C17 1_555 1_555

#END
