
#######################################################################
#
#                 Cambridge Crystallographic Data Centre
#                                CCDC 
#
#######################################################################
#
# If this CIF has been generated from an entry in the Cambridge 
# Structural Database, then it will include bibliographic, chemical, 
# crystal, experimental, refinement or atomic coordinate data resulting 
# from the CCDC's data processing and validation procedures.
#
#######################################################################

data_ABAQOM
_chemical_name_common            
4-azido-2,3-difluoro-6,8-dioxabicyclo[3.2.1]octane
_chemical_formula_moiety         'C6 H7 F2 N3 O2'
_chemical_name_systematic        
1,6-Anhydro-2-azido-2,3,4-trideoxy-3,4-difluoro-\b-D-glucopyranose
_symmetry_cell_setting           monoclinic
_symmetry_space_group_name_H-M   'P 21'
_symmetry_Int_Tables_number      4
_space_group_name_Hall           'P 2yb'
loop_
_symmetry_equiv_pos_site_id
_symmetry_equiv_pos_as_xyz
1 x,y,z
2 -x,1/2+y,-z
_cell_length_a                   6.2155(5)
_cell_length_b                   6.9162(6)
_cell_length_c                   18.1759(17)
_cell_angle_alpha                90
_cell_angle_beta                 99.855(3)
_cell_angle_gamma                90
_cell_volume                     769.81
_exptl_crystal_colour            colorless
_exptl_crystal_description       prism
_cell_formula_units_Z            4
loop_
_atom_site_label
_atom_site_type_symbol
_atom_site_fract_x
_atom_site_fract_y
_atom_site_fract_z
F1 F 0.08412(15) 0.67364(15) 0.19934(5)
F2 F -0.17393(15) 0.48167(15) 0.02866(5)
O1 O 0.26595(19) 0.38204(16) 0.04792(6)
O2 O 0.46543(17) 0.54197(19) 0.14530(6)
N1 N 0.0545(2) 0.1623(2) 0.14632(7)
N2 N -0.0841(2) 0.1100(2) 0.18445(7)
N3 N -0.2130(2) 0.0435(2) 0.21354(9)
C1 C 0.3504(3) 0.3674(2) 0.12511(9)
C2 C 0.1623(2) 0.3506(2) 0.16973(8)
C3 C 0.0041(2) 0.5194(2) 0.15274(9)
C4 C -0.0172(3) 0.5954(2) 0.07287(9)
C5 C 0.1922(3) 0.5810(2) 0.04138(8)
C6 C 0.3829(3) 0.6850(3) 0.08911(10)
H1 H 0.457(3) 0.247(3) 0.1317(10)
H2 H 0.217(2) 0.354(2) 0.2237(9)
H3 H -0.134(2) 0.491(2) 0.1623(8)
H4 H -0.070(3) 0.734(3) 0.0715(12)
H5 H 0.175(3) 0.624(2) -0.0115(8)
H6 H 0.500(3) 0.714(2) 0.0578(9)
H7 H 0.326(3) 0.812(3) 0.1138(9)
F3 F 0.51351(16) 0.32567(14) 0.33582(6)
F4 F 0.66382(19) 0.54906(17) 0.50979(6)
O3 O 0.99872(17) 0.61603(16) 0.42487(6)
O4 O 0.9630(2) 0.42884(16) 0.32095(7)
N4 N 0.6255(2) 0.8377(2) 0.36348(7)
N5 N 0.4490(2) 0.90394(18) 0.33188(8)
N6 N 0.2920(2) 0.9761(2) 0.30645(9)
C7 C 0.9123(2) 0.6143(2) 0.34794(8)
C8 C 0.6662(2) 0.6388(2) 0.33631(8)
C9 C 0.5586(3) 0.4902(2) 0.38078(10)
C10 C 0.7017(3) 0.4223(2) 0.45267(8)
C11 C 0.9418(3) 0.4256(2) 0.44815(8)
C12 C 0.9949(3) 0.2992(2) 0.38456(10)
H8 H 0.992(2) 0.7147(19) 0.3221(8)
H9 H 0.608(3) 0.628(2) 0.2809(8)
H10 H 0.412(3) 0.535(2) 0.3976(9)
H11 H 0.656(3) 0.295(2) 0.4687(9)
H12 H 1.026(3) 0.412(2) 0.4981(10)
H13 H 0.884(3) 0.183(2) 0.3725(10)
H14 H 1.148(3) 0.267(2) 0.3943(9)
loop_
_geom_bond_atom_site_label_1
_geom_bond_atom_site_label_2
_geom_bond_site_symmetry_1
_geom_bond_site_symmetry_2
F1 C3 1_555 1_555
F2 C4 1_555 1_555
O1 C1 1_555 1_555
O2 C1 1_555 1_555
N1 N2 1_555 1_555
N2 N3 1_555 1_555
C1 C2 1_555 1_555
C2 N1 1_555 1_555
C3 C2 1_555 1_555
C4 C3 1_555 1_555
C5 O1 1_555 1_555
C6 O2 1_555 1_555
H1 C1 1_555 1_555
H2 C2 1_555 1_555
H3 C3 1_555 1_555
H4 C4 1_555 1_555
H5 C5 1_555 1_555
H6 C6 1_555 1_555
H7 C6 1_555 1_555
F3 C9 1_555 1_555
F4 C10 1_555 1_555
O3 C7 1_555 1_555
O4 C7 1_555 1_555
N4 N5 1_555 1_555
N5 N6 1_555 1_555
C7 C8 1_555 1_555
C8 N4 1_555 1_555
C9 C8 1_555 1_555
C10 C9 1_555 1_555
C11 O3 1_555 1_555
C12 O4 1_555 1_555
H8 C7 1_555 1_555
H9 C8 1_555 1_555
H10 C9 1_555 1_555
H11 C10 1_555 1_555
H12 C11 1_555 1_555
H13 C12 1_555 1_555
H14 C12 1_555 1_555
C4 C5 1_555 1_555
C5 C6 1_555 1_555
C10 C11 1_555 1_555
C11 C12 1_555 1_555

#END
