
#######################################################################
#
#                 Cambridge Crystallographic Data Centre
#                                CCDC 
#
#######################################################################
#
# If this CIF has been generated from an entry in the Cambridge 
# Structural Database, then it will include bibliographic, chemical, 
# crystal, experimental, refinement or atomic coordinate data resulting 
# from the CCDC's data processing and validation procedures.
#
#######################################################################

data_ABAQIG
_chemical_name_common            
7-azido-4-methoxy-4-phenyl-3,5,9,11-tetraoxatricyclo[6.2.1.0$2,6!]undecane
_chemical_formula_moiety         'C14 H15 N3 O5'
_chemical_name_systematic        
2-Methyl-(4,6-di-O-acetyl-1,2,3-trideoxy-3-fluoro-\a-D-glucopyrano)-[2,1-d]-2-oxazoline
_symmetry_cell_setting           orthorhombic
_symmetry_space_group_name_H-M   'P 21 21 21'
_symmetry_Int_Tables_number      19
_space_group_name_Hall           'P 2ac 2ab'
loop_
_symmetry_equiv_pos_site_id
_symmetry_equiv_pos_as_xyz
1 x,y,z
2 1/2+x,1/2-y,-z
3 -x,1/2+y,1/2-z
4 1/2-x,-y,1/2+z
_cell_length_a                   6.6321(2)
_cell_length_b                   6.6477(2)
_cell_length_c                   31.8805(11)
_cell_angle_alpha                90
_cell_angle_beta                 90
_cell_angle_gamma                90
_cell_volume                     1405.55
_exptl_crystal_colour            colorless
_exptl_crystal_description       block
_cell_formula_units_Z            4
loop_
_atom_site_label
_atom_site_type_symbol
_atom_site_fract_x
_atom_site_fract_y
_atom_site_fract_z
O1 O 0.6750(2) 0.0726(2) 0.28659(4)
O2 O 0.6848(2) -0.0533(2) 0.35265(4)
O3 O 0.3197(2) 0.25130(19) 0.37390(4)
O4 O 0.5190(2) 0.50145(19) 0.34983(4)
O5 O 0.2102(2) 0.5828(2) 0.37124(4)
N1 N 0.2452(3) -0.0596(3) 0.28211(5)
N2 N 0.1216(3) -0.1953(3) 0.28663(5)
N3 N 0.0038(3) -0.3177(3) 0.28645(6)
C1 C 0.5798(3) -0.0649(3) 0.31414(6)
C2 C 0.3586(3) -0.0077(3) 0.32096(5)
C3 C 0.3322(3) 0.2190(3) 0.32930(5)
C4 C 0.5090(3) 0.3547(3) 0.31660(5)
C5 C 0.7089(3) 0.2430(3) 0.31363(6)
C6 C 0.7757(3) 0.1432(3) 0.35438(7)
C7 C 0.3726(3) 0.4538(3) 0.38024(5)
C8 C 0.0423(3) 0.5685(4) 0.39934(7)
C9 C 0.4569(3) 0.4834(3) 0.42397(6)
C10 C 0.4616(3) 0.3282(3) 0.45252(6)
C11 C 0.5395(4) 0.3615(4) 0.49262(7)
C12 C 0.6136(3) 0.5475(4) 0.50348(7)
C13 C 0.6099(3) 0.7025(4) 0.47479(7)
C14 C 0.5306(3) 0.6726(3) 0.43502(6)
H1 H 0.592(4) -0.202(4) 0.3033(7)
H2 H 0.304(3) -0.077(3) 0.3450(6)
H3 H 0.210(3) 0.267(4) 0.3168(6)
H4 H 0.482(3) 0.419(3) 0.2891(6)
H5 H 0.812(4) 0.325(3) 0.3010(6)
H6 H 0.725(4) 0.213(4) 0.3800(7)
H7 H 0.918(4) 0.125(4) 0.3544(7)
H8 H -0.069(4) 0.643(4) 0.3858(8)
H9 H 0.071(4) 0.623(4) 0.4284(8)
H10 H 0.005(4) 0.432(5) 0.4043(8)
H11 H 0.418(4) 0.203(4) 0.4450(7)
H12 H 0.545(4) 0.249(4) 0.5113(7)
H13 H 0.670(4) 0.571(4) 0.5311(7)
H14 H 0.660(4) 0.835(4) 0.4833(7)
H15 H 0.526(4) 0.776(4) 0.4150(7)
loop_
_geom_bond_atom_site_label_1
_geom_bond_atom_site_label_2
_geom_bond_site_symmetry_1
_geom_bond_site_symmetry_2
O1 C1 1_555 1_555
O2 C1 1_555 1_555
O3 C3 1_555 1_555
O4 C4 1_555 1_555
O5 C7 1_555 1_555
N1 N2 1_555 1_555
N2 N3 1_555 1_555
C1 C2 1_555 1_555
C2 N1 1_555 1_555
C3 C2 1_555 1_555
C4 C3 1_555 1_555
C5 O1 1_555 1_555
C6 O2 1_555 1_555
C7 O3 1_555 1_555
C8 O5 1_555 1_555
C9 C7 1_555 1_555
C10 C9 1_555 1_555
C11 C10 1_555 1_555
C12 C11 1_555 1_555
C13 C12 1_555 1_555
C14 C9 1_555 1_555
H1 C1 1_555 1_555
H2 C2 1_555 1_555
H3 C3 1_555 1_555
H4 C4 1_555 1_555
H5 C5 1_555 1_555
H6 C6 1_555 1_555
H7 C6 1_555 1_555
H8 C8 1_555 1_555
H9 C8 1_555 1_555
H10 C8 1_555 1_555
H11 C10 1_555 1_555
H12 C11 1_555 1_555
H13 C12 1_555 1_555
H14 C13 1_555 1_555
H15 C14 1_555 1_555
O4 C7 1_555 1_555
C4 C5 1_555 1_555
C5 C6 1_555 1_555
C13 C14 1_555 1_555

#END
