
#######################################################################
#
#                 Cambridge Crystallographic Data Centre
#                                CCDC 
#
#######################################################################
#
# If this CIF has been generated from an entry in the Cambridge 
# Structural Database, then it will include bibliographic, chemical, 
# crystal, experimental, refinement or atomic coordinate data resulting 
# from the CCDC's data processing and validation procedures.
#
#######################################################################

data_ABAQEC
_chemical_name_common            
1,6-Anhydro-2-deoxy-3,4-(1-methoxybenzylidene)-beta-D-galactopyranose
_chemical_formula_moiety         'C12 H16 F1 N1 O6'
_chemical_name_systematic        
'(6-acetoxy-7-fluoro-2-methyl-5,6,7,7a-tetrahydro-3aH-pyrano[3,2-d][1,3]oxazol-5-yl)methyl acetate'
_symmetry_cell_setting           rhombohedral
_symmetry_space_group_name_H-M   'R 3'
_symmetry_Int_Tables_number      146
_space_group_name_Hall           'R 3'
loop_
_symmetry_equiv_pos_site_id
_symmetry_equiv_pos_as_xyz
1 x,y,z
2 1/3+x,2/3+y,2/3+z
3 2/3+x,1/3+y,1/3+z
4 -y,x-y,z
5 1/3-y,2/3+x-y,2/3+z
6 2/3-y,1/3+x-y,1/3+z
7 -x+y,-x,z
8 1/3-x+y,2/3-x,2/3+z
9 2/3-x+y,1/3-x,1/3+z
_cell_length_a                   19.4644(7)
_cell_length_b                   19.4644(7)
_cell_length_c                   8.9962(5)
_cell_angle_alpha                90
_cell_angle_beta                 90
_cell_angle_gamma                120
_cell_volume                     2951.7
_exptl_crystal_colour            colorless
_exptl_crystal_description       block
_cell_formula_units_Z            9
loop_
_atom_site_label
_atom_site_type_symbol
_atom_site_fract_x
_atom_site_fract_y
_atom_site_fract_z
F1 F 0.43110(10) 0.68138(10) 0.5141(2)
O1 O 0.58635(11) 0.67483(10) 0.4947(2)
O2 O 0.54898(12) 0.54150(11) 0.5195(2)
O3 O 0.48193(12) 0.65244(12) 0.1520(2)
O4 O 0.65749(12) 0.81906(11) 0.3543(2)
O5 O 0.71749(15) 0.89369(13) 0.1539(3)
O6 O 0.4680(3) 0.7582(3) 0.0951(5)
N1 N 0.42908(14) 0.49900(13) 0.4103(3)
C1 C 0.53016(16) 0.60284(16) 0.5577(3)
C2 C 0.44483(15) 0.56889(15) 0.4990(3)
C3 C 0.43389(15) 0.62878(16) 0.4098(3)
C4 C 0.50204(15) 0.67977(15) 0.3038(3)
C5 C 0.57780(15) 0.67767(15) 0.3369(3)
C6 C 0.65016(16) 0.75009(16) 0.2782(3)
C7 C 0.48701(16) 0.48792(15) 0.4313(3)
C8 C 0.49774(19) 0.42299(17) 0.3704(4)
C9 C 0.45912(18) 0.69312(18) 0.0619(3)
C10 C 0.44562(19) 0.6612(2) -0.0928(4)
C11 C 0.69403(16) 0.88811(16) 0.2791(3)
C12 C 0.70019(19) 0.95440(18) 0.3726(4)
H1 H 0.5340(19) 0.609(2) 0.665(4)
H2 H 0.409(2) 0.554(2) 0.581(4)
H3 H 0.384(2) 0.603(2) 0.357(4)
H4 H 0.5103(18) 0.730(2) 0.316(4)
H5 H 0.5751(19) 0.6285(19) 0.286(3)
H6 H 0.698(2) 0.748(2) 0.299(4)
H7 H 0.640(2) 0.753(2) 0.166(4)
H8 H 0.452(2) 0.386(2) 0.320(5)
H9 H 0.545(2) 0.445(2) 0.310(5)
H10 H 0.505(2) 0.395(2) 0.447(5)
H11 H 0.420(2) 0.686(2) -0.153(4)
H12 H 0.497(3) 0.671(3) -0.139(4)
H13 H 0.411(2) 0.603(3) -0.096(4)
H14 H 0.728(2) 1.004(3) 0.324(4)
H15 H 0.726(2) 0.954(3) 0.456(5)
H16 H 0.646(3) 0.947(2) 0.399(5)
O7? O 0.4365(3) 0.7361(3) 0.1150(5)
loop_
_geom_bond_atom_site_label_1
_geom_bond_atom_site_label_2
_geom_bond_site_symmetry_1
_geom_bond_site_symmetry_2
F1 C3 1_555 1_555
O1 C1 1_555 1_555
O2 C1 1_555 1_555
O3 C4 1_555 1_555
O4 C6 1_555 1_555
O5 C11 1_555 1_555
O6 C9 1_555 1_555
N1 C2 1_555 1_555
C1 C2 1_555 1_555
C2 C3 1_555 1_555
C3 C4 1_555 1_555
C4 C5 1_555 1_555
C5 O1 1_555 1_555
C6 C5 1_555 1_555
C7 O2 1_555 1_555
C8 C7 1_555 1_555
C9 O3 1_555 1_555
C10 C9 1_555 1_555
C11 O4 1_555 1_555
C12 C11 1_555 1_555
H1 C1 1_555 1_555
H2 C2 1_555 1_555
H3 C3 1_555 1_555
H4 C4 1_555 1_555
H5 C5 1_555 1_555
H6 C6 1_555 1_555
H7 C6 1_555 1_555
H8 C8 1_555 1_555
H9 C8 1_555 1_555
H10 C8 1_555 1_555
H11 C10 1_555 1_555
H12 C10 1_555 1_555
H13 C10 1_555 1_555
H14 C12 1_555 1_555
H15 C12 1_555 1_555
H16 C12 1_555 1_555
N1 C7 1_555 1_555

#END
