
#######################################################################
#
#                 Cambridge Crystallographic Data Centre
#                                CCDC 
#
#######################################################################
#
# If this CIF has been generated from an entry in the Cambridge 
# Structural Database, then it will include bibliographic, chemical, 
# crystal, experimental, refinement or atomic coordinate data resulting 
# from the CCDC's data processing and validation procedures.
#
#######################################################################

data_ABAQUS
_chemical_formula_moiety         'C6 H7 F2 N3 O2'
_chemical_name_systematic        
8-azido-3,7-difluoro-2,5-dioxabicyclo[2.2.2]octane
_symmetry_cell_setting           orthorhombic
_symmetry_space_group_name_H-M   'P 21 21 21'
_symmetry_Int_Tables_number      19
_space_group_name_Hall           'P 2ac 2ab'
loop_
_symmetry_equiv_pos_site_id
_symmetry_equiv_pos_as_xyz
1 x,y,z
2 1/2+x,1/2-y,-z
3 -x,1/2+y,1/2-z
4 1/2-x,-y,1/2+z
_cell_length_a                   6.7543(3)
_cell_length_b                   10.0876(4)
_cell_length_c                   10.8762(5)
_cell_angle_alpha                90
_cell_angle_beta                 90
_cell_angle_gamma                90
_cell_volume                     741.046
_exptl_crystal_colour            colorless
_exptl_crystal_description       block
_cell_formula_units_Z            4
loop_
_atom_site_label
_atom_site_type_symbol
_atom_site_fract_x
_atom_site_fract_y
_atom_site_fract_z
F1 F 0.31598(17) 0.59681(9) 0.40807(10)
F2 F 0.05289(16) 0.15609(10) 0.34438(9)
O1 O 0.21560(17) 0.38666(11) 0.44762(10)
O2 O 0.47530(16) 0.42551(11) 0.24188(11)
N1 N -0.0570(2) 0.34524(15) 0.20410(13)
N2 N -0.1355(2) 0.37360(12) 0.10512(13)
N3 N -0.2294(2) 0.39978(14) 0.02264(12)
C1 C 0.1974(2) 0.49226(15) 0.36653(14)
C2 C 0.2678(2) 0.45302(14) 0.23907(13)
C3 C 0.1600(2) 0.32566(14) 0.20036(12)
C4 C 0.2202(2) 0.21662(14) 0.29417(14)
C5 C 0.3371(2) 0.28184(14) 0.39650(14)
C6 C 0.5252(2) 0.33899(16) 0.34391(15)
H1 H 0.0572 0.5201 0.3653
H2 H 0.2430 0.5253 0.1805
H3 H 0.2042 0.2962 0.1178
H4 H 0.2971 0.1489 0.2563
H5 H 0.3671 0.2198 0.4628
H6 H 0.5990 0.3870 0.4054
H7 H 0.6047 0.2669 0.3124
loop_
_geom_bond_atom_site_label_1
_geom_bond_atom_site_label_2
_geom_bond_site_symmetry_1
_geom_bond_site_symmetry_2
F1 C1 1_555 1_555
F2 C4 1_555 1_555
O1 C1 1_555 1_555
O2 C2 1_555 1_555
N1 N2 1_555 1_555
N2 N3 1_555 1_555
C1 C2 1_555 1_555
C2 C3 1_555 1_555
C3 N1 1_555 1_555
C4 C3 1_555 1_555
C5 O1 1_555 1_555
C6 O2 1_555 1_555
H1 C1 1_555 1_555
H2 C2 1_555 1_555
H3 C3 1_555 1_555
H4 C4 1_555 1_555
H5 C5 1_555 1_555
H6 C6 1_555 1_555
H7 C6 1_555 1_555
C4 C5 1_555 1_555
C5 C6 1_555 1_555

#END
