
#######################################################################
#
#                 Cambridge Crystallographic Data Centre
#                                CCDC 
#
#######################################################################
#
# If this CIF has been generated from an entry in the Cambridge 
# Structural Database, then it will include bibliographic, chemical, 
# crystal, experimental, refinement or atomic coordinate data resulting 
# from the CCDC's data processing and validation procedures.
#
#######################################################################

data_ABASIG
_chemical_compound_source        'aerial parts of Coriaria nepalensis'
_chemical_formula_moiety         'C15 H16 O6'
_chemical_name_systematic        corianlactone
_chemical_properties_biological  
'no marked cytotoxic activity towards K!562$ cells'
_symmetry_cell_setting           orthorhombic
_symmetry_space_group_name_H-M   'P 21 21 21'
_symmetry_Int_Tables_number      19
_space_group_name_Hall           'P 2ac 2ab'
loop_
_symmetry_equiv_pos_site_id
_symmetry_equiv_pos_as_xyz
1 x,y,z
2 1/2-x,-y,1/2+z
3 1/2+x,1/2-y,-z
4 -x,1/2+y,1/2-z
_cell_length_a                   7.301(1)
_cell_length_b                   7.580(1)
_cell_length_c                   23.430(3)
_cell_angle_alpha                90
_cell_angle_beta                 90
_cell_angle_gamma                90
_cell_volume                     1296.65
_exptl_crystal_colour            colorless
_exptl_crystal_description       prism
_cell_formula_units_Z            4
loop_
_atom_site_label
_atom_site_type_symbol
_atom_site_fract_x
_atom_site_fract_y
_atom_site_fract_z
O1 O -0.3690(9) -0.8531(8) -0.3113(2)
O2 O -0.4981(8) -1.2850(8) -0.4106(2)
O3 O -0.3459(9) -1.0538(9) -0.5185(2)
O4 O -0.2570(9) -0.6953(8) -0.4454(2)
O5 O 0.0366(8) -1.0513(10) -0.3540(3)
O6 O -0.0999(9) -1.2068(9) -0.2859(2)
C1 C -0.3843(12) -0.9862(12) -0.4048(3)
C2 C -0.4120(12) -0.9734(12) -0.3406(3)
C3 C -0.5290(12) -1.1296(11) -0.3199(3)
C4 C -0.3105(13) -1.3861(12) -0.3393(3)
C5 C -0.1894(12) -1.2752(12) -0.3803(3)
C6 C -0.3393(12) -1.1823(13) -0.4192(3)
C7 C -0.5779(13) -0.9248(13) -0.4282(3)
C8 C -0.5012(11) -1.3099(12) -0.3486(3)
C9 C -0.2167(13) -1.3608(14) -0.2805(4)
C10 C -0.6570(12) -1.4353(13) -0.3359(4)
C11 C -0.2579(13) -1.1751(14) -0.4800(4)
C12 C -0.1817(13) -0.9947(14) -0.4878(3)
C13 C -0.2316(13) -0.8826(12) -0.4364(4)
C14 C -0.0980(14) -0.7609(14) -0.4115(4)
C15 C -0.0738(13) -1.1654(14) -0.3408(4)
H1 H -0.671 -1.090 -0.326
H2 H -0.503 -1.142 -0.274
H3 H -0.304 -1.526 -0.351
H4 H -0.105 -1.360 -0.407
H5 H -0.604 -0.992 -0.468
H6 H -0.578 -0.786 -0.435
H7 H -0.672 -0.967 -0.396
H8 H -0.321 -1.343 -0.248
H9 H -0.137 -1.478 -0.269
H10 H -0.788 -1.377 -0.348
H11 H -0.641 -1.560 -0.357
H12 H -0.656 -1.452 -0.289
H13 H -0.184 -1.290 -0.496
H14 H -0.052 -0.974 -0.509
H15 H 0.039 -0.757 -0.429
H16 H -0.092 -0.741 -0.366
loop_
_geom_bond_atom_site_label_1
_geom_bond_atom_site_label_2
_geom_bond_site_symmetry_1
_geom_bond_site_symmetry_2
O1 C2 1_555 1_555
O2 C6 1_555 1_555
O3 C11 1_555 1_555
O4 C13 1_555 1_555
O5 C15 1_555 1_555
O6 C9 1_555 1_555
C1 C2 1_555 1_555
C2 C3 1_555 1_555
C3 C8 1_555 1_555
C4 C5 1_555 1_555
C5 C6 1_555 1_555
C6 C1 1_555 1_555
C7 C1 1_555 1_555
C8 O2 1_555 1_555
C9 C4 1_555 1_555
C10 C8 1_555 1_555
C11 C6 1_555 1_555
C12 O3 1_555 1_555
C13 C1 1_555 1_555
C14 O4 1_555 1_555
C15 O6 1_555 1_555
H1 C3 1_555 1_555
H2 C3 1_555 1_555
H3 C4 1_555 1_555
H4 C5 1_555 1_555
H5 C7 1_555 1_555
H6 C7 1_555 1_555
H7 C7 1_555 1_555
H8 C9 1_555 1_555
H9 C9 1_555 1_555
H10 C10 1_555 1_555
H11 C10 1_555 1_555
H12 C10 1_555 1_555
H13 C11 1_555 1_555
H14 C12 1_555 1_555
H15 C14 1_555 1_555
H16 C14 1_555 1_555
C4 C8 1_555 1_555
C5 C15 1_555 1_555
C11 C12 1_555 1_555
C12 C13 1_555 1_555
C13 C14 1_555 1_555

#END
