
#######################################################################
#
#                 Cambridge Crystallographic Data Centre
#                                CCDC 
#
#######################################################################
#
# If this CIF has been generated from an entry in the Cambridge 
# Structural Database, then it will include bibliographic, chemical, 
# crystal, experimental, refinement or atomic coordinate data resulting 
# from the CCDC's data processing and validation procedures.
#
#######################################################################

data_ABATOP
_chemical_formula_moiety         'C28 H18 N4 O4'
_chemical_name_systematic        
(1-(4-(dimethylamino)phenyl)-2-(1,3-dioxo-1,3-dihydro-2H-inden-2-ylidene)-2-(4-nitrophenyl)ethylidene)malononitrile
_symmetry_cell_setting           monoclinic
_symmetry_space_group_name_H-M   'P 21/c'
_symmetry_Int_Tables_number      14
_space_group_name_Hall           '-P 2ybc'
loop_
_symmetry_equiv_pos_site_id
_symmetry_equiv_pos_as_xyz
1 x,y,z
2 -x,1/2+y,1/2-z
3 -x,-y,-z
4 x,1/2-y,1/2+z
_cell_length_a                   8.3939(3)
_cell_length_b                   22.8222(8)
_cell_length_c                   14.0623(4)
_cell_angle_alpha                90
_cell_angle_beta                 119.661(2)
_cell_angle_gamma                90
_cell_volume                     2340.89
_exptl_crystal_colour            'dark brown'
_exptl_crystal_description       plate
_cell_formula_units_Z            4
loop_
_atom_site_label
_atom_site_type_symbol
_atom_site_fract_x
_atom_site_fract_y
_atom_site_fract_z
O1 O -0.38587(14) 0.71866(5) -0.17172(10)
O2 O -0.39143(13) 0.63622(5) -0.24845(8)
O3 O 0.43249(12) 0.76467(4) -0.00120(8)
O4 O 0.84733(13) 0.64696(4) 0.29777(8)
N1 N -0.31131(15) 0.67416(5) -0.17956(10)
N2 N 0.25355(15) 0.53658(5) 0.46055(9)
N3 N 0.68581(18) 0.57937(6) -0.01353(10)
N4 N 0.76253(17) 0.45519(5) 0.23365(10)
C1 C -0.11356(16) 0.66675(6) -0.10343(10)
C2 C -0.02990(17) 0.61562(6) -0.10742(11)
H1 H -0.0967 0.5860 -0.1565
C3 C 0.15643(17) 0.60952(6) -0.03634(10)
H2 H 0.2152 0.5750 -0.0365
C4 C 0.25704(16) 0.65463(5) 0.03553(10)
C5 C 0.45571(16) 0.64666(5) 0.11234(10)
C6 C 0.50744(16) 0.58738(5) 0.16568(10)
C7 C 0.44147(16) 0.57262(5) 0.24008(10)
C8 C 0.41146(17) 0.61759(5) 0.29807(10)
H3 H 0.4336 0.6562 0.2869
C9 C 0.35061(17) 0.60609(5) 0.37042(10)
H4 H 0.3354 0.6368 0.4087
C10 C 0.31056(16) 0.54798(5) 0.38772(10)
C11 C 0.22953(19) 0.58387(6) 0.52180(11)
H5 H 0.1263 0.6074 0.4731
H6 H 0.3379 0.6077 0.5551
H7 H 0.2086 0.5676 0.5777
C12 C 0.20318(18) 0.47765(6) 0.47385(11)
H8 H 0.3045 0.4517 0.4927
H9 H 0.0994 0.4650 0.4066
H10 H 0.1723 0.4773 0.5311
C13 C 0.33481(16) 0.50280(5) 0.32661(10)
H11 H 0.3063 0.4644 0.3344
C14 C 0.39975(16) 0.51492(5) 0.25618(10)
H12 H 0.4165 0.4844 0.2183
C15 C 0.60593(17) 0.55141(5) 0.13592(10)
C16 C 0.65047(17) 0.56796(6) 0.05317(11)
C17 C 0.68833(17) 0.49750(6) 0.19062(10)
C18 C 0.58503(16) 0.68772(5) 0.13559(10)
C19 C 0.56865(17) 0.74369(5) 0.07457(10)
C20 C 0.75746(16) 0.76782(5) 0.12276(10)
C21 C 0.88105(17) 0.73256(5) 0.20861(10)
C22 C 0.78289(17) 0.68287(6) 0.22448(10)
C23 C 1.06609(17) 0.74652(6) 0.26760(11)
H13 H 1.1485 0.7229 0.3247
C24 C 1.12395(17) 0.79685(6) 0.23855(11)
H14 H 1.2470 0.8074 0.2771
C25 C 0.99935(18) 0.83206(6) 0.15175(11)
H15 H 1.0415 0.8655 0.1334
C26 C 0.81497(18) 0.81802(6) 0.09275(11)
H16 H 0.7326 0.8414 0.0351
C27 C 0.16719(17) 0.70548(5) 0.03837(10)
H17 H 0.2331 0.7353 0.0872
C28 C -0.01980(17) 0.71175(6) -0.03115(11)
H18 H -0.0808 0.7454 -0.0293
loop_
_geom_bond_atom_site_label_1
_geom_bond_atom_site_label_2
_geom_bond_site_symmetry_1
_geom_bond_site_symmetry_2
O1 N1 1_555 1_555
O2 N1 1_555 1_555
O3 C19 1_555 1_555
O4 C22 1_555 1_555
N1 C1 1_555 1_555
N2 C10 1_555 1_555
N3 C16 1_555 1_555
N4 C17 1_555 1_555
C1 C2 1_555 1_555
C2 H1 1_555 1_555
C3 C2 1_555 1_555
H2 C3 1_555 1_555
C4 C3 1_555 1_555
C5 C4 1_555 1_555
C6 C5 1_555 1_555
C7 C6 1_555 1_555
C8 C7 1_555 1_555
H3 C8 1_555 1_555
C9 C8 1_555 1_555
H4 C9 1_555 1_555
C10 C9 1_555 1_555
C11 N2 1_555 1_555
H5 C11 1_555 1_555
H6 C11 1_555 1_555
H7 C11 1_555 1_555
C12 N2 1_555 1_555
H8 C12 1_555 1_555
H9 C12 1_555 1_555
H10 C12 1_555 1_555
C13 C10 1_555 1_555
H11 C13 1_555 1_555
C14 C7 1_555 1_555
H12 C14 1_555 1_555
C15 C6 1_555 1_555
C16 C15 1_555 1_555
C17 C15 1_555 1_555
C18 C5 1_555 1_555
C19 C18 1_555 1_555
C20 C19 1_555 1_555
C21 C20 1_555 1_555
C22 C18 1_555 1_555
C23 C21 1_555 1_555
H13 C23 1_555 1_555
C24 C23 1_555 1_555
H14 C24 1_555 1_555
C25 C24 1_555 1_555
H15 C25 1_555 1_555
C26 C20 1_555 1_555
H16 C26 1_555 1_555
C27 C4 1_555 1_555
H17 C27 1_555 1_555
C28 C1 1_555 1_555
H18 C28 1_555 1_555
C13 C14 1_555 1_555
C21 C22 1_555 1_555
C25 C26 1_555 1_555
C27 C28 1_555 1_555

#END
