
#######################################################################
#
#                 Cambridge Crystallographic Data Centre
#                                CCDC 
#
#######################################################################
#
# If this CIF has been generated from an entry in the Cambridge 
# Structural Database, then it will include bibliographic, chemical, 
# crystal, experimental, refinement or atomic coordinate data resulting 
# from the CCDC's data processing and validation procedures.
#
#######################################################################

data_ABATIJ
_chemical_formula_moiety         'C23 H14 N4 O2'
_chemical_name_systematic        
2-(4-(dimethylamino)phenyl)-5-oxoindeno[1,2-b]pyran-3,4,4(5H)-tricarbonitrile
_symmetry_cell_setting           monoclinic
_symmetry_space_group_name_H-M   'P 21/c'
_symmetry_Int_Tables_number      14
_space_group_name_Hall           '-P 2ybc'
loop_
_symmetry_equiv_pos_site_id
_symmetry_equiv_pos_as_xyz
1 x,y,z
2 -x,1/2+y,1/2-z
3 -x,-y,-z
4 x,1/2-y,1/2+z
_cell_length_a                   7.3541(6)
_cell_length_b                   24.756(2)
_cell_length_c                   11.1721(8)
_cell_angle_alpha                90
_cell_angle_beta                 113.219(5)
_cell_angle_gamma                90
_cell_volume                     1869.23
_exptl_crystal_colour            'orange / red'
_exptl_crystal_description       needle
_cell_formula_units_Z            4
loop_
_atom_site_label
_atom_site_type_symbol
_atom_site_fract_x
_atom_site_fract_y
_atom_site_fract_z
O1 O 0.23410(16) 0.53457(4) 0.53298(10)
O2 O -0.0042(2) 0.71216(5) 0.52404(13)
N1 N 0.3957(2) 0.31267(6) 0.31961(15)
N2 N 0.2150(3) 0.68802(8) 0.24978(19)
N3 N -0.3517(3) 0.63707(9) 0.23063(17)
N4 N -0.0990(4) 0.54777(9) 0.06433(17)
C1 C 0.1862(2) 0.58302(6) 0.56691(15)
C2 C 0.2405(2) 0.47097(6) 0.38009(15)
C3 C 0.1774(2) 0.52419(6) 0.40066(14)
C4 C 0.3494(2) 0.36411(7) 0.34030(16)
C5 C 0.3179(2) 0.43407(6) 0.48311(15)
H1 H 0.3340 0.4449 0.5664
C6 C 0.0987(2) 0.62363(6) 0.48729(15)
C7 C 0.2283(2) 0.45302(7) 0.25808(15)
H2 H 0.1830 0.4768 0.1880
C8 C 0.2221(2) 0.59586(7) 0.70332(15)
C9 C 0.1505(2) 0.64820(7) 0.70272(16)
C10 C 0.0305(2) 0.61944(7) 0.34276(15)
C11 C 0.2801(2) 0.40212(7) 0.23849(16)
H3 H 0.2695 0.3921 0.1557
C12 C 0.3707(2) 0.38254(7) 0.46503(16)
H4 H 0.4212 0.3593 0.5360
C13 C 0.0728(2) 0.56173(6) 0.31068(15)
C14 C 0.0703(3) 0.66864(7) 0.56540(17)
C15 C -0.1862(3) 0.63052(8) 0.27849(17)
C16 C 0.3034(3) 0.56646(8) 0.81620(16)
H5 H 0.3515 0.5317 0.8163
C17 C 0.1329(3) 0.65887(7) 0.28985(17)
C18 C 0.1594(3) 0.67216(8) 0.81605(17)
H6 H 0.1124 0.7070 0.8161
C19 C -0.0146(3) 0.55107(7) 0.17475(18)
C20 C 0.3111(3) 0.59083(9) 0.93103(18)
H7 H 0.3645 0.5718 1.0090
C21 C 0.2413(3) 0.64228(9) 0.93101(18)
H8 H 0.2488 0.6575 1.0089
C22 C 0.3607(3) 0.29347(8) 0.1892(2)
H9 H 0.2209 0.2916 0.1383
H10 H 0.4178 0.2582 0.1946
H11 H 0.4203 0.3179 0.1486
C23 C 0.4517(4) 0.27202(8) 0.4212(2)
H12 H 0.5596 0.2852 0.4968
H13 H 0.4916 0.2397 0.3907
H14 H 0.3408 0.2642 0.4433
loop_
_geom_bond_atom_site_label_1
_geom_bond_atom_site_label_2
_geom_bond_site_symmetry_1
_geom_bond_site_symmetry_2
O1 C1 1_555 1_555
O2 C14 1_555 1_555
N1 C4 1_555 1_555
N2 C17 1_555 1_555
N3 C15 1_555 1_555
N4 C19 1_555 1_555
C1 C6 1_555 1_555
C2 C3 1_555 1_555
C3 O1 1_555 1_555
C4 C11 1_555 1_555
C5 C2 1_555 1_555
H1 C5 1_555 1_555
C6 C10 1_555 1_555
C7 C2 1_555 1_555
H2 C7 1_555 1_555
C8 C1 1_555 1_555
C9 C8 1_555 1_555
C10 C13 1_555 1_555
C11 C7 1_555 1_555
H3 C11 1_555 1_555
C12 C4 1_555 1_555
H4 C12 1_555 1_555
C13 C3 1_555 1_555
C14 C6 1_555 1_555
C15 C10 1_555 1_555
C16 C8 1_555 1_555
H5 C16 1_555 1_555
C17 C10 1_555 1_555
C18 C9 1_555 1_555
H6 C18 1_555 1_555
C19 C13 1_555 1_555
C20 C16 1_555 1_555
H7 C20 1_555 1_555
C21 C18 1_555 1_555
H8 C21 1_555 1_555
C22 N1 1_555 1_555
H9 C22 1_555 1_555
H10 C22 1_555 1_555
H11 C22 1_555 1_555
C23 N1 1_555 1_555
H12 C23 1_555 1_555
H13 C23 1_555 1_555
H14 C23 1_555 1_555
C5 C12 1_555 1_555
C9 C14 1_555 1_555
C20 C21 1_555 1_555

#END
