
#######################################################################
#
#                 Cambridge Crystallographic Data Centre
#                                CCDC 
#
#######################################################################
#
# If this CIF has been generated from an entry in the Cambridge 
# Structural Database, then it will include bibliographic, chemical, 
# crystal, experimental, refinement or atomic coordinate data resulting 
# from the CCDC's data processing and validation procedures.
#
#######################################################################

data_ABATRG
_chemical_formula_moiety         'C22 H32 Br2 O5'
_chemical_name_systematic        
'2-Acetyl-16,17-dibromo-hydro-atractyligenin methyl ester'
_symmetry_cell_setting           orthorhombic
_symmetry_space_group_name_H-M   'P 21 21 21'
_symmetry_Int_Tables_number      19
_space_group_name_Hall           'P 2ac 2ab'
loop_
_symmetry_equiv_pos_site_id
_symmetry_equiv_pos_as_xyz
1 x,y,z
2 1/2+x,1/2-y,-z
3 -x,1/2+y,1/2-z
4 1/2-x,-y,1/2+z
_cell_length_a                   14.29(1)
_cell_length_b                   16.70(2)
_cell_length_c                   9.428(1)
_cell_angle_alpha                90
_cell_angle_beta                 90
_cell_angle_gamma                90
_cell_volume                     2249.93
_cell_formula_units_Z            4
loop_
_atom_site_label
_atom_site_type_symbol
_atom_site_fract_x
_atom_site_fract_y
_atom_site_fract_z
C1 C -0.03080 0.37040 0.22510
C2 C -0.03580 0.44390 0.13020
C3 C 0.06470 0.46160 0.07750
C4 C 0.12710 0.47790 0.19330
C5 C 0.13440 0.40340 0.29020
C6 C 0.20730 0.40380 0.40290
C7 C 0.22240 0.31930 0.47560
C8 C 0.12580 0.29270 0.52990
C9 C 0.04510 0.29950 0.43120
C10 C 0.03220 0.38430 0.35000
C11 C -0.04650 0.27220 0.50640
C12 C -0.05030 0.28330 0.65450
C13 C 0.04160 0.27710 0.73270
C14 C 0.11100 0.33340 0.67360
C15 C 0.13240 0.20310 0.57430
C16 C 0.08830 0.18900 0.71330
O1 O -0.08970 0.42030 0.01050
C17 C -0.16190 0.46740 -0.02660
O2 O -0.18940 0.52330 0.04750
C18 C -0.20510 0.44580 -0.16970
C19 C 0.11320 0.56020 0.26450
O3 O 0.05070 0.60490 0.22030
O4 O 0.18210 0.57310 0.37190
C20 C 0.14860 0.65020 0.42330
C21 C -0.00280 0.44940 0.44630
O5 O 0.22240 0.16930 0.58220
C22 C 0.15780 0.17460 0.84070
Br1 Br 0.11320 0.18930 1.03030
Br2 Br -0.00350 0.10530 0.73520
loop_
_geom_bond_atom_site_label_1
_geom_bond_atom_site_label_2
_geom_bond_site_symmetry_1
_geom_bond_site_symmetry_2
C1 C2 1_555 1_555
C2 C3 1_555 1_555
C3 C4 1_555 1_555
C4 C5 1_555 1_555
C5 C6 1_555 1_555
C6 C7 1_555 1_555
C7 C8 1_555 1_555
C8 C9 1_555 1_555
C9 C10 1_555 1_555
C10 C1 1_555 1_555
C11 C9 1_555 1_555
C12 C11 1_555 1_555
C13 C12 1_555 1_555
C14 C8 1_555 1_555
C15 C8 1_555 1_555
C16 C13 1_555 1_555
O1 C2 1_555 1_555
C17 O1 1_555 1_555
O2 C17 1_555 1_555
C18 C17 1_555 1_555
C19 C4 1_555 1_555
O3 C19 1_555 1_555
O4 C19 1_555 1_555
C20 O4 1_555 1_555
C21 C10 1_555 1_555
O5 C15 1_555 1_555
C22 C16 1_555 1_555
Br1 C22 1_555 1_555
Br2 C16 1_555 1_555
C5 C10 1_555 1_555
C13 C14 1_555 1_555
C15 C16 1_555 1_555

#END
