
#######################################################################
#
#                 Cambridge Crystallographic Data Centre
#                                CCDC 
#
#######################################################################
#
# If this CIF has been generated from an entry in the Cambridge 
# Structural Database, then it will include bibliographic, chemical, 
# crystal, experimental, refinement or atomic coordinate data resulting 
# from the CCDC's data processing and validation procedures.
#
#######################################################################

data_ABATUV
_chemical_formula_moiety         'C23 H14 N4 O2'
_chemical_name_systematic        
2-(4-(dimethylamino)phenyl)-3-(1,3-dioxo-1,3-dihydro-2H-inden-2-ylidene)prop-1-ene-1,1,3-tricarbonitrile
_symmetry_cell_setting           monoclinic
_symmetry_space_group_name_H-M   'P 21/c'
_symmetry_Int_Tables_number      14
_space_group_name_Hall           '-P 2ybc'
loop_
_symmetry_equiv_pos_site_id
_symmetry_equiv_pos_as_xyz
1 x,y,z
2 -x,1/2+y,1/2-z
3 -x,-y,-z
4 x,1/2-y,1/2+z
_cell_length_a                   9.4734(5)
_cell_length_b                   17.9231(9)
_cell_length_c                   11.6853(5)
_cell_angle_alpha                90
_cell_angle_beta                 111.712(2)
_cell_angle_gamma                90
_cell_volume                     1843.32
_exptl_crystal_colour            'metallic black'
_exptl_crystal_description       prism
_cell_formula_units_Z            4
loop_
_atom_site_label
_atom_site_type_symbol
_atom_site_fract_x
_atom_site_fract_y
_atom_site_fract_z
O1 O 0.68906(11) 0.86014(5) 0.20680(8)
O2 O 0.83534(12) 1.05299(5) 0.50393(8)
N1 N 1.17726(13) 0.77949(6) 0.04851(10)
N2 N 0.95018(13) 1.14561(6) 0.31718(10)
N3 N 0.58499(12) 1.03113(6) -0.20274(10)
N4 N 0.53123(13) 1.13792(6) 0.10748(10)
C1 C 1.13447(19) 0.73514(8) -0.06308(13)
H1 H 1.0441 0.7073 -0.0730
H2 H 1.2153 0.7013 -0.0574
H3 H 1.1157 0.7675 -0.1327
C2 C 1.08424(14) 0.83243(7) 0.06308(11)
C3 C 0.94933(15) 0.85398(7) -0.03481(11)
H4 H 0.9238 0.8310 -0.1112
C4 C 0.85631(14) 0.90778(7) -0.01895(11)
H5 H 0.7695 0.9212 -0.0854
C5 C 0.88805(13) 0.94358(7) 0.09543(10)
C6 C 0.79290(13) 0.99897(6) 0.11762(10)
C7 C 0.81951(13) 1.01793(6) 0.24959(10)
C8 C 0.77895(13) 0.97381(7) 0.32479(10)
C9 C 0.71594(13) 0.89604(7) 0.30000(11)
C10 C 0.69240(13) 0.87250(7) 0.41307(10)
C11 C 0.64371(14) 0.80412(7) 0.43938(12)
H6 H 0.6254 0.7644 0.3846
C12 C 0.62330(15) 0.79701(8) 0.55031(12)
H7 H 0.5928 0.7513 0.5712
C13 C 1.31208(15) 0.75695(8) 0.15209(13)
H8 H 1.2840 0.7435 0.2203
H9 H 1.3830 0.7976 0.1756
H10 H 1.3582 0.7149 0.1287
C14 C 1.11757(14) 0.86899(7) 0.17729(11)
H11 H 1.2063 0.8571 0.2431
C15 C 1.02180(13) 0.92135(7) 0.19255(11)
H12 H 1.0454 0.9432 0.2696
C16 C 0.64763(15) 0.85707(8) 0.63108(12)
H13 H 0.6293 0.8512 0.7034
C17 C 0.69843(15) 0.92512(8) 0.60594(11)
H14 H 0.7153 0.9650 0.6602
C18 C 0.72326(13) 0.93153(7) 0.49648(11)
C19 C 0.78568(14) 0.99518(7) 0.45095(11)
C20 C 0.88908(13) 1.08949(7) 0.29090(11)
C21 C 0.67775(13) 1.03978(7) 0.03355(10)
C22 C 0.62998(13) 1.03393(7) -0.09731(11)
C23 C 0.59582(13) 1.09428(7) 0.07408(11)
loop_
_geom_bond_atom_site_label_1
_geom_bond_atom_site_label_2
_geom_bond_site_symmetry_1
_geom_bond_site_symmetry_2
O1 C9 1_555 1_555
O2 C19 1_555 1_555
N1 C1 1_555 1_555
N2 C20 1_555 1_555
N3 C22 1_555 1_555
N4 C23 1_555 1_555
C1 H1 1_555 1_555
H2 C1 1_555 1_555
H3 C1 1_555 1_555
C2 N1 1_555 1_555
C3 C2 1_555 1_555
H4 C3 1_555 1_555
C4 C3 1_555 1_555
H5 C4 1_555 1_555
C5 C4 1_555 1_555
C6 C5 1_555 1_555
C7 C6 1_555 1_555
C8 C7 1_555 1_555
C9 C8 1_555 1_555
C10 C9 1_555 1_555
C11 C10 1_555 1_555
H6 C11 1_555 1_555
C12 C11 1_555 1_555
H7 C12 1_555 1_555
C13 N1 1_555 1_555
H8 C13 1_555 1_555
H9 C13 1_555 1_555
H10 C13 1_555 1_555
C14 C2 1_555 1_555
H11 C14 1_555 1_555
C15 C5 1_555 1_555
H12 C15 1_555 1_555
C16 C12 1_555 1_555
H13 C16 1_555 1_555
C17 C16 1_555 1_555
H14 C17 1_555 1_555
C18 C10 1_555 1_555
C19 C8 1_555 1_555
C20 C7 1_555 1_555
C21 C6 1_555 1_555
C22 C21 1_555 1_555
C23 C21 1_555 1_555
C14 C15 1_555 1_555
C17 C18 1_555 1_555
C18 C19 1_555 1_555

#END
