
#######################################################################
#
#                 Cambridge Crystallographic Data Centre
#                                CCDC 
#
#######################################################################
#
# If this CIF has been generated from an entry in the Cambridge 
# Structural Database, then it will include bibliographic, chemical, 
# crystal, experimental, refinement or atomic coordinate data resulting 
# from the CCDC's data processing and validation procedures.
#
#######################################################################

data_ABAVOR
_chemical_formula_moiety         'C30 H24 N4 O2,1.5(C1 H2 Cl2)'
_chemical_name_systematic        
'(1,2-bis(4-(dimethylamino)phenyl)-2-(1,3-dioxo-1,3-dihydro-2H-inden-2-ylidene)ethylidene)malononitrile dichloromethane solvate'
_symmetry_cell_setting           monoclinic
_symmetry_space_group_name_H-M   'C 2/c'
_symmetry_Int_Tables_number      15
_space_group_name_Hall           '-C 2yn'
loop_
_symmetry_equiv_pos_site_id
_symmetry_equiv_pos_as_xyz
1 x,y,z
2 -x,y,1/2-z
3 1/2+x,1/2+y,z
4 1/2-x,1/2+y,1/2-z
5 -x,-y,-z
6 x,-y,1/2+z
7 1/2-x,1/2-y,-z
8 1/2+x,1/2-y,1/2+z
_cell_length_a                   33.090(2)
_cell_length_b                   11.5983(9)
_cell_length_c                   30.487(2)
_cell_angle_alpha                90
_cell_angle_beta                 94.617(2)
_cell_angle_gamma                90
_cell_volume                     11662.6
_exptl_crystal_colour            'dark red'
_exptl_crystal_description       prism
_cell_formula_units_Z            16
loop_
_atom_site_label
_atom_site_type_symbol
_atom_site_fract_x
_atom_site_fract_y
_atom_site_fract_z
Cl1 Cl 0.84443(3) 0.68473(8) 0.48044(2)
Cl2 Cl 0.81975(3) 0.45136(7) 0.45292(3)
C1 C 0.81359(8) 0.6006(2) 0.44336(9)
H1 H 0.8202 0.6183 0.4130
H2 H 0.7849 0.6215 0.4458
Cl3 Cl 0.77283(2) 1.01852(8) 0.49476(2)
Cl4 Cl 0.83830(3) 1.13014(9) 0.45311(3)
C2 C 0.82023(9) 0.9974(3) 0.47252(9)
H3 H 0.8400 0.9657 0.4955
H4 H 0.8171 0.9413 0.4480
O1 O 0.71595(4) 0.92453(14) 0.25202(5)
O2 O 0.78204(4) 0.80695(14) 0.38870(5)
N1 N 0.91444(6) 0.97975(18) 0.38630(8)
N2 N 0.80857(6) 1.11046(17) 0.31482(6)
N3 N 0.81885(5) 0.75108(17) 0.11305(5)
N4 N 0.89606(6) 0.37734(17) 0.36935(7)
C3 C 0.79788(5) 0.82437(16) 0.29304(6)
C4 C 0.87649(9) 0.2766(2) 0.34868(11)
H5 H 0.8899 0.2066 0.3606
H6 H 0.8479 0.2754 0.3547
H7 H 0.8786 0.2799 0.3168
C5 C 0.83585(5) 0.82102(17) 0.32354(6)
C6 C 0.84988(6) 0.92759(17) 0.33723(6)
C7 C 0.88596(6) 0.95274(18) 0.36449(8)
C8 C 0.82682(6) 1.02892(17) 0.32453(7)
C9 C 0.76179(6) 0.84514(17) 0.31141(6)
C10 C 0.72388(5) 0.89472(18) 0.29021(6)
C11 C 0.69618(6) 0.91271(18) 0.32606(7)
C12 C 0.65703(6) 0.95672(19) 0.32271(7)
H8 H 0.6444 0.9820 0.2953
C13 C 0.63710(6) 0.9623(2) 0.36108(8)
H9 H 0.6102 0.9915 0.3599
C14 C 0.65591(7) 0.9258(2) 0.40129(7)
H10 H 0.6415 0.9305 0.4270
C15 C 0.69518(6) 0.8829(2) 0.40451(7)
H11 H 0.7080 0.8584 0.4319
C16 C 0.71501(6) 0.87723(18) 0.36598(6)
C17 C 0.75721(6) 0.83853(17) 0.35946(6)
C18 C 0.80308(5) 0.80899(17) 0.24681(6)
C19 C 0.77180(6) 0.76331(17) 0.21770(6)
H12 H 0.7463 0.7464 0.2285
C20 C 0.77706(6) 0.74265(18) 0.17432(6)
H13 H 0.7554 0.7105 0.1559
C21 C 0.81422(6) 0.76838(17) 0.15639(6)
C22 C 0.84629(6) 0.81215(18) 0.18558(7)
H14 H 0.8718 0.8290 0.1748
C23 C 0.84066(6) 0.83019(18) 0.22913(6)
H15 H 0.8627 0.8579 0.2481
C24 C 0.78509(7) 0.7106(2) 0.08349(7)
H16 H 0.7767 0.6340 0.0928
H17 H 0.7935 0.7062 0.0535
H18 H 0.7623 0.7644 0.0843
C25 C 0.85734(7) 0.7759(2) 0.09468(7)
H19 H 0.8642 0.8574 0.0994
H20 H 0.8549 0.7594 0.0631
H21 H 0.8787 0.7277 0.1092
C26 C 0.85340(5) 0.70951(17) 0.33491(6)
C27 C 0.83589(6) 0.60931(18) 0.31511(7)
H22 H 0.8137 0.6175 0.2936
C28 C 0.84977(6) 0.50045(19) 0.32586(7)
H23 H 0.8372 0.4355 0.3116
C29 C 0.88269(6) 0.48383(18) 0.35803(8)
C30 C 0.90007(6) 0.5846(2) 0.37805(8)
H24 H 0.9220 0.5771 0.3999
C31 C 0.88600(6) 0.69225(18) 0.36666(7)
H25 H 0.8987 0.7575 0.3807
C32 C 0.92657(8) 0.3599(3) 0.40536(11)
H26 H 0.9162 0.3865 0.4328
H27 H 0.9510 0.4037 0.3999
H28 H 0.9332 0.2778 0.4078
O3 O 0.87114(4) 0.08451(14) 0.06558(4)
O4 O 0.90976(4) 0.21752(13) 0.21027(4)
N5 N 1.05307(5) -0.00195(16) 0.22872(6)
N6 N 0.94551(5) -0.11943(16) 0.15947(6)
N7 N 1.01514(5) 0.16782(15) -0.03854(5)
N8 N 1.04106(5) 0.60445(15) 0.21850(6)
C33 C 0.94645(6) 0.16665(16) 0.12577(6)
C34 C 1.07453(6) 0.61603(19) 0.25224(7)
H29 H 1.0692 0.5685 0.2777
H30 H 1.0772 0.6969 0.2613
H31 H 1.0997 0.5904 0.2404
C35 C 0.97881(5) 0.16873(17) 0.16397(6)
C36 C 0.98907(6) 0.06113(17) 0.18051(6)
C37 C 1.02464(6) 0.03112(17) 0.20833(6)
C38 C 0.96444(6) -0.03791(18) 0.16822(6)
C39 C 0.90641(6) 0.15955(17) 0.13355(6)
C40 C 0.87184(6) 0.11321(17) 0.10403(6)
C41 C 0.83721(6) 0.09816(18) 0.13215(6)
C42 C 0.79902(6) 0.05227(18) 0.12079(7)
H32 H 0.7913 0.0277 0.0916
C43 C 0.77275(6) 0.04388(19) 0.15371(8)
H33 H 0.7465 0.0126 0.1469
C44 C 0.78381(6) 0.08021(19) 0.19690(7)
H34 H 0.7652 0.0723 0.2188
C45 C 0.82201(6) 0.12789(18) 0.20783(7)
H35 H 0.8296 0.1544 0.2368
C46 C 0.84858(6) 0.13538(17) 0.17502(6)
C47 C 0.89121(6) 0.17654(17) 0.17788(6)
C48 C 0.96300(5) 0.16462(16) 0.08296(6)
C49 C 1.00255(6) 0.12296(16) 0.07837(6)
H36 H 1.0181 0.0951 0.1037
C50 C 1.01926(6) 0.12126(17) 0.03876(6)
H37 H 1.0457 0.0908 0.0370
C51 C 0.99755(6) 0.16431(16) 0.00048(6)
C52 C 0.95791(6) 0.20650(18) 0.00449(6)
H38 H 0.9424 0.2348 -0.0208
C53 C 0.94145(6) 0.20710(17) 0.04456(6)
H39 H 0.9149 0.2369 0.0464
C54 C 1.05601(6) 0.1244(2) -0.04137(7)
H40 H 1.0750 0.1701 -0.0222
H41 H 1.0633 0.1303 -0.0718
H42 H 1.0573 0.0435 -0.0320
C55 C 0.99223(7) 0.2038(2) -0.07871(7)
H43 H 0.9700 0.1495 -0.0858
H44 H 1.0101 0.2052 -0.1028
H45 H 0.9811 0.2811 -0.0747
C56 C 0.99768(6) 0.27747(17) 0.17647(6)
C57 C 1.03004(6) 0.29077(18) 0.20923(6)
H46 H 1.0419 0.2237 0.2228
C58 C 1.04495(6) 0.39583(18) 0.22214(6)
H47 H 1.0672 0.4001 0.2438
C59 C 1.02789(6) 0.49922(17) 0.20388(6)
C60 C 0.99633(6) 0.48706(18) 0.17006(7)
H48 H 0.9850 0.5540 0.1560
C61 C 0.98184(6) 0.38060(18) 0.15720(6)
H49 H 0.9604 0.3759 0.1346
C62 C 1.02486(7) 0.70946(19) 0.19786(8)
H50 H 1.0371 0.7765 0.2133
H51 H 0.9954 0.7114 0.1993
H52 H 1.0312 0.7112 0.1670
loop_
_geom_bond_atom_site_label_1
_geom_bond_atom_site_label_2
_geom_bond_site_symmetry_1
_geom_bond_site_symmetry_2
Cl1 C1 1_555 1_555
Cl2 C1 1_555 1_555
C1 H1 1_555 1_555
H2 C1 1_555 1_555
Cl3 C2 1_555 1_555
Cl4 C2 1_555 1_555
C2 H3 1_555 1_555
H4 C2 1_555 1_555
O1 C10 1_555 1_555
O2 C17 1_555 1_555
N1 C7 1_555 1_555
N2 C8 1_555 1_555
N3 C21 1_555 1_555
N4 C4 1_555 1_555
C3 C5 1_555 1_555
C4 H5 1_555 1_555
H6 C4 1_555 1_555
H7 C4 1_555 1_555
C5 C6 1_555 1_555
C6 C7 1_555 1_555
C8 C6 1_555 1_555
C9 C3 1_555 1_555
C10 C9 1_555 1_555
C11 C10 1_555 1_555
C12 C11 1_555 1_555
H8 C12 1_555 1_555
C13 C12 1_555 1_555
H9 C13 1_555 1_555
C14 C13 1_555 1_555
H10 C14 1_555 1_555
C15 C14 1_555 1_555
H11 C15 1_555 1_555
C16 C11 1_555 1_555
C17 C9 1_555 1_555
C18 C3 1_555 1_555
C19 C18 1_555 1_555
H12 C19 1_555 1_555
C20 C19 1_555 1_555
H13 C20 1_555 1_555
C21 C20 1_555 1_555
C22 C21 1_555 1_555
H14 C22 1_555 1_555
C23 C18 1_555 1_555
H15 C23 1_555 1_555
C24 N3 1_555 1_555
H16 C24 1_555 1_555
H17 C24 1_555 1_555
H18 C24 1_555 1_555
C25 N3 1_555 1_555
H19 C25 1_555 1_555
H20 C25 1_555 1_555
H21 C25 1_555 1_555
C26 C5 1_555 1_555
C27 C26 1_555 1_555
H22 C27 1_555 1_555
C28 C27 1_555 1_555
H23 C28 1_555 1_555
C29 N4 1_555 1_555
C30 C29 1_555 1_555
H24 C30 1_555 1_555
C31 C26 1_555 1_555
H25 C31 1_555 1_555
C32 N4 1_555 1_555
H26 C32 1_555 1_555
H27 C32 1_555 1_555
H28 C32 1_555 1_555
O3 C40 1_555 1_555
O4 C47 1_555 1_555
N5 C37 1_555 1_555
N6 C38 1_555 1_555
N7 C51 1_555 1_555
N8 C34 1_555 1_555
C33 C35 1_555 1_555
C34 H29 1_555 1_555
H30 C34 1_555 1_555
H31 C34 1_555 1_555
C35 C36 1_555 1_555
C36 C37 1_555 1_555
C38 C36 1_555 1_555
C39 C33 1_555 1_555
C40 C39 1_555 1_555
C41 C40 1_555 1_555
C42 C41 1_555 1_555
H32 C42 1_555 1_555
C43 C42 1_555 1_555
H33 C43 1_555 1_555
C44 C43 1_555 1_555
H34 C44 1_555 1_555
C45 C44 1_555 1_555
H35 C45 1_555 1_555
C46 C41 1_555 1_555
C47 C39 1_555 1_555
C48 C33 1_555 1_555
C49 C48 1_555 1_555
H36 C49 1_555 1_555
C50 C49 1_555 1_555
H37 C50 1_555 1_555
C51 C50 1_555 1_555
C52 C51 1_555 1_555
H38 C52 1_555 1_555
C53 C48 1_555 1_555
H39 C53 1_555 1_555
C54 N7 1_555 1_555
H40 C54 1_555 1_555
H41 C54 1_555 1_555
H42 C54 1_555 1_555
C55 N7 1_555 1_555
H43 C55 1_555 1_555
H44 C55 1_555 1_555
H45 C55 1_555 1_555
C56 C35 1_555 1_555
C57 C56 1_555 1_555
H46 C57 1_555 1_555
C58 C57 1_555 1_555
H47 C58 1_555 1_555
C59 N8 1_555 1_555
C60 C59 1_555 1_555
H48 C60 1_555 1_555
C61 C56 1_555 1_555
H49 C61 1_555 1_555
C62 N8 1_555 1_555
H50 C62 1_555 1_555
H51 C62 1_555 1_555
H52 C62 1_555 1_555
C15 C16 1_555 1_555
C16 C17 1_555 1_555
C22 C23 1_555 1_555
C28 C29 1_555 1_555
C30 C31 1_555 1_555
C45 C46 1_555 1_555
C46 C47 1_555 1_555
C52 C53 1_555 1_555
C58 C59 1_555 1_555
C60 C61 1_555 1_555

#END
