
#######################################################################
#
#                 Cambridge Crystallographic Data Centre
#                                CCDC 
#
#######################################################################
#
# If this CIF has been generated from an entry in the Cambridge 
# Structural Database, then it will include bibliographic, chemical, 
# crystal, experimental, refinement or atomic coordinate data resulting 
# from the CCDC's data processing and validation procedures.
#
#######################################################################

data_ABAVUX
_chemical_formula_moiety         'C29 H18 N4 O2'
_chemical_name_systematic        
(2-(4-cyanophenyl)-1-(4-(dimethylamino)phenyl)-2-(1,3-dioxo-1,3-dihydro-2H-inden-2-ylidene)ethylidene)malononitrile
_symmetry_cell_setting           triclinic
_symmetry_space_group_name_H-M   'P -1'
_symmetry_Int_Tables_number      2
_space_group_name_Hall           '-P 1'
loop_
_symmetry_equiv_pos_site_id
_symmetry_equiv_pos_as_xyz
1 x,y,z
2 -x,-y,-z
_cell_length_a                   13.1134(11)
_cell_length_b                   13.5996(10)
_cell_length_c                   14.3738(11)
_cell_angle_alpha                103.871(3)
_cell_angle_beta                 97.269(3)
_cell_angle_gamma                112.700(3)
_cell_volume                     2226.13
_exptl_crystal_colour            orange
_exptl_crystal_description       block
_cell_formula_units_Z            4
loop_
_atom_site_label
_atom_site_type_symbol
_atom_site_fract_x
_atom_site_fract_y
_atom_site_fract_z
O1 O 0.63770(12) 1.04674(11) 0.33255(10)
O2 O 0.47583(12) 0.75290(11) 0.02659(10)
N1 N -0.05336(14) 0.58448(14) 0.11711(13)
N2 N 0.61094(17) 0.95048(18) 0.74905(15)
N3 N 0.35878(17) 0.39692(15) 0.04989(15)
N4 N 0.68097(16) 0.67919(16) 0.20528(14)
C1 C 0.67042(17) 1.08366(18) -0.00835(16)
H1 H 0.6848 1.1007 -0.0671
C2 C 0.61103(17) 0.97246(17) -0.01275(15)
H2 H 0.5833 0.9132 -0.0736
C3 C 0.59393(16) 0.95136(16) 0.07408(15)
C4 C 0.52959(16) 0.84277(16) 0.09014(15)
C5 C 0.54235(16) 0.86798(15) 0.19926(14)
C6 C 0.49380(16) 0.79377(16) 0.24518(14)
C7 C 0.41243(17) 0.67365(15) 0.18773(14)
C8 C 0.29210(16) 0.64708(16) 0.16938(14)
C9 C 0.25730(17) 0.73340(16) 0.17134(14)
H3 H 0.3140 0.8081 0.1863
C10 C 0.14505(17) 0.71376(16) 0.15257(15)
H4 H 0.1253 0.7740 0.1522
C11 C 0.05823(17) 0.60463(16) 0.13367(15)
C12 C -0.14129(18) 0.47352(17) 0.10600(17)
H5 H -0.1420 0.4187 0.0472
H6 H -0.2158 0.4753 0.0987
H7 H -0.1251 0.4520 0.1646
C13 C 0.58944(19) 0.91777(19) 0.66453(18)
C14 C 0.56333(18) 0.87936(17) 0.55818(15)
C15 C 0.45124(18) 0.83447(18) 0.50388(16)
H8 H 0.3910 0.8250 0.5364
C16 C 0.42848(18) 0.80372(17) 0.40162(15)
H9 H 0.3519 0.7704 0.3637
C17 C 0.51664(17) 0.82127(15) 0.35442(15)
C18 C 0.62835(17) 0.86321(17) 0.40955(15)
H10 H 0.6887 0.8729 0.3772
C19 C 0.65105(18) 0.89060(17) 0.51091(15)
H11 H 0.7268 0.9172 0.5484
C20 C -0.08922(18) 0.66955(17) 0.10319(18)
H12 H -0.0579 0.7335 0.1641
H13 H -0.1726 0.6378 0.0871
H14 H -0.0613 0.6947 0.0490
C21 C 0.09252(17) 0.51820(16) 0.13407(15)
H15 H 0.0362 0.4441 0.1225
C22 C 0.20529(17) 0.53874(16) 0.15074(14)
H16 H 0.2252 0.4784 0.1497
C23 C 0.46222(17) 0.60334(16) 0.16138(15)
C24 C 0.40244(18) 0.48816(17) 0.10037(16)
C25 C 0.58351(18) 0.64514(17) 0.18542(15)
C26 C 0.61042(16) 0.99250(15) 0.24555(15)
C27 C 0.63611(16) 1.03809(16) 0.16387(15)
C28 C 0.70923(18) 1.17063(18) 0.08086(17)
H17 H 0.7473 1.2461 0.0814
C29 C 0.69357(17) 1.14940(16) 0.16814(16)
H18 H 0.7210 1.2087 0.2290
O3 O 0.03144(13) 0.27617(11) 0.14450(10)
O4 O -0.14617(12) -0.01029(11) 0.28302(10)
N5 N -0.14796(17) 0.38499(15) 0.37296(14)
N6 N 0.16616(17) 0.64638(15) 0.39070(15)
C30 C 0.5771(2) 0.3539(3) 0.2648(2)
H19 H 0.5763 0.3004 0.3001
H20 H 0.6516 0.3866 0.2500
H21 H 0.5174 0.3150 0.2031
N7 N 0.55628(16) 0.44267(18) 0.32620(16)
C31 C 0.45010(18) 0.42390(19) 0.33733(16)
C32 C 0.35974(18) 0.31441(19) 0.30190(16)
H22 H 0.3740 0.2528 0.2703
C33 C 0.25196(18) 0.29567(17) 0.31234(15)
H23 H 0.1942 0.2206 0.2898
C34 C 0.22345(17) 0.38214(16) 0.35472(14)
C35 C 0.10667(17) 0.35906(16) 0.35653(14)
C36 C 0.02399(16) 0.23953(15) 0.34224(15)
C37 C 0.00797(16) 0.20801(15) 0.43343(14)
C38 C -0.09704(17) 0.18071(16) 0.45568(15)
H24 H -0.1556 0.1877 0.4156
C39 C -0.11749(18) 0.14341(17) 0.53550(15)
H25 H -0.1892 0.1265 0.5514
C40 C -0.03243(17) 0.13062(16) 0.59273(15)
C41 C -0.05917(18) 0.08093(17) 0.66928(16)
N8 N -0.08585(16) 0.03783(16) 0.72756(15)
C42 C 0.6545(2) 0.5485(2) 0.3804(2)
H26 H 0.6650 0.6008 0.3420
H27 H 0.7227 0.5353 0.3914
H28 H 0.6420 0.5807 0.4441
C43 C 0.42327(19) 0.51092(18) 0.38541(16)
H29 H 0.4822 0.5851 0.4135
C44 C 0.31479(18) 0.49098(17) 0.39250(16)
H30 H 0.3000 0.5523 0.4239
C45 C 0.07448(18) 0.16151(18) 0.57309(16)
H31 H 0.1334 0.1553 0.6136
C46 C 0.09471(18) 0.20129(17) 0.49428(16)
H32 H 0.1683 0.2242 0.4815
C47 C -0.03241(16) 0.16439(15) 0.25207(14)
C48 C -0.02117(17) 0.18608(15) 0.15576(15)
C49 C -0.08359(16) 0.07653(15) 0.07720(14)
C50 C -0.13037(16) -0.00786(15) 0.11904(14)
C51 C -0.19006(16) -0.11976(16) 0.06029(15)
H33 H -0.2217 -0.1779 0.0884
C52 C -0.20152(17) -0.14305(16) -0.04043(15)
H34 H -0.2408 -0.2188 -0.0823
C53 C -0.15643(17) -0.05751(16) -0.08204(15)
H35 H -0.1676 -0.0759 -0.1517
C54 C -0.09605(17) 0.05314(16) -0.02363(15)
H36 H -0.0642 0.1112 -0.0518
C55 C -0.10851(16) 0.04035(15) 0.22708(15)
C56 C 0.06266(18) 0.43626(16) 0.37238(15)
C57 C -0.05475(19) 0.40461(16) 0.37252(15)
C58 C 0.12300(19) 0.55272(18) 0.38296(16)
loop_
_geom_bond_atom_site_label_1
_geom_bond_atom_site_label_2
_geom_bond_site_symmetry_1
_geom_bond_site_symmetry_2
O1 C26 1_555 1_555
O2 C4 1_555 1_555
N1 C11 1_555 1_555
N2 C13 1_555 1_555
N3 C24 1_555 1_555
N4 C25 1_555 1_555
C1 H1 1_555 1_555
C2 C1 1_555 1_555
H2 C2 1_555 1_555
C3 C2 1_555 1_555
C4 C3 1_555 1_555
C5 C4 1_555 1_555
C6 C5 1_555 1_555
C7 C6 1_555 1_555
C8 C7 1_555 1_555
C9 C8 1_555 1_555
H3 C9 1_555 1_555
C10 C9 1_555 1_555
H4 C10 1_555 1_555
C11 C10 1_555 1_555
C12 N1 1_555 1_555
H5 C12 1_555 1_555
H6 C12 1_555 1_555
H7 C12 1_555 1_555
C13 C14 1_555 1_555
C14 C15 1_555 1_555
C15 H8 1_555 1_555
C16 C15 1_555 1_555
H9 C16 1_555 1_555
C17 C6 1_555 1_555
C18 C17 1_555 1_555
H10 C18 1_555 1_555
C19 C14 1_555 1_555
H11 C19 1_555 1_555
C20 N1 1_555 1_555
H12 C20 1_555 1_555
H13 C20 1_555 1_555
H14 C20 1_555 1_555
C21 C11 1_555 1_555
H15 C21 1_555 1_555
C22 C8 1_555 1_555
H16 C22 1_555 1_555
C23 C7 1_555 1_555
C24 C23 1_555 1_555
C25 C23 1_555 1_555
C26 C5 1_555 1_555
C27 C3 1_555 1_555
C28 C1 1_555 1_555
H17 C28 1_555 1_555
C29 C27 1_555 1_555
H18 C29 1_555 1_555
O3 C48 1_555 1_555
O4 C55 1_555 1_555
N5 C57 1_555 1_555
N6 C58 1_555 1_555
C30 H19 1_555 1_555
H20 C30 1_555 1_555
H21 C30 1_555 1_555
N7 C30 1_555 1_555
C31 N7 1_555 1_555
C32 C31 1_555 1_555
H22 C32 1_555 1_555
C33 C32 1_555 1_555
H23 C33 1_555 1_555
C34 C33 1_555 1_555
C35 C34 1_555 1_555
C36 C35 1_555 1_555
C37 C36 1_555 1_555
C38 C37 1_555 1_555
H24 C38 1_555 1_555
C39 C38 1_555 1_555
H25 C39 1_555 1_555
C40 C39 1_555 1_555
C41 C40 1_555 1_555
N8 C41 1_555 1_555
C42 N7 1_555 1_555
H26 C42 1_555 1_555
H27 C42 1_555 1_555
H28 C42 1_555 1_555
C43 C31 1_555 1_555
H29 C43 1_555 1_555
C44 C34 1_555 1_555
H30 C44 1_555 1_555
C45 C40 1_555 1_555
H31 C45 1_555 1_555
C46 C37 1_555 1_555
H32 C46 1_555 1_555
C47 C36 1_555 1_555
C48 C47 1_555 1_555
C49 C48 1_555 1_555
C50 C49 1_555 1_555
C51 C50 1_555 1_555
H33 C51 1_555 1_555
C52 C51 1_555 1_555
H34 C52 1_555 1_555
C53 C52 1_555 1_555
H35 C53 1_555 1_555
C54 C49 1_555 1_555
H36 C54 1_555 1_555
C55 C47 1_555 1_555
C56 C35 1_555 1_555
C57 C56 1_555 1_555
C58 C56 1_555 1_555
C16 C17 1_555 1_555
C18 C19 1_555 1_555
C21 C22 1_555 1_555
C26 C27 1_555 1_555
C28 C29 1_555 1_555
C43 C44 1_555 1_555
C45 C46 1_555 1_555
C50 C55 1_555 1_555
C53 C54 1_555 1_555

#END
