
#######################################################################
#
#                 Cambridge Crystallographic Data Centre
#                                CCDC 
#
#######################################################################
#
# If this CIF has been generated from an entry in the Cambridge 
# Structural Database, then it will include bibliographic, chemical, 
# crystal, experimental, refinement or atomic coordinate data resulting 
# from the CCDC's data processing and validation procedures.
#
#######################################################################

data_ABAVEH
_chemical_formula_moiety         'C31 H23 N3 O4'
_chemical_name_systematic        
'ethyl 4-(4,4-dicyano-2-(4-(dimethylamino)phenyl)-5-oxo-4,5-dihydroindeno[1,2-b]pyran-3-yl)benzoate'
_symmetry_cell_setting           monoclinic
_symmetry_space_group_name_H-M   'P 21/c'
_symmetry_Int_Tables_number      14
_space_group_name_Hall           '-P 2ybc'
loop_
_symmetry_equiv_pos_site_id
_symmetry_equiv_pos_as_xyz
1 x,y,z
2 -x,1/2+y,1/2-z
3 -x,-y,-z
4 x,1/2-y,1/2+z
_cell_length_a                   7.3361(5)
_cell_length_b                   20.6719(14)
_cell_length_c                   17.8180(10)
_cell_angle_alpha                90
_cell_angle_beta                 113.602(3)
_cell_angle_gamma                90
_cell_volume                     2476.08
_exptl_crystal_colour            orange
_exptl_crystal_description       plate
_cell_formula_units_Z            4
loop_
_atom_site_label
_atom_site_type_symbol
_atom_site_fract_x
_atom_site_fract_y
_atom_site_fract_z
O1 O 0.45484(17) 0.75882(5) -0.05932(7)
O2 O 0.66537(15) 0.54068(5) -0.02578(6)
O3 O 1.25295(17) 0.59132(6) 0.50596(6)
O4 O 1.50652(16) 0.58572(5) 0.46578(6)
N1 N 0.4206(2) 0.67247(7) 0.14398(8)
N2 N 0.9285(2) 0.75048(7) 0.12228(8)
N3 N 1.0840(2) 0.28150(6) 0.12536(7)
C1 C 0.3588(2) 0.70052(8) -0.23498(9)
H1 H 0.3167 0.7434 -0.2430
C2 C 0.3385(2) 0.66031(8) -0.30134(9)
H2 H 0.2809 0.6767 -0.3543
C3 C 0.4023(2) 0.59676(8) -0.28955(9)
H3 H 0.3871 0.5712 -0.3346
C4 C 0.4899(2) 0.57017(7) -0.21034(8)
H4 H 0.5344 0.5276 -0.2020
C5 C 0.5069(2) 0.60968(7) -0.14594(8)
C6 C 0.5903(2) 0.59830(7) -0.05719(8)
C7 C 0.7728(2) 0.53744(7) 0.05927(8)
C8 C 0.7873(2) 0.58847(7) 0.10866(8)
C9 C 0.6764(2) 0.65296(7) 0.07648(8)
C10 C 0.5828(2) 0.65121(7) -0.01532(8)
C11 C 0.4877(2) 0.70390(7) -0.07466(9)
C12 C 0.4435(2) 0.67420(7) -0.15771(8)
C13 C 0.8195(2) 0.70805(7) 0.10356(8)
C14 C 0.5292(2) 0.66429(7) 0.11345(8)
C15 C 1.1241(2) 0.59912(7) 0.22086(9)
H5 H 1.1732 0.6063 0.1809
C16 C 1.2539(2) 0.59936(7) 0.30304(9)
H6 H 1.3890 0.6066 0.3178
C17 C 1.1811(2) 0.58871(7) 0.36296(8)
C18 C 0.9784(2) 0.57870(7) 0.34041(9)
H7 H 0.9295 0.5719 0.3805
C19 C 0.8489(2) 0.57879(7) 0.25833(8)
H8 H 0.7134 0.5725 0.2436
C20 C 0.9220(2) 0.58828(6) 0.19791(8)
C21 C 1.3139(2) 0.58899(7) 0.45249(9)
C22 C 1.6448(2) 0.58882(8) 0.55142(9)
H9 H 1.6181 0.5541 0.5822
H10 H 1.6310 0.6297 0.5752
C23 C 1.8510(2) 0.58231(8) 0.55398(10)
H11 H 1.8773 0.6177 0.5249
H12 H 1.8617 0.5422 0.5288
H13 H 1.9458 0.5828 0.6099
C24 C 0.8608(2) 0.47256(7) 0.07985(8)
C25 C 0.8685(2) 0.43283(7) 0.01731(8)
H14 H 0.8234 0.4491 -0.0357
C26 C 0.9407(2) 0.37056(7) 0.03188(8)
H15 H 0.9428 0.3459 -0.0114
C27 C 1.0115(2) 0.34333(7) 0.11092(8)
C28 C 1.0061(2) 0.38343(7) 0.17413(8)
H16 H 1.0530 0.3675 0.2274
C29 C 0.9330(2) 0.44554(7) 0.15877(8)
H17 H 0.9314 0.4704 0.2020
C30 C 1.0315(3) 0.23446(7) 0.05971(10)
H18 H 1.0373 0.2545 0.0121
H19 H 0.8992 0.2189 0.0469
H20 H 1.1234 0.1989 0.0766
C31 C 1.1501(3) 0.25422(8) 0.20691(10)
H21 H 1.0366 0.2434 0.2184
H22 H 1.2307 0.2853 0.2463
H23 H 1.2269 0.2159 0.2101
loop_
_geom_bond_atom_site_label_1
_geom_bond_atom_site_label_2
_geom_bond_site_symmetry_1
_geom_bond_site_symmetry_2
O1 C11 1_555 1_555
O2 C6 1_555 1_555
O3 C21 1_555 1_555
O4 C21 1_555 1_555
N1 C14 1_555 1_555
N2 C13 1_555 1_555
N3 C27 1_555 1_555
C1 H1 1_555 1_555
C2 C1 1_555 1_555
H2 C2 1_555 1_555
C3 C2 1_555 1_555
H3 C3 1_555 1_555
C4 C3 1_555 1_555
H4 C4 1_555 1_555
C5 C4 1_555 1_555
C6 C5 1_555 1_555
C7 O2 1_555 1_555
C8 C7 1_555 1_555
C9 C8 1_555 1_555
C10 C6 1_555 1_555
C11 C10 1_555 1_555
C12 C1 1_555 1_555
C13 C9 1_555 1_555
C14 C9 1_555 1_555
C15 H5 1_555 1_555
C16 C15 1_555 1_555
H6 C16 1_555 1_555
C17 C16 1_555 1_555
C18 C17 1_555 1_555
H7 C18 1_555 1_555
C19 C18 1_555 1_555
H8 C19 1_555 1_555
C20 C8 1_555 1_555
C21 C17 1_555 1_555
C22 O4 1_555 1_555
H9 C22 1_555 1_555
H10 C22 1_555 1_555
C23 C22 1_555 1_555
H11 C23 1_555 1_555
H12 C23 1_555 1_555
H13 C23 1_555 1_555
C24 C7 1_555 1_555
C25 C24 1_555 1_555
H14 C25 1_555 1_555
C26 C25 1_555 1_555
H15 C26 1_555 1_555
C27 C26 1_555 1_555
C28 C27 1_555 1_555
H16 C28 1_555 1_555
C29 C24 1_555 1_555
H17 C29 1_555 1_555
C30 N3 1_555 1_555
H18 C30 1_555 1_555
H19 C30 1_555 1_555
H20 C30 1_555 1_555
C31 N3 1_555 1_555
H21 C31 1_555 1_555
H22 C31 1_555 1_555
H23 C31 1_555 1_555
C5 C12 1_555 1_555
C9 C10 1_555 1_555
C11 C12 1_555 1_555
C15 C20 1_555 1_555
C19 C20 1_555 1_555
C28 C29 1_555 1_555

#END
