
#######################################################################
#
#                 Cambridge Crystallographic Data Centre
#                                CCDC 
#
#######################################################################
#
# If this CIF has been generated from an entry in the Cambridge 
# Structural Database, then it will include bibliographic, chemical, 
# crystal, experimental, refinement or atomic coordinate data resulting 
# from the CCDC's data processing and validation procedures.
#
#######################################################################

data_ABAVIL
_chemical_formula_moiety         'C50 H32 N4 O2'
_chemical_name_systematic        
2,3-bis(4-(diphenylamino)phenyl)-5-oxoindeno[1,2-b]pyran-4,4(5H)-dicarbonitrile
_symmetry_cell_setting           triclinic
_symmetry_space_group_name_H-M   'P -1'
_symmetry_Int_Tables_number      2
_space_group_name_Hall           '-P 1'
loop_
_symmetry_equiv_pos_site_id
_symmetry_equiv_pos_as_xyz
1 x,y,z
2 -x,-y,-z
_cell_length_a                   11.0042(6)
_cell_length_b                   11.3825(6)
_cell_length_c                   15.6022(9)
_cell_angle_alpha                91.791(3)
_cell_angle_beta                 92.362(3)
_cell_angle_gamma                102.906(3)
_cell_volume                     1901.63
_exptl_crystal_colour            yellow
_exptl_crystal_description       plate
_cell_formula_units_Z            2
loop_
_atom_site_label
_atom_site_type_symbol
_atom_site_fract_x
_atom_site_fract_y
_atom_site_fract_z
O1 O 0.27261(8) 0.72729(7) 0.09704(5)
O2 O 0.32880(11) 0.65684(9) -0.19685(6)
N1 N 0.22734(11) 0.59147(10) 0.48719(7)
N2 N 0.21534(11) 0.05892(9) 0.22550(7)
N3 N 0.40986(11) 0.39798(10) -0.09130(7)
N4 N 0.02917(12) 0.42135(12) -0.08339(8)
C1 C 0.33514(14) 0.31988(16) 0.62853(10)
H1 H 0.3588 0.2586 0.6610
C2 C 0.29203(15) 0.29564(14) 0.54361(10)
H2 H 0.2873 0.2180 0.5177
C3 C 0.25576(14) 0.38467(13) 0.49632(9)
H3 H 0.2238 0.3671 0.4387
C4 C 0.26622(12) 0.49887(12) 0.53328(8)
C5 C 0.23732(12) 0.59767(11) 0.39758(8)
C6 C 0.14807(12) 0.63617(11) 0.34670(8)
H4 H 0.0799 0.6591 0.3728
C7 C 0.15716(12) 0.64152(11) 0.25861(8)
H5 H 0.0959 0.6689 0.2250
C8 C 0.25568(12) 0.60702(10) 0.21900(8)
C9 C 0.26292(11) 0.60942(11) 0.12500(8)
C10 C 0.25962(11) 0.51378(11) 0.07263(8)
C11 C 0.24600(12) 0.39183(11) 0.10794(8)
C12 C 0.13042(12) 0.32560(11) 0.12970(8)
H6 H 0.0581 0.3562 0.1185
C13 C 0.11907(13) 0.21573(12) 0.16747(8)
H7 H 0.0391 0.1719 0.1821
C14 C 0.22379(12) 0.16861(11) 0.18431(8)
C15 C 0.10169(13) -0.03081(11) 0.21967(9)
C16 C 0.05372(13) -0.08570(12) 0.29299(9)
H8 H 0.0975 -0.0649 0.3471
C17 C -0.05817(14) -0.17091(13) 0.28705(10)
H9 H -0.0909 -0.2087 0.3372
C18 C -0.12247(14) -0.20139(13) 0.20875(11)
H10 H -0.1998 -0.2590 0.2052
C19 C 0.05052(19) 0.82537(16) 0.62281(11)
H11 H 0.0116 0.8783 0.6544
C20 C 0.02384(16) 0.70389(16) 0.63775(10)
H12 H -0.0337 0.6730 0.6797
C21 C 0.08024(14) 0.62668(13) 0.59212(9)
H13 H 0.0600 0.5428 0.6020
C22 C 0.16620(13) 0.67103(12) 0.53208(8)
C23 C 0.34353(14) 0.43278(15) 0.66561(9)
H14 H 0.3712 0.4488 0.7242
C24 C 0.31209(13) 0.52297(14) 0.61841(9)
H15 H 0.3216 0.6017 0.6438
C25 C 0.33802(12) 0.56612(12) 0.35815(8)
H16 H 0.4012 0.5419 0.3920
C26 C 0.34585(12) 0.57003(11) 0.27003(8)
H17 H 0.4139 0.5471 0.2438
C27 C 0.29090(12) 0.74113(11) 0.01359(8)
C28 C 0.31849(12) 0.86108(12) -0.02373(8)
C29 C 0.33584(13) 0.84207(12) -0.11106(8)
C30 C 0.31846(13) 0.70869(12) -0.12909(8)
C31 C 0.29042(12) 0.65307(11) -0.04596(8)
C32 C 0.25802(12) 0.52215(11) -0.02547(8)
C33 C 0.35010(12) 0.34294(11) 0.12282(8)
H18 H 0.4297 0.3860 0.1070
C34 C 0.33929(12) 0.23308(11) 0.16014(8)
H19 H 0.4113 0.2012 0.1694
C35 C -0.07393(14) -0.14785(13) 0.13567(11)
H20 H -0.1179 -0.1692 0.0817
C36 C 0.03805(13) -0.06349(12) 0.14041(9)
H21 H 0.0716 -0.0278 0.0898
C37 C 0.31508(13) 0.04177(12) 0.28126(8)
C38 C 0.37994(14) 0.13374(13) 0.33765(9)
H22 H 0.3574 0.2096 0.3400
C39 C 0.47741(15) 0.11452(14) 0.39044(9)
H23 H 0.5231 0.1781 0.4277
C40 C 0.50877(14) 0.00318(14) 0.38920(9)
H24 H 0.5752 -0.0099 0.4259
C41 C 0.44292(13) -0.08863(13) 0.33438(9)
H25 H 0.4630 -0.1656 0.3342
C42 C 0.34772(13) -0.06928(12) 0.27965(9)
H26 H 0.3045 -0.1322 0.2408
C43 C 0.34472(12) 0.45289(11) -0.06327(8)
C44 C 0.12984(13) 0.46373(12) -0.06067(8)
C45 C 0.36649(14) 0.93703(13) -0.16437(9)
H27 H 0.3788 0.9240 -0.2235
C46 C 0.37895(14) 1.05361(13) -0.12852(9)
H28 H 0.3997 1.1209 -0.1639
C47 C 0.36145(13) 1.07222(12) -0.04230(9)
H29 H 0.3702 1.1522 -0.0196
C48 C 0.33103(12) 0.97553(12) 0.01221(9)
H30 H 0.3195 0.9884 0.0715
C49 C 0.19333(15) 0.79345(13) 0.51650(9)
H31 H 0.2520 0.8247 0.4753
C50 C 0.13393(18) 0.86985(14) 0.56176(11)
H32 H 0.1510 0.9533 0.5505
loop_
_geom_bond_atom_site_label_1
_geom_bond_atom_site_label_2
_geom_bond_site_symmetry_1
_geom_bond_site_symmetry_2
O1 C9 1_555 1_555
O2 C30 1_555 1_555
N1 C4 1_555 1_555
N2 C14 1_555 1_555
N3 C43 1_555 1_555
N4 C44 1_555 1_555
C1 H1 1_555 1_555
C2 C1 1_555 1_555
H2 C2 1_555 1_555
C3 C2 1_555 1_555
H3 C3 1_555 1_555
C4 C3 1_555 1_555
C5 N1 1_555 1_555
C6 C5 1_555 1_555
H4 C6 1_555 1_555
C7 C6 1_555 1_555
H5 C7 1_555 1_555
C8 C7 1_555 1_555
C9 C8 1_555 1_555
C10 C9 1_555 1_555
C11 C10 1_555 1_555
C12 C11 1_555 1_555
H6 C12 1_555 1_555
C13 C12 1_555 1_555
H7 C13 1_555 1_555
C14 C13 1_555 1_555
C15 N2 1_555 1_555
C16 C15 1_555 1_555
H8 C16 1_555 1_555
C17 C16 1_555 1_555
H9 C17 1_555 1_555
C18 C17 1_555 1_555
H10 C18 1_555 1_555
C19 H11 1_555 1_555
C20 C19 1_555 1_555
H12 C20 1_555 1_555
C21 C20 1_555 1_555
H13 C21 1_555 1_555
C22 N1 1_555 1_555
C23 C1 1_555 1_555
H14 C23 1_555 1_555
C24 C4 1_555 1_555
H15 C24 1_555 1_555
C25 C5 1_555 1_555
H16 C25 1_555 1_555
C26 C8 1_555 1_555
H17 C26 1_555 1_555
C27 O1 1_555 1_555
C28 C27 1_555 1_555
C29 C28 1_555 1_555
C30 C29 1_555 1_555
C31 C27 1_555 1_555
C32 C10 1_555 1_555
C33 C11 1_555 1_555
H18 C33 1_555 1_555
C34 C14 1_555 1_555
H19 C34 1_555 1_555
C35 C18 1_555 1_555
H20 C35 1_555 1_555
C36 C15 1_555 1_555
H21 C36 1_555 1_555
C37 N2 1_555 1_555
C38 C37 1_555 1_555
H22 C38 1_555 1_555
C39 C38 1_555 1_555
H23 C39 1_555 1_555
C40 C39 1_555 1_555
H24 C40 1_555 1_555
C41 C40 1_555 1_555
H25 C41 1_555 1_555
C42 C37 1_555 1_555
H26 C42 1_555 1_555
C43 C32 1_555 1_555
C44 C32 1_555 1_555
C45 C29 1_555 1_555
H27 C45 1_555 1_555
C46 C45 1_555 1_555
H28 C46 1_555 1_555
C47 C46 1_555 1_555
H29 C47 1_555 1_555
C48 C28 1_555 1_555
H30 C48 1_555 1_555
C49 C22 1_555 1_555
H31 C49 1_555 1_555
C50 C19 1_555 1_555
H32 C50 1_555 1_555
C21 C22 1_555 1_555
C23 C24 1_555 1_555
C25 C26 1_555 1_555
C30 C31 1_555 1_555
C31 C32 1_555 1_555
C33 C34 1_555 1_555
C35 C36 1_555 1_555
C41 C42 1_555 1_555
C47 C48 1_555 1_555
C49 C50 1_555 1_555

#END
