
#######################################################################
#
#                 Cambridge Crystallographic Data Centre
#                                CCDC 
#
#######################################################################
#
# If this CIF has been generated from an entry in the Cambridge 
# Structural Database, then it will include bibliographic, chemical, 
# crystal, experimental, refinement or atomic coordinate data resulting 
# from the CCDC's data processing and validation procedures.
#
#######################################################################

data_ABAWIM
_chemical_name_common            
4-(2,4-Dimethoxyphen-1-yl)-5-(4-methoxyphen-1-yl)-3-methylsulfanyl-6-(naphthalen-1-yl)benzo-2-carbonitrile
_chemical_formula_moiety         'C34 H29 N1 O3 S1'
_chemical_name_systematic        
2'',4,4''-trimethoxy-3'-methyl-5'-(methylsulfanyl)-6'-(1-naphthyl)-1,1':2',1''-terphenyl-4'-carbonitrile
_symmetry_cell_setting           monoclinic
_symmetry_space_group_name_H-M   'P 21/c'
_symmetry_Int_Tables_number      14
_space_group_name_Hall           '-P 2ybc'
loop_
_symmetry_equiv_pos_site_id
_symmetry_equiv_pos_as_xyz
1 x,y,z
2 -x,1/2+y,1/2-z
3 -x,-y,-z
4 x,1/2-y,1/2+z
_cell_length_a                   8.8040(10)
_cell_length_b                   21.251(4)
_cell_length_c                   17.142(4)
_cell_angle_alpha                90
_cell_angle_beta                 117.382(11)
_cell_angle_gamma                90
_cell_volume                     2847.83
_exptl_crystal_colour            yellow
_exptl_crystal_description       'Rectangular Block'
_chemical_melting_point          '183 deg.C'
_cell_formula_units_Z            4
loop_
_atom_site_label
_atom_site_type_symbol
_atom_site_fract_x
_atom_site_fract_y
_atom_site_fract_z
C1 C 0.0558(5) 0.32597(18) 0.6679(2)
C2 C 0.0419(5) 0.27174(19) 0.6181(2)
C3 C 0.1219(5) 0.21527(17) 0.6582(2)
C4 C 0.2178(4) 0.21397(17) 0.7500(2)
C5 C 0.2322(5) 0.26764(17) 0.8001(2)
C6 C 0.1513(5) 0.32384(17) 0.7587(2)
C7 C -0.0533(5) 0.2737(2) 0.5242(3)
C8 C 0.1071(6) 0.1579(2) 0.6035(3)
H1 H 0.0191 0.1645 0.5445
H2 H 0.0786 0.1220 0.6283
H3 H 0.2142 0.1505 0.6029
C9 C 0.3100(5) 0.15472(17) 0.7937(2)
C10 C 0.4820(5) 0.14896(19) 0.8203(3)
H4 H 0.5406 0.1824 0.8115
C11 C 0.5711(5) 0.0944(2) 0.8602(3)
H5 H 0.6880 0.0915 0.8785
C12 C 0.4838(6) 0.0449(2) 0.8723(3)
C13 C 0.3111(6) 0.04992(19) 0.8464(3)
H6 H 0.2529 0.0163 0.8551
C14 C 0.2244(5) 0.10430(18) 0.8078(2)
C15 C 0.7275(6) -0.0229(2) 0.9296(3)
H7 H 0.7410 -0.0169 0.8776
H8 H 0.7579 -0.0653 0.9502
H9 H 0.8006 0.0058 0.9743
C16 C -0.0294(6) 0.0683(2) 0.8113(3)
H10 H -0.0169 0.0269 0.7925
H11 H -0.1487 0.0787 0.7866
H12 H 0.0206 0.0693 0.8742
C17 C 0.3293(5) 0.26457(18) 0.8980(2)
C18 C 0.2682(5) 0.2297(2) 0.9449(2)
H13 H 0.1663 0.2076 0.9149
C19 C 0.3547(5) 0.2266(2) 1.0356(3)
H14 H 0.3102 0.2030 1.0660
C20 C 0.5083(5) 0.2587(2) 1.0814(3)
C21 C 0.5715(5) 0.2930(2) 1.0356(3)
H15 H 0.6744 0.3145 1.0654
C22 C 0.4830(5) 0.29598(19) 0.9446(3)
H16 H 0.5278 0.3195 0.9143
C23 C 0.7441(6) 0.2835(3) 1.2189(3)
H17 H 0.8272 0.2673 1.2025
H18 H 0.7835 0.2769 1.2806
H19 H 0.7284 0.3277 1.2062
C24 C 0.1571(8) 0.3808(2) 0.8133(3)
C25 C 0.0340(10) 0.3847(3) 0.8458(3)
H20 H -0.0457 0.3524 0.8312
C26 C 0.025(2) 0.4341(5) 0.8985(6)
H21 H -0.0452 0.4314 0.9256
C27 C 0.117(3) 0.4826(10) 0.9075(15)
H22 H 0.0912 0.5201 0.9267
C28 C 0.254(2) 0.4801(4) 0.8893(9)
C29 C 0.357(2) 0.5217(11) 0.8960(11)
H23 H 0.3442 0.5585 0.9217
C30 C 0.4916(18) 0.5246(5) 0.8726(8)
H24 H 0.5712 0.5571 0.8932
C31 C 0.5028(14) 0.4789(6) 0.8191(7)
H25 H 0.5816 0.4818 0.7973
C32 C 0.3872(10) 0.4258(4) 0.7980(5)
H26 H 0.3913 0.3928 0.7635
C33 C 0.2752(13) 0.4262(3) 0.8297(4)
C34 C -0.2695(5) 0.3763(2) 0.5863(3)
H27 H -0.3054 0.3404 0.5479
H28 H -0.3425 0.4114 0.5575
H29 H -0.2767 0.3665 0.6392
N1 N -0.1271(5) 0.2739(2) 0.4491(2)
O1 O 0.0548(3) 0.11275(13) 0.78246(18)
O2 O 0.5558(4) -0.01167(15) 0.9101(2)
O3 O 0.5855(4) 0.25155(16) 1.17049(17)
S1 S -0.05220(15) 0.39578(5) 0.61303(7)
loop_
_geom_bond_atom_site_label_1
_geom_bond_atom_site_label_2
_geom_bond_site_symmetry_1
_geom_bond_site_symmetry_2
C1 C2 1_555 1_555
C2 C3 1_555 1_555
C3 C4 1_555 1_555
C4 C5 1_555 1_555
C5 C6 1_555 1_555
C6 C1 1_555 1_555
C7 C2 1_555 1_555
C8 C3 1_555 1_555
H1 C8 1_555 1_555
H2 C8 1_555 1_555
H3 C8 1_555 1_555
C9 C4 1_555 1_555
C10 C9 1_555 1_555
H4 C10 1_555 1_555
C11 C10 1_555 1_555
H5 C11 1_555 1_555
C12 C11 1_555 1_555
C13 C12 1_555 1_555
H6 C13 1_555 1_555
C14 C9 1_555 1_555
C15 H7 1_555 1_555
H8 C15 1_555 1_555
H9 C15 1_555 1_555
C16 H10 1_555 1_555
H11 C16 1_555 1_555
H12 C16 1_555 1_555
C17 C5 1_555 1_555
C18 C17 1_555 1_555
H13 C18 1_555 1_555
C19 C18 1_555 1_555
H14 C19 1_555 1_555
C20 C19 1_555 1_555
C21 C20 1_555 1_555
H15 C21 1_555 1_555
C22 C17 1_555 1_555
H16 C22 1_555 1_555
C23 H17 1_555 1_555
H18 C23 1_555 1_555
H19 C23 1_555 1_555
C24 C6 1_555 1_555
C25 C24 1_555 1_555
H20 C25 1_555 1_555
C26 C25 1_555 1_555
H21 C26 1_555 1_555
C27 C26 1_555 1_555
H22 C27 1_555 1_555
C28 C27 1_555 1_555
C29 C28 1_555 1_555
H23 C29 1_555 1_555
C30 C29 1_555 1_555
H24 C30 1_555 1_555
C31 C30 1_555 1_555
H25 C31 1_555 1_555
C32 C31 1_555 1_555
H26 C32 1_555 1_555
C33 C24 1_555 1_555
C34 H27 1_555 1_555
H28 C34 1_555 1_555
H29 C34 1_555 1_555
N1 C7 1_555 1_555
O1 C14 1_555 1_555
O2 C12 1_555 1_555
O3 C20 1_555 1_555
S1 C1 1_555 1_555
C13 C14 1_555 1_555
C15 O2 1_555 1_555
C16 O1 1_555 1_555
C21 C22 1_555 1_555
C23 O3 1_555 1_555
C28 C33 1_555 1_555
C32 C33 1_555 1_555
C34 S1 1_555 1_555

#END
