
#######################################################################
#
#                 Cambridge Crystallographic Data Centre
#                                CCDC 
#
#######################################################################
#
# If this CIF has been generated from an entry in the Cambridge 
# Structural Database, then it will include bibliographic, chemical, 
# crystal, experimental, refinement or atomic coordinate data resulting 
# from the CCDC's data processing and validation procedures.
#
#######################################################################

data_ABAWEG01
_chemical_formula_moiety         'C6 H12 N2 O2'
_chemical_name_systematic        N,N'-(1,2-ethanediyl)bis(acetamide)
_symmetry_cell_setting           triclinic
_symmetry_space_group_name_H-M   'P -1'
_symmetry_Int_Tables_number      2
_space_group_name_Hall           '-P 1'
loop_
_symmetry_equiv_pos_site_id
_symmetry_equiv_pos_as_xyz
1 x,y,z
2 -x,-y,-z
_cell_length_a                   4.942(3)
_cell_length_b                   6.596(5)
_cell_length_c                   7.000(6)
_cell_angle_alpha                115.84(3)
_cell_angle_beta                 104.54(3)
_cell_angle_gamma                91.09(5)
_cell_volume                     196.617
_exptl_crystal_colour            colorless
_exptl_crystal_description       needle
_cell_formula_units_Z            1
loop_
_atom_site_label
_atom_site_type_symbol
_atom_site_fract_x
_atom_site_fract_y
_atom_site_fract_z
O1 O 1.02451(19) 0.71496(17) 0.88318(18)
N1 N 0.5527(2) 0.70408(19) 0.79887(19)
H1 H 0.403(3) 0.719(3) 0.846(2)
C1 C 0.5143(3) 0.6287(2) 0.5642(2)
H2 H 0.6779 0.6991 0.5453
H3 H 0.3426 0.6808 0.5027
C2 C 0.8059(3) 0.7407(2) 0.9420(2)
C3 C 0.8124(3) 0.8138(2) 1.1784(2)
H4 H 0.8793 0.6968 1.2216
H5 H 0.6218 0.8347 1.1937
H6 H 0.9403 0.9578 1.2744
C1A C 0.4857(3) 0.3713(2) 0.4358(2)
N1A N 0.4473(2) 0.29592(19) 0.20113(19)
H1A H 0.597(3) 0.281(3) 0.154(2)
C2A C 0.1941(3) 0.2593(2) 0.0580(2)
O1A O -0.02451(19) 0.28504(17) 0.11682(18)
C3A C 0.1876(3) 0.1862(2) -0.1784(2)
H4A H 0.1207 0.3032 -0.2216
H5A H 0.3782 0.1653 -0.1937
H6A H 0.0597 0.0422 -0.2744
H2A H 0.3221 0.3009 0.4547
H3A H 0.6574 0.3192 0.4973
loop_
_geom_bond_atom_site_label_1
_geom_bond_atom_site_label_2
_geom_bond_site_symmetry_1
_geom_bond_site_symmetry_2
O1 C2 1_555 1_555
N1 H1 1_555 1_555
C1 N1 1_555 1_555
H2 C1 1_555 1_555
H3 C1 1_555 1_555
C2 N1 1_555 1_555
C3 C2 1_555 1_555
H4 C3 1_555 1_555
H5 C3 1_555 1_555
H6 C3 1_555 1_555
C1A C1 1_555 1_555
N1A C1A 1_555 1_555
H1A N1A 1_555 1_555
C2A N1A 1_555 1_555
O1A C2A 1_555 1_555
C3A C2A 1_555 1_555
H4A C3A 1_555 1_555
H5A C3A 1_555 1_555
H6A C3A 1_555 1_555
H2A C1A 1_555 1_555
H3A C1A 1_555 1_555

#END
