
#######################################################################
#
#                 Cambridge Crystallographic Data Centre
#                                CCDC 
#
#######################################################################
#
# If this CIF has been generated from an entry in the Cambridge 
# Structural Database, then it will include bibliographic, chemical, 
# crystal, experimental, refinement or atomic coordinate data resulting 
# from the CCDC's data processing and validation procedures.
#
#######################################################################

data_ABAZUA
_chemical_formula_moiety         'C40 H37 B1 N2'
_chemical_name_systematic        
6,6-Dimesityl-3-(4-(pyridin-2-yl)phenyl)-6H-5\l^5^,6\l^5^-pyrido[1,2-b][2,1]benzazaborole
_symmetry_cell_setting           monoclinic
_symmetry_space_group_name_H-M   'P 21/c'
_symmetry_Int_Tables_number      14
_space_group_name_Hall           '-P 2ybc'
loop_
_symmetry_equiv_pos_site_id
_symmetry_equiv_pos_as_xyz
1 x,y,z
2 -x,1/2+y,1/2-z
3 -x,-y,-z
4 x,1/2-y,1/2+z
_cell_length_a                   10.4288(8)
_cell_length_b                   18.4944(14)
_cell_length_c                   16.8395(13)
_cell_angle_alpha                90
_cell_angle_beta                 106.3850(10)
_cell_angle_gamma                90
_cell_volume                     3116
_exptl_crystal_description       block
_cell_formula_units_Z            4
loop_
_atom_site_label
_atom_site_type_symbol
_atom_site_fract_x
_atom_site_fract_y
_atom_site_fract_z
B1 B 0.41388(15) 0.28299(8) 0.32572(9)
N1 N 0.42277(11) 0.19505(6) 0.34077(7)
N2 N 1.01194(14) -0.02567(8) 0.70429(10)
C1 C 0.28191(13) 0.28017(8) 0.24568(8)
C2 C 0.20325(14) 0.33429(9) 0.19774(9)
H1 H 0.2328 0.3831 0.2045
C3 C 0.08238(15) 0.31763(11) 0.14026(9)
H2 H 0.0317 0.3551 0.1072
C4 C 0.03483(16) 0.24767(11) 0.13039(10)
H3 H -0.0483 0.2374 0.0911
C5 C 0.10762(15) 0.19269(10) 0.17739(10)
H4 H 0.0751 0.1444 0.1716
C6 C 0.23019(14) 0.20948(8) 0.23372(9)
C7 C 0.32069(14) 0.15882(8) 0.28756(9)
C8 C 0.31798(15) 0.08356(8) 0.28892(10)
H5 H 0.2457 0.0579 0.2529
C9 C 0.42065(15) 0.04667(8) 0.34273(10)
H6 H 0.4194 -0.0047 0.3434
C10 C 0.52688(14) 0.08372(7) 0.39653(9)
C11 C 0.52311(13) 0.15855(7) 0.39226(8)
H7 H 0.5949 0.1851 0.4274
C12 C 0.56645(13) 0.30264(7) 0.32272(8)
C13 C 0.66849(13) 0.31991(7) 0.39568(8)
C14 C 0.79745(13) 0.33623(7) 0.39219(8)
H8 H 0.8638 0.3473 0.4422
C15 C 0.83257(14) 0.33690(8) 0.31903(9)
C16 C 0.73450(14) 0.31740(8) 0.24795(9)
H9 H 0.7563 0.3162 0.1969
C17 C 0.60515(13) 0.29952(7) 0.24858(8)
C18 C 0.64890(14) 0.32338(8) 0.48183(8)
H10 H 0.7343 0.3140 0.5234
H11 H 0.5835 0.2868 0.4866
H12 H 0.6164 0.3715 0.4910
C19 C 0.97274(15) 0.35547(11) 0.31752(11)
H13 H 1.0253 0.3706 0.3729
H14 H 0.9696 0.3950 0.2782
H15 H 1.0143 0.3129 0.3005
C20 C 0.50979(15) 0.27638(10) 0.16702(9)
H16 H 0.5588 0.2711 0.1255
H17 H 0.4398 0.3130 0.1485
H18 H 0.4690 0.2300 0.1742
C21 C 0.36233(12) 0.33111(7) 0.39296(8)
C22 C 0.29934(13) 0.30388(7) 0.45091(8)
C23 C 0.25522(14) 0.35052(8) 0.50272(9)
H19 H 0.2155 0.3305 0.5420
C24 C 0.26705(15) 0.42476(9) 0.49908(9)
C25 C 0.32650(14) 0.45168(8) 0.44172(9)
H20 H 0.3361 0.5025 0.4380
C26 C 0.37305(13) 0.40725(8) 0.38887(9)
C27 C 0.27101(15) 0.22467(8) 0.45972(9)
H21 H 0.2235 0.2187 0.5019
H22 H 0.3555 0.1979 0.4764
H23 H 0.2157 0.2060 0.4066
C28 C 0.2107(2) 0.47382(10) 0.55287(12)
H24 H 0.2176 0.5243 0.5367
H25 H 0.2614 0.4673 0.6110
H26 H 0.1167 0.4617 0.5457
C29 C 0.43611(16) 0.44601(8) 0.32979(11)
H27 H 0.3901 0.4921 0.3129
H28 H 0.4282 0.4158 0.2808
H29 H 0.5307 0.4551 0.3575
C30 C 0.64073(14) 0.04762(7) 0.45567(9)
C31 C 0.69309(16) -0.01693(8) 0.43578(10)
H30 H 0.6533 -0.0391 0.3838
C32 C 0.80196(16) -0.04926(8) 0.49049(10)
H31 H 0.8359 -0.0931 0.4752
C33 C 0.86299(14) -0.01917(7) 0.56737(10)
C34 C 0.80949(15) 0.04513(8) 0.58778(10)
H32 H 0.8483 0.0668 0.6402
C35 C 0.70098(15) 0.07775(8) 0.53283(9)
H33 H 0.6669 0.1216 0.5481
C36 C 0.97889(14) -0.05366(8) 0.62801(10)
C37 C 1.04881(17) -0.11144(9) 0.60783(11)
H34 H 1.0241 -0.1304 0.5532
C38 C 1.15444(17) -0.14115(9) 0.66764(12)
H35 H 1.2024 -0.1810 0.6548
C39 C 1.18917(18) -0.11255(10) 0.74559(14)
H36 H 1.2618 -0.1317 0.7879
C40 C 1.11572(19) -0.05500(11) 0.76097(14)
H37 H 1.1402 -0.0349 0.8151
loop_
_geom_bond_atom_site_label_1
_geom_bond_atom_site_label_2
_geom_bond_site_symmetry_1
_geom_bond_site_symmetry_2
B1 N1 1_555 1_555
N1 C7 1_555 1_555
N2 C36 1_555 1_555
C1 B1 1_555 1_555
C2 C1 1_555 1_555
H1 C2 1_555 1_555
C3 C2 1_555 1_555
H2 C3 1_555 1_555
C4 C3 1_555 1_555
H3 C4 1_555 1_555
C5 C4 1_555 1_555
H4 C5 1_555 1_555
C6 C1 1_555 1_555
C7 C6 1_555 1_555
C8 C7 1_555 1_555
H5 C8 1_555 1_555
C9 C8 1_555 1_555
H6 C9 1_555 1_555
C10 C9 1_555 1_555
C11 N1 1_555 1_555
H7 C11 1_555 1_555
C12 B1 1_555 1_555
C13 C12 1_555 1_555
C14 C13 1_555 1_555
H8 C14 1_555 1_555
C15 C14 1_555 1_555
C16 C15 1_555 1_555
H9 C16 1_555 1_555
C17 C12 1_555 1_555
C18 C13 1_555 1_555
H10 C18 1_555 1_555
H11 C18 1_555 1_555
H12 C18 1_555 1_555
C19 C15 1_555 1_555
H13 C19 1_555 1_555
H14 C19 1_555 1_555
H15 C19 1_555 1_555
C20 C17 1_555 1_555
H16 C20 1_555 1_555
H17 C20 1_555 1_555
H18 C20 1_555 1_555
C21 B1 1_555 1_555
C22 C21 1_555 1_555
C23 C22 1_555 1_555
H19 C23 1_555 1_555
C24 C23 1_555 1_555
C25 C24 1_555 1_555
H20 C25 1_555 1_555
C26 C21 1_555 1_555
C27 C22 1_555 1_555
H21 C27 1_555 1_555
H22 C27 1_555 1_555
H23 C27 1_555 1_555
C28 C24 1_555 1_555
H24 C28 1_555 1_555
H25 C28 1_555 1_555
H26 C28 1_555 1_555
C29 C26 1_555 1_555
H27 C29 1_555 1_555
H28 C29 1_555 1_555
H29 C29 1_555 1_555
C30 C10 1_555 1_555
C31 C30 1_555 1_555
H30 C31 1_555 1_555
C32 C31 1_555 1_555
H31 C32 1_555 1_555
C33 C32 1_555 1_555
C34 C33 1_555 1_555
H32 C34 1_555 1_555
C35 C30 1_555 1_555
H33 C35 1_555 1_555
C36 C33 1_555 1_555
C37 C36 1_555 1_555
H34 C37 1_555 1_555
C38 C37 1_555 1_555
H35 C38 1_555 1_555
C39 C38 1_555 1_555
H36 C39 1_555 1_555
C40 N2 1_555 1_555
H37 C40 1_555 1_555
C5 C6 1_555 1_555
C10 C11 1_555 1_555
C16 C17 1_555 1_555
C25 C26 1_555 1_555
C34 C35 1_555 1_555
C39 C40 1_555 1_555

#END
