
#######################################################################
#
#                 Cambridge Crystallographic Data Centre
#                                CCDC 
#
#######################################################################
#
# If this CIF has been generated from an entry in the Cambridge 
# Structural Database, then it will include bibliographic, chemical, 
# crystal, experimental, refinement or atomic coordinate data resulting 
# from the CCDC's data processing and validation procedures.
#
#######################################################################

data_ABEDOC
_chemical_formula_moiety         'C28 H22 N2 O2 S1'
_chemical_name_systematic        
N-(2-Cyano-1,3,3-triphenylprop-2-en-1-yl)benzenesulfonamide
_symmetry_cell_setting           triclinic
_symmetry_space_group_name_H-M   'P -1'
_symmetry_Int_Tables_number      2
_space_group_name_Hall           '-P 1'
loop_
_symmetry_equiv_pos_site_id
_symmetry_equiv_pos_as_xyz
1 x,y,z
2 -x,-y,-z
_cell_length_a                   9.6548(7)
_cell_length_b                   10.4292(8)
_cell_length_c                   12.4910(10)
_cell_angle_alpha                102.367(7)
_cell_angle_beta                 103.256(6)
_cell_angle_gamma                95.325(6)
_cell_volume                     1182.43
_exptl_crystal_colour            colorless
_exptl_crystal_description       block
_cell_formula_units_Z            2
loop_
_atom_site_label
_atom_site_type_symbol
_atom_site_fract_x
_atom_site_fract_y
_atom_site_fract_z
S1 S -0.01495(5) 0.78105(4) 0.46639(4)
O1 O -0.05762(16) 0.87777(14) 0.54802(11)
O2 O -0.08663(15) 0.64796(13) 0.43436(12)
N1 N -0.03911(17) 0.83710(14) 0.35357(12)
H1 H -0.0469 0.9196 0.3594
N2 N 0.2630(2) 0.9438(2) 0.2453(2)
C1 C 0.2191(3) 0.6632(2) 0.5345(2)
H2 H 0.1564 0.5835 0.5121
C2 C 0.3659(3) 0.6681(3) 0.5836(3)
H3 H 0.4020 0.5906 0.5936
C3 C 0.4572(3) 0.7873(4) 0.6172(2)
H4 H 0.5540 0.7898 0.6515
C4 C 0.4074(3) 0.9008(3) 0.6008(3)
H5 H 0.4702 0.9804 0.6223
C5 C 0.2643(3) 0.8980(2) 0.5526(2)
H6 H 0.2299 0.9757 0.5413
C6 C 0.1708(2) 0.7796(2) 0.52059(16)
C7 C -0.04816(19) 0.75158(17) 0.24114(15)
H7 H -0.1022 0.6656 0.2371
C8 C -0.13710(19) 0.80920(17) 0.15042(15)
C9 C -0.2710(2) 0.8407(2) 0.1602(2)
H8 H -0.3018 0.8324 0.2241
C10 C -0.3588(3) 0.8845(3) 0.0755(2)
H9 H -0.4491 0.9038 0.0821
C11 C -0.3138(3) 0.8998(2) -0.0185(2)
H10 H -0.3732 0.9293 -0.0751
C12 C -0.1818(3) 0.8715(2) -0.02786(19)
H11 H -0.1501 0.8835 -0.0905
C13 C -0.0938(2) 0.8248(2) 0.05546(16)
H12 H -0.0047 0.8037 0.0472
C14 C 0.10065(19) 0.72582(18) 0.22786(15)
C15 C 0.1965(2) 0.8450(2) 0.23888(18)
C16 C 0.14510(19) 0.60571(18) 0.21441(14)
C17 C 0.0421(2) 0.48175(18) 0.19017(15)
C18 C 0.0719(3) 0.3863(2) 0.25083(19)
H13 H 0.1577 0.3989 0.3066
C19 C -0.0266(4) 0.2718(2) 0.2282(2)
H14 H -0.0072 0.2087 0.2700
C20 C -0.1529(3) 0.2511(3) 0.1442(3)
H15 H -0.2187 0.1745 0.1298
C21 C -0.1813(3) 0.3429(2) 0.0823(2)
H16 H -0.2657 0.3280 0.0247
C22 C -0.0858(2) 0.4574(2) 0.10465(16)
H17 H -0.1066 0.5196 0.0622
C23 C 0.29888(19) 0.58975(19) 0.22366(16)
C24 C 0.4090(2) 0.6723(2) 0.31038(18)
H18 H 0.3871 0.7408 0.3620
C25 C 0.5505(2) 0.6526(2) 0.3199(2)
H19 H 0.6230 0.7071 0.3788
C26 C 0.5849(2) 0.5537(3) 0.2434(2)
H20 H 0.6805 0.5422 0.2494
C27 C 0.4776(3) 0.4712(3) 0.1576(2)
H21 H 0.5007 0.4041 0.1054
C28 C 0.3357(2) 0.4879(2) 0.14882(19)
H22 H 0.2637 0.4301 0.0919
loop_
_geom_bond_atom_site_label_1
_geom_bond_atom_site_label_2
_geom_bond_site_symmetry_1
_geom_bond_site_symmetry_2
S1 O1 1_555 1_555
O2 S1 1_555 1_555
N1 S1 1_555 1_555
H1 N1 1_555 1_555
N2 C15 1_555 1_555
C1 H2 1_555 1_555
C2 C1 1_555 1_555
H3 C2 1_555 1_555
C3 C2 1_555 1_555
H4 C3 1_555 1_555
C4 C3 1_555 1_555
H5 C4 1_555 1_555
C5 C4 1_555 1_555
H6 C5 1_555 1_555
C6 S1 1_555 1_555
C7 N1 1_555 1_555
H7 C7 1_555 1_555
C8 C7 1_555 1_555
C9 C8 1_555 1_555
H8 C9 1_555 1_555
C10 C9 1_555 1_555
H9 C10 1_555 1_555
C11 C10 1_555 1_555
H10 C11 1_555 1_555
C12 C11 1_555 1_555
H11 C12 1_555 1_555
C13 C8 1_555 1_555
H12 C13 1_555 1_555
C14 C7 1_555 1_555
C15 C14 1_555 1_555
C16 C14 1_555 1_555
C17 C16 1_555 1_555
C18 C17 1_555 1_555
H13 C18 1_555 1_555
C19 C18 1_555 1_555
H14 C19 1_555 1_555
C20 C19 1_555 1_555
H15 C20 1_555 1_555
C21 C20 1_555 1_555
H16 C21 1_555 1_555
C22 C17 1_555 1_555
H17 C22 1_555 1_555
C23 C16 1_555 1_555
C24 C23 1_555 1_555
H18 C24 1_555 1_555
C25 C24 1_555 1_555
H19 C25 1_555 1_555
C26 C25 1_555 1_555
H20 C26 1_555 1_555
C27 C26 1_555 1_555
H21 C27 1_555 1_555
C28 C23 1_555 1_555
H22 C28 1_555 1_555
C1 C6 1_555 1_555
C5 C6 1_555 1_555
C12 C13 1_555 1_555
C21 C22 1_555 1_555
C27 C28 1_555 1_555

#END
