
#######################################################################
#
#                 Cambridge Crystallographic Data Centre
#                                CCDC 
#
#######################################################################
#
# If this CIF has been generated from an entry in the Cambridge 
# Structural Database, then it will include bibliographic, chemical, 
# crystal, experimental, refinement or atomic coordinate data resulting 
# from the CCDC's data processing and validation procedures.
#
#######################################################################

data_ABEDIW
_chemical_formula_moiety         'C34 H26 N2 O2 S1'
_chemical_name_systematic        
4-(Diphenylmethylene)-3,5-diphenyl-1-(phenylsulfonyl)-4,5-dihydro-1H-pyrazole
_symmetry_cell_setting           triclinic
_symmetry_space_group_name_H-M   'P -1'
_symmetry_Int_Tables_number      2
_space_group_name_Hall           '-P 1'
loop_
_symmetry_equiv_pos_site_id
_symmetry_equiv_pos_as_xyz
1 x,y,z
2 -x,-y,-z
_cell_length_a                   11.8881(8)
_cell_length_b                   12.1800(7)
_cell_length_c                   12.2791(7)
_cell_angle_alpha                110.189(5)
_cell_angle_beta                 102.272(5)
_cell_angle_gamma                113.776(6)
_cell_volume                     1393.22
_exptl_crystal_colour            colorless
_exptl_crystal_description       block
_cell_formula_units_Z            2
loop_
_atom_site_label
_atom_site_type_symbol
_atom_site_fract_x
_atom_site_fract_y
_atom_site_fract_z
S1 S 0.70038(6) -0.03536(5) 0.37880(4)
O1 O 0.57675(15) -0.12461(15) 0.37791(13)
O2 O 0.73432(17) -0.07845(16) 0.27411(12)
N1 N 0.94270(16) 0.11665(16) 0.53649(14)
N2 N 0.82137(16) -0.00013(15) 0.50675(13)
C1 C 0.6540(3) 0.1699(3) 0.4834(2)
H1 H 0.5985 0.1150 0.5095
C2 C 0.6765(3) 0.2988(3) 0.5168(3)
H2 H 0.6365 0.3318 0.5662
C3 C 0.7572(4) 0.3794(3) 0.4783(3)
H3 H 0.7716 0.4667 0.5015
C4 C 0.8166(4) 0.3326(3) 0.4062(3)
H4 H 0.8713 0.3879 0.3800
C5 C 0.7959(3) 0.2031(3) 0.3717(2)
H5 H 0.8366 0.1708 0.3226
C6 C 0.7144(2) 0.1225(2) 0.41079(18)
C7 C 0.99814(19) 0.20032(19) 0.65738(16)
C8 C 1.1210(2) 0.33383(19) 0.70687(17)
C9 C 1.1304(3) 0.4535(2) 0.7850(2)
H6 H 1.0587 0.4502 0.8056
C10 C 1.2469(3) 0.5781(2) 0.8322(2)
H7 H 1.2542 0.6586 0.8861
C11 C 1.3519(3) 0.5828(3) 0.7994(3)
H8 H 1.4304 0.6666 0.8317
C12 C 1.3414(3) 0.4657(3) 0.7201(3)
H9 H 1.4121 0.4698 0.6973
C13 C 1.2268(2) 0.3414(2) 0.6735(2)
H10 H 1.2203 0.2617 0.6190
C14 C 0.92069(19) 0.14944(18) 0.72583(16)
C15 C 0.7961(2) 0.01351(19) 0.62361(16)
H11 H 0.7152 0.0192 0.6165
C16 C 0.7815(2) -0.10542(19) 0.64581(17)
C17 C 0.8863(2) -0.1287(2) 0.66702(19)
H12 H 0.9655 -0.0739 0.6634
C18 C 0.8742(3) -0.2330(3) 0.6936(2)
H13 H 0.9453 -0.2483 0.7076
C19 C 0.7597(4) -0.3135(3) 0.6996(3)
H14 H 0.7525 -0.3833 0.7182
C20 C 0.6558(4) -0.2920(3) 0.6785(4)
H15 H 0.5770 -0.3474 0.6821
C21 C 0.6665(3) -0.1880(3) 0.6514(3)
H16 H 0.5946 -0.1741 0.6368
C22 C 0.9532(2) 0.19948(19) 0.85237(17)
C23 C 0.8515(2) 0.1356(2) 0.89833(18)
C24 C 0.7261(2) 0.1214(2) 0.8601(2)
H17 H 0.7053 0.1561 0.8073
C25 C 0.6316(3) 0.0564(3) 0.8994(3)
H18 H 0.5473 0.0468 0.8727
C26 C 0.6619(4) 0.0060(3) 0.9779(3)
H19 H 0.5974 -0.0394 1.0029
C27 C 0.7859(3) 0.0218(3) 1.0195(3)
H20 H 0.8060 -0.0120 1.0735
C28 C 0.8825(3) 0.0884(2) 0.9814(2)
H21 H 0.9679 0.1013 1.0117
C29 C 1.0879(2) 0.31236(19) 0.95051(17)
C30 C 1.1012(3) 0.4232(2) 1.04881(19)
H22 H 1.0246 0.4228 1.0556
C31 C 1.2259(4) 0.5330(3) 1.1358(2)
H23 H 1.2333 0.6079 1.1994
C32 C 1.3395(4) 0.5336(3) 1.1301(3)
H24 H 1.4239 0.6093 1.1891
C33 C 1.3293(3) 0.4227(3) 1.0374(3)
H25 H 1.4066 0.4219 1.0350
C34 C 1.2035(2) 0.3120(2) 0.9474(2)
H26 H 1.1967 0.2369 0.8845
loop_
_geom_bond_atom_site_label_1
_geom_bond_atom_site_label_2
_geom_bond_site_symmetry_1
_geom_bond_site_symmetry_2
S1 O1 1_555 1_555
O2 S1 1_555 1_555
N1 N2 1_555 1_555
N2 S1 1_555 1_555
C1 H1 1_555 1_555
C2 C1 1_555 1_555
H2 C2 1_555 1_555
C3 C2 1_555 1_555
H3 C3 1_555 1_555
C4 C3 1_555 1_555
H4 C4 1_555 1_555
C5 C4 1_555 1_555
H5 C5 1_555 1_555
C6 S1 1_555 1_555
C7 N1 1_555 1_555
C8 C7 1_555 1_555
C9 C8 1_555 1_555
H6 C9 1_555 1_555
C10 C9 1_555 1_555
H7 C10 1_555 1_555
C11 C10 1_555 1_555
H8 C11 1_555 1_555
C12 C11 1_555 1_555
H9 C12 1_555 1_555
C13 C8 1_555 1_555
H10 C13 1_555 1_555
C14 C7 1_555 1_555
C15 N2 1_555 1_555
H11 C15 1_555 1_555
C16 C15 1_555 1_555
C17 C16 1_555 1_555
H12 C17 1_555 1_555
C18 C17 1_555 1_555
H13 C18 1_555 1_555
C19 C18 1_555 1_555
H14 C19 1_555 1_555
C20 C19 1_555 1_555
H15 C20 1_555 1_555
C21 C16 1_555 1_555
H16 C21 1_555 1_555
C22 C14 1_555 1_555
C23 C22 1_555 1_555
C24 C23 1_555 1_555
H17 C24 1_555 1_555
C25 C24 1_555 1_555
H18 C25 1_555 1_555
C26 C25 1_555 1_555
H19 C26 1_555 1_555
C27 C26 1_555 1_555
H20 C27 1_555 1_555
C28 C23 1_555 1_555
H21 C28 1_555 1_555
C29 C22 1_555 1_555
C30 C29 1_555 1_555
H22 C30 1_555 1_555
C31 C30 1_555 1_555
H23 C31 1_555 1_555
C32 C31 1_555 1_555
H24 C32 1_555 1_555
C33 C32 1_555 1_555
H25 C33 1_555 1_555
C34 C29 1_555 1_555
H26 C34 1_555 1_555
C1 C6 1_555 1_555
C5 C6 1_555 1_555
C12 C13 1_555 1_555
C14 C15 1_555 1_555
C20 C21 1_555 1_555
C27 C28 1_555 1_555
C33 C34 1_555 1_555

#END
