
#######################################################################
#
#                 Cambridge Crystallographic Data Centre
#                                CCDC 
#
#######################################################################
#
# If this CIF has been generated from an entry in the Cambridge 
# Structural Database, then it will include bibliographic, chemical, 
# crystal, experimental, refinement or atomic coordinate data resulting 
# from the CCDC's data processing and validation procedures.
#
#######################################################################

data_ABEFIX
_chemical_formula_moiety         'C7 H7 N1 O3,C7 H8 N1 O3 1+,Cl1 1-'
_chemical_name_systematic        
'1-Carboxymethyl-3-hydroxypyridinium 3-hydroxypyridinium-1-acetate chloride'
_symmetry_cell_setting           orthorhombic
_symmetry_space_group_name_H-M   'P c a 21'
_symmetry_Int_Tables_number      29
_space_group_name_Hall           'P 2c -2ac'
loop_
_symmetry_equiv_pos_site_id
_symmetry_equiv_pos_as_xyz
1 x,y,z
2 -x,-y,1/2+z
3 1/2+x,-y,z
4 1/2-x,y,1/2+z
_cell_length_a                   30.983(6)
_cell_length_b                   4.9200(10)
_cell_length_c                   9.981(2)
_cell_angle_alpha                90
_cell_angle_beta                 90
_cell_angle_gamma                90
_cell_volume                     1521.47
_exptl_crystal_colour            colorless
_exptl_crystal_description       prism
_cell_formula_units_Z            4
loop_
_atom_site_label
_atom_site_type_symbol
_atom_site_fract_x
_atom_site_fract_y
_atom_site_fract_z
Cl1 Cl 0.372260(10) -0.18360(10) 0.50000(5)
O1 O 0.65944(4) -0.1561(3) 0.6356(2)
O2 O 0.59993(4) 0.0894(2) 0.59480(10)
O3 O 0.45677(5) -0.4617(4) 0.5463(2)
N1 N 0.54828(4) -0.2479(3) 0.73570(10)
C1 C 0.62013(5) -0.1028(3) 0.6480(2)
C2 C 0.59529(5) -0.2992(3) 0.7372(2)
C3 C 0.53216(6) -0.0579(4) 0.8176(2)
C4 C 0.48880(6) 0.0068(4) 0.8115(2)
C5 C 0.46225(5) -0.1268(4) 0.7217(2)
C6 C 0.47959(5) -0.3220(3) 0.6370(2)
C7 C 0.52351(5) -0.3802(3) 0.6468(2)
H1 H 0.4317(5) -0.393(5) 0.540(3)
H4 H 0.6007 -0.4837 0.7072
H5 H 0.6058 -0.2833 0.8283
H6 H 0.5501 0.0302 0.8784
H7 H 0.4775 0.1399 0.8676
H8 H 0.4330 -0.0861 0.7181
H9 H 0.5357 -0.5115 0.5915
O4 O 0.59179(4) 0.5976(3) 0.3821(2)
O5 O 0.64613(4) 0.3093(2) 0.4177(2)
O6 O 0.76769(4) 0.0890(3) 0.11240(10)
N2 N 0.70282(4) 0.5893(3) 0.27250(10)
C8 C 0.62813(5) 0.5205(3) 0.3636(2)
C9 C 0.65731(6) 0.6774(3) 0.2688(2)
C10 C 0.73044(7) 0.7059(4) 0.3593(2)
C11 C 0.77237(7) 0.6171(4) 0.3666(2)
C12 C 0.78655(5) 0.4083(4) 0.2867(2)
C13 C 0.75780(5) 0.2910(3) 0.1965(2)
C14 C 0.71562(5) 0.3856(3) 0.1922(2)
H2 H 0.6269(8) 0.250(7) 0.472(3)
H3 H 0.7932(5) 0.025(5) 0.127(3)
H10 H 0.6465 0.6567 0.1782
H11 H 0.6559 0.8689 0.2914
H12 H 0.7211 0.8466 0.4143
H13 H 0.7914 0.6992 0.4263
H14 H 0.8148 0.3463 0.2927
H15 H 0.6960 0.3071 0.1332
loop_
_geom_bond_atom_site_label_1
_geom_bond_atom_site_label_2
_geom_bond_site_symmetry_1
_geom_bond_site_symmetry_2
O1 C1 1_555 1_555
O2 C1 1_555 1_555
O3 C6 1_555 1_555
O4 C8 1_555 1_555
O5 C8 1_555 1_555
O6 C13 1_555 1_555
N1 C2 1_555 1_555
N2 C9 1_555 1_555
C1 C2 1_555 1_555
C2 H4 1_555 1_555
C3 N1 1_555 1_555
C4 C3 1_555 1_555
C5 C4 1_555 1_555
C6 C5 1_555 1_555
C7 N1 1_555 1_555
C8 C9 1_555 1_555
C9 H10 1_555 1_555
C10 N2 1_555 1_555
C11 C10 1_555 1_555
C12 C11 1_555 1_555
C13 C12 1_555 1_555
C14 N2 1_555 1_555
H1 O3 1_555 1_555
H2 O5 1_555 1_555
H3 O6 1_555 1_555
H5 C2 1_555 1_555
H6 C3 1_555 1_555
H7 C4 1_555 1_555
H8 C5 1_555 1_555
H9 C7 1_555 1_555
H11 C9 1_555 1_555
H12 C10 1_555 1_555
H13 C11 1_555 1_555
H14 C12 1_555 1_555
H15 C14 1_555 1_555
C6 C7 1_555 1_555
C13 C14 1_555 1_555

#END
