
#######################################################################
#
#                 Cambridge Crystallographic Data Centre
#                                CCDC 
#
#######################################################################
#
# If this CIF has been generated from an entry in the Cambridge 
# Structural Database, then it will include bibliographic, chemical, 
# crystal, experimental, refinement or atomic coordinate data resulting 
# from the CCDC's data processing and validation procedures.
#
#######################################################################

data_ABEFAR
_chemical_formula_moiety         'C29 H34 N1 O2 1+,Br1 1-'
_chemical_name_systematic        
'1-(2-(benzyloxy)ethyl)-4-(hydroxy(diphenyl)methyl)-1-azoniabicyclo[2.2.2]octane bromide'
_symmetry_cell_setting           monoclinic
_symmetry_space_group_name_H-M   'P 21'
_symmetry_Int_Tables_number      4
_space_group_name_Hall           'P 2yb'
loop_
_symmetry_equiv_pos_site_id
_symmetry_equiv_pos_as_xyz
1 x,y,z
2 -x,1/2+y,-z
_cell_length_a                   10.122(2)
_cell_length_b                   9.4865(19)
_cell_length_c                   13.475(3)
_cell_angle_alpha                90
_cell_angle_beta                 101.21(3)
_cell_angle_gamma                90
_cell_volume                     1269.22
_exptl_crystal_colour            colorless
_exptl_crystal_description       prismatic
_cell_formula_units_Z            2
loop_
_atom_site_label
_atom_site_type_symbol
_atom_site_fract_x
_atom_site_fract_y
_atom_site_fract_z
Br1 Br 0.23573(4) 0.15998(6) 0.01308(4)
O1 O 0.9352(3) -0.0663(4) 0.2572(2)
O2 O 0.4141(3) 0.2419(3) -0.1576(2)
H1 H 0.375(6) 0.193(7) -0.117(4)
N1 N 0.8355(3) 0.1160(4) 0.0532(2)
C1 C 0.7132(4) 0.0445(5) 0.0788(3)
H2 H 0.6807 0.0979 0.1305
H3 H 0.7371 -0.0492 0.1050
C2 C 0.6025(4) 0.0344(4) -0.0160(3)
H4 H 0.5167 0.0606 0.0006
H5 H 0.5956 -0.0620 -0.0404
C3 C 0.6338(3) 0.1323(3) -0.0992(3)
C4 C 0.7628(4) 0.0826(5) -0.1321(3)
H6 H 0.7433 0.0015 -0.1763
H7 H 0.7974 0.1572 -0.1692
C5 C 0.8682(4) 0.0433(5) -0.0388(3)
H8 H 0.8688 -0.0580 -0.0290
H9 H 0.9569 0.0718 -0.0483
C6 C 0.6674(5) 0.2757(5) -0.0485(3)
H10 H 0.6742 0.3462 -0.0994
H11 H 0.5959 0.3038 -0.0140
C7 C 0.7999(5) 0.2670(5) 0.0271(3)
H12 H 0.8708 0.3103 -0.0015
H13 H 0.7923 0.3183 0.0881
C8 C 0.5078(3) 0.1490(5) -0.1899(3)
C9 C 0.5509(4) 0.2241(4) -0.2799(3)
C10 C 0.5921(4) 0.1485(6) -0.3572(3)
H14 H 0.5927 0.0505 -0.3556
C11 C 0.6325(5) 0.2193(6) -0.4368(3)
H15 H 0.6600 0.1677 -0.4878
C12 C 0.6324(6) 0.3631(6) -0.4413(4)
H16 H 0.6600 0.4093 -0.4947
C13 C 0.5910(6) 0.4384(5) -0.3662(4)
H17 H 0.5908 0.5364 -0.3688
C14 C 0.5491(5) 0.3699(5) -0.2855(4)
H18 H 0.5199 0.4225 -0.2356
C15 C 0.4355(4) 0.0099(4) -0.2272(3)
C16 C 0.4938(4) -0.1229(5) -0.2237(3)
H19 H 0.5839 -0.1333 -0.1934
C17 C 0.4225(5) -0.2391(5) -0.2637(4)
H20 H 0.4645 -0.3266 -0.2602
C18 C 0.2872(5) -0.2270(6) -0.3095(3)
H21 H 0.2380 -0.3056 -0.3365
C19 C 0.2284(5) -0.0965(6) -0.3139(4)
H22 H 0.1384 -0.0863 -0.3448
C20 C 0.2999(4) 0.0193(5) -0.2734(4)
H23 H 0.2570 0.1063 -0.2768
C21 C 0.9549(4) 0.1135(5) 0.1402(3)
H24 H 1.0293 0.1617 0.1190
H25 H 0.9318 0.1669 0.1958
C22 C 1.0028(4) -0.0295(6) 0.1790(3)
H26 H 0.9837 -0.0983 0.1248
H27 H 1.0992 -0.0278 0.2043
C23 C 0.9801(5) -0.1967(6) 0.3033(4)
H28 H 1.0777 -0.1974 0.3208
H29 H 0.9517 -0.2732 0.2562
C24 C 0.9227(5) -0.2173(5) 0.3968(3)
C25 C 0.8076(6) -0.1472(6) 0.4107(4)
H30 H 0.7649 -0.0850 0.3614
C26 C 0.7561(7) -0.1684(9) 0.4959(5)
H31 H 0.6796 -0.1198 0.5052
C27 C 0.8192(7) -0.2638(8) 0.5690(5)
H32 H 0.7852 -0.2785 0.6275
C28 C 0.9300(6) -0.3347(10) 0.5545(4)
H33 H 0.9711 -0.3985 0.6033
C29 C 0.9829(6) -0.3144(7) 0.4691(4)
H34 H 1.0582 -0.3650 0.4597
loop_
_geom_bond_atom_site_label_1
_geom_bond_atom_site_label_2
_geom_bond_site_symmetry_1
_geom_bond_site_symmetry_2
O1 C22 1_555 1_555
O2 H1 1_555 1_555
N1 C1 1_555 1_555
C1 H2 1_555 1_555
H3 C1 1_555 1_555
C2 C1 1_555 1_555
H4 C2 1_555 1_555
H5 C2 1_555 1_555
C3 C2 1_555 1_555
C4 C3 1_555 1_555
H6 C4 1_555 1_555
H7 C4 1_555 1_555
C5 N1 1_555 1_555
H8 C5 1_555 1_555
H9 C5 1_555 1_555
C6 C3 1_555 1_555
H10 C6 1_555 1_555
H11 C6 1_555 1_555
C7 N1 1_555 1_555
H12 C7 1_555 1_555
H13 C7 1_555 1_555
C8 O2 1_555 1_555
C9 C8 1_555 1_555
C10 C9 1_555 1_555
H14 C10 1_555 1_555
C11 C10 1_555 1_555
H15 C11 1_555 1_555
C12 C11 1_555 1_555
H16 C12 1_555 1_555
C13 C12 1_555 1_555
H17 C13 1_555 1_555
C14 C9 1_555 1_555
H18 C14 1_555 1_555
C15 C8 1_555 1_555
C16 C15 1_555 1_555
H19 C16 1_555 1_555
C17 C16 1_555 1_555
H20 C17 1_555 1_555
C18 C17 1_555 1_555
H21 C18 1_555 1_555
C19 C18 1_555 1_555
H22 C19 1_555 1_555
C20 C15 1_555 1_555
H23 C20 1_555 1_555
C21 N1 1_555 1_555
H24 C21 1_555 1_555
H25 C21 1_555 1_555
C22 C21 1_555 1_555
H26 C22 1_555 1_555
H27 C22 1_555 1_555
C23 O1 1_555 1_555
H28 C23 1_555 1_555
H29 C23 1_555 1_555
C24 C23 1_555 1_555
C25 C24 1_555 1_555
H30 C25 1_555 1_555
C26 C25 1_555 1_555
H31 C26 1_555 1_555
C27 C26 1_555 1_555
H32 C27 1_555 1_555
C28 C27 1_555 1_555
H33 C28 1_555 1_555
C29 C24 1_555 1_555
H34 C29 1_555 1_555
C3 C8 1_555 1_555
C4 C5 1_555 1_555
C6 C7 1_555 1_555
C13 C14 1_555 1_555
C19 C20 1_555 1_555
C28 C29 1_555 1_555

#END
