
#######################################################################
#
#                 Cambridge Crystallographic Data Centre
#                                CCDC 
#
#######################################################################
#
# If this CIF has been generated from an entry in the Cambridge 
# Structural Database, then it will include bibliographic, chemical, 
# crystal, experimental, refinement or atomic coordinate data resulting 
# from the CCDC's data processing and validation procedures.
#
#######################################################################

data_ABEFOD
_chemical_formula_moiety         'C15 H17 Cl1 O1'
_chemical_name_systematic        (E)-2-(4-Chlorobenzylidene)cyclooctanone
_symmetry_cell_setting           monoclinic
_symmetry_space_group_name_H-M   'P 21'
_symmetry_Int_Tables_number      4
_space_group_name_Hall           'P 2yb'
loop_
_symmetry_equiv_pos_site_id
_symmetry_equiv_pos_as_xyz
1 x,y,z
2 -x,1/2+y,-z
_cell_length_a                   7.4740(10)
_cell_length_b                   10.5450(10)
_cell_length_c                   8.5680(10)
_cell_angle_alpha                90
_cell_angle_beta                 100.223(9)
_cell_angle_gamma                90
_cell_volume                     664.552
_exptl_crystal_colour            colorless
_exptl_crystal_description       block
_chemical_melting_point          '362-364 K'
_cell_formula_units_Z            2
_exptl_crystal_recrystallization_method DMF/methanol
loop_
_atom_site_label
_atom_site_type_symbol
_atom_site_fract_x
_atom_site_fract_y
_atom_site_fract_z
Cl1 Cl 0.31690(7) 0.65545(6) 1.17777(6)
O1 O 1.14291(19) 0.38191(16) 0.66331(17)
C1 C 1.0234(3) 0.4371(2) 0.5745(2)
C2 C 1.0529(3) 0.4676(2) 0.4086(2)
H1 H 0.9735 0.5370 0.3669
H2 H 1.1774 0.4956 0.4133
C3 C 1.0170(3) 0.3563(3) 0.2968(3)
H3 H 1.0842 0.2839 0.3466
H4 H 1.0654 0.3762 0.2018
C4 C 0.8190(3) 0.3175(2) 0.2473(3)
H5 H 0.8127 0.2499 0.1697
H6 H 0.7520 0.3891 0.1953
C5 C 0.7242(3) 0.2727(2) 0.3813(3)
H7 H 0.6553 0.1968 0.3462
H8 H 0.8167 0.2492 0.4709
C6 C 0.5963(3) 0.3678(3) 0.4385(2)
H9 H 0.5410 0.3274 0.5199
H10 H 0.4996 0.3874 0.3505
C7 C 0.6829(3) 0.4929(2) 0.5055(2)
H11 H 0.7123 0.5432 0.4187
H12 H 0.5943 0.5400 0.5525
C8 C 0.8519(2) 0.47659(18) 0.6278(2)
C9 C 0.8657(2) 0.50057(19) 0.7830(2)
H13 H 0.9815 0.4899 0.8425
C10 C 0.7261(2) 0.54116(17) 0.87409(19)
C11 C 0.5519(2) 0.4895(2) 0.8489(2)
H14 H 0.5190 0.4308 0.7679
C12 C 0.4270(3) 0.52420(19) 0.9427(2)
H15 H 0.3115 0.4883 0.9262
C13 C 0.4759(3) 0.61224(18) 1.0603(2)
C14 C 0.6459(3) 0.6660(2) 1.0892(2)
H16 H 0.6767 0.7259 1.1692
C15 C 0.7705(2) 0.62858(18) 0.9957(2)
H17 H 0.8869 0.6631 1.0152
loop_
_geom_bond_atom_site_label_1
_geom_bond_atom_site_label_2
_geom_bond_site_symmetry_1
_geom_bond_site_symmetry_2
Cl1 C13 1_555 1_555
O1 C1 1_555 1_555
C1 C2 1_555 1_555
C2 H1 1_555 1_555
H2 C2 1_555 1_555
C3 C2 1_555 1_555
H3 C3 1_555 1_555
H4 C3 1_555 1_555
C4 C3 1_555 1_555
H5 C4 1_555 1_555
H6 C4 1_555 1_555
C5 C4 1_555 1_555
H7 C5 1_555 1_555
H8 C5 1_555 1_555
C6 C5 1_555 1_555
H9 C6 1_555 1_555
H10 C6 1_555 1_555
C7 C6 1_555 1_555
H11 C7 1_555 1_555
H12 C7 1_555 1_555
C8 C1 1_555 1_555
C9 C8 1_555 1_555
H13 C9 1_555 1_555
C10 C9 1_555 1_555
C11 C10 1_555 1_555
H14 C11 1_555 1_555
C12 C11 1_555 1_555
H15 C12 1_555 1_555
C13 C12 1_555 1_555
C14 C13 1_555 1_555
H16 C14 1_555 1_555
C15 C10 1_555 1_555
H17 C15 1_555 1_555
C7 C8 1_555 1_555
C14 C15 1_555 1_555

#END
