
#######################################################################
#
#                 Cambridge Crystallographic Data Centre
#                                CCDC 
#
#######################################################################
#
# If this CIF has been generated from an entry in the Cambridge 
# Structural Database, then it will include bibliographic, chemical, 
# crystal, experimental, refinement or atomic coordinate data resulting 
# from the CCDC's data processing and validation procedures.
#
#######################################################################

data_ABEFIW
_chemical_formula_moiety         'C17 H11 B1 F1 N1 O2'
_chemical_name_systematic        (1,6-bis(2-hydroxyphenyl)pyridine)fluoroboron
_symmetry_cell_setting           monoclinic
_symmetry_space_group_name_H-M   'P 21/c'
_symmetry_Int_Tables_number      14
_space_group_name_Hall           '-P 2ybc'
loop_
_symmetry_equiv_pos_site_id
_symmetry_equiv_pos_as_xyz
1 x,y,z
2 -x,1/2+y,1/2-z
3 -x,-y,-z
4 x,1/2-y,1/2+z
_cell_length_a                   7.5482(7)
_cell_length_b                   7.9581(7)
_cell_length_c                   22.422(3)
_cell_angle_alpha                90
_cell_angle_beta                 98.227(9)
_cell_angle_gamma                90
_cell_volume                     1333.01
_exptl_crystal_colour            blue
_cell_formula_units_Z            4
_exptl_crystal_preparation       electroluminescent
loop_
_atom_site_label
_atom_site_type_symbol
_atom_site_fract_x
_atom_site_fract_y
_atom_site_fract_z
B1 B 0.6554(7) 0.8428(7) 0.4283(2)
F1 F 0.7185(3) 0.6910(3) 0.4058(1)
O1 O 0.7665(4) 0.8984(4) 0.4810(1)
O2 O 0.6436(4) 0.9740(4) 0.3847(1)
N1 N 0.4617(5) 0.7956(5) 0.4429(2)
C1 C 0.4461(6) 0.7289(5) 0.4982(2)
C2 C 0.2815(7) 0.6693(7) 0.5096(2)
C3 C 0.1371(7) 0.6791(7) 0.4647(2)
C4 C 0.1517(7) 0.7511(7) 0.4098(2)
C5 C 0.3169(6) 0.8078(6) 0.3990(2)
C6 C 0.6074(6) 0.7287(6) 0.5436(2)
C7 C 0.6097(8) 0.6492(7) 0.5996(2)
C8 C 0.7573(9) 0.6579(8) 0.6427(2)
C9 C 0.9065(9) 0.7487(8) 0.6320(3)
C10 C 0.9094(7) 0.8276(7) 0.5771(2)
C11 C 0.7592(7) 0.8159(6) 0.5333(2)
C12 C 0.3484(6) 0.8900(6) 0.3424(2)
C13 C 0.2124(8) 0.8999(7) 0.2928(2)
C14 C 0.2364(9) 0.9880(8) 0.2419(2)
C15 C 0.3948(10) 1.0683(8) 0.2384(3)
C16 C 0.5311(9) 1.0613(7) 0.2865(2)
C17 C 0.5073(7) 0.9725(6) 0.3383(2)
H1 H 0.2667(64) 0.6296(63) 0.5496(20)
H2 H 0.0230(67) 0.6472(68) 0.4731(21)
H3 H 0.0417(65) 0.7648(61) 0.3814(20)
H4 H 0.5076(52) 0.5823(49) 0.6051(17)
H5 H 0.7549(61) 0.5937(61) 0.6819(20)
H6 H 1.0106(62) 0.7604(59) 0.6607(20)
H7 H 1.0205(67) 0.8949(66) 0.5638(20)
H8 H 0.1029(56) 0.8388(56) 0.2947(18)
H9 H 0.1447(67) 0.9914(64) 0.2045(22)
H10 H 0.4211(72) 1.1420(72) 0.2017(23)
H11 H 0.6437(56) 1.1244(57) 0.2845(18)
loop_
_geom_bond_atom_site_label_1
_geom_bond_atom_site_label_2
_geom_bond_site_symmetry_1
_geom_bond_site_symmetry_2
B1 F1 1_555 1_555
O1 B1 1_555 1_555
O2 B1 1_555 1_555
N1 B1 1_555 1_555
C1 N1 1_555 1_555
C2 C1 1_555 1_555
C3 C2 1_555 1_555
C4 C3 1_555 1_555
C5 N1 1_555 1_555
C6 C1 1_555 1_555
C7 C6 1_555 1_555
C8 C7 1_555 1_555
C9 C8 1_555 1_555
C10 C9 1_555 1_555
C11 O1 1_555 1_555
C12 C5 1_555 1_555
C13 C12 1_555 1_555
C14 C13 1_555 1_555
C15 C14 1_555 1_555
C16 C15 1_555 1_555
C17 O2 1_555 1_555
H1 C2 1_555 1_555
H2 C3 1_555 1_555
H3 C4 1_555 1_555
H4 C7 1_555 1_555
H5 C8 1_555 1_555
H6 C9 1_555 1_555
H7 C10 1_555 1_555
H8 C13 1_555 1_555
H9 C14 1_555 1_555
H10 C15 1_555 1_555
H11 C16 1_555 1_555
C4 C5 1_555 1_555
C6 C11 1_555 1_555
C10 C11 1_555 1_555
C12 C17 1_555 1_555
C16 C17 1_555 1_555

#END
