
#######################################################################
#
#                 Cambridge Crystallographic Data Centre
#                                CCDC 
#
#######################################################################
#
# If this CIF has been generated from an entry in the Cambridge 
# Structural Database, then it will include bibliographic, chemical, 
# crystal, experimental, refinement or atomic coordinate data resulting 
# from the CCDC's data processing and validation procedures.
#
#######################################################################

data_ABEGIZ01
_chemical_formula_moiety         'C58 H42 O2'
_chemical_name_systematic        
(1,3,4,5,6,8,9-Heptaphenyl-2-oxatricyclo[4.3.1.0^3,7^]deca-4,8-dien-10-yl)(phenyl)methanone
_symmetry_cell_setting           triclinic
_symmetry_space_group_name_H-M   'P -1'
_symmetry_Int_Tables_number      2
_space_group_name_Hall           '-P 1'
loop_
_symmetry_equiv_pos_site_id
_symmetry_equiv_pos_as_xyz
1 x,y,z
2 -x,-y,-z
_cell_length_a                   12.203(2)
_cell_length_b                   12.710(3)
_cell_length_c                   15.086(3)
_cell_angle_alpha                96.685(13)
_cell_angle_beta                 92.700(13)
_cell_angle_gamma                114.363(12)
_cell_volume                     2105.25
_exptl_crystal_colour            colorless
_exptl_crystal_description       block
_cell_formula_units_Z            2
loop_
_atom_site_label
_atom_site_type_symbol
_atom_site_fract_x
_atom_site_fract_y
_atom_site_fract_z
O1 O 0.78300(9) 0.81762(8) 0.83148(7)
O2 O 0.60153(11) 0.90645(10) 0.77904(8)
C1 C 0.72362(14) 0.72831(12) 0.88628(10)
C2 C 0.65299(13) 0.61212(13) 0.82359(10)
H1 H 0.6199 0.5479 0.8588
C3 C 0.73066(13) 0.58758(13) 0.75799(10)
C4 C 0.78375(13) 0.67561(13) 0.71108(10)
C5 C 0.75051(13) 0.77875(13) 0.73650(10)
C6 C 0.61866(14) 0.75033(13) 0.92379(10)
C7 C 0.51884(14) 0.69556(13) 0.86570(10)
C8 C 0.54856(13) 0.63738(12) 0.78061(10)
C9 C 0.60950(13) 0.72923(13) 0.71544(10)
H2 H 0.5889 0.6862 0.6543
C10 C 0.56797(14) 0.82800(14) 0.71608(11)
C11 C 0.82072(14) 0.73008(14) 0.95380(10)
C12 C 0.93041(16) 0.82720(16) 0.97273(12)
H3 H 0.9447 0.8911 0.9431
C13 C 1.01913(18) 0.83067(19) 1.03501(13)
H4 H 1.0924 0.8965 1.0469
C14 C 0.99932(19) 0.7375(2) 1.07914(13)
H5 H 1.0585 0.7403 1.1217
C15 C 0.8926(2) 0.64055(19) 1.06059(13)
H6 H 0.8793 0.5767 1.0900
C16 C 0.80351(17) 0.63661(16) 0.99804(12)
H7 H 0.7311 0.5698 0.9858
C17 C 0.74312(15) 0.47513(14) 0.75383(10)
C18 C 0.64499(17) 0.37338(14) 0.76614(12)
H8 H 0.5716 0.3762 0.7764
C19 C 0.6542(2) 0.26856(16) 0.76338(13)
H9 H 0.5876 0.2020 0.7723
C20 C 0.7611(2) 0.26188(18) 0.74756(13)
H10 H 0.7669 0.1909 0.7449
C21 C 0.8590(2) 0.3608(2) 0.73579(13)
H11 H 0.9318 0.3568 0.7253
C22 C 0.85121(17) 0.46756(16) 0.73930(12)
H12 H 0.9189 0.5341 0.7319
C23 C 0.86492(15) 0.67563(14) 0.64102(11)
C24 C 0.82161(19) 0.59592(17) 0.56330(12)
H13 H 0.7399 0.5452 0.5532
C25 C 0.8992(3) 0.5908(2) 0.49975(15)
H14 H 0.8693 0.5374 0.4472
C26 C 1.0192(3) 0.6646(3) 0.51497(19)
H15 H 1.0715 0.6601 0.4733
C27 C 1.0633(2) 0.7452(2) 0.59108(18)
H16 H 1.1451 0.7957 0.6006
C28 C 0.98716(17) 0.75159(18) 0.65355(14)
H17 H 1.0176 0.8073 0.7048
C29 C 0.81614(14) 0.88380(13) 0.69023(11)
C30 C 0.79257(16) 0.87863(15) 0.59876(12)
H18 H 0.7355 0.8097 0.5656
C31 C 0.85194(18) 0.97365(16) 0.55570(13)
H19 H 0.8351 0.9679 0.4941
C32 C 0.93531(18) 1.07599(17) 0.60330(15)
H20 H 0.9760 1.1398 0.5744
C33 C 0.95810(19) 1.08339(17) 0.69369(16)
H21 H 1.0137 1.1533 0.7266
C34 C 0.89996(17) 0.98866(15) 0.73722(13)
H22 H 0.9174 0.9955 0.7989
C35 C 0.63852(14) 0.83466(14) 1.00623(11)
C36 C 0.62923(19) 0.93836(15) 1.00028(13)
H23 H 0.6101 0.9548 0.9446
C37 C 0.6480(2) 1.01748(18) 1.07611(16)
H24 H 0.6407 1.0866 1.0710
C38 C 0.6770(2) 0.99678(19) 1.15811(16)
H25 H 0.6915 1.0519 1.2087
C39 C 0.6847(2) 0.8941(2) 1.16541(14)
H26 H 0.7028 0.8782 1.2215
C40 C 0.6657(2) 0.81368(18) 1.08997(13)
H27 H 0.6713 0.7440 1.0959
C41 C 0.39691(14) 0.69131(13) 0.87686(11)
C42 C 0.35414(16) 0.68809(14) 0.96113(12)
H28 H 0.4045 0.6936 1.0114
C43 C 0.23822(18) 0.67682(17) 0.97087(15)
H29 H 0.2111 0.6740 1.0275
C44 C 0.16236(18) 0.66976(17) 0.89838(16)
H30 H 0.0846 0.6628 0.9057
C45 C 0.20211(16) 0.67299(16) 0.81501(14)
H31 H 0.1511 0.6682 0.7654
C46 C 0.31772(15) 0.68327(14) 0.80424(12)
H32 H 0.3432 0.6848 0.7471
C47 C 0.45012(14) 0.52160(13) 0.73336(11)
C48 C 0.35968(15) 0.45057(14) 0.77998(12)
H33 H 0.3556 0.4771 0.8393
C49 C 0.27592(17) 0.34179(16) 0.74046(14)
H34 H 0.2150 0.2970 0.7728
C50 C 0.28145(19) 0.29893(17) 0.65387(15)
H35 H 0.2244 0.2258 0.6270
C51 C 0.37265(19) 0.36587(16) 0.60764(13)
H36 H 0.3789 0.3369 0.5495
C52 C 0.45526(16) 0.47573(14) 0.64642(11)
H37 H 0.5158 0.5201 0.6136
C53 C 0.48957(14) 0.83077(14) 0.63774(11)
C54 C 0.43705(17) 0.74227(17) 0.56568(12)
H38 H 0.4493 0.6746 0.5642
C55 C 0.36657(18) 0.75285(19) 0.49562(13)
H39 H 0.3328 0.6927 0.4474
C56 C 0.34632(18) 0.8507(2) 0.49678(15)
H40 H 0.2994 0.8577 0.4494
C57 C 0.39544(19) 0.93840(19) 0.56806(15)
H41 H 0.3810 1.0049 0.5694
C58 C 0.46639(17) 0.92893(16) 0.63812(13)
H42 H 0.4991 0.9892 0.6863
loop_
_geom_bond_atom_site_label_1
_geom_bond_atom_site_label_2
_geom_bond_site_symmetry_1
_geom_bond_site_symmetry_2
O1 C1 1_555 1_555
O2 C10 1_555 1_555
C1 C2 1_555 1_555
C2 H1 1_555 1_555
C3 C2 1_555 1_555
C4 C3 1_555 1_555
C5 O1 1_555 1_555
C6 C1 1_555 1_555
C7 C6 1_555 1_555
C8 C2 1_555 1_555
C9 C5 1_555 1_555
H2 C9 1_555 1_555
C10 C9 1_555 1_555
C11 C1 1_555 1_555
C12 C11 1_555 1_555
H3 C12 1_555 1_555
C13 C12 1_555 1_555
H4 C13 1_555 1_555
C14 C13 1_555 1_555
H5 C14 1_555 1_555
C15 C14 1_555 1_555
H6 C15 1_555 1_555
C16 C11 1_555 1_555
H7 C16 1_555 1_555
C17 C3 1_555 1_555
C18 C17 1_555 1_555
H8 C18 1_555 1_555
C19 C18 1_555 1_555
H9 C19 1_555 1_555
C20 C19 1_555 1_555
H10 C20 1_555 1_555
C21 C20 1_555 1_555
H11 C21 1_555 1_555
C22 C17 1_555 1_555
H12 C22 1_555 1_555
C23 C4 1_555 1_555
C24 C23 1_555 1_555
H13 C24 1_555 1_555
C25 C24 1_555 1_555
H14 C25 1_555 1_555
C26 C25 1_555 1_555
H15 C26 1_555 1_555
C27 C26 1_555 1_555
H16 C27 1_555 1_555
C28 C23 1_555 1_555
H17 C28 1_555 1_555
C29 C5 1_555 1_555
C30 C29 1_555 1_555
H18 C30 1_555 1_555
C31 C30 1_555 1_555
H19 C31 1_555 1_555
C32 C31 1_555 1_555
H20 C32 1_555 1_555
C33 C32 1_555 1_555
H21 C33 1_555 1_555
C34 C29 1_555 1_555
H22 C34 1_555 1_555
C35 C6 1_555 1_555
C36 C35 1_555 1_555
H23 C36 1_555 1_555
C37 C36 1_555 1_555
H24 C37 1_555 1_555
C38 C37 1_555 1_555
H25 C38 1_555 1_555
C39 C38 1_555 1_555
H26 C39 1_555 1_555
C40 C35 1_555 1_555
H27 C40 1_555 1_555
C41 C7 1_555 1_555
C42 C41 1_555 1_555
H28 C42 1_555 1_555
C43 C42 1_555 1_555
H29 C43 1_555 1_555
C44 C43 1_555 1_555
H30 C44 1_555 1_555
C45 C44 1_555 1_555
H31 C45 1_555 1_555
C46 C41 1_555 1_555
H32 C46 1_555 1_555
C47 C8 1_555 1_555
C48 C47 1_555 1_555
H33 C48 1_555 1_555
C49 C48 1_555 1_555
H34 C49 1_555 1_555
C50 C49 1_555 1_555
H35 C50 1_555 1_555
C51 C50 1_555 1_555
H36 C51 1_555 1_555
C52 C47 1_555 1_555
H37 C52 1_555 1_555
C53 C10 1_555 1_555
C54 C53 1_555 1_555
H38 C54 1_555 1_555
C55 C54 1_555 1_555
H39 C55 1_555 1_555
C56 C55 1_555 1_555
H40 C56 1_555 1_555
C57 C56 1_555 1_555
H41 C57 1_555 1_555
C58 C53 1_555 1_555
H42 C58 1_555 1_555
C4 C5 1_555 1_555
C7 C8 1_555 1_555
C8 C9 1_555 1_555
C15 C16 1_555 1_555
C21 C22 1_555 1_555
C27 C28 1_555 1_555
C33 C34 1_555 1_555
C39 C40 1_555 1_555
C45 C46 1_555 1_555
C51 C52 1_555 1_555
C57 C58 1_555 1_555

#END
