
#######################################################################
#
#                 Cambridge Crystallographic Data Centre
#                                CCDC 
#
#######################################################################
#
# If this CIF has been generated from an entry in the Cambridge 
# Structural Database, then it will include bibliographic, chemical, 
# crystal, experimental, refinement or atomic coordinate data resulting 
# from the CCDC's data processing and validation procedures.
#
#######################################################################

data_ABEGEV
_chemical_formula_moiety         'C46 H36 O2'
_chemical_name_systematic        
3-(6-Benzoyl-1,3,5-triphenylcyclohexa-2,4-dien-1-yl)-1,2-diphenylpropan-1-one
_symmetry_cell_setting           triclinic
_symmetry_space_group_name_H-M   'P -1'
_symmetry_Int_Tables_number      2
_space_group_name_Hall           '-P 1'
loop_
_symmetry_equiv_pos_site_id
_symmetry_equiv_pos_as_xyz
1 x,y,z
2 -x,-y,-z
_cell_length_a                   9.3604(5)
_cell_length_b                   11.8162(6)
_cell_length_c                   16.8778(10)
_cell_angle_alpha                96.449(4)
_cell_angle_beta                 100.349(4)
_cell_angle_gamma                112.149(4)
_cell_volume                     1667.34
_exptl_crystal_colour            colorless
_exptl_crystal_description       block
_cell_formula_units_Z            2
loop_
_atom_site_label
_atom_site_type_symbol
_atom_site_fract_x
_atom_site_fract_y
_atom_site_fract_z
O1 O 0.84063(14) 0.46096(11) 0.23145(8)
O2 O 0.77934(15) 0.01916(11) 0.32597(8)
C1 C 0.6983(2) 0.41127(15) 0.20141(10)
C2 C 0.58196(19) 0.38241(14) 0.25619(10)
H1 H 0.4886 0.3060 0.2287
C3 C 0.6506(2) 0.36546(14) 0.34115(10)
H2 H 0.5895 0.3825 0.3780
H3 H 0.7583 0.4288 0.3605
C4 C 0.65593(18) 0.23745(14) 0.34995(9)
C5 C 0.48779(18) 0.13973(14) 0.32111(10)
H4 H 0.4220 0.1303 0.3573
C6 C 0.42765(18) 0.06588(14) 0.24670(10)
C7 C 0.52861(19) 0.07600(16) 0.18906(10)
H5 H 0.4809 0.0342 0.1349
C8 C 0.68591(19) 0.14198(15) 0.20974(10)
C9 C 0.76868(18) 0.20938(14) 0.29835(9)
H6 H 0.8521 0.2895 0.2970
C10 C 0.85044(19) 0.13179(15) 0.33806(10)
C11 C 0.6367(2) 0.38678(16) 0.11003(11)
C12 C 0.7431(3) 0.4205(2) 0.06146(13)
H7 H 0.8516 0.4571 0.0857
C13 C 0.6905(4) 0.4005(3) -0.02322(16)
H8 H 0.7636 0.4236 -0.0555
C14 C 0.5319(4) 0.3471(3) -0.05913(16)
H9 H 0.4963 0.3352 -0.1158
C15 C 0.4269(4) 0.3116(3) -0.01227(16)
H10 H 0.3187 0.2734 -0.0372
C16 C 0.4763(3) 0.3305(2) 0.07177(13)
H11 H 0.4017 0.3054 0.1030
C17 C 0.5302(2) 0.49022(15) 0.26589(10)
C18 C 0.6408(2) 0.61259(16) 0.28560(11)
H12 H 0.7481 0.6301 0.2914
C19 C 0.5918(3) 0.70943(18) 0.29676(12)
H13 H 0.6666 0.7915 0.3095
C20 C 0.4356(4) 0.6851(2) 0.28917(14)
H14 H 0.4038 0.7502 0.2973
C21 C 0.3255(3) 0.5648(3) 0.26955(16)
H15 H 0.2185 0.5482 0.2639
C22 C 0.3718(2) 0.4673(2) 0.25803(13)
H16 H 0.2957 0.3856 0.2449
C23 C 0.71966(18) 0.24069(14) 0.44168(10)
C24 C 0.6745(2) 0.13192(17) 0.47268(11)
H17 H 0.6008 0.0577 0.4385
C25 C 0.7369(2) 0.1316(2) 0.55326(13)
H18 H 0.7050 0.0573 0.5723
C26 C 0.8448(2) 0.2388(2) 0.60520(12)
H19 H 0.8872 0.2379 0.6592
C27 C 0.8895(2) 0.34756(19) 0.57644(12)
H20 H 0.9622 0.4214 0.6114
C28 C 0.8276(2) 0.34861(17) 0.49598(11)
H21 H 0.8592 0.4237 0.4778
C29 C 0.26160(19) -0.03036(15) 0.22073(10)
C30 C 0.1344(2) -0.00874(18) 0.23838(12)
H22 H 0.1509 0.0698 0.2655
C31 C -0.0174(2) -0.1029(2) 0.21613(14)
H23 H -0.1020 -0.0867 0.2279
C32 C -0.0440(2) -0.2189(2) 0.17718(12)
H24 H -0.1459 -0.2821 0.1634
C33 C 0.0795(2) -0.24192(18) 0.15856(13)
H25 H 0.0618 -0.3209 0.1318
C34 C 0.2307(2) -0.14831(17) 0.17935(11)
H26 H 0.3135 -0.1647 0.1653
C35 C 0.7842(2) 0.14247(17) 0.14985(11)
C36 C 0.7309(3) 0.0431(2) 0.08333(13)
H27 H 0.6353 -0.0245 0.0783
C37 C 0.8165(3) 0.0427(3) 0.02497(14)
H28 H 0.7775 -0.0243 -0.0190
C38 C 0.9581(3) 0.1401(3) 0.03133(15)
H29 H 1.0153 0.1399 -0.0083
C39 C 1.0146(3) 0.2373(3) 0.09623(17)
H30 H 1.1110 0.3038 0.1008
C40 C 0.9295(2) 0.2382(2) 0.15588(14)
H31 H 0.9713 0.3046 0.2005
C41 C 1.01597(19) 0.19371(16) 0.39091(10)
C42 C 1.0737(2) 0.12334(19) 0.43684(12)
H32 H 1.0095 0.0400 0.4336
C43 C 1.2246(3) 0.1750(2) 0.48712(14)
H33 H 1.2608 0.1267 0.5181
C44 C 1.3216(2) 0.2967(2) 0.49185(13)
H34 H 1.4235 0.3314 0.5260
C45 C 1.2680(2) 0.3665(2) 0.44633(15)
H35 H 1.3344 0.4491 0.4487
C46 C 1.1153(2) 0.31619(18) 0.39640(13)
H36 H 1.0796 0.3657 0.3663
loop_
_geom_bond_atom_site_label_1
_geom_bond_atom_site_label_2
_geom_bond_site_symmetry_1
_geom_bond_site_symmetry_2
O1 C1 1_555 1_555
O2 C10 1_555 1_555
C1 C2 1_555 1_555
C2 H1 1_555 1_555
C3 C2 1_555 1_555
H2 C3 1_555 1_555
H3 C3 1_555 1_555
C4 C3 1_555 1_555
C5 C4 1_555 1_555
H4 C5 1_555 1_555
C6 C5 1_555 1_555
C7 C6 1_555 1_555
H5 C7 1_555 1_555
C8 C7 1_555 1_555
C9 C4 1_555 1_555
H6 C9 1_555 1_555
C10 C9 1_555 1_555
C11 C1 1_555 1_555
C12 C11 1_555 1_555
H7 C12 1_555 1_555
C13 C12 1_555 1_555
H8 C13 1_555 1_555
C14 C13 1_555 1_555
H9 C14 1_555 1_555
C15 C14 1_555 1_555
H10 C15 1_555 1_555
C16 C11 1_555 1_555
H11 C16 1_555 1_555
C17 C2 1_555 1_555
C18 C17 1_555 1_555
H12 C18 1_555 1_555
C19 C18 1_555 1_555
H13 C19 1_555 1_555
C20 C19 1_555 1_555
H14 C20 1_555 1_555
C21 C20 1_555 1_555
H15 C21 1_555 1_555
C22 C17 1_555 1_555
H16 C22 1_555 1_555
C23 C4 1_555 1_555
C24 C23 1_555 1_555
H17 C24 1_555 1_555
C25 C24 1_555 1_555
H18 C25 1_555 1_555
C26 C25 1_555 1_555
H19 C26 1_555 1_555
C27 C26 1_555 1_555
H20 C27 1_555 1_555
C28 C23 1_555 1_555
H21 C28 1_555 1_555
C29 C6 1_555 1_555
C30 C29 1_555 1_555
H22 C30 1_555 1_555
C31 C30 1_555 1_555
H23 C31 1_555 1_555
C32 C31 1_555 1_555
H24 C32 1_555 1_555
C33 C32 1_555 1_555
H25 C33 1_555 1_555
C34 C29 1_555 1_555
H26 C34 1_555 1_555
C35 C8 1_555 1_555
C36 C35 1_555 1_555
H27 C36 1_555 1_555
C37 C36 1_555 1_555
H28 C37 1_555 1_555
C38 C37 1_555 1_555
H29 C38 1_555 1_555
C39 C38 1_555 1_555
H30 C39 1_555 1_555
C40 C35 1_555 1_555
H31 C40 1_555 1_555
C41 C10 1_555 1_555
C42 C41 1_555 1_555
H32 C42 1_555 1_555
C43 C42 1_555 1_555
H33 C43 1_555 1_555
C44 C43 1_555 1_555
H34 C44 1_555 1_555
C45 C44 1_555 1_555
H35 C45 1_555 1_555
C46 C41 1_555 1_555
H36 C46 1_555 1_555
C8 C9 1_555 1_555
C15 C16 1_555 1_555
C21 C22 1_555 1_555
C27 C28 1_555 1_555
C33 C34 1_555 1_555
C39 C40 1_555 1_555
C45 C46 1_555 1_555

#END
