
#######################################################################
#
#                 Cambridge Crystallographic Data Centre
#                                CCDC 
#
#######################################################################
#
# If this CIF has been generated from an entry in the Cambridge 
# Structural Database, then it will include bibliographic, chemical, 
# crystal, experimental, refinement or atomic coordinate data resulting 
# from the CCDC's data processing and validation procedures.
#
#######################################################################

data_ABEGAR
_chemical_formula_moiety         'C70 H50 O2'
_chemical_name_systematic        
1,2,3,4,5,6,7,8,9,10-Decaphenyldeca-2,4,6,8-tetraene-1,10-dione
_symmetry_cell_setting           monoclinic
_symmetry_space_group_name_H-M   'P 21/c'
_symmetry_Int_Tables_number      14
_space_group_name_Hall           '-P 2ybc'
loop_
_symmetry_equiv_pos_site_id
_symmetry_equiv_pos_as_xyz
1 x,y,z
2 -x,1/2+y,1/2-z
3 -x,-y,-z
4 x,1/2-y,1/2+z
_cell_length_a                   14.387(2)
_cell_length_b                   20.112(3)
_cell_length_c                   18.336(3)
_cell_angle_alpha                90
_cell_angle_beta                 94.032(6)
_cell_angle_gamma                90
_cell_volume                     5292.41
_exptl_crystal_colour            yellow
_exptl_crystal_description       block
_cell_formula_units_Z            4
loop_
_atom_site_label
_atom_site_type_symbol
_atom_site_fract_x
_atom_site_fract_y
_atom_site_fract_z
C1 C 0.6647(3) 0.20398(19) 0.3156(2)
C2 C 0.7261(3) 0.1871(2) 0.3815(3)
C3 C 0.7111(4) 0.2176(3) 0.4486(4)
H1 H 0.6644 0.2494 0.4508
C4 C 0.7649(5) 0.2010(3) 0.5115(3)
H2 H 0.7550 0.2220 0.5554
C5 C 0.8318(4) 0.1540(3) 0.5090(3)
H3 H 0.8677 0.1429 0.5515
C6 C 0.8472(4) 0.1229(3) 0.4455(3)
H4 H 0.8937 0.0909 0.4444
C7 C 0.7935(4) 0.1387(2) 0.3819(3)
H5 H 0.8034 0.1161 0.3389
C8 C 0.6839(3) 0.17329(19) 0.2439(2)
C9 C 0.7740(3) 0.1944(2) 0.2140(2)
C10 C 0.8044(3) 0.2593(2) 0.2250(2)
H6 H 0.7682 0.2891 0.2495
C11 C 0.8886(4) 0.2804(3) 0.1997(3)
H7 H 0.9090 0.3237 0.2085
C12 C 0.9408(4) 0.2380(4) 0.1625(3)
H8 H 0.9958 0.2529 0.1443
C13 C 0.9133(4) 0.1729(3) 0.1512(3)
H9 H 0.9504 0.1441 0.1262
C14 C 0.8301(3) 0.1500(2) 0.1770(2)
H10 H 0.8119 0.1060 0.1699
C15 C 0.6186(3) 0.1326(2) 0.2110(2)
C16 C 0.6258(3) 0.1019(2) 0.1365(2)
C17 C 0.6408(4) 0.1392(3) 0.0746(3)
H11 H 0.6443 0.1853 0.0782
C18 C 0.6505(5) 0.1096(4) 0.0090(3)
H12 H 0.6622 0.1354 -0.0314
C19 C 0.6432(5) 0.0420(4) 0.0019(4)
H13 H 0.6522 0.0218 -0.0427
C20 C 0.6231(5) 0.0049(3) 0.0597(4)
H14 H 0.6149 -0.0408 0.0549
C21 C 0.6146(4) 0.0358(3) 0.1272(3)
H15 H 0.6006 0.0099 0.1670
C22 C 0.5370(3) 0.11120(18) 0.2504(2)
C23 C 0.5585(3) 0.0763(2) 0.3211(2)
C24 C 0.6221(4) 0.0252(3) 0.3268(3)
H16 H 0.6492 0.0103 0.2853
C25 C 0.6465(4) -0.0046(3) 0.3946(4)
H17 H 0.6878 -0.0403 0.3972
C26 C 0.6101(5) 0.0182(4) 0.4573(3)
H18 H 0.6283 -0.0001 0.5026
C27 C 0.5470(4) 0.0682(3) 0.4511(3)
H19 H 0.5204 0.0833 0.4928
C28 C 0.5212(3) 0.0972(2) 0.3846(3)
H20 H 0.4778 0.1316 0.3825
C29 C 0.4482(3) 0.12261(18) 0.2230(2)
C30 C 0.4292(3) 0.1648(2) 0.1559(3)
C31 C 0.4640(3) 0.2281(2) 0.1517(3)
H21 H 0.4985 0.2457 0.1920
C32 C 0.4498(5) 0.2656(3) 0.0910(4)
H22 H 0.4745 0.3083 0.0901
C33 C 0.3993(5) 0.2411(4) 0.0305(4)
H23 H 0.3899 0.2670 -0.0114
C34 C 0.3630(4) 0.1785(4) 0.0326(3)
H24 H 0.3296 0.1612 -0.0084
C35 C 0.3761(4) 0.1404(2) 0.0960(3)
H25 H 0.3490 0.0985 0.0981
C36 C 0.3654(3) 0.08913(18) 0.2521(2)
C37 C 0.3742(3) 0.01534(19) 0.2627(2)
C38 C 0.4059(3) -0.0246(2) 0.2085(3)
H26 H 0.4224 -0.0056 0.1651
C39 C 0.4137(3) -0.0928(3) 0.2182(3)
H27 H 0.4347 -0.1194 0.1812
C40 C 0.3903(4) -0.1209(2) 0.2820(4)
H28 H 0.3941 -0.1667 0.2881
C41 C 0.3613(3) -0.0819(2) 0.3369(3)
H29 H 0.3476 -0.1013 0.3810
C42 C 0.3520(3) -0.0137(2) 0.3277(2)
H30 H 0.3308 0.0124 0.3650
C43 C 0.2848(3) 0.1208(2) 0.2640(2)
C44 C 0.2760(3) 0.1942(2) 0.2675(3)
C45 C 0.3455(4) 0.2338(2) 0.2999(3)
H31 H 0.3993 0.2136 0.3203
C46 C 0.3382(5) 0.3021(3) 0.3032(4)
H32 H 0.3881 0.3275 0.3226
C47 C 0.2572(6) 0.3321(3) 0.2777(4)
H33 H 0.2499 0.3777 0.2835
C48 C 0.1879(5) 0.2959(3) 0.2442(4)
H34 H 0.1351 0.3168 0.2230
C49 C 0.1962(4) 0.2255(3) 0.2416(3)
H35 H 0.1463 0.2003 0.2219
C50 C 0.1970(3) 0.0779(2) 0.2716(3)
C51 C 0.1691(3) 0.0379(3) 0.2036(3)
C52 C 0.1600(4) 0.0673(4) 0.1388(4)
H36 H 0.1701 0.1127 0.1332
C53 C 0.1327(5) 0.0235(5) 0.0757(4)
H37 H 0.1243 0.0431 0.0298
C54 C 0.1200(6) -0.0395(5) 0.0798(6)
H38 H 0.1016 -0.0647 0.0387
C55 C 0.1359(5) -0.0698(3) 0.1525(5)
H39 H 0.1307 -0.1157 0.1573
C56 C 0.1572(4) -0.0335(3) 0.2111(4)
H40 H 0.1645 -0.0534 0.2570
C57 C 0.1516(3) 0.0790(2) 0.3310(3)
C58 C 0.0639(4) 0.0361(2) 0.3392(4)
C59 C -0.0128(4) 0.0365(3) 0.2864(3)
H41 H -0.0122 0.0636 0.2453
C60 C -0.0882(4) -0.0035(3) 0.2966(3)
H42 H -0.1390 -0.0037 0.2623
C61 C -0.0882(4) -0.0426(3) 0.3562(4)
H43 H -0.1387 -0.0702 0.3630
C62 C -0.0130(5) -0.0415(3) 0.4073(4)
H44 H -0.0141 -0.0685 0.4485
C63 C 0.0626(4) -0.0022(3) 0.3994(3)
H45 H 0.1122 -0.0018 0.4347
C64 C 0.1856(4) 0.1195(2) 0.3948(3)
C65 C 0.1293(5) 0.1726(3) 0.4227(4)
C66 C 0.0543(5) 0.1981(3) 0.3836(4)
H46 H 0.0346 0.1779 0.3395
C67 C 0.0058(6) 0.2527(4) 0.4063(5)
H47 H -0.0454 0.2681 0.3774
C68 C 0.0307(8) 0.2836(5) 0.4682(6)
H48 H -0.0018 0.3208 0.4827
C69 C 0.1073(8) 0.2589(5) 0.5115(5)
H49 H 0.1263 0.2808 0.5547
C70 C 0.1566(5) 0.2016(3) 0.4912(4)
H50 H 0.2048 0.1837 0.5216
O1 O 0.5995(2) 0.24243(14) 0.31961(15)
O2 O 0.2590(3) 0.1047(2) 0.4306(2)
loop_
_geom_bond_atom_site_label_1
_geom_bond_atom_site_label_2
_geom_bond_site_symmetry_1
_geom_bond_site_symmetry_2
C1 C2 1_555 1_555
C2 C3 1_555 1_555
C3 H1 1_555 1_555
C4 C3 1_555 1_555
H2 C4 1_555 1_555
C5 C4 1_555 1_555
H3 C5 1_555 1_555
C6 C5 1_555 1_555
H4 C6 1_555 1_555
C7 C2 1_555 1_555
H5 C7 1_555 1_555
C8 C1 1_555 1_555
C9 C8 1_555 1_555
C10 C9 1_555 1_555
H6 C10 1_555 1_555
C11 C10 1_555 1_555
H7 C11 1_555 1_555
C12 C11 1_555 1_555
H8 C12 1_555 1_555
C13 C12 1_555 1_555
H9 C13 1_555 1_555
C14 C9 1_555 1_555
H10 C14 1_555 1_555
C15 C8 1_555 1_555
C16 C15 1_555 1_555
C17 C16 1_555 1_555
H11 C17 1_555 1_555
C18 C17 1_555 1_555
H12 C18 1_555 1_555
C19 C18 1_555 1_555
H13 C19 1_555 1_555
C20 C19 1_555 1_555
H14 C20 1_555 1_555
C21 C16 1_555 1_555
H15 C21 1_555 1_555
C22 C15 1_555 1_555
C23 C22 1_555 1_555
C24 C23 1_555 1_555
H16 C24 1_555 1_555
C25 C24 1_555 1_555
H17 C25 1_555 1_555
C26 C25 1_555 1_555
H18 C26 1_555 1_555
C27 C26 1_555 1_555
H19 C27 1_555 1_555
C28 C23 1_555 1_555
H20 C28 1_555 1_555
C29 C22 1_555 1_555
C30 C29 1_555 1_555
C31 C30 1_555 1_555
H21 C31 1_555 1_555
C32 C31 1_555 1_555
H22 C32 1_555 1_555
C33 C32 1_555 1_555
H23 C33 1_555 1_555
C34 C33 1_555 1_555
H24 C34 1_555 1_555
C35 C30 1_555 1_555
H25 C35 1_555 1_555
C36 C29 1_555 1_555
C37 C36 1_555 1_555
C38 C37 1_555 1_555
H26 C38 1_555 1_555
C39 C38 1_555 1_555
H27 C39 1_555 1_555
C40 C39 1_555 1_555
H28 C40 1_555 1_555
C41 C40 1_555 1_555
H29 C41 1_555 1_555
C42 C37 1_555 1_555
H30 C42 1_555 1_555
C43 C36 1_555 1_555
C44 C43 1_555 1_555
C45 C44 1_555 1_555
H31 C45 1_555 1_555
C46 C45 1_555 1_555
H32 C46 1_555 1_555
C47 C46 1_555 1_555
H33 C47 1_555 1_555
C48 C47 1_555 1_555
H34 C48 1_555 1_555
C49 C44 1_555 1_555
H35 C49 1_555 1_555
C50 C43 1_555 1_555
C51 C50 1_555 1_555
C52 C51 1_555 1_555
H36 C52 1_555 1_555
C53 C52 1_555 1_555
H37 C53 1_555 1_555
C54 C53 1_555 1_555
H38 C54 1_555 1_555
C55 C54 1_555 1_555
H39 C55 1_555 1_555
C56 C51 1_555 1_555
H40 C56 1_555 1_555
C57 C50 1_555 1_555
C58 C57 1_555 1_555
C59 C58 1_555 1_555
H41 C59 1_555 1_555
C60 C59 1_555 1_555
H42 C60 1_555 1_555
C61 C60 1_555 1_555
H43 C61 1_555 1_555
C62 C61 1_555 1_555
H44 C62 1_555 1_555
C63 C58 1_555 1_555
H45 C63 1_555 1_555
C64 C57 1_555 1_555
C65 C64 1_555 1_555
C66 C65 1_555 1_555
H46 C66 1_555 1_555
C67 C66 1_555 1_555
H47 C67 1_555 1_555
C68 C67 1_555 1_555
H48 C68 1_555 1_555
C69 C68 1_555 1_555
H49 C69 1_555 1_555
C70 C65 1_555 1_555
H50 C70 1_555 1_555
O1 C1 1_555 1_555
O2 C64 1_555 1_555
C6 C7 1_555 1_555
C13 C14 1_555 1_555
C20 C21 1_555 1_555
C27 C28 1_555 1_555
C34 C35 1_555 1_555
C41 C42 1_555 1_555
C48 C49 1_555 1_555
C55 C56 1_555 1_555
C62 C63 1_555 1_555
C69 C70 1_555 1_555

#END
