
#######################################################################
#
#                 Cambridge Crystallographic Data Centre
#                                CCDC 
#
#######################################################################
#
# If this CIF has been generated from an entry in the Cambridge 
# Structural Database, then it will include bibliographic, chemical, 
# crystal, experimental, refinement or atomic coordinate data resulting 
# from the CCDC's data processing and validation procedures.
#
#######################################################################

data_ABEGOE
_chemical_name_common            'Ethyl theobromine acetate'
_chemical_formula_moiety         'C11 H14 N4 O4'
_chemical_name_systematic        
'Ethyl (3,7-dimethyl-2,6-dioxo-2,3,6,7-tetrahydropurin-1-yl)acetate'
_chemical_properties_biological  
'theobromine can cause significant physiological effects'
_symmetry_cell_setting           monoclinic
_symmetry_space_group_name_H-M   'P 21/c'
_symmetry_Int_Tables_number      14
_space_group_name_Hall           '-P 2ybc'
loop_
_symmetry_equiv_pos_site_id
_symmetry_equiv_pos_as_xyz
1 x,y,z
2 x,1/2-y,1/2+z
3 -x,-y,-z
4 -x,1/2+y,1/2-z
_cell_length_a                   8.0564(3)
_cell_length_b                   20.5089(9)
_cell_length_c                   7.8112(3)
_cell_angle_alpha                90
_cell_angle_beta                 106.833(2)
_cell_angle_gamma                90
_cell_volume                     1235.33
_exptl_crystal_colour            colorless
_exptl_crystal_description       block
_chemical_melting_point          '451-452 K'
_cell_formula_units_Z            4
_exptl_crystal_recrystallization_method ethanol
loop_
_atom_site_label
_atom_site_type_symbol
_atom_site_fract_x
_atom_site_fract_y
_atom_site_fract_z
O1 O 0.49224(15) 0.55382(6) 0.23372(17)
O2 O 0.39159(18) 0.61915(7) -0.00284(18)
O3 O -0.09716(17) 0.56896(6) -0.09409(19)
O4 O 0.28266(16) 0.71085(7) 0.27071(17)
N1 N 0.08904(17) 0.64115(7) 0.09117(18)
N2 N 0.04893(19) 0.75531(7) 0.06832(19)
N3 N -0.30918(18) 0.69059(8) -0.25553(19)
N4 N -0.2093(2) 0.79000(8) -0.1618(2)
C1 C 0.7737(3) 0.50640(14) 0.3311(4)
H1 H 0.7945 0.5249 0.4483
H2 H 0.8821 0.5011 0.3045
H3 H 0.7186 0.4647 0.3273
C2 C 0.6590(2) 0.55062(10) 0.1964(3)
H4 H 0.7100 0.5938 0.2044
H5 H 0.6440 0.5339 0.0766
C3 C 0.3718(2) 0.59009(8) 0.1226(2)
C4 C 0.2052(2) 0.58803(9) 0.1738(3)
H6 H 0.1476 0.5467 0.1367
H7 H 0.2314 0.5911 0.3028
C5 C -0.0626(2) 0.62522(9) -0.0472(2)
C6 C -0.1572(2) 0.68221(9) -0.1184(2)
C7 C -0.1019(2) 0.74376(8) -0.0662(2)
C8 C 0.1480(2) 0.70375(9) 0.1509(2)
C9 C 0.1102(3) 0.82222(9) 0.1148(3)
H8 H 0.1830 0.8234 0.2362
H9 H 0.0125 0.8505 0.1025
H10 H 0.1750 0.8365 0.0362
C10 C -0.4182(3) 0.63949(11) -0.3595(3)
H11 H -0.5062 0.6587 -0.4566
H12 H -0.4718 0.6155 -0.2843
H13 H -0.3484 0.6105 -0.4064
C11 C -0.3327(2) 0.75491(10) -0.2739(3)
H14 H -0.4270 0.7736 -0.3578
loop_
_geom_bond_atom_site_label_1
_geom_bond_atom_site_label_2
_geom_bond_site_symmetry_1
_geom_bond_site_symmetry_2
O1 C2 1_555 1_555
O2 C3 1_555 1_555
O3 C5 1_555 1_555
O4 C8 1_555 1_555
N1 C4 1_555 1_555
N2 C7 1_555 1_555
N3 C6 1_555 1_555
N4 C7 1_555 1_555
C1 H1 1_555 1_555
H2 C1 1_555 1_555
H3 C1 1_555 1_555
C2 C1 1_555 1_555
H4 C2 1_555 1_555
H5 C2 1_555 1_555
C3 O1 1_555 1_555
C4 C3 1_555 1_555
H6 C4 1_555 1_555
H7 C4 1_555 1_555
C5 N1 1_555 1_555
C6 C5 1_555 1_555
C7 C6 1_555 1_555
C8 N1 1_555 1_555
C9 N2 1_555 1_555
H8 C9 1_555 1_555
H9 C9 1_555 1_555
H10 C9 1_555 1_555
C10 N3 1_555 1_555
H11 C10 1_555 1_555
H12 C10 1_555 1_555
H13 C10 1_555 1_555
C11 N3 1_555 1_555
H14 C11 1_555 1_555
N2 C8 1_555 1_555
N4 C11 1_555 1_555

#END
