
#######################################################################
#
#                 Cambridge Crystallographic Data Centre
#                                CCDC 
#
#######################################################################
#
# If this CIF has been generated from an entry in the Cambridge 
# Structural Database, then it will include bibliographic, chemical, 
# crystal, experimental, refinement or atomic coordinate data resulting 
# from the CCDC's data processing and validation procedures.
#
#######################################################################

data_ABEJIB
_chemical_formula_moiety         'C9 H17 N1 O3'
_chemical_name_systematic        
5-Ethoxy-5-(1-hydroxyethyl)-1-methylpyrrolidin-2-one
_chemical_properties_biological  'potential pharmaceutical agent'
_symmetry_cell_setting           monoclinic
_symmetry_space_group_name_H-M   'P 21/c'
_symmetry_Int_Tables_number      14
_space_group_name_Hall           '-P 2ybc'
loop_
_symmetry_equiv_pos_site_id
_symmetry_equiv_pos_as_xyz
1 x,y,z
2 x,1/2-y,1/2+z
3 -x,-y,-z
4 -x,1/2+y,1/2-z
_cell_length_a                   7.188(2)
_cell_length_b                   17.363(5)
_cell_length_c                   8.297(2)
_cell_angle_alpha                90
_cell_angle_beta                 93.267(5)
_cell_angle_gamma                90
_cell_volume                     1033.83
_exptl_crystal_colour            colorless
_exptl_crystal_description       block
_chemical_melting_point          '393-397 K'
_cell_formula_units_Z            4
_exptl_crystal_recrystallization_method 'ethyl acetate'
loop_
_atom_site_label
_atom_site_type_symbol
_atom_site_fract_x
_atom_site_fract_y
_atom_site_fract_z
N1 N 0.2056(2) 0.57381(9) 0.60819(19)
O1 O 0.2865(2) 0.46519(10) 0.4763(2)
O2 O 0.29844(19) 0.67954(7) 0.77324(17)
O3 O -0.0972(2) 0.55630(10) 0.8151(2)
H1 H -0.152(5) 0.5484(19) 0.715(4)
C1 C 0.2812(3) 0.50390(13) 0.5994(3)
C2 C 0.3587(4) 0.48100(13) 0.7625(3)
H2 H 0.4930 0.4753 0.7629
H3 H 0.3052 0.4325 0.7951
C3 C 0.3078(3) 0.54442(12) 0.8739(3)
H4 H 0.4188 0.5653 0.9298
H5 H 0.2257 0.5251 0.9535
C4 C 0.2092(3) 0.60679(11) 0.7703(2)
C5 C 0.0125(3) 0.62414(13) 0.8213(3)
H6 H -0.0452 0.6623 0.7472
C6 C 0.0112(4) 0.65467(16) 0.9921(3)
H7 H -0.1119 0.6721 1.0129
H8 H 0.0971 0.6969 1.0050
H9 H 0.0476 0.6144 1.0668
C7 C 0.4881(3) 0.68104(13) 0.7303(3)
H10 H 0.4998 0.6557 0.6271
H11 H 0.5664 0.6542 0.8111
C8 C 0.5469(4) 0.76259(15) 0.7201(4)
H12 H 0.4659 0.7891 0.6426
H13 H 0.6726 0.7650 0.6872
H14 H 0.5401 0.7865 0.8239
C9 C 0.1338(4) 0.61587(15) 0.4667(3)
H15 H 0.1657 0.5890 0.3710
H16 H 0.1874 0.6665 0.4671
H17 H 0.0007 0.6199 0.4684
loop_
_geom_bond_atom_site_label_1
_geom_bond_atom_site_label_2
_geom_bond_site_symmetry_1
_geom_bond_site_symmetry_2
N1 C1 1_555 1_555
O1 C1 1_555 1_555
O2 C4 1_555 1_555
O3 H1 1_555 1_555
C1 C2 1_555 1_555
C2 H2 1_555 1_555
H3 C2 1_555 1_555
C3 C2 1_555 1_555
H4 C3 1_555 1_555
H5 C3 1_555 1_555
C4 N1 1_555 1_555
C5 O3 1_555 1_555
H6 C5 1_555 1_555
C6 C5 1_555 1_555
H7 C6 1_555 1_555
H8 C6 1_555 1_555
H9 C6 1_555 1_555
C7 O2 1_555 1_555
H10 C7 1_555 1_555
H11 C7 1_555 1_555
C8 C7 1_555 1_555
H12 C8 1_555 1_555
H13 C8 1_555 1_555
H14 C8 1_555 1_555
C9 N1 1_555 1_555
H15 C9 1_555 1_555
H16 C9 1_555 1_555
H17 C9 1_555 1_555
C3 C4 1_555 1_555
C4 C5 1_555 1_555

#END
