
#######################################################################
#
#                 Cambridge Crystallographic Data Centre
#                                CCDC 
#
#######################################################################
#
# If this CIF has been generated from an entry in the Cambridge 
# Structural Database, then it will include bibliographic, chemical, 
# crystal, experimental, refinement or atomic coordinate data resulting 
# from the CCDC's data processing and validation procedures.
#
#######################################################################

data_ABEJUO
_chemical_formula_moiety         'C21 H24 O4 S1'
_chemical_name_systematic        
4-Hydroxy-9-methyl-6-methylene-3-((phenylsulfanyl)methyl)octahydroazuleno[4,5-b]furan-2,8(3H,4H)-dione
_symmetry_cell_setting           monoclinic
_symmetry_space_group_name_H-M   'P 21'
_symmetry_Int_Tables_number      4
_space_group_name_Hall           'P 2yb'
loop_
_symmetry_equiv_pos_site_id
_symmetry_equiv_pos_as_xyz
1 x,y,z
2 -x,1/2+y,-z
_cell_length_a                   9.1440(18)
_cell_length_b                   8.9795(18)
_cell_length_c                   11.155(2)
_cell_angle_alpha                90
_cell_angle_beta                 91.71(3)
_cell_angle_gamma                90
_cell_volume                     915.513
_cell_formula_units_Z            2
loop_
_atom_site_label
_atom_site_type_symbol
_atom_site_fract_x
_atom_site_fract_y
_atom_site_fract_z
S1 S 0.04939(6) 0.08188(7) 0.97594(5)
O1 O 0.40499(18) 0.4469(2) 1.04302(14)
O2 O 0.49882(16) 0.39135(17) 0.86597(12)
O3 O 0.91938(16) 0.1977(2) 0.55724(13)
O4 O 0.18765(16) 0.32383(18) 0.64266(13)
H1 H 0.1039 0.3224 0.6142
C1 C 0.4629(2) 0.2997(3) 0.76046(18)
H2 H 0.4331 0.3644 0.6933
C2 C 0.5969(2) 0.2107(3) 0.72716(18)
H3 H 0.6417 0.1694 0.8008
C3 C 0.7136(2) 0.3004(3) 0.66239(18)
H4 H 0.6626 0.3631 0.6027
C4 C 0.7967(2) 0.1829(3) 0.59476(17)
C5 C 0.7060(2) 0.0445(3) 0.58329(18)
H5 H 0.7543 -0.0377 0.6246
H6 H 0.6912 0.0179 0.4995
C6 C 0.5585(2) 0.0786(3) 0.64020(16)
H7 H 0.5302 -0.0075 0.6882
C7 C 0.4340(2) 0.1140(2) 0.55139(18)
C8 C 0.2832(2) 0.0771(3) 0.59423(16)
H8 H 0.2848 -0.0238 0.6255
H9 H 0.2155 0.0786 0.5256
C9 C 0.2240(2) 0.1800(2) 0.69042(17)
H10 H 0.1347 0.1352 0.7209
C10 C 0.3321(2) 0.2032(3) 0.79637(17)
H11 H 0.3689 0.1057 0.8229
C11 C 0.2687(2) 0.2837(3) 0.90428(19)
H12 H 0.1869 0.3466 0.8765
C12 C 0.3934(2) 0.3822(3) 0.94850(19)
C13 C 0.8112(3) 0.4020(3) 0.7393(2)
H13 H 0.8578 0.3450 0.8024
H14 H 0.7529 0.4791 0.7735
H15 H 0.8843 0.4460 0.6905
C14 C 0.4549(3) 0.1725(3) 0.44343(19)
H16 H 0.3752 0.1918 0.3920
H17 H 0.5491 0.1941 0.4195
C15 C 0.2176(2) 0.1837(3) 1.00654(18)
H18 H 0.2046 0.2452 1.0769
H19 H 0.2946 0.1126 1.0259
C16 C 0.1050(2) -0.0728(3) 0.88908(19)
C17 C 0.2328(3) -0.1516(3) 0.9105(2)
H20 H 0.2963 -0.1244 0.9734
C18 C 0.2662(3) -0.2716(3) 0.8380(2)
H21 H 0.3540 -0.3222 0.8510
C19 C 0.1708(3) -0.3173(3) 0.7464(2)
H22 H 0.1939 -0.3976 0.6979
C20 C 0.0415(3) -0.2415(3) 0.7288(2)
H23 H -0.0252 -0.2734 0.6697
C21 C 0.0093(3) -0.1190(3) 0.7975(2)
H24 H -0.0772 -0.0668 0.7824
loop_
_geom_bond_atom_site_label_1
_geom_bond_atom_site_label_2
_geom_bond_site_symmetry_1
_geom_bond_site_symmetry_2
S1 C15 1_555 1_555
O1 C12 1_555 1_555
O2 C1 1_555 1_555
O3 C4 1_555 1_555
O4 H1 1_555 1_555
C1 H2 1_555 1_555
C2 C1 1_555 1_555
H3 C2 1_555 1_555
C3 C2 1_555 1_555
H4 C3 1_555 1_555
C4 C3 1_555 1_555
C5 C4 1_555 1_555
H5 C5 1_555 1_555
H6 C5 1_555 1_555
C6 C2 1_555 1_555
H7 C6 1_555 1_555
C7 C6 1_555 1_555
C8 C7 1_555 1_555
H8 C8 1_555 1_555
H9 C8 1_555 1_555
C9 O4 1_555 1_555
H10 C9 1_555 1_555
C10 C1 1_555 1_555
H11 C10 1_555 1_555
C11 C10 1_555 1_555
H12 C11 1_555 1_555
C12 O2 1_555 1_555
C13 C3 1_555 1_555
H13 C13 1_555 1_555
H14 C13 1_555 1_555
H15 C13 1_555 1_555
C14 C7 1_555 1_555
H16 C14 1_555 1_555
H17 C14 1_555 1_555
C15 C11 1_555 1_555
H18 C15 1_555 1_555
H19 C15 1_555 1_555
C16 S1 1_555 1_555
C17 C16 1_555 1_555
H20 C17 1_555 1_555
C18 C17 1_555 1_555
H21 C18 1_555 1_555
C19 C18 1_555 1_555
H22 C19 1_555 1_555
C20 C19 1_555 1_555
H23 C20 1_555 1_555
C21 C16 1_555 1_555
H24 C21 1_555 1_555
C5 C6 1_555 1_555
C8 C9 1_555 1_555
C9 C10 1_555 1_555
C11 C12 1_555 1_555
C20 C21 1_555 1_555

#END
