
#######################################################################
#
#                 Cambridge Crystallographic Data Centre
#                                CCDC 
#
#######################################################################
#
# If this CIF has been generated from an entry in the Cambridge 
# Structural Database, then it will include bibliographic, chemical, 
# crystal, experimental, refinement or atomic coordinate data resulting 
# from the CCDC's data processing and validation procedures.
#
#######################################################################

data_ABEJIC
_chemical_formula_moiety         'C30 H18'
_chemical_name_systematic        
1,1'-(1,2-Phenylenediethyne-2,1-diyl)dinaphthalene
_symmetry_cell_setting           triclinic
_symmetry_space_group_name_H-M   'P -1'
_symmetry_Int_Tables_number      2
_space_group_name_Hall           '-P 1'
loop_
_symmetry_equiv_pos_site_id
_symmetry_equiv_pos_as_xyz
1 x,y,z
2 -x,-y,-z
_cell_length_a                   10.4374(4)
_cell_length_b                   10.5171(4)
_cell_length_c                   11.0370(5)
_cell_angle_alpha                104.297(4)
_cell_angle_beta                 97.447(4)
_cell_angle_gamma                117.915(4)
_cell_volume                     993.965
_exptl_crystal_colour            colorless
_exptl_crystal_description       needle
_cell_formula_units_Z            2
loop_
_atom_site_label
_atom_site_type_symbol
_atom_site_fract_x
_atom_site_fract_y
_atom_site_fract_z
C1 C 0.17489(9) -0.13587(9) 0.22917(8)
C2 C 0.28047(10) -0.06956(10) 0.35433(9)
H1 H 0.3551 0.0369 0.3868
C3 C 0.27566(11) -0.15770(11) 0.42869(9)
H2 H 0.3467 -0.1118 0.5124
C4 C 0.16563(11) -0.31656(11) 0.38164(10)
H3 H 0.1632 -0.3768 0.4338
C5 C 0.06265(10) -0.38386(10) 0.26140(9)
H4 H -0.0106 -0.4907 0.2307
C6 C 0.06387(9) -0.29591(9) 0.18174(9)
C7 C -0.04127(10) -0.36293(10) 0.05645(9)
H5 H -0.1170 -0.4690 0.0251
C8 C -0.03485(10) -0.27640(10) -0.01994(9)
H6 H -0.1050 -0.3234 -0.1042
C9 C 0.07514(10) -0.11813(10) 0.02563(9)
H7 H 0.0792 -0.0597 -0.0287
C10 C 0.17699(9) -0.04722(9) 0.14839(8)
C11 C 0.28290(10) 0.11547(10) 0.19752(9)
C12 C 0.37098(10) 0.25177(10) 0.24456(9)
C13 C 0.47820(10) 0.41384(10) 0.30055(8)
C14 C 0.42960(10) 0.51858(10) 0.32667(9)
H8 H 0.3244 0.4818 0.3075
C15 C 0.53347(11) 0.67559(10) 0.38028(9)
H9 H 0.4991 0.7456 0.3971
C16 C 0.68798(10) 0.73063(10) 0.40940(9)
H10 H 0.7588 0.8381 0.4463
C17 C 0.73875(10) 0.62877(10) 0.38459(9)
H11 H 0.8443 0.6671 0.4043
C18 C 0.63551(10) 0.46975(9) 0.33061(8)
C19 C 0.68702(9) 0.36387(10) 0.30657(8)
C20 C 0.72865(9) 0.27358(10) 0.28698(8)
C21 C 0.77591(10) 0.16411(10) 0.26551(8)
C22 C 0.92466(10) 0.21020(10) 0.32051(9)
H12 H 0.9960 0.3155 0.3698
C23 C 0.97154(10) 0.10276(11) 0.30428(9)
H13 H 1.0736 0.1360 0.3436
C24 C 0.87049(10) -0.04941(11) 0.23205(9)
H14 H 0.9031 -0.1209 0.2225
C25 C 0.71763(10) -0.10143(10) 0.17135(9)
C26 C 0.61271(11) -0.25752(10) 0.09275(10)
H15 H 0.6451 -0.3293 0.0792
C27 C 0.46528(11) -0.30586(10) 0.03622(10)
H16 H 0.3966 -0.4104 -0.0171
C28 C 0.41511(10) -0.20083(10) 0.05699(9)
H17 H 0.3122 -0.2356 0.0190
C29 C 0.51407(10) -0.04870(10) 0.13174(9)
H18 H 0.4791 0.0210 0.1449
C30 C 0.66802(9) 0.00516(9) 0.18939(8)
loop_
_geom_bond_atom_site_label_1
_geom_bond_atom_site_label_2
_geom_bond_site_symmetry_1
_geom_bond_site_symmetry_2
C1 C2 1_555 1_555
C2 H1 1_555 1_555
C3 C2 1_555 1_555
H2 C3 1_555 1_555
C4 C3 1_555 1_555
H3 C4 1_555 1_555
C5 C4 1_555 1_555
H4 C5 1_555 1_555
C6 C1 1_555 1_555
C7 C6 1_555 1_555
H5 C7 1_555 1_555
C8 C7 1_555 1_555
H6 C8 1_555 1_555
C9 C8 1_555 1_555
H7 C9 1_555 1_555
C10 C1 1_555 1_555
C11 C10 1_555 1_555
C12 C11 1_555 1_555
C13 C12 1_555 1_555
C14 C13 1_555 1_555
H8 C14 1_555 1_555
C15 C14 1_555 1_555
H9 C15 1_555 1_555
C16 C15 1_555 1_555
H10 C16 1_555 1_555
C17 C16 1_555 1_555
H11 C17 1_555 1_555
C18 C13 1_555 1_555
C19 C18 1_555 1_555
C20 C19 1_555 1_555
C21 C20 1_555 1_555
C22 C21 1_555 1_555
H12 C22 1_555 1_555
C23 C22 1_555 1_555
H13 C23 1_555 1_555
C24 C23 1_555 1_555
H14 C24 1_555 1_555
C25 C24 1_555 1_555
C26 C25 1_555 1_555
H15 C26 1_555 1_555
C27 C26 1_555 1_555
H16 C27 1_555 1_555
C28 C27 1_555 1_555
H17 C28 1_555 1_555
C29 C28 1_555 1_555
H18 C29 1_555 1_555
C30 C21 1_555 1_555
C5 C6 1_555 1_555
C9 C10 1_555 1_555
C17 C18 1_555 1_555
C25 C30 1_555 1_555
C29 C30 1_555 1_555

#END
