
#######################################################################
#
#                 Cambridge Crystallographic Data Centre
#                                CCDC 
#
#######################################################################
#
# If this CIF has been generated from an entry in the Cambridge 
# Structural Database, then it will include bibliographic, chemical, 
# crystal, experimental, refinement or atomic coordinate data resulting 
# from the CCDC's data processing and validation procedures.
#
#######################################################################

data_ABEJUN
_chemical_name_common            
'6-Ethenyldecahydro-5-hydroxy-4,6,9,10-tetramethyl-1-oxo-3a,9-propano-3aH-cyclopentacycloocten-8-yl (2-(diethylammonio)ethylsulfanyl)acetate (E)-3-carboxyprop-2-enoate methanol solvate'
_chemical_formula_moiety         'C28 H48 N1 O4 S1 1+,C4 H3 O4 1-,C1 H4 O1'
_chemical_name_systematic        'Tiamulin hydrogen fumarate methanol solvate'
_chemical_properties_biological  
'potent activity against drug-resistant Gram-positive bacteria; agent used in veterinary medicine'
_symmetry_cell_setting           orthorhombic
_symmetry_space_group_name_H-M   'P 21 21 21'
_symmetry_Int_Tables_number      19
_space_group_name_Hall           'P 2ac 2ab'
loop_
_symmetry_equiv_pos_site_id
_symmetry_equiv_pos_as_xyz
1 x,y,z
2 1/2-x,-y,1/2+z
3 -x,1/2+y,1/2-z
4 1/2+x,1/2-y,-z
_cell_length_a                   9.9350(10)
_cell_length_b                   10.0720(10)
_cell_length_c                   34.987(7)
_cell_angle_alpha                90
_cell_angle_beta                 90
_cell_angle_gamma                90
_cell_volume                     3500.99
_exptl_crystal_colour            'pale yellow'
_exptl_crystal_description       block
_cell_formula_units_Z            4
_exptl_crystal_recrystallization_method chloroform-methanol
loop_
_atom_site_label
_atom_site_type_symbol
_atom_site_fract_x
_atom_site_fract_y
_atom_site_fract_z
S1 S 0.87867(8) 0.96982(7) 0.055561(18)
O1 O 0.14263(13) 0.66573(17) 0.10435(4)
H1 H 0.1140 0.6660 0.1263
O2 O 0.73251(13) 0.66680(15) 0.07798(4)
O3 O 0.68992(17) 0.72217(19) 0.01662(4)
O4 O 0.5827(2) 0.20171(19) 0.14084(6)
N1 N 0.89524(18) 0.94612(18) 0.17351(5)
C1 C 0.29982(19) 0.5219(2) 0.06986(5)
H3 H 0.3638 0.5650 0.0525
C2 C 0.27900(19) 0.6179(2) 0.10414(6)
H4 H 0.2929 0.5670 0.1277
C3 C 0.37697(19) 0.73605(19) 0.10478(5)
C4 C 0.5241(2) 0.6933(2) 0.11157(6)
H5 H 0.5767 0.7738 0.1144
H6 H 0.5267 0.6480 0.1360
C5 C 0.59803(19) 0.6049(2) 0.08286(6)
H7 H 0.5501 0.6069 0.0584
C6 C 0.6203(2) 0.4578(2) 0.09508(5)
C7 C 0.6616(2) 0.3672(2) 0.06112(7)
H8 H 0.6705 0.2778 0.0719
C8 C 0.5504(3) 0.3571(3) 0.03149(7)
H9 H 0.5787 0.2969 0.0114
H10 H 0.5365 0.4438 0.0201
C9 C 0.4176(3) 0.3083(2) 0.04799(7)
H11 H 0.4285 0.2165 0.0558
H12 H 0.3501 0.3104 0.0280
C10 C 0.3652(2) 0.3891(2) 0.08253(6)
C11 C 0.4854(2) 0.4006(2) 0.11061(6)
H13 H 0.4562 0.4616 0.1308
C12 C 0.4882(3) 0.2625(3) 0.12889(7)
C13 C 0.3464(3) 0.2110(3) 0.12973(10)
H14 H 0.3126 0.2095 0.1557
H15 H 0.3427 0.1215 0.1195
C14 C 0.2633(3) 0.3046(2) 0.10530(8)
H16 H 0.2074 0.3609 0.1213
H17 H 0.2057 0.2550 0.0881
C15 C 0.1705(2) 0.4985(3) 0.04691(7)
H18 H 0.1359 0.5821 0.0381
H19 H 0.1048 0.4561 0.0629
H20 H 0.1898 0.4428 0.0253
C16 C 0.3419(2) 0.8246(2) 0.13910(6)
H21 H 0.4089 0.8927 0.1418
H22 H 0.3395 0.7717 0.1619
H23 H 0.2554 0.8648 0.1351
C17 C 0.3611(2) 0.8172(2) 0.06833(6)
H24 H 0.2807 0.8062 0.0551
C18 C 0.4464(3) 0.8999(3) 0.05356(8)
H25 H 0.5286 0.9150 0.0655
H26 H 0.4255 0.9441 0.0310
C19 C 0.7271(2) 0.4544(3) 0.12702(6)
H27 H 0.6916 0.4958 0.1496
H28 H 0.8060 0.5013 0.1188
H29 H 0.7502 0.3639 0.1326
C20 C 0.7965(3) 0.3972(3) 0.04257(8)
H30 H 0.8279 0.3200 0.0292
H31 H 0.8605 0.4213 0.0619
H32 H 0.7864 0.4694 0.0249
C21 C 0.7607(2) 0.7244(2) 0.04417(6)
C22 C 0.8957(2) 0.7937(2) 0.04616(6)
H33 H 0.9428 0.7813 0.0221
H34 H 0.9494 0.7535 0.0662
C23 C 0.8254(2) 0.9765(3) 0.10456(6)
H35 H 0.7940 1.0656 0.1103
H36 H 0.7504 0.9161 0.1082
C24 C 0.9358(2) 0.9405(2) 0.13203(6)
H37 H 1.0110 1.0004 0.1281
H38 H 0.9666 0.8514 0.1262
C25 C 0.8523(3) 1.0808(2) 0.18702(7)
H39 H 0.8362 1.0769 0.2143
H40 H 0.7678 1.1036 0.1748
C26 C 0.9527(3) 1.1889(3) 0.17908(9)
H41 H 1.0378 1.1658 0.1903
H42 H 0.9213 1.2708 0.1899
H43 H 0.9633 1.1992 0.1520
C27 C 0.7919(3) 0.8430(3) 0.18326(7)
H44 H 0.8095 0.7634 0.1685
H45 H 0.7034 0.8755 0.1762
C28 C 0.7927(3) 0.8088(3) 0.22505(7)
H46 H 0.8801 0.7763 0.2321
H47 H 0.7264 0.7417 0.2300
H48 H 0.7722 0.8867 0.2398
H55 H 0.9721(16) 0.934(3) 0.1849(7)
O5 O 0.22235(15) 0.76743(15) 0.23423(4)
O6 O 0.13007(15) 0.95231(16) 0.21242(5)
O7 O 0.62163(18) 0.99755(19) 0.30143(5)
O8 O 0.56269(19) 1.12903(17) 0.25349(6)
H2 H 0.6335 1.1662 0.2590
C29 C 0.2230(2) 0.8903(2) 0.22768(6)
C30 C 0.3454(2) 0.9699(2) 0.23789(6)
H49 H 0.3638 1.0441 0.2230
C31 C 0.4283(2) 0.9445(2) 0.26577(6)
H50 H 0.4116 0.8694 0.2805
C32 C 0.5459(2) 1.0254(2) 0.27571(6)
O9 O 1.05658(17) 0.66125(15) 0.17969(4)
H51 H 1.1035 0.6965 0.1961
C33 C 1.0254(3) 0.5301(3) 0.19100(9)
H52 H 0.9849 0.4836 0.1700
H53 H 0.9637 0.5323 0.2121
H54 H 1.1064 0.4852 0.1986
loop_
_geom_bond_atom_site_label_1
_geom_bond_atom_site_label_2
_geom_bond_site_symmetry_1
_geom_bond_site_symmetry_2
S1 C22 1_555 1_555
O1 H1 1_555 1_555
O2 C5 1_555 1_555
O3 C21 1_555 1_555
O4 C12 1_555 1_555
O5 C29 1_555 1_555
O6 C29 1_555 1_555
O7 C32 1_555 1_555
O8 H2 1_555 1_555
N1 C24 1_555 1_555
C1 H3 1_555 1_555
C2 O1 1_555 1_555
H4 C2 1_555 1_555
C3 C2 1_555 1_555
C4 C3 1_555 1_555
H5 C4 1_555 1_555
H6 C4 1_555 1_555
C5 C4 1_555 1_555
H7 C5 1_555 1_555
C6 C5 1_555 1_555
C7 C6 1_555 1_555
H8 C7 1_555 1_555
C8 C7 1_555 1_555
H9 C8 1_555 1_555
H10 C8 1_555 1_555
C9 C8 1_555 1_555
H11 C9 1_555 1_555
H12 C9 1_555 1_555
C10 C1 1_555 1_555
C11 C6 1_555 1_555
H13 C11 1_555 1_555
C12 C11 1_555 1_555
C13 C12 1_555 1_555
H14 C13 1_555 1_555
H15 C13 1_555 1_555
C14 C10 1_555 1_555
H16 C14 1_555 1_555
H17 C14 1_555 1_555
C15 C1 1_555 1_555
H18 C15 1_555 1_555
H19 C15 1_555 1_555
H20 C15 1_555 1_555
C16 C3 1_555 1_555
H21 C16 1_555 1_555
H22 C16 1_555 1_555
H23 C16 1_555 1_555
C17 C3 1_555 1_555
H24 C17 1_555 1_555
C18 C17 1_555 1_555
H25 C18 1_555 1_555
H26 C18 1_555 1_555
C19 C6 1_555 1_555
H27 C19 1_555 1_555
H28 C19 1_555 1_555
H29 C19 1_555 1_555
C20 C7 1_555 1_555
H30 C20 1_555 1_555
H31 C20 1_555 1_555
H32 C20 1_555 1_555
C21 O2 1_555 1_555
C22 C21 1_555 1_555
H33 C22 1_555 1_555
H34 C22 1_555 1_555
C23 S1 1_555 1_555
H35 C23 1_555 1_555
H36 C23 1_555 1_555
C24 C23 1_555 1_555
H37 C24 1_555 1_555
H38 C24 1_555 1_555
C25 N1 1_555 1_555
H39 C25 1_555 1_555
H40 C25 1_555 1_555
C26 C25 1_555 1_555
H41 C26 1_555 1_555
H42 C26 1_555 1_555
H43 C26 1_555 1_555
C27 N1 1_555 1_555
H44 C27 1_555 1_555
H45 C27 1_555 1_555
C28 C27 1_555 1_555
H46 C28 1_555 1_555
H47 C28 1_555 1_555
H48 C28 1_555 1_555
C29 C30 1_555 1_555
C30 H49 1_555 1_555
C31 C30 1_555 1_555
H50 C31 1_555 1_555
C32 O8 1_555 1_555
O9 H51 1_555 1_555
C33 O9 1_555 1_555
H52 C33 1_555 1_555
H53 C33 1_555 1_555
H54 C33 1_555 1_555
H55 N1 1_555 1_555
C1 C2 1_555 1_555
C9 C10 1_555 1_555
C10 C11 1_555 1_555
C13 C14 1_555 1_555
C31 C32 1_555 1_555

#END
