
#######################################################################
#
#                 Cambridge Crystallographic Data Centre
#                                CCDC 
#
#######################################################################
#
# If this CIF has been generated from an entry in the Cambridge 
# Structural Database, then it will include bibliographic, chemical, 
# crystal, experimental, refinement or atomic coordinate data resulting 
# from the CCDC's data processing and validation procedures.
#
#######################################################################

data_ABEKOI
_chemical_compound_source        'Gentiana lutea'
_chemical_name_common            1,3-Dihydroxy-7-methoxyxanthone
_chemical_formula_moiety         'C14 H10 O5'
_chemical_name_systematic        Isogentisin
_chemical_properties_biological  'potent monoamine oxidase inhibition'
_symmetry_cell_setting           triclinic
_symmetry_space_group_name_H-M   'P -1'
_symmetry_Int_Tables_number      2
_space_group_name_Hall           '-P 1'
loop_
_symmetry_equiv_pos_site_id
_symmetry_equiv_pos_as_xyz
1 x,y,z
2 -x,-y,-z
_cell_length_a                   7.2287(14)
_cell_length_b                   8.6286(15)
_cell_length_c                   9.0370(16)
_cell_angle_alpha                97.896(5)
_cell_angle_beta                 105.962(6)
_cell_angle_gamma                97.698(5)
_cell_volume                     527.999
_exptl_crystal_colour            yellow
_exptl_crystal_description       needle
_cell_formula_units_Z            2
loop_
_atom_site_label
_atom_site_type_symbol
_atom_site_fract_x
_atom_site_fract_y
_atom_site_fract_z
C1 C 0.9594(4) 0.1431(4) 0.6659(4)
C2 C 1.1318(5) 0.3728(4) 0.8682(4)
C3 C 1.3211(4) 0.5934(3) 1.0799(3)
C4 C 1.3865(5) 0.4805(4) 1.1671(3)
O1 O 1.1236(3) 0.6399(3) 0.8389(2)
O2 O 0.9766(3) -0.1150(2) 0.7128(2)
O3 O 0.9354(3) 0.3977(3) 0.6125(3)
O4 O 1.3262(3) 0.3199(2) 1.1131(2)
C5 C 1.5219(5) 0.7988(4) 1.2928(4)
C6 C 1.3905(5) 0.7550(4) 1.1453(4)
C7 C 1.1864(5) 0.5423(4) 0.9226(4)
C8 C 1.2023(4) 0.2669(4) 0.9653(3)
C9 C 1.0311(5) 0.0431(4) 0.7678(4)
C10 C 1.5887(5) 0.6835(4) 1.3786(4)
O5 O 1.6008(3) 0.9514(2) 1.3672(2)
C11 C 1.1517(4) 0.1043(4) 0.9191(4)
C12 C 1.0072(4) 0.3046(4) 0.7146(4)
C13 C 1.5215(5) 0.5249(4) 1.3170(3)
C14 C 1.5317(5) 1.0763(4) 1.2928(4)
H1 H 1.0557(3) -0.1619(2) 0.7637(2)
H2 H 0.9795(3) 0.4911(3) 0.6531(3)
H3 H 1.6017(5) 1.1812(4) 1.3599(4)
H4 H 1.5570(5) 1.0684(4) 1.1889(4)
H5 H 1.3881(5) 1.0671(4) 1.2774(4)
H6 H 1.3444(5) 0.8384(4) 1.0846(4)
H7 H 0.8731(4) 0.0971(4) 0.5572(4)
H8 H 1.2004(4) 0.0320(4) 0.9927(4)
H9 H 1.6857(5) 0.7167(4) 1.4851(4)
H10 H 1.5681(5) 0.4422(4) 1.3781(3)
loop_
_geom_bond_atom_site_label_1
_geom_bond_atom_site_label_2
_geom_bond_site_symmetry_1
_geom_bond_site_symmetry_2
C1 C9 1_555 1_555
C2 C7 1_555 1_555
C3 C4 1_555 1_555
C4 O4 1_555 1_555
O1 C7 1_555 1_555
O2 C9 1_555 1_555
O3 C12 1_555 1_555
O4 C8 1_555 1_555
C5 C6 1_555 1_555
C6 C3 1_555 1_555
C7 C3 1_555 1_555
C8 C2 1_555 1_555
C9 C11 1_555 1_555
C10 C5 1_555 1_555
O5 C5 1_555 1_555
C11 C8 1_555 1_555
C12 C1 1_555 1_555
C13 C4 1_555 1_555
C14 O5 1_555 1_555
H1 O2 1_555 1_555
H2 O3 1_555 1_555
H3 C14 1_555 1_555
H4 C14 1_555 1_555
H5 C14 1_555 1_555
H6 C6 1_555 1_555
H7 C1 1_555 1_555
H8 C11 1_555 1_555
H9 C10 1_555 1_555
H10 C13 1_555 1_555
C2 C12 1_555 1_555
C10 C13 1_555 1_555

#END
