
#######################################################################
#
#                 Cambridge Crystallographic Data Centre
#                                CCDC 
#
#######################################################################
#
# If this CIF has been generated from an entry in the Cambridge 
# Structural Database, then it will include bibliographic, chemical, 
# crystal, experimental, refinement or atomic coordinate data resulting 
# from the CCDC's data processing and validation procedures.
#
#######################################################################

data_ABEKUO
_chemical_formula_moiety         'C16 H15 N3 O3'
_chemical_name_systematic        
'(E)-((2-(Phenyldiazenyl)phenyl)ethylideneaminooxy)acetic acid'
_symmetry_cell_setting           monoclinic
_symmetry_space_group_name_H-M   'P 2/c'
_symmetry_Int_Tables_number      13
_space_group_name_Hall           '-P 2yc'
loop_
_symmetry_equiv_pos_site_id
_symmetry_equiv_pos_as_xyz
1 x,y,z
2 x,-y,1/2+z
3 -x,-y,-z
4 -x,y,1/2-z
_cell_length_a                   16.927(2)
_cell_length_b                   4.5244(5)
_cell_length_c                   19.673(2)
_cell_angle_alpha                90
_cell_angle_beta                 105.828(5)
_cell_angle_gamma                90
_cell_volume                     1449.52
_exptl_crystal_colour            colorless
_exptl_crystal_description       block
_chemical_melting_point          '420-421 K'
_cell_formula_units_Z            4
_exptl_crystal_recrystallization_method ethanol
loop_
_atom_site_label
_atom_site_type_symbol
_atom_site_fract_x
_atom_site_fract_y
_atom_site_fract_z
O1 O 0.46906(14) 0.7971(5) 0.54731(11)
O2 O 0.55689(14) 0.4231(6) 0.58201(11)
O3 O 0.57470(13) 0.5937(6) 0.72230(11)
N1 N 0.66025(15) 0.5730(7) 0.73040(13)
N2 N 0.80586(15) 0.6485(6) 0.90340(12)
N3 N 0.85988(16) 0.7732(6) 0.95175(13)
C1 C 0.52388(19) 0.6478(8) 0.59434(16)
C2 C 0.5416(2) 0.7907(8) 0.66556(16)
C3 C 0.69242(19) 0.4093(7) 0.78678(15)
C4 C 0.6478(2) 0.2676(8) 0.83366(17)
C5 C 0.78107(19) 0.3522(7) 0.79952(15)
C6 C 0.83809(18) 0.4609(7) 0.85880(14)
C7 C 0.9206(2) 0.3874(8) 0.87194(17)
C8 C 0.9458(2) 0.2030(8) 0.82658(17)
C9 C 0.8899(2) 0.0953(8) 0.76677(17)
C10 C 0.8080(2) 0.1681(8) 0.75322(16)
C11 C 0.82756(19) 0.9473(7) 0.99800(14)
C12 C 0.8830(2) 1.1286(7) 1.04418(15)
C13 C 0.8578(2) 1.2983(8) 1.09284(16)
C14 C 0.7775(2) 1.2874(8) 1.09551(16)
C15 C 0.7221(2) 1.1054(8) 1.04992(17)
C16 C 0.7466(2) 0.9344(7) 1.00096(16)
H1 H 0.4617 0.7184 0.5085
H2 H 0.5801 0.9515 0.6676
H3 H 0.4912 0.8748 0.6715
H4 H 0.5898 0.2978 0.8145
H5 H 0.6653 0.3540 0.8799
H6 H 0.6593 0.0595 0.8368
H7 H 0.9587 0.4631 0.9115
H8 H 1.0009 0.1502 0.8362
H9 H 0.9076 -0.0262 0.7357
H10 H 0.7705 0.0944 0.7131
H11 H 0.9373 1.1364 1.0425
H12 H 0.8952 1.4201 1.1238
H13 H 0.7605 1.4027 1.1281
H14 H 0.6679 1.0976 1.0521
H15 H 0.7091 0.8118 0.9703
loop_
_geom_bond_atom_site_label_1
_geom_bond_atom_site_label_2
_geom_bond_site_symmetry_1
_geom_bond_site_symmetry_2
O1 C1 1_555 1_555
O2 C1 1_555 1_555
O3 N1 1_555 1_555
N1 C3 1_555 1_555
N2 N3 1_555 1_555
N3 C11 1_555 1_555
C1 C2 1_555 1_555
C2 O3 1_555 1_555
C3 C4 1_555 1_555
C4 H4 1_555 1_555
C5 C3 1_555 1_555
C6 N2 1_555 1_555
C7 C6 1_555 1_555
C8 C7 1_555 1_555
C9 C8 1_555 1_555
C10 C5 1_555 1_555
C11 C12 1_555 1_555
C12 C13 1_555 1_555
C13 C14 1_555 1_555
C14 C15 1_555 1_555
C15 C16 1_555 1_555
C16 C11 1_555 1_555
H1 O1 1_555 1_555
H2 C2 1_555 1_555
H3 C2 1_555 1_555
H5 C4 1_555 1_555
H6 C4 1_555 1_555
H7 C7 1_555 1_555
H8 C8 1_555 1_555
H9 C9 1_555 1_555
H10 C10 1_555 1_555
H11 C12 1_555 1_555
H12 C13 1_555 1_555
H13 C14 1_555 1_555
H14 C15 1_555 1_555
H15 C16 1_555 1_555
C5 C6 1_555 1_555
C9 C10 1_555 1_555

#END
