
#######################################################################
#
#                 Cambridge Crystallographic Data Centre
#                                CCDC 
#
#######################################################################
#
# If this CIF has been generated from an entry in the Cambridge 
# Structural Database, then it will include bibliographic, chemical, 
# crystal, experimental, refinement or atomic coordinate data resulting 
# from the CCDC's data processing and validation procedures.
#
#######################################################################

data_ABEKID
_chemical_formula_moiety         'C54 H48 N1 O2 1+,C4 H6 N1 O4 1-'
_chemical_name_systematic        
"(S)-(4'-Methyl-3,3',4',5,5',6'-hexahydro-2'H-spiro[dinaphtho[2,1-c:1',2'-e]azepine-4,1'-pyridinium]-2,6-diyl)bis(diphenylmethanol) methyl 2-nitropropanoate unknown solvate"
_symmetry_cell_setting           orthorhombic
_symmetry_space_group_name_H-M   'P 21 21 21'
_symmetry_Int_Tables_number      19
_space_group_name_Hall           'P 2ac 2ab'
loop_
_symmetry_equiv_pos_site_id
_symmetry_equiv_pos_as_xyz
1 x,y,z
2 1/2+x,1/2-y,-z
3 -x,1/2+y,1/2-z
4 1/2-x,-y,1/2+z
_cell_length_a                   12.455(5)
_cell_length_b                   15.315(6)
_cell_length_c                   32.002(13)
_cell_angle_alpha                90
_cell_angle_beta                 90
_cell_angle_gamma                90
_cell_volume                     6104.33
_exptl_crystal_colour            colorless
_exptl_crystal_description       block
_cell_formula_units_Z            4
_exptl_crystal_recrystallization_method 'cyclopentyl methyl ether/diethyl ether'
loop_
_atom_site_label
_atom_site_type_symbol
_atom_site_fract_x
_atom_site_fract_y
_atom_site_fract_z
O1 O 0.4403(4) 0.4649(4) 0.28555(14)
O2 O 0.3420(5) 0.8988(3) 0.35111(15)
N1 N 0.3558(4) 0.6606(4) 0.33025(15)
C1 C 0.4873(6) 0.6824(4) 0.41290(18)
C2 C 0.4087(5) 0.7378(4) 0.39962(19)
C3 C 0.4047(6) 0.8288(5) 0.4119(2)
C4 C 0.4874(7) 0.8586(5) 0.4371(3)
C5 C 0.5755(7) 0.8063(5) 0.4475(3)
C6 C 0.6673(8) 0.8428(7) 0.4682(3)
C7 C 0.7551(9) 0.7961(8) 0.4750(3)
C8 C 0.7598(7) 0.7085(8) 0.4624(3)
C9 C 0.6731(6) 0.6693(6) 0.4440(3)
C10 C 0.5806(6) 0.7167(5) 0.4350(2)
C11 C 0.4857(6) 0.5835(4) 0.40468(19)
C12 C 0.4857(6) 0.5565(4) 0.36340(19)
C13 C 0.5054(7) 0.4627(5) 0.3550(2)
C14 C 0.5074(8) 0.4076(5) 0.3862(3)
C15 C 0.4985(9) 0.4335(5) 0.4293(3)
C16 C 0.5034(10) 0.3725(6) 0.4622(3)
C17 C 0.4962(10) 0.3972(6) 0.5027(3)
C18 C 0.4851(10) 0.4892(6) 0.5126(3)
C19 C 0.4841(8) 0.5496(6) 0.4813(2)
C20 C 0.4909(8) 0.5255(5) 0.4392(2)
C21 C 0.3202(5) 0.6942(4) 0.37205(19)
C22 C 0.3537(5) 0.7319(5) 0.29652(19)
C23 C 0.2388(6) 0.7656(6) 0.2874(3)
C24 C 0.1618(6) 0.6919(6) 0.2766(3)
C25 C 0.1635(6) 0.6261(6) 0.3126(3)
C26 C 0.2795(6) 0.5879(5) 0.3187(3)
C27 C 0.4715(5) 0.6249(5) 0.33063(19)
C28 C 0.0492(8) 0.7333(8) 0.2724(4)
C29 C 0.3226(7) 0.8929(5) 0.3963(3)
C30 C 0.3323(9) 0.9849(6) 0.4162(3)
C31 C 0.2837(10) 1.0033(7) 0.4528(4)
C32 C 0.2962(11) 1.0847(8) 0.4728(5)
C33 C 0.3472(12) 1.1506(7) 0.4509(5)
C34 C 0.3951(12) 1.1361(7) 0.4131(4)
C35 C 0.3876(10) 1.0513(6) 0.3946(4)
C36 C 0.2053(7) 0.8649(6) 0.4016(3)
C37 C 0.1283(7) 0.8981(6) 0.3749(3)
C38 C 0.0222(8) 0.8712(7) 0.3795(3)
C39 C -0.0084(7) 0.8199(7) 0.4098(3)
C40 C 0.0666(7) 0.7858(6) 0.4374(3)
C41 C 0.1722(7) 0.8091(6) 0.4325(3)
C42 C 0.5301(7) 0.4360(5) 0.3086(3)
C43 C 0.6352(7) 0.4784(6) 0.2934(3)
C44 C 0.7106(8) 0.5151(8) 0.3185(4)
C45 C 0.8041(9) 0.5518(9) 0.3039(4)
C46 C 0.8126(9) 0.5564(9) 0.2572(4)
C47 C 0.7480(7) 0.5193(7) 0.2349(4)
C48 C 0.6545(6) 0.4823(5) 0.2514(3)
H1 H 0.4513 0.4567 0.2600
H2 H 0.4047 0.9169 0.3468
H3 H 0.4841 0.9165 0.4477
H4 H 0.6650 0.9018 0.4772
H5 H 0.8151 0.8221 0.4885
H6 H 0.8238 0.6760 0.4666
H7 H 0.6760 0.6089 0.4373
H8 H 0.5153 0.3472 0.3801
H9 H 0.5120 0.3124 0.4557
H10 H 0.4984 0.3548 0.5244
H11 H 0.4785 0.5074 0.5409
H12 H 0.4786 0.6098 0.4883
H13 H 0.2890 0.6449 0.3879
H14 H 0.2622 0.7374 0.3675
H15 H 0.3850 0.7083 0.2704
H16 H 0.3990 0.7814 0.3057
H17 H 0.2115 0.7971 0.3122
H18 H 0.2415 0.8074 0.2638
H19 H 0.1834 0.6631 0.2498
H20 H 0.1127 0.5780 0.3066
H21 H 0.1402 0.6552 0.3387
H22 H 0.2787 0.5432 0.3410
H23 H 0.3037 0.5596 0.2925
H24 H 0.4885 0.5998 0.3029
H25 H 0.5222 0.6735 0.3359
H26 H 0.0415 0.7804 0.2929
H27 H -0.0058 0.6888 0.2774
H28 H 0.0405 0.7571 0.2442
H29 H 0.2397 0.9600 0.4655
H30 H 0.2703 1.0940 0.5004
H31 H 0.3490 1.2076 0.4625
H32 H 0.4328 1.1817 0.3993
H33 H 0.4194 1.0399 0.3681
H34 H 0.1475 0.9387 0.3538
H35 H -0.0297 0.8909 0.3598
H36 H -0.0822 0.8058 0.4129
H37 H 0.0453 0.7473 0.4592
H38 H 0.2241 0.7857 0.4512
H39 H 0.6981 0.5155 0.3478
H40 H 0.8590 0.5726 0.3219
H41 H 0.8693 0.5889 0.2448
H42 H 0.7613 0.5154 0.2057
H43 H 0.6026 0.4590 0.2327
C49 C 0.5588(10) 0.3363(5) 0.3091(5)
C50 C 0.6591(9) 0.3032(6) 0.3197(5)
C51 C 0.6757(10) 0.2135(7) 0.3206(4)
C52 C 0.5921(11) 0.1568(5) 0.3109(4)
C53 C 0.4918(10) 0.1900(7) 0.3003(4)
C54 C 0.4752(9) 0.2797(7) 0.2994(4)
H44 H 0.7162 0.3418 0.3263
H45 H 0.7443 0.1908 0.3278
H46 H 0.6035 0.0955 0.3115
H47 H 0.4347 0.1513 0.2936
H48 H 0.4067 0.3024 0.2921
O3 O 0.5618(5) 0.9453(4) 0.29851(16)
O4 O 0.5556(4) 0.8304(4) 0.33911(17)
O5 O 0.7596(5) 0.9903(6) 0.2706(3)
O6 O 0.8818(5) 0.8995(6) 0.2899(3)
N2 N 0.6079(5) 0.8821(4) 0.31515(17)
C55 C 0.7527(7) 0.7757(8) 0.3277(4)
C56 C 0.7112(6) 0.8602(7) 0.3091(3)
C57 C 0.7830(7) 0.9190(8) 0.2856(4)
C58 C 0.9613(8) 0.9506(10) 0.2687(5)
H49 H 0.7105 0.7266 0.3169
H50 H 0.7460 0.7779 0.3582
H51 H 0.8283 0.7679 0.3201
H52 H 0.9582 1.0110 0.2787
H53 H 0.9474 0.9494 0.2385
H54 H 1.0327 0.9264 0.2742
C59? C 0.5167(10) 0.3338(5) 0.3036(5)
C60? C 0.6060(9) 0.2853(7) 0.3155(5)
C61? C 0.6031(10) 0.1946(7) 0.3135(4)
C62? C 0.5108(11) 0.1525(5) 0.2996(5)
C63? C 0.4215(9) 0.2010(7) 0.2878(4)
C64? C 0.4245(9) 0.2916(7) 0.2898(5)
H55? H 0.6690 0.3141 0.3249
H56? H 0.6641 0.1615 0.3215
H57? H 0.5088 0.0906 0.2982
H58? H 0.3585 0.1722 0.2783
H59? H 0.3635 0.3248 0.2817
loop_
_geom_bond_atom_site_label_1
_geom_bond_atom_site_label_2
_geom_bond_site_symmetry_1
_geom_bond_site_symmetry_2
O1 C42 1_555 1_555
O2 C29 1_555 1_555
N1 C21 1_555 1_555
C1 C2 1_555 1_555
C2 C3 1_555 1_555
C3 C4 1_555 1_555
C4 C5 1_555 1_555
C5 C6 1_555 1_555
C6 C7 1_555 1_555
C7 C8 1_555 1_555
C8 C9 1_555 1_555
C9 C10 1_555 1_555
C10 C1 1_555 1_555
C11 C1 1_555 1_555
C12 C11 1_555 1_555
C13 C12 1_555 1_555
C14 C13 1_555 1_555
C15 C14 1_555 1_555
C16 C15 1_555 1_555
C17 C16 1_555 1_555
C18 C17 1_555 1_555
C19 C18 1_555 1_555
C20 C11 1_555 1_555
C21 C2 1_555 1_555
C22 N1 1_555 1_555
C23 C22 1_555 1_555
C24 C23 1_555 1_555
C25 C24 1_555 1_555
C26 N1 1_555 1_555
C27 N1 1_555 1_555
C28 C24 1_555 1_555
C29 C3 1_555 1_555
C30 C29 1_555 1_555
C31 C30 1_555 1_555
C32 C31 1_555 1_555
C33 C32 1_555 1_555
C34 C33 1_555 1_555
C35 C30 1_555 1_555
C36 C29 1_555 1_555
C37 C36 1_555 1_555
C38 C37 1_555 1_555
C39 C38 1_555 1_555
C40 C39 1_555 1_555
C41 C36 1_555 1_555
C42 C13 1_555 1_555
C43 C42 1_555 1_555
C44 C43 1_555 1_555
C45 C44 1_555 1_555
C46 C45 1_555 1_555
C47 C46 1_555 1_555
C48 C43 1_555 1_555
H1 O1 1_555 1_555
H2 O2 1_555 1_555
H3 C4 1_555 1_555
H4 C6 1_555 1_555
H5 C7 1_555 1_555
H6 C8 1_555 1_555
H7 C9 1_555 1_555
H8 C14 1_555 1_555
H9 C16 1_555 1_555
H10 C17 1_555 1_555
H11 C18 1_555 1_555
H12 C19 1_555 1_555
H13 C21 1_555 1_555
H14 C21 1_555 1_555
H15 C22 1_555 1_555
H16 C22 1_555 1_555
H17 C23 1_555 1_555
H18 C23 1_555 1_555
H19 C24 1_555 1_555
H20 C25 1_555 1_555
H21 C25 1_555 1_555
H22 C26 1_555 1_555
H23 C26 1_555 1_555
H24 C27 1_555 1_555
H25 C27 1_555 1_555
H26 C28 1_555 1_555
H27 C28 1_555 1_555
H28 C28 1_555 1_555
H29 C31 1_555 1_555
H30 C32 1_555 1_555
H31 C33 1_555 1_555
H32 C34 1_555 1_555
H33 C35 1_555 1_555
H34 C37 1_555 1_555
H35 C38 1_555 1_555
H36 C39 1_555 1_555
H37 C40 1_555 1_555
H38 C41 1_555 1_555
H39 C44 1_555 1_555
H40 C45 1_555 1_555
H41 C46 1_555 1_555
H42 C47 1_555 1_555
H43 C48 1_555 1_555
C49 C42 1_555 1_555
C50 C49 1_555 1_555
C51 C50 1_555 1_555
C52 C51 1_555 1_555
C53 C52 1_555 1_555
C54 C49 1_555 1_555
H44 C50 1_555 1_555
H45 C51 1_555 1_555
H46 C52 1_555 1_555
H47 C53 1_555 1_555
H48 C54 1_555 1_555
O3 N2 1_555 1_555
O4 N2 1_555 1_555
O5 C57 1_555 1_555
O6 C57 1_555 1_555
N2 C56 1_555 1_555
C55 C56 1_555 1_555
C56 C57 1_555 1_555
C58 O6 1_555 1_555
H49 C55 1_555 1_555
H50 C55 1_555 1_555
H51 C55 1_555 1_555
H52 C58 1_555 1_555
H53 C58 1_555 1_555
H54 C58 1_555 1_555
C5 C10 1_555 1_555
C12 C27 1_555 1_555
C15 C20 1_555 1_555
C19 C20 1_555 1_555
C25 C26 1_555 1_555
C34 C35 1_555 1_555
C40 C41 1_555 1_555
C47 C48 1_555 1_555
C53 C54 1_555 1_555

#END
