
#######################################################################
#
#                 Cambridge Crystallographic Data Centre
#                                CCDC 
#
#######################################################################
#
# If this CIF has been generated from an entry in the Cambridge 
# Structural Database, then it will include bibliographic, chemical, 
# crystal, experimental, refinement or atomic coordinate data resulting 
# from the CCDC's data processing and validation procedures.
#
#######################################################################

data_ABEMUS
_chemical_formula_moiety         'C21 H20 O2'
_chemical_name_systematic        3-cyclohexyl-2-phenyl-4H-chromen-4-one
_symmetry_cell_setting           triclinic
_symmetry_space_group_name_H-M   'P -1'
_symmetry_Int_Tables_number      2
_space_group_name_Hall           '-P 1'
loop_
_symmetry_equiv_pos_site_id
_symmetry_equiv_pos_as_xyz
1 x,y,z
2 -x,-y,-z
_cell_length_a                   9.1619(17)
_cell_length_b                   10.216(2)
_cell_length_c                   10.489(2)
_cell_angle_alpha                67.76(2)
_cell_angle_beta                 83.945(16)
_cell_angle_gamma                68.57(2)
_cell_volume                     845.276
_exptl_crystal_colour            colorless
_exptl_crystal_description       plate
_cell_formula_units_Z            2
loop_
_atom_site_label
_atom_site_type_symbol
_atom_site_fract_x
_atom_site_fract_y
_atom_site_fract_z
O1 O 0.71345(17) 0.34680(19) 0.81562(17)
O2 O 0.2435(2) 0.5765(2) 0.7312(2)
C1 C 0.6236(3) 0.2919(3) 0.7661(2)
C2 C 0.3729(2) 0.2892(3) 0.6952(2)
H1 H 0.4470 0.1922 0.6939
C3 C 0.4664(2) 0.3602(3) 0.7395(2)
C4 C 0.6438(3) 0.4834(3) 0.8308(2)
C5 C 0.7276(2) 0.1504(3) 0.7490(3)
C6 C 0.7332(3) 0.1331(3) 0.6233(3)
H2 H 0.6681 0.2096 0.5495
C7 C 0.3856(3) 0.5060(3) 0.7553(2)
C8 C 0.4854(3) 0.5658(3) 0.8020(2)
C9 C 0.2474(3) 0.2533(3) 0.7975(3)
H3 H 0.2970 0.1881 0.8879
H4 H 0.1734 0.3464 0.8046
C10 C 0.7424(3) 0.5343(4) 0.8766(3)
H5 H 0.8483 0.4767 0.8970
C11 C 0.3001(3) 0.3811(3) 0.5493(2)
H6 H 0.2283 0.4799 0.5452
H7 H 0.3823 0.3957 0.4851
C12 C 0.6784(4) 0.6723(4) 0.8908(3)
H8 H 0.7423 0.7090 0.9202
C13 C 0.8277(3) 0.0352(3) 0.8575(3)
H9 H 0.8262 0.0456 0.9420
C14 C 0.1596(3) 0.1761(3) 0.7528(3)
H10 H 0.2313 0.0772 0.7570
H11 H 0.0768 0.1617 0.8161
C15 C 0.9293(3) -0.0944(4) 0.8393(4)
H12 H 0.9962 -0.1710 0.9120
C16 C 0.2118(4) 0.3021(4) 0.5065(3)
H13 H 0.1615 0.3665 0.4162
H14 H 0.2859 0.2089 0.4998
C17 C 0.5201(5) 0.7578(4) 0.8619(3)
H15 H 0.4787 0.8507 0.8723
C18 C 0.9325(4) -0.1112(4) 0.7151(5)
H16 H 1.0003 -0.1992 0.7039
C19 C 0.0892(3) 0.2670(4) 0.6085(3)
H17 H 0.0080 0.3608 0.6067
H18 H 0.0409 0.2107 0.5816
C20 C 0.8351(4) 0.0027(4) 0.6079(4)
H19 H 0.8379 -0.0083 0.5235
C21 C 0.4245(4) 0.7053(3) 0.8178(3)
H20 H 0.3185 0.7631 0.7984
loop_
_geom_bond_atom_site_label_1
_geom_bond_atom_site_label_2
_geom_bond_site_symmetry_1
_geom_bond_site_symmetry_2
O1 C1 1_555 1_555
O2 C7 1_555 1_555
C1 C3 1_555 1_555
C2 H1 1_555 1_555
C3 C2 1_555 1_555
C4 O1 1_555 1_555
C5 C1 1_555 1_555
C6 C5 1_555 1_555
H2 C6 1_555 1_555
C7 C3 1_555 1_555
C8 C4 1_555 1_555
C9 C2 1_555 1_555
H3 C9 1_555 1_555
H4 C9 1_555 1_555
C10 C4 1_555 1_555
H5 C10 1_555 1_555
C11 C2 1_555 1_555
H6 C11 1_555 1_555
H7 C11 1_555 1_555
C12 C10 1_555 1_555
H8 C12 1_555 1_555
C13 C5 1_555 1_555
H9 C13 1_555 1_555
C14 C9 1_555 1_555
H10 C14 1_555 1_555
H11 C14 1_555 1_555
C15 C13 1_555 1_555
H12 C15 1_555 1_555
C16 C11 1_555 1_555
H13 C16 1_555 1_555
H14 C16 1_555 1_555
C17 C12 1_555 1_555
H15 C17 1_555 1_555
C18 C15 1_555 1_555
H16 C18 1_555 1_555
C19 C14 1_555 1_555
H17 C19 1_555 1_555
H18 C19 1_555 1_555
C20 C6 1_555 1_555
H19 C20 1_555 1_555
C21 C8 1_555 1_555
H20 C21 1_555 1_555
C7 C8 1_555 1_555
C16 C19 1_555 1_555
C17 C21 1_555 1_555
C18 C20 1_555 1_555

#END
