
#######################################################################
#
#                 Cambridge Crystallographic Data Centre
#                                CCDC 
#
#######################################################################
#
# If this CIF has been generated from an entry in the Cambridge 
# Structural Database, then it will include bibliographic, chemical, 
# crystal, experimental, refinement or atomic coordinate data resulting 
# from the CCDC's data processing and validation procedures.
#
#######################################################################

data_ABEMEC
_chemical_formula_moiety         'C31 H23 F3 I1 N1 O3 S1'
_chemical_name_systematic        
4-(iodo(phenyl)methylene)-1-((4-methylphenyl)sulfonyl)-3-phenyl-3-(2,2,2-trifluoroethyl)-3,4-dihydroquinolin-2(1H)-one
_symmetry_cell_setting           orthorhombic
_symmetry_space_group_name_H-M   'P b c a'
_symmetry_Int_Tables_number      61
_space_group_name_Hall           '-P 2ac 2ab'
loop_
_symmetry_equiv_pos_site_id
_symmetry_equiv_pos_as_xyz
1 x,y,z
2 1/2-x,-y,1/2+z
3 -x,1/2+y,1/2-z
4 1/2+x,1/2-y,-z
5 -x,-y,-z
6 1/2+x,y,1/2-z
7 x,1/2-y,1/2+z
8 1/2-x,1/2+y,z
_cell_length_a                   12.7289(10)
_cell_length_b                   15.2299(14)
_cell_length_c                   28.073(3)
_cell_angle_alpha                90
_cell_angle_beta                 90
_cell_angle_gamma                90
_cell_volume                     5442.23
_exptl_crystal_colour            colorless
_exptl_crystal_description       Prism
_cell_formula_units_Z            8
loop_
_atom_site_label
_atom_site_type_symbol
_atom_site_fract_x
_atom_site_fract_y
_atom_site_fract_z
I1 I 0.337386(7) 0.245378(6) 0.672181(3)
S1 S 0.76692(3) 0.20867(2) 0.670865(12)
F1 F 0.65283(8) 0.55175(6) 0.52690(4)
F2 F 0.60961(7) 0.44966(6) 0.47780(3)
F3 F 0.74956(7) 0.43615(6) 0.51987(3)
O1 O 0.74315(9) 0.12260(7) 0.68808(4)
O2 O 0.87297(9) 0.23223(8) 0.66032(4)
O3 O 0.75054(8) 0.36096(7) 0.61199(3)
N1 N 0.69452(9) 0.21943(8) 0.61966(4)
C1 C 0.61700(11) 0.15457(9) 0.60659(5)
C2 C 0.64234(12) 0.06612(9) 0.60116(5)
H1 H 0.7105 0.0454 0.6091
C3 C 0.56661(13) 0.00878(10) 0.58395(5)
H2 H 0.5827 -0.0518 0.5808
C4 C 0.46754(12) 0.03910(10) 0.57135(5)
H3 H 0.4169 -0.0005 0.5588
C5 C 0.44231(12) 0.12723(10) 0.57711(5)
H4 H 0.3745 0.1480 0.5685
C6 C 0.51653(11) 0.18503(9) 0.59555(5)
C7 C 0.50294(10) 0.28207(9) 0.59807(5)
C8 C 0.59263(10) 0.32367(9) 0.56832(5)
C9 C 0.68867(11) 0.30469(9) 0.60046(5)
C10 C 0.43631(11) 0.32229(9) 0.62773(5)
C11 C 0.42521(11) 0.41713(9) 0.63893(5)
C12 C 0.34124(11) 0.46621(10) 0.62170(5)
H5 H 0.2884 0.4388 0.6030
C13 C 0.33478(12) 0.55535(10) 0.63193(6)
H6 H 0.2784 0.5891 0.6194
C14 C 0.41005(13) 0.59511(10) 0.66024(6)
H7 H 0.4056 0.6561 0.6669
C15 C 0.49194(13) 0.54594(10) 0.67886(5)
H8 H 0.5428 0.5729 0.6988
C16 C 0.49944(12) 0.45701(10) 0.66820(5)
H9 H 0.5556 0.4233 0.6810
C17 C 0.58398(11) 0.42409(9) 0.56091(5)
H10 H 0.5094 0.4384 0.5545
H11 H 0.6035 0.4532 0.5912
C18 C 0.64965(12) 0.46354(10) 0.52152(5)
C19 C 0.59937(11) 0.27742(9) 0.51983(5)
C20 C 0.50960(12) 0.27342(10) 0.49128(5)
H12 H 0.4447 0.2950 0.5031
C21 C 0.51440(14) 0.23819(10) 0.44575(5)
H13 H 0.4530 0.2360 0.4265
C22 C 0.60873(14) 0.20630(11) 0.42840(5)
H14 H 0.6124 0.1827 0.3971
C23 C 0.69767(13) 0.20887(11) 0.45670(6)
H15 H 0.7622 0.1863 0.4449
C24 C 0.69342(13) 0.24429(10) 0.50229(5)
H16 H 0.7549 0.2458 0.5215
C25 C 0.71167(11) 0.28598(10) 0.71014(5)
C26 C 0.75842(12) 0.36765(10) 0.71665(5)
H17 H 0.8199 0.3832 0.6994
C27 C 0.71390(12) 0.42610(10) 0.74877(5)
H18 H 0.7456 0.4819 0.7536
C28 C 0.62318(13) 0.40406(11) 0.77404(5)
C29 C 0.57835(12) 0.32138(11) 0.76714(5)
H19 H 0.5171 0.3056 0.7845
C30 C 0.62171(12) 0.26189(10) 0.73534(5)
H20 H 0.5907 0.2058 0.7308
C31 C 0.57357(16) 0.46872(13) 0.80769(6)
H21 H 0.6280 0.5069 0.8211
H22 H 0.5383 0.4369 0.8335
H23 H 0.5221 0.5044 0.7904
loop_
_geom_bond_atom_site_label_1
_geom_bond_atom_site_label_2
_geom_bond_site_symmetry_1
_geom_bond_site_symmetry_2
I1 C10 1_555 1_555
S1 O1 1_555 1_555
F1 C18 1_555 1_555
F2 C18 1_555 1_555
F3 C18 1_555 1_555
O2 S1 1_555 1_555
O3 C9 1_555 1_555
N1 S1 1_555 1_555
C1 N1 1_555 1_555
C2 C1 1_555 1_555
H1 C2 1_555 1_555
C3 C2 1_555 1_555
H2 C3 1_555 1_555
C4 C3 1_555 1_555
H3 C4 1_555 1_555
C5 C4 1_555 1_555
H4 C5 1_555 1_555
C6 C1 1_555 1_555
C7 C6 1_555 1_555
C8 C7 1_555 1_555
C9 N1 1_555 1_555
C10 C7 1_555 1_555
C11 C10 1_555 1_555
C12 C11 1_555 1_555
H5 C12 1_555 1_555
C13 C12 1_555 1_555
H6 C13 1_555 1_555
C14 C13 1_555 1_555
H7 C14 1_555 1_555
C15 C14 1_555 1_555
H8 C15 1_555 1_555
C16 C11 1_555 1_555
H9 C16 1_555 1_555
C17 C8 1_555 1_555
H10 C17 1_555 1_555
H11 C17 1_555 1_555
C18 C17 1_555 1_555
C19 C8 1_555 1_555
C20 C19 1_555 1_555
H12 C20 1_555 1_555
C21 C20 1_555 1_555
H13 C21 1_555 1_555
C22 C21 1_555 1_555
H14 C22 1_555 1_555
C23 C22 1_555 1_555
H15 C23 1_555 1_555
C24 C19 1_555 1_555
H16 C24 1_555 1_555
C25 S1 1_555 1_555
C26 C25 1_555 1_555
H17 C26 1_555 1_555
C27 C26 1_555 1_555
H18 C27 1_555 1_555
C28 C27 1_555 1_555
C29 C28 1_555 1_555
H19 C29 1_555 1_555
C30 C25 1_555 1_555
H20 C30 1_555 1_555
C31 C28 1_555 1_555
H21 C31 1_555 1_555
H22 C31 1_555 1_555
H23 C31 1_555 1_555
C5 C6 1_555 1_555
C8 C9 1_555 1_555
C15 C16 1_555 1_555
C23 C24 1_555 1_555
C29 C30 1_555 1_555

#END
