
#######################################################################
#
#                 Cambridge Crystallographic Data Centre
#                                CCDC 
#
#######################################################################
#
# If this CIF has been generated from an entry in the Cambridge 
# Structural Database, then it will include bibliographic, chemical, 
# crystal, experimental, refinement or atomic coordinate data resulting 
# from the CCDC's data processing and validation procedures.
#
#######################################################################

data_ABEMOM
_chemical_formula_moiety         'C13 H13 N1 O3 S2'
_chemical_name_systematic        N-(2-benzoyl-3-oxo-1,4-dithian-2-yl)acetamide
_symmetry_cell_setting           triclinic
_symmetry_space_group_name_H-M   'P -1'
_symmetry_Int_Tables_number      2
_space_group_name_Hall           '-P 1'
loop_
_symmetry_equiv_pos_site_id
_symmetry_equiv_pos_as_xyz
1 x,y,z
2 -x,-y,-z
_cell_length_a                   6.3773(8)
_cell_length_b                   7.7446(9)
_cell_length_c                   13.7595(18)
_cell_angle_alpha                80.669(9)
_cell_angle_beta                 89.692(9)
_cell_angle_gamma                88.263(9)
_cell_volume                     670.276
_exptl_crystal_description       prismatic
_cell_formula_units_Z            2
loop_
_atom_site_label
_atom_site_type_symbol
_atom_site_fract_x
_atom_site_fract_y
_atom_site_fract_z
S1 S 0.24923(14) 1.10080(12) 0.92719(7)
S2 S 0.24797(15) 1.38013(12) 0.71628(7)
N1 N 0.0377(4) 0.8994(4) 0.8278(2)
O1 O -0.0665(3) 1.1874(3) 0.70626(19)
O2 O 0.5666(3) 0.9558(3) 0.8044(2)
O3 O 0.2545(4) 0.6763(3) 0.8887(2)
C1 C 0.4401(6) 1.2713(5) 0.8993(3)
H1 H 0.3946 1.3692 0.9310
H2 H 0.5726 1.2267 0.9290
C2 C 0.4790(5) 1.3397(5) 0.7923(3)
H3 H 0.5701 1.2561 0.7658
H4 H 0.5536 1.4480 0.7877
C3 C 0.1086(5) 1.1878(4) 0.7415(2)
C4 C 0.1990(4) 1.0270(4) 0.8093(2)
C5 C 0.3985(4) 0.9464(4) 0.7651(3)
C6 C 0.3810(5) 0.8728(4) 0.6726(2)
C7 C 0.5622(6) 0.8034(5) 0.6355(3)
H5 H 0.6878 0.8029 0.6696
C8 C 0.5591(7) 0.7355(6) 0.5496(3)
H6 H 0.6817 0.6881 0.5265
C9 C 0.3744(7) 0.7373(6) 0.4969(3)
H7 H 0.3725 0.6924 0.4382
C10 C 0.1948(6) 0.8060(5) 0.5322(3)
H8 H 0.0703 0.8072 0.4972
C11 C 0.1958(5) 0.8731(5) 0.6188(3)
H9 H 0.0722 0.9191 0.6417
C12 C 0.0768(5) 0.7310(4) 0.8671(2)
C13 C -0.1106(6) 0.6162(5) 0.8788(3)
H10 H -0.1126 0.5481 0.8264
H11 H -0.2365 0.6879 0.8766
H12 H -0.1025 0.5392 0.9409
H13 H -0.071(7) 0.931(6) 0.814(3)
loop_
_geom_bond_atom_site_label_1
_geom_bond_atom_site_label_2
_geom_bond_site_symmetry_1
_geom_bond_site_symmetry_2
S1 C1 1_555 1_555
S2 C2 1_555 1_555
N1 C4 1_555 1_555
O1 C3 1_555 1_555
O2 C5 1_555 1_555
O3 C12 1_555 1_555
C1 H1 1_555 1_555
H2 C1 1_555 1_555
C2 C1 1_555 1_555
H3 C2 1_555 1_555
H4 C2 1_555 1_555
C3 S2 1_555 1_555
C4 S1 1_555 1_555
C5 C4 1_555 1_555
C6 C5 1_555 1_555
C7 C6 1_555 1_555
H5 C7 1_555 1_555
C8 C7 1_555 1_555
H6 C8 1_555 1_555
C9 C8 1_555 1_555
H7 C9 1_555 1_555
C10 C9 1_555 1_555
H8 C10 1_555 1_555
C11 C6 1_555 1_555
H9 C11 1_555 1_555
C12 N1 1_555 1_555
C13 C12 1_555 1_555
H10 C13 1_555 1_555
H11 C13 1_555 1_555
H12 C13 1_555 1_555
H13 N1 1_555 1_555
C3 C4 1_555 1_555
C10 C11 1_555 1_555

#END
