
#######################################################################
#
#                 Cambridge Crystallographic Data Centre
#                                CCDC 
#
#######################################################################
#
# If this CIF has been generated from an entry in the Cambridge 
# Structural Database, then it will include bibliographic, chemical, 
# crystal, experimental, refinement or atomic coordinate data resulting 
# from the CCDC's data processing and validation procedures.
#
#######################################################################

data_ABEMOL
_chemical_formula_moiety         'C16 H14 N4 O2,4(H2 O1)'
_chemical_name_systematic        
"N,N'-bis(3-(Pyridin-4-yl)acryloyl)hydrazine tetrahydrate"
_symmetry_cell_setting           monoclinic
_symmetry_space_group_name_H-M   'P 21/n'
_symmetry_Int_Tables_number      14
_space_group_name_Hall           '-P 2yn'
loop_
_symmetry_equiv_pos_site_id
_symmetry_equiv_pos_as_xyz
1 x,y,z
2 1/2-x,1/2+y,1/2-z
3 -x,-y,-z
4 1/2+x,1/2-y,1/2+z
_cell_length_a                   3.7791(7)
_cell_length_b                   12.616(2)
_cell_length_c                   17.874(3)
_cell_angle_alpha                90
_cell_angle_beta                 95.028(6)
_cell_angle_gamma                90
_cell_volume                     848.902
_exptl_crystal_colour            'light yellow'
_exptl_crystal_description       needle
_cell_formula_units_Z            2
loop_
_atom_site_label
_atom_site_type_symbol
_atom_site_fract_x
_atom_site_fract_y
_atom_site_fract_z
O1 O 0.2739(4) 0.83486(11) 1.02758(7)
N1 N 0.5366(5) 0.57243(14) 0.68432(10)
N2 N 0.0337(4) 0.97633(12) 0.96658(8)
H1 H -0.0238 1.0076 0.9245
C1 C 0.3828(6) 0.66766(18) 0.68200(11)
H2 H 0.3002 0.6946 0.6353
C2 C 0.3383(5) 0.72891(17) 0.74465(11)
H3 H 0.2329 0.7954 0.7396
C3 C 0.4533(5) 0.68958(15) 0.81531(11)
C4 C 0.6160(5) 0.59116(16) 0.81764(11)
H4 H 0.7017 0.5621 0.8635
C5 C 0.6511(6) 0.53626(17) 0.75223(12)
H5 H 0.7608 0.4702 0.7556
C6 C 0.4004(5) 0.74446(16) 0.88598(11)
H6 H 0.4837 0.7101 0.9301
C7 C 0.2475(5) 0.83721(15) 0.89348(10)
H7 H 0.1740 0.8761 0.8507
C8 C 0.1898(5) 0.88112(15) 0.96807(10)
O1B O -0.2739(4) 1.16514(11) 0.97242(7)
N1B N -0.5366(5) 1.42757(14) 1.31568(10)
N2B N -0.0337(4) 1.02367(12) 1.03342(8)
H1B H 0.0238 0.9924 1.0755
C1B C -0.3828(6) 1.33234(18) 1.31800(11)
H2B H -0.3002 1.3054 1.3647
C2B C -0.3383(5) 1.27109(17) 1.25535(11)
H3B H -0.2329 1.2046 1.2604
C3B C -0.4533(5) 1.31042(15) 1.18469(11)
C4B C -0.6160(5) 1.40884(16) 1.18236(11)
H4B H -0.7017 1.4379 1.1365
C5B C -0.6511(6) 1.46374(17) 1.24777(12)
H5B H -0.7608 1.5298 1.2444
C6B C -0.4004(5) 1.25554(16) 1.11402(11)
H6B H -0.4837 1.2899 1.0699
C7B C -0.2475(5) 1.16279(15) 1.10652(10)
H7B H -0.1740 1.1239 1.1493
C8B C -0.1898(5) 1.11888(15) 1.03193(10)
loop_
_geom_bond_atom_site_label_1
_geom_bond_atom_site_label_2
_geom_bond_site_symmetry_1
_geom_bond_site_symmetry_2
O1 C8 1_555 1_555
N1 C1 1_555 1_555
N2 H1 1_555 1_555
C1 H2 1_555 1_555
C2 C1 1_555 1_555
H3 C2 1_555 1_555
C3 C2 1_555 1_555
C4 C3 1_555 1_555
H4 C4 1_555 1_555
C5 N1 1_555 1_555
H5 C5 1_555 1_555
C6 C3 1_555 1_555
H6 C6 1_555 1_555
C7 C6 1_555 1_555
H7 C7 1_555 1_555
C8 N2 1_555 1_555
O1B C8B 1_555 1_555
N1B C1B 1_555 1_555
N2B N2 1_555 1_555
H1B N2B 1_555 1_555
C1B H2B 1_555 1_555
C2B C1B 1_555 1_555
H3B C2B 1_555 1_555
C3B C2B 1_555 1_555
C4B C3B 1_555 1_555
H4B C4B 1_555 1_555
C5B N1B 1_555 1_555
H5B C5B 1_555 1_555
C6B C3B 1_555 1_555
H6B C6B 1_555 1_555
C7B C6B 1_555 1_555
H7B C7B 1_555 1_555
C8B N2B 1_555 1_555
C4 C5 1_555 1_555
C7 C8 1_555 1_555
C4B C5B 1_555 1_555
C7B C8B 1_555 1_555

#END
