
#######################################################################
#
#                 Cambridge Crystallographic Data Centre
#                                CCDC 
#
#######################################################################
#
# If this CIF has been generated from an entry in the Cambridge 
# Structural Database, then it will include bibliographic, chemical, 
# crystal, experimental, refinement or atomic coordinate data resulting 
# from the CCDC's data processing and validation procedures.
#
#######################################################################

data_ABEMIG
_chemical_formula_moiety         'C30 H19 Br1 F3 N1 O3 S1'
_chemical_name_systematic        
5-((4-bromophenyl)sulfonyl)-11-phenyl-6a-(2,2,2-trifluoroethyl)-5,6a-dihydro-6H-indeno[1,2-c]quinolin-6-one
_symmetry_cell_setting           triclinic
_symmetry_space_group_name_H-M   'P -1'
_symmetry_Int_Tables_number      2
_space_group_name_Hall           '-P 1'
loop_
_symmetry_equiv_pos_site_id
_symmetry_equiv_pos_as_xyz
1 x,y,z
2 -x,-y,-z
_cell_length_a                   9.162(2)
_cell_length_b                   11.665(3)
_cell_length_c                   12.467(3)
_cell_angle_alpha                89.441(10)
_cell_angle_beta                 78.258(9)
_cell_angle_gamma                78.943(6)
_cell_volume                     1279.71
_exptl_crystal_colour            colorless
_exptl_crystal_description       Prism
_cell_formula_units_Z            2
loop_
_atom_site_label
_atom_site_type_symbol
_atom_site_fract_x
_atom_site_fract_y
_atom_site_fract_z
Br1 Br 0.41916(2) -0.380120(16) 0.735101(16)
S1 S 0.85655(5) -0.06701(4) 0.86902(4)
F1 F 0.82988(17) 0.32587(12) 0.44711(12)
F2 F 1.02214(15) 0.36301(11) 0.50332(11)
F3 F 0.80024(19) 0.41187(11) 0.60352(14)
O1 O 0.79826(19) -0.02978(12) 0.98108(11)
O2 O 1.01093(17) -0.12458(12) 0.83407(13)
O3 O 0.86868(14) -0.05061(10) 0.63766(10)
N1 N 0.82803(17) 0.05768(12) 0.79546(12)
C1 C 0.7360(2) -0.15357(15) 0.83239(14)
C2 C 0.7992(2) -0.25440(16) 0.76852(16)
H1 H 0.9060 -0.2751 0.7425
C3 C 0.7037(2) -0.32462(16) 0.74323(16)
H2 H 0.7446 -0.3946 0.7003
C4 C 0.5485(2) -0.29172(15) 0.78111(14)
C5 C 0.4850(2) -0.19215(16) 0.84669(15)
H3 H 0.3782 -0.1720 0.8732
C6 C 0.5804(2) -0.12263(16) 0.87285(14)
H4 H 0.5396 -0.0543 0.9181
C7 C 0.82771(18) 0.04378(14) 0.68416(13)
C8 C 0.77073(18) 0.15704(14) 0.62832(13)
C9 C 0.69046(19) 0.13449(14) 0.53792(14)
C10 C 0.7473(2) 0.07312(15) 0.43948(14)
H5 H 0.8525 0.0404 0.4178
C11 C 0.6458(2) 0.06053(15) 0.37264(14)
H6 H 0.6823 0.0188 0.3044
C12 C 0.4918(2) 0.10852(16) 0.40499(15)
H7 H 0.4237 0.0961 0.3600
C13 C 0.4363(2) 0.17401(16) 0.50164(15)
H8 H 0.3316 0.2087 0.5222
C14 C 0.53712(19) 0.18801(15) 0.56817(14)
C15 C 0.5107(2) 0.24728(16) 0.67626(15)
C16 C 0.64324(19) 0.22975(15) 0.71172(14)
C17 C 0.68435(18) 0.25781(15) 0.81387(13)
C18 C 0.6400(2) 0.36618(16) 0.86905(14)
H9 H 0.5684 0.4257 0.8450
C19 C 0.6998(2) 0.38750(15) 0.95892(14)
H10 H 0.6663 0.4604 0.9980
C20 C 0.8088(2) 0.30211(16) 0.99171(14)
H11 H 0.8513 0.3179 1.0521
C21 C 0.8562(2) 0.19406(15) 0.93719(14)
H12 H 0.9330 0.1368 0.9584
C22 C 0.78953(18) 0.17085(14) 0.85105(13)
C23 C 0.36001(19) 0.31116(15) 0.73505(15)
C24 C 0.3072(2) 0.29463(18) 0.84593(16)
H13 H 0.3664 0.2396 0.8844
C25 C 0.1683(2) 0.3584(2) 0.90046(18)
H14 H 0.1332 0.3475 0.9763
C26 C 0.0808(2) 0.43784(19) 0.84446(19)
H15 H -0.0142 0.4812 0.8819
C27 C 0.1315(2) 0.45414(17) 0.73427(18)
H16 H 0.0712 0.5087 0.6961
C28 C 0.2705(2) 0.39096(16) 0.67910(16)
H17 H 0.3047 0.4020 0.6032
C29 C 0.91314(19) 0.21173(15) 0.58982(14)
H18 H 0.9584 0.2208 0.6541
H19 H 0.9885 0.1559 0.5374
C30 C 0.8884(2) 0.32807(16) 0.53632(16)
loop_
_geom_bond_atom_site_label_1
_geom_bond_atom_site_label_2
_geom_bond_site_symmetry_1
_geom_bond_site_symmetry_2
Br1 C4 1_555 1_555
S1 O1 1_555 1_555
F1 C30 1_555 1_555
F2 C30 1_555 1_555
F3 C30 1_555 1_555
O2 S1 1_555 1_555
O3 C7 1_555 1_555
N1 S1 1_555 1_555
C1 S1 1_555 1_555
C2 C1 1_555 1_555
H1 C2 1_555 1_555
C3 C2 1_555 1_555
H2 C3 1_555 1_555
C4 C3 1_555 1_555
C5 C4 1_555 1_555
H3 C5 1_555 1_555
C6 C1 1_555 1_555
H4 C6 1_555 1_555
C7 N1 1_555 1_555
C8 C7 1_555 1_555
C9 C8 1_555 1_555
C10 C9 1_555 1_555
H5 C10 1_555 1_555
C11 C10 1_555 1_555
H6 C11 1_555 1_555
C12 C11 1_555 1_555
H7 C12 1_555 1_555
C13 C12 1_555 1_555
H8 C13 1_555 1_555
C14 C9 1_555 1_555
C15 C14 1_555 1_555
C16 C8 1_555 1_555
C17 C16 1_555 1_555
C18 C17 1_555 1_555
H9 C18 1_555 1_555
C19 C18 1_555 1_555
H10 C19 1_555 1_555
C20 C19 1_555 1_555
H11 C20 1_555 1_555
C21 C20 1_555 1_555
H12 C21 1_555 1_555
C22 N1 1_555 1_555
C23 C15 1_555 1_555
C24 C23 1_555 1_555
H13 C24 1_555 1_555
C25 C24 1_555 1_555
H14 C25 1_555 1_555
C26 C25 1_555 1_555
H15 C26 1_555 1_555
C27 C26 1_555 1_555
H16 C27 1_555 1_555
C28 C23 1_555 1_555
H17 C28 1_555 1_555
C29 C8 1_555 1_555
H18 C29 1_555 1_555
H19 C29 1_555 1_555
C30 C29 1_555 1_555
C5 C6 1_555 1_555
C13 C14 1_555 1_555
C15 C16 1_555 1_555
C17 C22 1_555 1_555
C21 C22 1_555 1_555
C27 C28 1_555 1_555

#END
