
#######################################################################
#
#                 Cambridge Crystallographic Data Centre
#                                CCDC 
#
#######################################################################
#
# If this CIF has been generated from an entry in the Cambridge 
# Structural Database, then it will include bibliographic, chemical, 
# crystal, experimental, refinement or atomic coordinate data resulting 
# from the CCDC's data processing and validation procedures.
#
#######################################################################

data_ABENIG
_chemical_formula_moiety         'C32 H28 N8 O4,4(H2 O1)'
_chemical_name_systematic        
"2,4-bis(Pyridin-4-yl)-N'^1^,N'^3^-bis(3-(pyridin-4-yl)acryloyl)cyclobutane-1,3-dicarbohydrazide tetrahydrate"
_symmetry_cell_setting           triclinic
_symmetry_space_group_name_H-M   'P -1'
_symmetry_Int_Tables_number      2
_space_group_name_Hall           '-P 1'
loop_
_symmetry_equiv_pos_site_id
_symmetry_equiv_pos_as_xyz
1 x,y,z
2 -x,-y,-z
_cell_length_a                   4.7469(9)
_cell_length_b                   9.6101(18)
_cell_length_c                   17.895(3)
_cell_angle_alpha                84.941(6)
_cell_angle_beta                 84.373(8)
_cell_angle_gamma                80.613(6)
_cell_volume                     799.356
_exptl_crystal_colour            colorless
_exptl_crystal_description       plate
_cell_formula_units_Z            1
loop_
_atom_site_label
_atom_site_type_symbol
_atom_site_fract_x
_atom_site_fract_y
_atom_site_fract_z
N1 N 1.3753(5) 1.2442(2) -0.35826(13)
H1 H 1.1933 1.2633 -0.3615
N2 N 1.4845(5) 1.1400(3) -0.30559(14)
H2 H 1.6554 1.0945 -0.3128
O1 O 1.0759(5) 1.1756(3) -0.22957(14)
N3 N 1.6395(8) 0.6474(4) 0.04106(19)
C1 C 1.4240(13) 0.7419(5) 0.0543(2)
H3 H 1.3344 0.7432 0.1029
C2 C 1.3169(14) 0.8418(7) 0.0008(3)
H4 H 1.1574 0.9077 0.0141
C3 C 1.4381(8) 0.8474(4) -0.07154(19)
C4 C 1.6615(11) 0.7471(5) -0.0858(2)
H5 H 1.7517 0.7417 -0.1343
C5 C 1.7575(14) 0.6517(6) -0.0285(3)
H6 H 1.9182 0.5851 -0.0398
C6 C 1.3260(9) 0.9555(5) -0.1286(2)
H7 H 1.1402 1.0014 -0.1177
C7 C 1.4538(8) 0.9950(3) -0.19238(18)
H8 H 1.6363 0.9488 -0.2068
C8 C 1.3169(7) 1.1119(3) -0.24311(17)
O2 O 1.8098(4) 1.2919(2) -0.40376(12)
N4 N 0.9429(6) 1.9189(3) -0.35723(16)
C9 C 0.9302(8) 1.7842(4) -0.3351(2)
H9 H 0.7935 1.7651 -0.2963
C10 C 1.1053(7) 1.6709(3) -0.36575(18)
H10 H 1.0875 1.5790 -0.3472
C11 C 1.3084(6) 1.6952(3) -0.42454(16)
C12 C 1.3258(7) 1.8345(3) -0.44706(18)
H11 H 1.4618 1.8567 -0.4854
C13 C 1.1412(8) 1.9413(3) -0.41278(19)
H12 H 1.1567 2.0344 -0.4296
C14 C 1.5070(6) 1.5728(3) -0.45719(15)
H13 H 1.6813 1.5570 -0.4304
C15 C 1.3999(6) 1.4291(3) -0.45671(15)
H14 H 1.1912 1.4391 -0.4467
C16 C 1.5504(6) 1.3152(3) -0.40401(15)
N1A N 1.6247(5) 1.7558(2) -0.64174(13)
H1A H 1.8067 1.7367 -0.6385
N2A N 1.5155(5) 1.8600(3) -0.69441(14)
H2A H 1.3446 1.9055 -0.6872
O1A O 1.9241(5) 1.8244(3) -0.77043(14)
N3A N 1.3605(8) 2.3526(4) -1.04106(19)
C1A C 1.5760(13) 2.2581(5) -1.0543(2)
H3A H 1.6656 2.2568 -1.1029
C2A C 1.6831(14) 2.1582(7) -1.0008(3)
H4A H 1.8426 2.0923 -1.0141
C3A C 1.5619(8) 2.1526(4) -0.92846(19)
C4A C 1.3385(11) 2.2529(5) -0.9142(2)
H5A H 1.2483 2.2583 -0.8657
C5A C 1.2425(14) 2.3483(6) -0.9715(3)
H6A H 1.0818 2.4149 -0.9602
C6A C 1.6740(9) 2.0445(5) -0.8714(2)
H7A H 1.8598 1.9986 -0.8823
C7A C 1.5462(8) 2.0050(3) -0.80762(18)
H8A H 1.3637 2.0512 -0.7932
C8A C 1.6831(7) 1.8881(3) -0.75689(17)
O2A O 1.1902(4) 1.7081(2) -0.59624(12)
N4A N 2.0571(6) 1.0811(3) -0.64277(16)
C9A C 2.0698(8) 1.2158(4) -0.6649(2)
H9A H 2.2065 1.2349 -0.7037
C10A C 1.8947(7) 1.3291(3) -0.63425(18)
H10A H 1.9125 1.4210 -0.6528
C11A C 1.6916(6) 1.3048(3) -0.57546(16)
C12A C 1.6742(7) 1.1655(3) -0.55294(18)
H11A H 1.5382 1.1433 -0.5146
C13A C 1.8588(8) 1.0587(3) -0.58722(19)
H12A H 1.8433 0.9656 -0.5704
C14A C 1.4930(6) 1.4272(3) -0.54281(15)
H13A H 1.3187 1.4430 -0.5696
C15A C 1.6001(6) 1.5709(3) -0.54329(15)
H14A H 1.8088 1.5609 -0.5533
C16A C 1.4496(6) 1.6848(3) -0.59599(15)
O3 O 0.2476(8) 1.5329(4) -0.1773(2)
H17 H 0.250(8) 1.486(4) -0.135(2)
H18 H 0.150(9) 1.514(5) -0.197(3)
H15 H 0.579(9) 1.479(4) -0.223(2)
H16 H 0.828(9) 1.386(5) -0.248(2)
O4 O 0.7797(9) 1.4641(4) -0.2495(2)
loop_
_geom_bond_atom_site_label_1
_geom_bond_atom_site_label_2
_geom_bond_site_symmetry_1
_geom_bond_site_symmetry_2
N1 H1 1_555 1_555
N2 N1 1_555 1_555
H2 N2 1_555 1_555
O1 C8 1_555 1_555
N3 C1 1_555 1_555
C1 H3 1_555 1_555
C2 C1 1_555 1_555
H4 C2 1_555 1_555
C3 C2 1_555 1_555
C4 C3 1_555 1_555
H5 C4 1_555 1_555
C5 N3 1_555 1_555
H6 C5 1_555 1_555
C6 C3 1_555 1_555
H7 C6 1_555 1_555
C7 C6 1_555 1_555
H8 C7 1_555 1_555
C8 N2 1_555 1_555
O2 C16 1_555 1_555
N4 C9 1_555 1_555
C9 H9 1_555 1_555
C10 C9 1_555 1_555
H10 C10 1_555 1_555
C11 C10 1_555 1_555
C12 C11 1_555 1_555
H11 C12 1_555 1_555
C13 N4 1_555 1_555
H12 C13 1_555 1_555
C14 C11 1_555 1_555
H13 C14 1_555 1_555
C15 C14 1_555 1_555
H14 C15 1_555 1_555
C16 N1 1_555 1_555
O3 H17 1_555 1_555
H15 O4 1_555 1_555
H16 O4 1_555 1_555
H18 O3 1_555 1_555
N1A H1A 1_555 1_555
N2A N1A 1_555 1_555
H2A N2A 1_555 1_555
O1A C8A 1_555 1_555
N3A C1A 1_555 1_555
C1A H3A 1_555 1_555
C2A C1A 1_555 1_555
H4A C2A 1_555 1_555
C3A C2A 1_555 1_555
C4A C3A 1_555 1_555
H5A C4A 1_555 1_555
C5A N3A 1_555 1_555
H6A C5A 1_555 1_555
C6A C3A 1_555 1_555
H7A C6A 1_555 1_555
C7A C6A 1_555 1_555
H8A C7A 1_555 1_555
C8A N2A 1_555 1_555
O2A C16A 1_555 1_555
N4A C9A 1_555 1_555
C9A H9A 1_555 1_555
C10A C9A 1_555 1_555
H10A C10A 1_555 1_555
C11A C10A 1_555 1_555
C12A C11A 1_555 1_555
H11A C12A 1_555 1_555
C13A N4A 1_555 1_555
H12A C13A 1_555 1_555
C14A C15 1_555 1_555
H13A C14A 1_555 1_555
C15A C14 1_555 1_555
H14A C15A 1_555 1_555
C16A N1A 1_555 1_555
C4 C5 1_555 1_555
C7 C8 1_555 1_555
C12 C13 1_555 1_555
C15 C16 1_555 1_555
C4A C5A 1_555 1_555
C7A C8A 1_555 1_555
C11A C14A 1_555 1_555
C12A C13A 1_555 1_555
C14A C15A 1_555 1_555
C15A C16A 1_555 1_555

#END
