
#######################################################################
#
#                 Cambridge Crystallographic Data Centre
#                                CCDC 
#
#######################################################################
#
# If this CIF has been generated from an entry in the Cambridge 
# Structural Database, then it will include bibliographic, chemical, 
# crystal, experimental, refinement or atomic coordinate data resulting 
# from the CCDC's data processing and validation procedures.
#
#######################################################################

data_ABENEC
_chemical_formula_moiety         'C32 H28 N8 O4,6(H2 O1)'
_chemical_name_systematic        
'7,8,15,16-tetrakis(Pyridin-4-yl)-3,4,11,12-tetraazatricyclo[12.2.0.0^6,9^]hexadecane-2,5,10,13-tetrone hexahydrate'
_symmetry_cell_setting           monoclinic
_symmetry_space_group_name_H-M   'C 2/c'
_symmetry_Int_Tables_number      15
_space_group_name_Hall           '-C 2yn'
loop_
_symmetry_equiv_pos_site_id
_symmetry_equiv_pos_as_xyz
1 x,y,z
2 -x,y,1/2-z
3 1/2+x,1/2+y,z
4 1/2-x,1/2+y,1/2-z
5 -x,-y,-z
6 x,-y,1/2+z
7 1/2-x,1/2-y,-z
8 1/2+x,1/2-y,1/2+z
_cell_length_a                   17.253(6)
_cell_length_b                   12.694(5)
_cell_length_c                   17.639(7)
_cell_angle_alpha                90
_cell_angle_beta                 116.174(11)
_cell_angle_gamma                90
_cell_volume                     3466.98
_exptl_crystal_colour            colorless
_exptl_crystal_description       block
_cell_formula_units_Z            4
loop_
_atom_site_label
_atom_site_type_symbol
_atom_site_fract_x
_atom_site_fract_y
_atom_site_fract_z
N1 N -0.39774(18) 0.8107(2) -0.0650(2)
N2 N 0.02808(17) 0.8429(2) -0.01632(17)
H1 H 0.0697 0.8162 -0.0243
N3 N 0.02843(16) 0.8285(2) 0.06131(17)
H2 H -0.0083 0.7864 0.0658
O1 O -0.02956(15) 0.9049(2) -0.14785(16)
O2 O 0.08839(15) 0.8627(2) 0.19988(15)
C1 C -0.3343(2) 0.8748(3) -0.0184(3)
H3 H -0.3344 0.9020 0.0305
C2 C -0.2676(2) 0.9043(3) -0.0374(2)
H4 H -0.2259 0.9518 -0.0030
C3 C -0.26349(19) 0.8625(2) -0.1076(2)
C4 C -0.3297(2) 0.7967(3) -0.1562(2)
H5 H -0.3309 0.7675 -0.2051
C5 C -0.3943(2) 0.7734(3) -0.1336(3)
H6 H -0.4383 0.7287 -0.1685
C6 C -0.19490(19) 0.8835(3) -0.1355(2)
H7 H -0.1815 0.8202 -0.1593
C7 C -0.11035(19) 0.9390(3) -0.0695(2)
H8 H -0.1032 0.9383 -0.0112
C8 C -0.0341(2) 0.8967(3) -0.0806(2)
C9 C 0.0859(2) 0.8799(3) 0.1303(2)
N4 N -0.4682(2) 1.0906(4) -0.3536(3)
C10 C -0.4374(3) 1.0008(5) -0.3672(3)
H9 H -0.4736 0.9599 -0.4129
C11 C -0.3546(2) 0.9639(3) -0.3177(2)
H10 H -0.3364 0.9005 -0.3309
C12 C -0.2992(2) 1.0219(3) -0.2488(2)
C13 C -0.3299(2) 1.1158(3) -0.2348(3)
H11 H -0.2951 1.1587 -0.1899
C14 C -0.4135(3) 1.1462(4) -0.2885(3)
H12 H -0.4327 1.2106 -0.2779
C15 C -0.20966(18) 0.9825(3) -0.19484(19)
H13 H -0.1817 0.9686 -0.2316
C16 C -0.14621(18) 1.0443(2) -0.11787(19)
H14 H -0.1783 1.0816 -0.0921
N1D N 0.39774(18) 1.1893(2) 0.0650(2)
N2D N -0.02808(17) 1.1571(2) 0.01632(17)
H1D H -0.0697 1.1838 0.0243
N3D N -0.02843(16) 1.1715(2) -0.06131(17)
H2D H 0.0083 1.2136 -0.0658
O1D O 0.02956(15) 1.0951(2) 0.14785(16)
O2D O -0.08839(15) 1.1373(2) -0.19988(15)
C1D C 0.3343(2) 1.1252(3) 0.0184(3)
H3D H 0.3344 1.0980 -0.0305
C2D C 0.2676(2) 1.0957(3) 0.0374(2)
H4D H 0.2259 1.0482 0.0030
C3D C 0.26349(19) 1.1375(2) 0.1076(2)
C4D C 0.3297(2) 1.2033(3) 0.1562(2)
H5D H 0.3309 1.2325 0.2051
C5D C 0.3943(2) 1.2266(3) 0.1336(3)
H6D H 0.4383 1.2713 0.1685
C6D C 0.19490(19) 1.1165(3) 0.1355(2)
H7D H 0.1815 1.1798 0.1593
C7D C 0.11035(19) 1.0610(3) 0.0695(2)
H8D H 0.1032 1.0617 0.0112
C8D C 0.0341(2) 1.1033(3) 0.0806(2)
C9D C -0.0859(2) 1.1201(3) -0.1303(2)
N4D N 0.4682(2) 0.9094(4) 0.3536(3)
C10D C 0.4374(3) 0.9992(5) 0.3672(3)
H9D H 0.4736 1.0401 0.4129
C11D C 0.3546(2) 1.0361(3) 0.3177(2)
H10D H 0.3364 1.0995 0.3309
C12D C 0.2992(2) 0.9781(3) 0.2488(2)
C13D C 0.3299(2) 0.8842(3) 0.2348(3)
H11D H 0.2951 0.8413 0.1899
C14D C 0.4135(3) 0.8538(4) 0.2885(3)
H12D H 0.4327 0.7894 0.2779
C15D C 0.20966(18) 1.0175(3) 0.19484(19)
H13D H 0.1817 1.0314 0.2316
C16D C 0.14621(18) 0.9557(2) 0.11787(19)
H14D H 0.1783 0.9184 0.0921
O3 O -0.62778(17) 1.1892(2) -0.45055(19)
O4 O -0.7234(2) 1.3299(3) -0.3979(2)
O5 O 0.11367(17) 1.0012(2) -0.15601(18)
loop_
_geom_bond_atom_site_label_1
_geom_bond_atom_site_label_2
_geom_bond_site_symmetry_1
_geom_bond_site_symmetry_2
N1 C1 1_555 1_555
N2 H1 1_555 1_555
N3 N2 1_555 1_555
H2 N3 1_555 1_555
O1 C8 1_555 1_555
O2 C9 1_555 1_555
C1 H3 1_555 1_555
C2 C1 1_555 1_555
H4 C2 1_555 1_555
C3 C2 1_555 1_555
C4 C3 1_555 1_555
H5 C4 1_555 1_555
C5 N1 1_555 1_555
H6 C5 1_555 1_555
C6 C3 1_555 1_555
H7 C6 1_555 1_555
C7 C6 1_555 1_555
H8 C7 1_555 1_555
C8 N2 1_555 1_555
C9 N3 1_555 1_555
N4 C10 1_555 1_555
C10 H9 1_555 1_555
C11 C10 1_555 1_555
H10 C11 1_555 1_555
C12 C11 1_555 1_555
C13 C12 1_555 1_555
H11 C13 1_555 1_555
C14 N4 1_555 1_555
H12 C14 1_555 1_555
C15 C6 1_555 1_555
H13 C15 1_555 1_555
C16 C7 1_555 1_555
H14 C16 1_555 1_555
N1D C1D 1_555 1_555
N2D H1D 1_555 1_555
N3D N2D 1_555 1_555
H2D N3D 1_555 1_555
O1D C8D 1_555 1_555
O2D C9D 1_555 1_555
C1D H3D 1_555 1_555
C2D C1D 1_555 1_555
H4D C2D 1_555 1_555
C3D C2D 1_555 1_555
C4D C3D 1_555 1_555
H5D C4D 1_555 1_555
C5D N1D 1_555 1_555
H6D C5D 1_555 1_555
C6D C3D 1_555 1_555
H7D C6D 1_555 1_555
C7D C6D 1_555 1_555
H8D C7D 1_555 1_555
C8D N2D 1_555 1_555
C9D C16 1_555 1_555
N4D C10D 1_555 1_555
C10D H9D 1_555 1_555
C11D C10D 1_555 1_555
H10D C11D 1_555 1_555
C12D C11D 1_555 1_555
C13D C12D 1_555 1_555
H11D C13D 1_555 1_555
C14D N4D 1_555 1_555
H12D C14D 1_555 1_555
C15D C6D 1_555 1_555
H13D C15D 1_555 1_555
C16D C9 1_555 1_555
H14D C16D 1_555 1_555
C4 C5 1_555 1_555
C7 C8 1_555 1_555
C12 C15 1_555 1_555
C13 C14 1_555 1_555
C15 C16 1_555 1_555
N3D C9D 1_555 1_555
C4D C5D 1_555 1_555
C7D C8D 1_555 1_555
C7D C16D 1_555 1_555
C12D C15D 1_555 1_555
C13D C14D 1_555 1_555
C15D C16D 1_555 1_555

#END
