
#######################################################################
#
#                 Cambridge Crystallographic Data Centre
#                                CCDC 
#
#######################################################################
#
# If this CIF has been generated from an entry in the Cambridge 
# Structural Database, then it will include bibliographic, chemical, 
# crystal, experimental, refinement or atomic coordinate data resulting 
# from the CCDC's data processing and validation procedures.
#
#######################################################################

data_ABENIF
_chemical_compound_source        'soft coral Sinularia microclavata Tix.-Dur'
_chemical_name_common            'Capillolide monohydrate'
_chemical_formula_moiety         'C20 H32 O5,H2 O1'
_chemical_name_systematic        
'(1R*,4R*,5S*,12S*,13R*)-9-Acetoxycembra-8(E),15(17)-dien-16,4-olide monohydrate'
_chemical_properties_biological  
'exhibits cytotoxicity against A-549, P388 and L1210 cell lines'
_symmetry_cell_setting           monoclinic
_symmetry_space_group_name_H-M   'C 2'
_symmetry_Int_Tables_number      5
_space_group_name_Hall           'C 2y'
loop_
_symmetry_equiv_pos_site_id
_symmetry_equiv_pos_as_xyz
1 x,y,z
2 -x,y,-z
3 1/2+x,1/2+y,z
4 1/2-x,1/2+y,-z
_cell_length_a                   15.6359(17)
_cell_length_b                   12.1299(17)
_cell_length_c                   11.5236(14)
_cell_angle_alpha                90
_cell_angle_beta                 104.111(3)
_cell_angle_gamma                90
_cell_volume                     2119.64
_exptl_crystal_colour            colorless
_exptl_crystal_description       block
_cell_formula_units_Z            4
_exptl_crystal_recrystallization_method 'ethyl acetate/petroleum ether'
loop_
_atom_site_label
_atom_site_type_symbol
_atom_site_fract_x
_atom_site_fract_y
_atom_site_fract_z
O1 O 0.22465(19) -0.08579(17) 0.86221(19)
H1 H 0.2199 -0.0490 0.9200
O2 O 0.30102(14) 0.52143(17) 0.94647(13)
H2 H 0.2721 0.5771 0.9234
O3 O 0.20161(13) 0.54837(16) 0.70284(15)
H3 H 0.2283 0.5825 0.6613
O4 O 0.21627(18) 0.1742(2) 0.43955(16)
O5 O 0.21469(13) 0.06120(16) 0.58338(15)
C1 C 0.18333(13) 0.2531(2) 0.72674(16)
H4 H 0.2439 0.2258 0.7532
C2 C 0.12414(16) 0.1740(2) 0.7756(2)
H5 H 0.1534 0.1552 0.8575
H6 H 0.0697 0.2118 0.7770
C3 C 0.10160(17) 0.0679(2) 0.7042(3)
H7 H 0.0726 0.0191 0.7493
H8 H 0.0588 0.0859 0.6304
C4 C 0.17570(18) 0.0036(2) 0.6714(2)
C5 C 0.25415(18) -0.0172(2) 0.7795(2)
H9 H 0.2728 0.0536 0.8184
C6 C 0.3337(2) -0.0709(3) 0.7479(3)
H10 H 0.3283 -0.0631 0.6626
H11 H 0.3338 -0.1491 0.7658
C7 C 0.4216(2) -0.0203(3) 0.8162(3)
H12 H 0.4246 -0.0221 0.9013
H13 H 0.4697 -0.0646 0.8023
C8 C 0.43255(18) 0.0959(3) 0.7794(3)
C9 C 0.42468(18) 0.1809(3) 0.8494(3)
H14 H 0.4197 0.1631 0.9260
C10 C 0.42277(18) 0.3009(3) 0.8203(3)
H15 H 0.3926 0.3117 0.7370
H16 H 0.4827 0.3278 0.8317
C11 C 0.37570(17) 0.3668(3) 0.8997(2)
H17 H 0.3321 0.3190 0.9209
H18 H 0.4187 0.3850 0.9732
C12 C 0.32965(16) 0.4730(2) 0.84819(18)
C13 C 0.24814(15) 0.4492(2) 0.74479(18)
H19 H 0.2688 0.4170 0.6785
C14 C 0.18172(15) 0.3693(2) 0.77715(19)
H20 H 0.1934 0.3645 0.8636
H21 H 0.1229 0.3995 0.7481
C15 C 0.19602(17) 0.1595(2) 0.53340(19)
C16 C 0.15829(13) 0.2496(2) 0.59139(18)
C17 C 0.10737(17) 0.3228(3) 0.5219(2)
H22 H 0.0963 0.3166 0.4392
H23 H 0.0827 0.3804 0.5559
C18 C 0.1410(3) -0.1033(3) 0.6080(3)
H24 H 0.0956 -0.0870 0.5376
H25 H 0.1173 -0.1488 0.6607
H26 H 0.1883 -0.1416 0.5857
C19 C 0.4488(2) 0.1123(4) 0.6565(3)
H27 H 0.4513 0.1898 0.6405
H28 H 0.4016 0.0793 0.5975
H29 H 0.5036 0.0784 0.6534
C20 C 0.3923(2) 0.5527(3) 0.8094(3)
H30 H 0.3654 0.6242 0.7960
H31 H 0.4051 0.5266 0.7368
H32 H 0.4460 0.5576 0.8710
O6 O 0.3155(2) 0.1946(2) 0.1124(2)
H33 H 0.3190 0.261 0.130
H34 H 0.3173 0.1551 0.1748
loop_
_geom_bond_atom_site_label_1
_geom_bond_atom_site_label_2
_geom_bond_site_symmetry_1
_geom_bond_site_symmetry_2
O1 H1 1_555 1_555
O2 H2 1_555 1_555
O3 H3 1_555 1_555
O4 C15 1_555 1_555
O5 C4 1_555 1_555
C1 H4 1_555 1_555
C2 C1 1_555 1_555
H5 C2 1_555 1_555
H6 C2 1_555 1_555
C3 C2 1_555 1_555
H7 C3 1_555 1_555
H8 C3 1_555 1_555
C4 C3 1_555 1_555
C5 O1 1_555 1_555
H9 C5 1_555 1_555
C6 C5 1_555 1_555
H10 C6 1_555 1_555
H11 C6 1_555 1_555
C7 C6 1_555 1_555
H12 C7 1_555 1_555
H13 C7 1_555 1_555
C8 C7 1_555 1_555
C9 C8 1_555 1_555
H14 C9 1_555 1_555
C10 C9 1_555 1_555
H15 C10 1_555 1_555
H16 C10 1_555 1_555
C11 C10 1_555 1_555
H17 C11 1_555 1_555
H18 C11 1_555 1_555
C12 O2 1_555 1_555
C13 O3 1_555 1_555
H19 C13 1_555 1_555
C14 C1 1_555 1_555
H20 C14 1_555 1_555
H21 C14 1_555 1_555
C15 O5 1_555 1_555
C16 C1 1_555 1_555
C17 C16 1_555 1_555
H22 C17 1_555 1_555
H23 C17 1_555 1_555
C18 C4 1_555 1_555
H24 C18 1_555 1_555
H25 C18 1_555 1_555
H26 C18 1_555 1_555
C19 C8 1_555 1_555
H27 C19 1_555 1_555
H28 C19 1_555 1_555
H29 C19 1_555 1_555
C20 C12 1_555 1_555
H30 C20 1_555 1_555
H31 C20 1_555 1_555
H32 C20 1_555 1_555
O6 H33 1_555 1_555
H34 O6 1_555 1_555
C4 C5 1_555 1_555
C11 C12 1_555 1_555
C12 C13 1_555 1_555
C13 C14 1_555 1_555
C15 C16 1_555 1_555

#END
