
#######################################################################
#
#                 Cambridge Crystallographic Data Centre
#                                CCDC 
#
#######################################################################
#
# If this CIF has been generated from an entry in the Cambridge 
# Structural Database, then it will include bibliographic, chemical, 
# crystal, experimental, refinement or atomic coordinate data resulting 
# from the CCDC's data processing and validation procedures.
#
#######################################################################

data_ABEPIJ
_chemical_name_common            
5-chloro-3-(5-methoxy-1-methyl-2-oxo-1,2-dihydro-3H-indol-3-ylidene)-1-methyl-1,3-dihydro-2H-indol-2-one
_chemical_formula_moiety         'C19 H15 Cl1 N2 O3'
_chemical_name_systematic        
(E)-5-chloro-5'-methoxy-1,1'-dimethyl-[3,3'-biindolinylidene]-2,2'-dione
_symmetry_cell_setting           monoclinic
_symmetry_space_group_name_H-M   'C 2/c'
_symmetry_Int_Tables_number      15
_space_group_name_Hall           '-C 2yn'
loop_
_symmetry_equiv_pos_site_id
_symmetry_equiv_pos_as_xyz
1 x,y,z
2 -x,y,1/2-z
3 1/2+x,1/2+y,z
4 1/2-x,1/2+y,1/2-z
5 -x,-y,-z
6 x,-y,1/2+z
7 1/2-x,1/2-y,-z
8 1/2+x,1/2-y,1/2+z
_cell_length_a                   7.1145(15)
_cell_length_b                   18.993(3)
_cell_length_c                   23.116(5)
_cell_angle_alpha                90
_cell_angle_beta                 96.189(6)
_cell_angle_gamma                90
_cell_volume                     3105.36
_exptl_crystal_colour            red
_exptl_crystal_description       needle
_cell_formula_units_Z            8
loop_
_atom_site_label
_atom_site_type_symbol
_atom_site_fract_x
_atom_site_fract_y
_atom_site_fract_z
Cl1 Cl 1.04644(5) 0.200904(18) 0.523354(15)
O1 O 0.73335(16) 0.50818(5) 0.69440(4)
O2 O 0.77695(17) 0.22445(6) 0.69632(5)
O3 O 0.70180(17) 0.51710(5) 0.89223(4)
N1 N 0.77729(17) 0.47045(6) 0.60322(5)
N2 N 0.71279(17) 0.25785(6) 0.78664(5)
C1 C 0.82952(19) 0.40868(7) 0.57696(6)
C2 C 0.8698(2) 0.40096(8) 0.51999(6)
H1 H 0.8541 0.4390 0.4932
C3 C 0.9341(2) 0.33563(8) 0.50333(6)
H2 H 0.9642 0.3283 0.4647
C4 C 0.95374(19) 0.28142(7) 0.54341(6)
C5 C 0.90737(19) 0.28831(7) 0.60008(6)
H3 H 0.9195 0.2496 0.6262
C6 C 0.84281(19) 0.35332(7) 0.61759(6)
C7 C 0.79561(19) 0.38233(7) 0.67347(6)
C8 C 0.76567(19) 0.46058(7) 0.66169(6)
C9 C 0.7459(2) 0.53770(8) 0.57442(7)
H4 H 0.7029 0.5720 0.6018
H5 H 0.6493 0.5325 0.5411
H6 H 0.8641 0.5541 0.5608
C10 C 0.76807(18) 0.35046(7) 0.72496(6)
C11 C 0.7575(2) 0.27070(7) 0.73184(6)
C12 C 0.69655(19) 0.32085(7) 0.81717(6)
C13 C 0.65720(19) 0.32810(8) 0.87412(6)
H7 H 0.6300 0.2883 0.8966
C14 C 0.6587(2) 0.39537(8) 0.89731(6)
H8 H 0.6312 0.4020 0.9363
C15 C 0.7002(2) 0.45339(7) 0.86397(6)
C16 C 0.73580(19) 0.44597(8) 0.80617(6)
H9 H 0.7622 0.4860 0.7837
C17 C 0.73193(18) 0.37869(7) 0.78194(6)
C18 C 0.6951(2) 0.18783(8) 0.81061(7)
H10 H 0.7236 0.1526 0.7818
H11 H 0.5657 0.1809 0.8204
H12 H 0.7840 0.1827 0.8458
C19 C 0.7155(2) 0.57884(8) 0.85755(7)
H13 H 0.8381 0.5794 0.8419
H14 H 0.7039 0.6208 0.8816
H15 H 0.6139 0.5787 0.8254
loop_
_geom_bond_atom_site_label_1
_geom_bond_atom_site_label_2
_geom_bond_site_symmetry_1
_geom_bond_site_symmetry_2
Cl1 C4 1_555 1_555
O1 C8 1_555 1_555
O2 C11 1_555 1_555
O3 C15 1_555 1_555
N1 C1 1_555 1_555
N2 C11 1_555 1_555
C1 C2 1_555 1_555
C2 H1 1_555 1_555
C3 C2 1_555 1_555
H2 C3 1_555 1_555
C4 C3 1_555 1_555
C5 C4 1_555 1_555
H3 C5 1_555 1_555
C6 C1 1_555 1_555
C7 C6 1_555 1_555
C8 N1 1_555 1_555
C9 N1 1_555 1_555
H4 C9 1_555 1_555
H5 C9 1_555 1_555
H6 C9 1_555 1_555
C10 C7 1_555 1_555
C11 C10 1_555 1_555
C12 N2 1_555 1_555
C13 C12 1_555 1_555
H7 C13 1_555 1_555
C14 C13 1_555 1_555
H8 C14 1_555 1_555
C15 C14 1_555 1_555
C16 C15 1_555 1_555
H9 C16 1_555 1_555
C17 C10 1_555 1_555
C18 N2 1_555 1_555
H10 C18 1_555 1_555
H11 C18 1_555 1_555
H12 C18 1_555 1_555
C19 O3 1_555 1_555
H13 C19 1_555 1_555
H14 C19 1_555 1_555
H15 C19 1_555 1_555
C5 C6 1_555 1_555
C7 C8 1_555 1_555
C12 C17 1_555 1_555
C16 C17 1_555 1_555

#END
