
#######################################################################
#
#                 Cambridge Crystallographic Data Centre
#                                CCDC 
#
#######################################################################
#
# If this CIF has been generated from an entry in the Cambridge 
# Structural Database, then it will include bibliographic, chemical, 
# crystal, experimental, refinement or atomic coordinate data resulting 
# from the CCDC's data processing and validation procedures.
#
#######################################################################

data_ABEPAZ
_chemical_formula_moiety         'C21 H18 N2 O4,C3 H7 N1 O1'
_chemical_name_systematic        
'Methyl 2-amino-4-(4-methylphenyl)-5-oxo-5,6-dihydro-4H-pyrano(3,2-c)quinoline-3-carboxylate dimethylformamide solvate'
_symmetry_cell_setting           triclinic
_symmetry_space_group_name_H-M   'P -1'
_symmetry_Int_Tables_number      2
_space_group_name_Hall           '-P 1'
loop_
_symmetry_equiv_pos_site_id
_symmetry_equiv_pos_as_xyz
1 x,y,z
2 -x,-y,-z
_cell_length_a                   8.5770(10)
_cell_length_b                   11.420(2)
_cell_length_c                   11.7290(10)
_cell_angle_alpha                96.280(10)
_cell_angle_beta                 102.430(10)
_cell_angle_gamma                92.000(10)
_cell_volume                     1113.16
_exptl_crystal_colour            colorless
_exptl_crystal_description       block
_chemical_melting_point          '535-537 K'
_cell_formula_units_Z            2
loop_
_atom_site_label
_atom_site_type_symbol
_atom_site_fract_x
_atom_site_fract_y
_atom_site_fract_z
O1 O 0.62372(18) 0.20948(14) 0.55736(15)
O2 O 0.15349(18) 0.03377(14) 0.63442(14)
O3 O 0.6606(2) 0.11299(16) 0.94289(17)
O4 O 0.8924(2) 0.15816(16) 0.89228(19)
N1 N 0.1631(2) 0.07099(15) 0.44964(16)
H1 H 0.0676 0.0394 0.4246
N2 N 0.8672(2) 0.21753(19) 0.6692(2)
H2 H 0.9389 0.2129 0.7320
H3 H 0.8946 0.2378 0.6075
C1 C 0.4678(2) 0.16305(18) 0.5263(2)
C2 C 0.3957(3) 0.15880(18) 0.4036(2)
C3 C 0.4715(3) 0.2001(2) 0.3198(2)
H4 H 0.5781 0.2283 0.3412
C4 C 0.3869(4) 0.1985(3) 0.2054(3)
H5 H 0.4363 0.2270 0.1499
C5 C 0.2287(4) 0.1550(3) 0.1724(3)
H6 H 0.1726 0.1553 0.0951
C6 C 0.1544(3) 0.1115(2) 0.2526(2)
H7 H 0.0491 0.0806 0.2293
C7 C 0.2366(3) 0.11364(19) 0.3688(2)
C8 C 0.2291(3) 0.07454(18) 0.5668(2)
C9 C 0.3907(2) 0.12847(17) 0.60719(19)
C10 C 0.4656(2) 0.14814(18) 0.73605(19)
H8 H 0.4378 0.0786 0.7714
C11 C 0.6447(3) 0.16021(19) 0.7540(2)
C12 C 0.7127(3) 0.19326(19) 0.6676(2)
C13 C 0.3973(2) 0.25545(18) 0.79412(18)
C14 C 0.4517(3) 0.3695(2) 0.7861(2)
H9 H 0.5304 0.3811 0.7442
C15 C 0.3907(4) 0.4665(2) 0.8396(3)
H10 H 0.4291 0.5419 0.8322
C16 C 0.2755(3) 0.4544(2) 0.9028(2)
C17 C 0.2189(3) 0.3418(2) 0.9088(2)
H11 H 0.1387 0.3310 0.9494
C18 C 0.2780(3) 0.2446(2) 0.8560(2)
H12 H 0.2367 0.1697 0.8620
C19 C 0.2148(4) 0.5611(3) 0.9658(3)
H13 H 0.2678 0.6318 0.9517
H14 H 0.2367 0.5554 1.0487
H15 H 0.1016 0.5634 0.9367
C20 C 0.7455(3) 0.1449(2) 0.8663(3)
C21 C 0.7460(4) 0.0919(3) 1.0605(3)
H19 H 0.8295 0.0395 1.0537
H20 H 0.6726 0.0569 1.1002
H21 H 0.7917 0.1655 1.1046
N3 N 0.1458(13) 0.4181(18) 0.4278(7)
O5 O -0.051(2) 0.308(4) 0.4711(18)
C22 C 0.0820(6) 0.3556(3) 0.4949(5)
H22 H 0.1451 0.3472 0.5683
C23 C 0.0661(8) 0.4305(6) 0.3110(4)
H23 H -0.0324 0.3827 0.2909
H24 H 0.1329 0.4054 0.2581
H25 H 0.0440 0.5117 0.3051
C24 C 0.3004(5) 0.4742(4) 0.4679(6)
H26 H 0.2926 0.5582 0.4769
H27 H 0.3643 0.4530 0.4118
H28 H 0.3494 0.4494 0.5423
H16? H 0.1362 0.5353 1.0063
H17? H 0.1673 0.6117 0.9094
H18? H 0.3025 0.6036 1.0214
N4? N 0.121(3) 0.412(5) 0.403(2)
O6? O -0.063(6) 0.298(10) 0.452(5)
C25? C -0.0181(12) 0.3546(9) 0.3822(12)
H29? H -0.0870 0.3574 0.3097
C26? C 0.200(2) 0.4125(15) 0.5220(11)
H30? H 0.2540 0.4883 0.5508
H31? H 0.2759 0.3526 0.5285
H32? H 0.1224 0.3971 0.5677
C27? C 0.183(2) 0.4691(13) 0.3202(15)
H33? H 0.1068 0.4590 0.2463
H34? H 0.2810 0.4357 0.3104
H35? H 0.2029 0.5517 0.3477
loop_
_geom_bond_atom_site_label_1
_geom_bond_atom_site_label_2
_geom_bond_site_symmetry_1
_geom_bond_site_symmetry_2
O1 C1 1_555 1_555
O2 C8 1_555 1_555
O3 C20 1_555 1_555
O4 C20 1_555 1_555
N1 H1 1_555 1_555
N2 H2 1_555 1_555
H3 N2 1_555 1_555
C1 C2 1_555 1_555
C2 C3 1_555 1_555
C3 H4 1_555 1_555
C4 C3 1_555 1_555
H5 C4 1_555 1_555
C5 C4 1_555 1_555
H6 C5 1_555 1_555
C6 C5 1_555 1_555
H7 C6 1_555 1_555
C7 N1 1_555 1_555
C8 N1 1_555 1_555
C9 C1 1_555 1_555
C10 C9 1_555 1_555
H8 C10 1_555 1_555
C11 C10 1_555 1_555
C12 O1 1_555 1_555
C13 C10 1_555 1_555
C14 C13 1_555 1_555
H9 C14 1_555 1_555
C15 C14 1_555 1_555
H10 C15 1_555 1_555
C16 C15 1_555 1_555
C17 C16 1_555 1_555
H11 C17 1_555 1_555
C18 C13 1_555 1_555
H12 C18 1_555 1_555
C19 C16 1_555 1_555
H13 C19 1_555 1_555
H14 C19 1_555 1_555
H15 C19 1_555 1_555
C20 C11 1_555 1_555
C21 O3 1_555 1_555
H19 C21 1_555 1_555
H20 C21 1_555 1_555
H21 C21 1_555 1_555
N3 C22 1_555 1_555
O5 C22 1_555 1_555
C22 H22 1_555 1_555
C23 N3 1_555 1_555
H23 C23 1_555 1_555
H24 C23 1_555 1_555
H25 C23 1_555 1_555
C24 N3 1_555 1_555
H26 C24 1_555 1_555
H27 C24 1_555 1_555
H28 C24 1_555 1_555
N2 C12 1_555 1_555
C2 C7 1_555 1_555
C6 C7 1_555 1_555
C8 C9 1_555 1_555
C11 C12 1_555 1_555
C17 C18 1_555 1_555

#END
