
#######################################################################
#
#                 Cambridge Crystallographic Data Centre
#                                CCDC 
#
#######################################################################
#
# If this CIF has been generated from an entry in the Cambridge 
# Structural Database, then it will include bibliographic, chemical, 
# crystal, experimental, refinement or atomic coordinate data resulting 
# from the CCDC's data processing and validation procedures.
#
#######################################################################

data_ABEQOO
_chemical_compound_source        'marine actinomycete strain CNQ-525'
_chemical_formula_moiety         'C26 H33 Cl3 O6'
_chemical_name_systematic        
3,4a-Dichloro-10a-(3-chloro-6-hydroxy-2,2,6-trimethylcyclohexylmethyl)-6,8-dihydroxy-2,2,7-trimethyl-3,4,4a,10a-tetrahydro-2H-benzo(g)chromene-5,10-dione
_chemical_properties_biological  
'shows significant cytotoxicity against HCT-116 colon carcinoma cells and antimicrobial activity against methicillin-resistant Staphylococcus aureus and vancomycin-resistant Enterococcus faecium'
_symmetry_cell_setting           orthorhombic
_symmetry_space_group_name_H-M   'P 21 21 21'
_symmetry_Int_Tables_number      19
_space_group_name_Hall           'P 2ac 2ab'
loop_
_symmetry_equiv_pos_site_id
_symmetry_equiv_pos_as_xyz
1 x,y,z
2 1/2-x,-y,1/2+z
3 -x,1/2+y,1/2-z
4 1/2+x,1/2-y,-z
_cell_length_a                   12.1542(10)
_cell_length_b                   13.8359(10)
_cell_length_c                   15.3928(12)
_cell_angle_alpha                90
_cell_angle_beta                 90
_cell_angle_gamma                90
_cell_volume                     2588.52
_exptl_crystal_colour            colorless
_exptl_crystal_description       block
_chemical_melting_point          '456 K'
_cell_formula_units_Z            4
_exptl_crystal_recrystallization_method methanol-dichloromethane
loop_
_atom_site_label
_atom_site_type_symbol
_atom_site_fract_x
_atom_site_fract_y
_atom_site_fract_z
Cl1 Cl 0.14600(5) 0.21426(6) 0.48685(4)
Cl2 Cl 0.17171(4) 0.30979(3) 0.77452(3)
Cl3 Cl -0.10033(8) -0.05122(6) 1.13374(4)
O1 O -0.00098(10) 0.15177(9) 0.71287(8)
O2 O 0.35809(11) 0.20335(10) 0.82923(10)
O3 O 0.49673(12) 0.05919(11) 0.84047(11)
H1 H 0.471(3) 0.110(2) 0.851(2)
O4 O 0.37182(13) -0.24529(10) 0.75408(11)
H2 H 0.315(3) -0.273(2) 0.7373(19)
O5 O 0.03257(10) -0.03869(10) 0.75415(10)
O6 O -0.18840(12) 0.16631(12) 0.80817(10)
H3 H -0.140(2) 0.1617(16) 0.7774(16)
C1 C 0.01287(16) 0.15051(14) 0.61839(12)
C2 C 0.11369(17) 0.21335(16) 0.59995(13)
H4 H 0.0965 0.2804 0.6179
C3 C 0.21449(15) 0.18037(15) 0.64991(12)
H5 H 0.2771 0.2221 0.6358
H6 H 0.2333 0.1140 0.6333
C4 C 0.29212(15) 0.14748(13) 0.79701(12)
C5 C 0.41301(15) 0.00402(14) 0.81283(12)
C6 C 0.43410(15) -0.09386(14) 0.79956(12)
C7 C 0.34889(15) -0.15242(13) 0.77080(12)
C8 C 0.24211(15) -0.11614(13) 0.76005(12)
H7 H 0.1840 -0.1578 0.7451
C9 C 0.10886(14) 0.01588(12) 0.76276(12)
C10 C 0.02153(19) 0.04867(17) 0.58136(14)
H8 H 0.0940 0.0227 0.5935
H9 H 0.0100 0.0507 0.5190
H10 H -0.0339 0.0078 0.6079
C11 C -0.09159(18) 0.19806(18) 0.58651(15)
H11 H -0.1544 0.1589 0.6029
H12 H -0.0890 0.2042 0.5238
H13 H -0.0984 0.2617 0.6124
C12 C 0.54647(17) -0.13433(16) 0.81545(15)
H14 H 0.5403 -0.2012 0.8337
H15 H 0.5827 -0.0972 0.8606
H16 H 0.5893 -0.1308 0.7624
C13 C 0.0729(2) -0.02339(19) 0.98105(17)
H17 H 0.1398 0.0094 0.9635
H18 H 0.0517 -0.0694 0.9365
H19 H 0.0855 -0.0573 1.0353
C14 C 0.01896(19) 0.12707(17) 1.05883(14)
H20 H -0.0440 0.1628 1.0804
H21 H 0.0697 0.1712 1.0307
H22 H 0.0557 0.0953 1.1069
C15 C -0.1547(2) 0.25275(17) 0.93947(16)
H23 H -0.0941 0.2895 0.9152
H24 H -0.1447 0.2463 1.0017
H25 H -0.2233 0.2861 0.9279
C16 C -0.05002(15) 0.09333(13) 0.90162(12)
H26 H -0.0620 0.0367 0.8635
C17 C -0.01964(17) 0.05123(14) 0.99346(13)
C18 C -0.1224(2) -0.00184(17) 1.02658(15)
H27 H -0.1362 -0.0567 0.9868
C19 C -0.2246(2) 0.0587(2) 1.02856(17)
H28 H -0.2134 0.1147 1.0665
H29 H -0.2860 0.0207 1.0517
C20 C -0.25110(19) 0.0924(2) 0.93659(17)
H30 H -0.3187 0.1310 0.9376
H31 H -0.2641 0.0359 0.8996
C21 C -0.15790(16) 0.15282(15) 0.89796(13)
C22 C 0.04840(15) 0.14848(14) 0.86263(12)
H32 H 0.1115 0.1381 0.9012
H33 H 0.0308 0.2175 0.8650
C23 C 0.19100(14) 0.18490(12) 0.74774(12)
C24 C 0.30869(14) 0.04390(13) 0.79515(11)
C25 C 0.22333(14) -0.01934(12) 0.77161(12)
C26 C 0.08662(14) 0.12577(12) 0.76921(12)
loop_
_geom_bond_atom_site_label_1
_geom_bond_atom_site_label_2
_geom_bond_site_symmetry_1
_geom_bond_site_symmetry_2
Cl1 C2 1_555 1_555
Cl2 C23 1_555 1_555
Cl3 C18 1_555 1_555
O1 C1 1_555 1_555
O2 C4 1_555 1_555
O3 H1 1_555 1_555
O4 H2 1_555 1_555
O5 C9 1_555 1_555
O6 H3 1_555 1_555
C1 C2 1_555 1_555
C2 H4 1_555 1_555
C3 C2 1_555 1_555
H5 C3 1_555 1_555
H6 C3 1_555 1_555
C4 C23 1_555 1_555
C5 O3 1_555 1_555
C6 C5 1_555 1_555
C7 O4 1_555 1_555
C8 C7 1_555 1_555
H7 C8 1_555 1_555
C9 C25 1_555 1_555
C10 C1 1_555 1_555
H8 C10 1_555 1_555
H9 C10 1_555 1_555
H10 C10 1_555 1_555
C11 C1 1_555 1_555
H11 C11 1_555 1_555
H12 C11 1_555 1_555
H13 C11 1_555 1_555
C12 C6 1_555 1_555
H14 C12 1_555 1_555
H15 C12 1_555 1_555
H16 C12 1_555 1_555
C13 H17 1_555 1_555
H18 C13 1_555 1_555
H19 C13 1_555 1_555
C14 H20 1_555 1_555
H21 C14 1_555 1_555
H22 C14 1_555 1_555
C15 H23 1_555 1_555
H24 C15 1_555 1_555
H25 C15 1_555 1_555
C16 H26 1_555 1_555
C17 C13 1_555 1_555
C18 C17 1_555 1_555
H27 C18 1_555 1_555
C19 C18 1_555 1_555
H28 C19 1_555 1_555
H29 C19 1_555 1_555
C20 C19 1_555 1_555
H30 C20 1_555 1_555
H31 C20 1_555 1_555
C21 O6 1_555 1_555
C22 C16 1_555 1_555
H32 C22 1_555 1_555
H33 C22 1_555 1_555
C23 C3 1_555 1_555
C24 C4 1_555 1_555
C25 C8 1_555 1_555
C26 O1 1_555 1_555
C5 C24 1_555 1_555
C6 C7 1_555 1_555
C9 C26 1_555 1_555
C14 C17 1_555 1_555
C15 C21 1_555 1_555
C16 C17 1_555 1_555
C16 C21 1_555 1_555
C20 C21 1_555 1_555
C22 C26 1_555 1_555
C23 C26 1_555 1_555
C24 C25 1_555 1_555

#END
