
#######################################################################
#
#                 Cambridge Crystallographic Data Centre
#                                CCDC 
#
#######################################################################
#
# If this CIF has been generated from an entry in the Cambridge 
# Structural Database, then it will include bibliographic, chemical, 
# crystal, experimental, refinement or atomic coordinate data resulting 
# from the CCDC's data processing and validation procedures.
#
#######################################################################

data_ABEQAC
_chemical_formula_moiety         'C21 H14 N2 O1'
_chemical_name_systematic        phenyl(3-phenylquinoxalin-2-yl)methanone
_symmetry_cell_setting           triclinic
_symmetry_space_group_name_H-M   'P -1'
_symmetry_Int_Tables_number      2
_space_group_name_Hall           '-P 1'
loop_
_symmetry_equiv_pos_site_id
_symmetry_equiv_pos_as_xyz
1 x,y,z
2 -x,-y,-z
_cell_length_a                   9.1726(3)
_cell_length_b                   9.7842(3)
_cell_length_c                   9.8948(3)
_cell_angle_alpha                116.4263(12)
_cell_angle_beta                 94.4096(13)
_cell_angle_gamma                94.0562(14)
_cell_volume                     787.382
_exptl_crystal_colour            colorless
_exptl_crystal_description       Block
_chemical_melting_point          '420 K'
_cell_formula_units_Z            2
_exptl_crystal_recrystallization_method hexane
loop_
_atom_site_label
_atom_site_type_symbol
_atom_site_fract_x
_atom_site_fract_y
_atom_site_fract_z
N1 N 0.16426(12) 0.65645(12) 0.51419(11)
C1 C 0.19703(13) 0.74514(14) 0.45034(13)
C2 C 0.22485(13) 0.90912(14) 0.53406(13)
N2 N 0.21908(12) 0.97830(12) 0.68203(12)
C3 C 0.18305(14) 0.88847(15) 0.75067(14)
C4 C 0.17416(17) 0.95757(17) 0.90895(15)
H1 H 0.1957 1.0646 0.9672
C5 C 0.13436(17) 0.86852(18) 0.97660(15)
H2 H 0.1288 0.9150 1.0818
C6 C 0.10144(16) 0.70864(18) 0.89202(15)
H3 H 0.0726 0.6494 0.9407
C7 C 0.11097(15) 0.63860(16) 0.73962(15)
H4 H 0.0889 0.5314 0.6834
C8 C 0.15394(14) 0.72741(14) 0.66663(13)
C9 C 0.18431(14) 0.65803(14) 0.27844(14)
O1 O 0.07910(11) 0.67297(12) 0.20555(10)
C10 C 0.29406(15) 0.55157(14) 0.20864(14)
C11 C 0.42787(16) 0.56342(16) 0.29112(16)
H5 H 0.4484 0.6382 0.3931
C12 C 0.53091(18) 0.46572(18) 0.2237(2)
H6 H 0.6219 0.4750 0.2794
C13 C 0.50016(19) 0.35430(18) 0.0743(2)
H7 H 0.5701 0.2874 0.0290
C14 C 0.36740(19) 0.34099(16) -0.00843(17)
H8 H 0.3468 0.2646 -0.1098
C15 C 0.26436(17) 0.43989(15) 0.05736(15)
H9 H 0.1746 0.4318 0.0003
C16 C 0.26009(14) 1.00794(14) 0.45999(14)
C17 C 0.19117(16) 1.14052(16) 0.49772(16)
H10 H 0.1241 1.1669 0.5700
C18 C 0.22159(18) 1.23348(17) 0.42862(18)
H11 H 0.1729 1.3213 0.4522
C19 C 0.32276(19) 1.19794(17) 0.32559(18)
H12 H 0.3430 1.2616 0.2793
C20 C 0.39456(17) 1.06890(17) 0.29016(16)
H13 H 0.4650 1.0459 0.2214
C21 C 0.36253(15) 0.97354(16) 0.35621(15)
H14 H 0.4103 0.8849 0.3308
loop_
_geom_bond_atom_site_label_1
_geom_bond_atom_site_label_2
_geom_bond_site_symmetry_1
_geom_bond_site_symmetry_2
N1 C1 1_555 1_555
C1 C2 1_555 1_555
C2 N2 1_555 1_555
N2 C3 1_555 1_555
C3 C4 1_555 1_555
C4 H1 1_555 1_555
C5 C4 1_555 1_555
H2 C5 1_555 1_555
C6 C5 1_555 1_555
H3 C6 1_555 1_555
C7 C6 1_555 1_555
H4 C7 1_555 1_555
C8 N1 1_555 1_555
C9 C1 1_555 1_555
O1 C9 1_555 1_555
C10 C9 1_555 1_555
C11 C10 1_555 1_555
H5 C11 1_555 1_555
C12 C11 1_555 1_555
H6 C12 1_555 1_555
C13 C12 1_555 1_555
H7 C13 1_555 1_555
C14 C13 1_555 1_555
H8 C14 1_555 1_555
C15 C10 1_555 1_555
H9 C15 1_555 1_555
C16 C2 1_555 1_555
C17 C16 1_555 1_555
H10 C17 1_555 1_555
C18 C17 1_555 1_555
H11 C18 1_555 1_555
C19 C18 1_555 1_555
H12 C19 1_555 1_555
C20 C19 1_555 1_555
H13 C20 1_555 1_555
C21 C16 1_555 1_555
H14 C21 1_555 1_555
C3 C8 1_555 1_555
C7 C8 1_555 1_555
C14 C15 1_555 1_555
C20 C21 1_555 1_555

#END
