
#######################################################################
#
#                 Cambridge Crystallographic Data Centre
#                                CCDC 
#
#######################################################################
#
# If this CIF has been generated from an entry in the Cambridge 
# Structural Database, then it will include bibliographic, chemical, 
# crystal, experimental, refinement or atomic coordinate data resulting 
# from the CCDC's data processing and validation procedures.
#
#######################################################################

data_ABEQAA
_chemical_formula_moiety         'C16 H16 N2 O2'
_chemical_name_systematic        
5a,6,11a,12-Tetrahydro-5a,11a-dimethyl-1,4-benzoxazino(3,2-b)(1,4)benzoxazine
_symmetry_cell_setting           monoclinic
_symmetry_space_group_name_H-M   'P 21/c'
_symmetry_Int_Tables_number      14
_space_group_name_Hall           '-P 2ybc'
loop_
_symmetry_equiv_pos_site_id
_symmetry_equiv_pos_as_xyz
1 x,y,z
2 x,1/2-y,1/2+z
3 -x,-y,-z
4 -x,1/2+y,1/2-z
_cell_length_a                   11.025(7)
_cell_length_b                   11.238(7)
_cell_length_c                   11.666(7)
_cell_angle_alpha                90
_cell_angle_beta                 105.484(10)
_cell_angle_gamma                90
_cell_volume                     1392.94
_exptl_crystal_colour            colorless
_exptl_crystal_description       block
_chemical_melting_point          '514-515 K'
_cell_formula_units_Z            4
_exptl_crystal_recrystallization_method ethanol
loop_
_atom_site_label
_atom_site_type_symbol
_atom_site_fract_x
_atom_site_fract_y
_atom_site_fract_z
N1 N 0.1128(2) 0.1267(2) -0.01817(19)
H1 H 0.1316 0.0678 -0.0573
N2 N -0.1104(2) 0.3731(2) -0.07434(19)
H2 H -0.1294 0.4320 -0.1229
O1 O 0.07866(17) 0.35124(16) 0.07054(15)
O2 O -0.07529(17) 0.14876(16) 0.03206(15)
C1 C 0.0814(3) 0.3645(3) -0.1363(2)
H3 H 0.0379 0.3435 -0.2165
H4 H 0.1639 0.3295 -0.1160
H5 H 0.0888 0.4495 -0.1296
C2 C 0.0080(2) 0.3184(2) -0.0519(2)
C3 C -0.0062(2) 0.1821(2) -0.0556(2)
C4 C -0.0799(3) 0.1349(3) -0.1765(2)
H6 H -0.0354 0.1532 -0.2347
H7 H -0.1615 0.1716 -0.1990
H8 H -0.0894 0.0503 -0.1721
C5 C 0.1835(3) 0.2830(3) 0.1243(2)
C6 C 0.1992(3) 0.1697(3) 0.0839(2)
C7 C 0.3032(3) 0.1039(3) 0.1445(3)
H9 H 0.3157 0.0280 0.1180
C8 C 0.3886(3) 0.1502(4) 0.2441(3)
H10 H 0.4575 0.1049 0.2843
C9 C 0.3720(3) 0.2617(4) 0.2833(3)
H11 H 0.4294 0.2922 0.3503
C10 C 0.2679(3) 0.3308(3) 0.2225(3)
H12 H 0.2565 0.4073 0.2482
C11 C -0.1801(2) 0.2168(2) 0.0331(2)
C12 C -0.1962(3) 0.3301(2) -0.0166(2)
C13 C -0.3010(3) 0.3956(3) -0.0081(3)
H13 H -0.3143 0.4713 -0.0412
C14 C -0.3851(3) 0.3493(4) 0.0487(4)
H14 H -0.4541 0.3943 0.0540
C15 C -0.3680(3) 0.2373(4) 0.0977(3)
H15 H -0.4247 0.2067 0.1365
C16 C -0.2645(3) 0.1700(3) 0.0885(3)
H16 H -0.2528 0.0935 0.1200
loop_
_geom_bond_atom_site_label_1
_geom_bond_atom_site_label_2
_geom_bond_site_symmetry_1
_geom_bond_site_symmetry_2
N1 H1 1_555 1_555
N2 H2 1_555 1_555
O1 C2 1_555 1_555
O2 C3 1_555 1_555
C1 H3 1_555 1_555
H4 C1 1_555 1_555
H5 C1 1_555 1_555
C2 N2 1_555 1_555
C3 N1 1_555 1_555
C4 C3 1_555 1_555
H6 C4 1_555 1_555
H7 C4 1_555 1_555
H8 C4 1_555 1_555
C5 O1 1_555 1_555
C6 N1 1_555 1_555
C7 C6 1_555 1_555
H9 C7 1_555 1_555
C8 C7 1_555 1_555
H10 C8 1_555 1_555
C9 C8 1_555 1_555
H11 C9 1_555 1_555
C10 C5 1_555 1_555
H12 C10 1_555 1_555
C11 O2 1_555 1_555
C12 N2 1_555 1_555
C13 C12 1_555 1_555
H13 C13 1_555 1_555
C14 C13 1_555 1_555
H14 C14 1_555 1_555
C15 C14 1_555 1_555
H15 C15 1_555 1_555
C16 C11 1_555 1_555
H16 C16 1_555 1_555
C1 C2 1_555 1_555
C2 C3 1_555 1_555
C5 C6 1_555 1_555
C9 C10 1_555 1_555
C11 C12 1_555 1_555
C15 C16 1_555 1_555

#END
