
#######################################################################
#
#                 Cambridge Crystallographic Data Centre
#                                CCDC 
#
#######################################################################
#
# If this CIF has been generated from an entry in the Cambridge 
# Structural Database, then it will include bibliographic, chemical, 
# crystal, experimental, refinement or atomic coordinate data resulting 
# from the CCDC's data processing and validation procedures.
#
#######################################################################

data_ABERAB
_chemical_formula_moiety         'C12 H24 N1 1+,C6 H5 O4 S1 1-,H2 O1'
_chemical_name_systematic        
'Dicyclohexylaminium 4-hydroxybenzenesulfonate monohydrate'
_symmetry_cell_setting           monoclinic
_symmetry_space_group_name_H-M   'P 21/n'
_symmetry_Int_Tables_number      14
_space_group_name_Hall           '-P 2yn'
loop_
_symmetry_equiv_pos_site_id
_symmetry_equiv_pos_as_xyz
1 x,y,z
2 1/2+x,1/2-y,1/2+z
3 -x,-y,-z
4 1/2-x,1/2+y,1/2-z
_cell_length_a                   11.1091(4)
_cell_length_b                   11.7800(3)
_cell_length_c                   15.9282(5)
_cell_angle_alpha                90
_cell_angle_beta                 109.5630(10)
_cell_angle_gamma                90
_cell_volume                     1964.12
_exptl_crystal_colour            colorless
_exptl_crystal_description       block
_cell_formula_units_Z            4
_exptl_crystal_recrystallization_method water
loop_
_atom_site_label
_atom_site_type_symbol
_atom_site_fract_x
_atom_site_fract_y
_atom_site_fract_z
N1 N 0.32759(17) 0.35846(16) 0.25553(14)
C1 C 0.4837(2) 0.5170(2) 0.30537(17)
H1 H 0.5050 0.4928 0.3669
H2 H 0.4144 0.5714 0.2928
C2 C 0.5999(2) 0.5726(2) 0.29178(19)
H3 H 0.5750 0.6050 0.2324
H4 H 0.6298 0.6339 0.3343
C3 C 0.7076(2) 0.4891(2) 0.3031(2)
H5 H 0.7420 0.4661 0.3651
H6 H 0.7755 0.5260 0.2878
C4 C 0.6631(3) 0.3841(3) 0.2448(2)
H7 H 0.6411 0.4054 0.1827
H8 H 0.7324 0.3295 0.2584
C5 C 0.5480(2) 0.3296(2) 0.25976(18)
H9 H 0.5186 0.2661 0.2193
H10 H 0.5721 0.3010 0.3203
C6 C 0.4416(2) 0.41550(19) 0.24412(15)
H11 H 0.4180 0.4423 0.1825
C7 C 0.2062(2) 0.42588(19) 0.23584(15)
H12 H 0.2206 0.4868 0.2800
C8 C 0.1045(2) 0.3475(2) 0.2463(2)
H13 H 0.0906 0.2855 0.2040
H14 H 0.1329 0.3155 0.3058
C9 C -0.0190(3) 0.4112(3) 0.2306(3)
H15 H -0.0840 0.3592 0.2356
H16 H -0.0066 0.4693 0.2758
C10 C -0.0636(3) 0.4653(3) 0.1403(3)
H17 H -0.1401 0.5093 0.1333
H18 H -0.0848 0.4067 0.0949
C11 C 0.0383(3) 0.5419(3) 0.1278(2)
H19 H 0.0522 0.6055 0.1686
H20 H 0.0091 0.5718 0.0675
C12 C 0.1646(2) 0.4784(2) 0.14433(17)
H21 H 0.1535 0.4196 0.0997
H22 H 0.2296 0.5306 0.1398
H28 H 0.347(2) 0.3358(17) 0.3115(16)
H29 H 0.308(2) 0.301(2) 0.2173(17)
S1 S 0.26524(5) 0.64973(5) 0.44666(4)
O1 O -0.16193(19) 0.83251(16) 0.54799(14)
H23 H -0.2207 0.7867 0.5378
O2 O 0.22590(16) 0.66687(13) 0.35094(11)
O3 O 0.27661(18) 0.53045(14) 0.46880(12)
O4 O 0.37644(16) 0.71586(16) 0.49418(13)
C13 C -0.0652(2) 0.7867(2) 0.52423(15)
C14 C 0.0426(3) 0.8512(2) 0.53732(18)
H24 H 0.0470 0.9236 0.5614
C15 C 0.1444(2) 0.8101(2) 0.51529(17)
H25 H 0.2168 0.8547 0.5246
C16 C 0.1387(2) 0.70280(18) 0.47947(14)
C17 C 0.0295(2) 0.63849(19) 0.46531(16)
H26 H 0.0244 0.5666 0.4403
C18 C -0.0716(2) 0.6795(2) 0.48778(17)
H27 H -0.1442 0.6351 0.4785
O5 O 0.36075(19) 0.31642(18) 0.44774(13)
H30 H 0.438(4) 0.305(3) 0.474(2)
H31 H 0.347(4) 0.389(3) 0.455(2)
loop_
_geom_bond_atom_site_label_1
_geom_bond_atom_site_label_2
_geom_bond_site_symmetry_1
_geom_bond_site_symmetry_2
N1 C6 1_555 1_555
C1 H1 1_555 1_555
H2 C1 1_555 1_555
C2 C1 1_555 1_555
H3 C2 1_555 1_555
H4 C2 1_555 1_555
C3 C2 1_555 1_555
H5 C3 1_555 1_555
H6 C3 1_555 1_555
C4 C3 1_555 1_555
H7 C4 1_555 1_555
H8 C4 1_555 1_555
C5 C4 1_555 1_555
H9 C5 1_555 1_555
H10 C5 1_555 1_555
C6 C1 1_555 1_555
H11 C6 1_555 1_555
C7 N1 1_555 1_555
H12 C7 1_555 1_555
C8 C7 1_555 1_555
H13 C8 1_555 1_555
H14 C8 1_555 1_555
C9 C8 1_555 1_555
H15 C9 1_555 1_555
H16 C9 1_555 1_555
C10 C9 1_555 1_555
H17 C10 1_555 1_555
H18 C10 1_555 1_555
C11 C10 1_555 1_555
H19 C11 1_555 1_555
H20 C11 1_555 1_555
C12 C7 1_555 1_555
H21 C12 1_555 1_555
H22 C12 1_555 1_555
S1 O2 1_555 1_555
O1 H23 1_555 1_555
O3 S1 1_555 1_555
O4 S1 1_555 1_555
C13 O1 1_555 1_555
C14 C13 1_555 1_555
H24 C14 1_555 1_555
C15 C14 1_555 1_555
H25 C15 1_555 1_555
C16 S1 1_555 1_555
C17 C16 1_555 1_555
H26 C17 1_555 1_555
C18 C13 1_555 1_555
H27 C18 1_555 1_555
O5 H30 1_555 1_555
H28 N1 1_555 1_555
H29 N1 1_555 1_555
H31 O5 1_555 1_555
C5 C6 1_555 1_555
C11 C12 1_555 1_555
C15 C16 1_555 1_555
C17 C18 1_555 1_555

#END
