
#######################################################################
#
#                 Cambridge Crystallographic Data Centre
#                                CCDC 
#
#######################################################################
#
# If this CIF has been generated from an entry in the Cambridge 
# Structural Database, then it will include bibliographic, chemical, 
# crystal, experimental, refinement or atomic coordinate data resulting 
# from the CCDC's data processing and validation procedures.
#
#######################################################################

data_ABEROP
_chemical_formula_moiety         'C8 H6 Cl1 N3'
_chemical_name_systematic        2-Amino-7-chloro-1,8-naphthyridine
_chemical_properties_biological  'potential biological activity'
_symmetry_cell_setting           monoclinic
_symmetry_space_group_name_H-M   'P 21/n'
_symmetry_Int_Tables_number      14
_space_group_name_Hall           '-P 2yn'
loop_
_symmetry_equiv_pos_site_id
_symmetry_equiv_pos_as_xyz
1 x,y,z
2 1/2-x,1/2+y,1/2-z
3 -x,-y,-z
4 1/2+x,1/2-y,1/2+z
_cell_length_a                   6.906(7)
_cell_length_b                   12.538(13)
_cell_length_c                   9.099(9)
_cell_angle_alpha                90
_cell_angle_beta                 91.012(17)
_cell_angle_gamma                90
_cell_volume                     787.736
_exptl_crystal_colour            orange
_exptl_crystal_description       block
_chemical_melting_point          '452-455 K'
_cell_formula_units_Z            4
_exptl_crystal_recrystallization_method acetone
loop_
_atom_site_label
_atom_site_type_symbol
_atom_site_fract_x
_atom_site_fract_y
_atom_site_fract_z
Cl1 Cl 1.14367(7) 0.81937(4) 0.55480(5)
N1 N 0.92935(19) 0.66304(10) 0.45997(13)
N2 N 0.71727(17) 0.52888(10) 0.39707(13)
C1 C 1.2349(2) 0.68261(13) 0.33712(19)
H1 H 1.3502 0.7204 0.3293
N3 N 0.5031(2) 0.39486(12) 0.34545(16)
H2 H 0.4302 0.4187 0.4137
H3 H 0.4684 0.3396 0.2956
C2 C 0.8888(2) 0.57736(11) 0.37248(14)
C3 C 1.0958(2) 0.71003(13) 0.44037(16)
C4 C 1.0192(2) 0.54205(12) 0.26415(15)
C5 C 0.6709(2) 0.44386(13) 0.31670(16)
C6 C 1.1932(2) 0.59769(14) 0.24847(18)
H4 H 1.2805 0.5767 0.1774
C7 C 0.9629(2) 0.45210(13) 0.17916(16)
H5 H 1.0436 0.4267 0.1063
C8 C 0.7931(3) 0.40338(14) 0.20357(17)
H6 H 0.7554 0.3444 0.1481
loop_
_geom_bond_atom_site_label_1
_geom_bond_atom_site_label_2
_geom_bond_site_symmetry_1
_geom_bond_site_symmetry_2
Cl1 C3 1_555 1_555
N1 C2 1_555 1_555
N2 C2 1_555 1_555
C1 H1 1_555 1_555
N3 H2 1_555 1_555
H3 N3 1_555 1_555
C2 C4 1_555 1_555
C3 N1 1_555 1_555
C4 C6 1_555 1_555
C5 N2 1_555 1_555
C6 C1 1_555 1_555
H4 C6 1_555 1_555
C7 C4 1_555 1_555
H5 C7 1_555 1_555
C8 C5 1_555 1_555
H6 C8 1_555 1_555
C1 C3 1_555 1_555
N3 C5 1_555 1_555
C7 C8 1_555 1_555

#END
