
#######################################################################
#
#                 Cambridge Crystallographic Data Centre
#                                CCDC 
#
#######################################################################
#
# If this CIF has been generated from an entry in the Cambridge 
# Structural Database, then it will include bibliographic, chemical, 
# crystal, experimental, refinement or atomic coordinate data resulting 
# from the CCDC's data processing and validation procedures.
#
#######################################################################

data_ABEVUY
_chemical_formula_moiety         'C36 H74 Li2 N6 Si2'
_chemical_name_systematic        
(\m~2~-\h^5^,\h^5^-1,2-bis(2-t-Butylamido-2-trimethylsilylethenyl)benzene)-bis(1,2-bis(dimethylamino)ethane-N,N')-di-lithium
_symmetry_cell_setting           triclinic
_symmetry_space_group_name_H-M   'P -1'
_symmetry_Int_Tables_number      2
_space_group_name_Hall           '-P 1'
loop_
_symmetry_equiv_pos_site_id
_symmetry_equiv_pos_as_xyz
1 x,y,z
2 -x,-y,-z
_cell_length_a                   10.5380(9)
_cell_length_b                   13.280(2)
_cell_length_c                   16.545(3)
_cell_angle_alpha                100.630(4)
_cell_angle_beta                 100.18(1)
_cell_angle_gamma                97.977(9)
_cell_volume                     2204.4
_exptl_crystal_colour            orange
_cell_formula_units_Z            2
_exptl_crystal_recrystallization_method 'diethyl ether'
loop_
_atom_site_label
_atom_site_type_symbol
_atom_site_fract_x
_atom_site_fract_y
_atom_site_fract_z
Si1 Si -0.2575(1) 0.1476(1) 0.1719(1)
Si2 Si 0.2634(1) 0.4142(1) 0.0749(1)
Li1 Li 0.1105(3) 0.0865(2) 0.2799(2)
Li2 Li 0.2161(3) 0.5435(2) 0.3217(2)
N1 N -0.0700(1) 0.0684(1) 0.2949(1)
N2 N 0.3519(1) 0.5332(1) 0.2539(1)
N3 N 0.2887(1) 0.0473(1) 0.3420(1)
N4 N 0.1649(2) 0.0120(1) 0.1672(1)
N5 N 0.0273(2) 0.5792(1) 0.2794(1)
N6 N 0.2031(2) 0.6447(1) 0.4418(1)
C1 C -0.0998(1) 0.1370(1) 0.2469(1)
C2 C -0.0051(1) 0.2245(1) 0.2517(1)
C3 C 0.1078(1) 0.2746(1) 0.3189(1)
C4 C 0.1185(2) 0.2558(1) 0.4001(1)
C5 C 0.2199(2) 0.3062(1) 0.4663(1)
C6 C 0.3175(2) 0.3772(1) 0.4530(1)
C7 C 0.3122(2) 0.3980(1) 0.3741(1)
C8 C 0.2099(1) 0.3504(1) 0.3044(1)
C9 C 0.2077(1) 0.3711(1) 0.2210(1)
C10 C 0.2835(1) 0.4499(1) 0.1951(1)
C11 C -0.1632(2) -0.0165(1) 0.3088(1)
C12 C -0.2863(2) 0.0170(2) 0.3312(1)
C13 C -0.1972(2) -0.1097(2) 0.2339(2)
C14 C -0.0903(2) -0.0512(2) 0.3841(2)
C15 C -0.3786(2) 0.0280(2) 0.1133(2)
C16 C -0.2189(2) 0.2103(2) 0.0851(1)
C17 C -0.3466(2) 0.2359(2) 0.2324(1)
C18 C 0.2667(3) 0.5206(2) 0.0156(1)
C19 C 0.0962(2) 0.3354(2) 0.0254(1)
C20 C 0.3810(2) 0.3276(2) 0.0438(2)
C21 C 0.4580(2) 0.6089(1) 0.2405(1)
C22 C 0.5466(2) 0.6499(2) 0.3271(2)
C23 C 0.4054(2) 0.6980(2) 0.2075(2)
C24 C 0.5424(2) 0.5625(2) 0.1823(2)
C25 C 0.3933(2) 0.1365(2) 0.3604(2)
C26 C 0.2842(3) 0.0145(2) 0.4224(2)
C27 C 0.3096(2) -0.0376(2) 0.2818(2)
C28 C 0.2915(2) -0.0211(2) 0.1974(2)
C29 C 0.1856(3) 0.0821(2) 0.1125(2)
C30 C 0.0672(3) -0.0763(2) 0.1258(2)
C31 C -0.0743(2) 0.4871(2) 0.2527(3)
C32 C 0.0310(3) 0.6290(2) 0.2091(2)
C33 C -0.0032(3) 0.6498(2) 0.3485(2)
C34 C 0.0939(3) 0.6943(2) 0.4169(2)
C35 C 0.1774(5) 0.5884(3) 0.5037(2)
C36 C 0.3162(3) 0.7257(3) 0.4756(2)
H1 H -0.0158 0.2551 0.2053
H2 H 0.0541 0.2070 0.4100
H3 H 0.2220 0.2922 0.5195
H4 H 0.2868 0.4110 0.4970
H5 H 0.3795 0.4461 0.3663
H6 H 0.1465 0.3248 0.1781
H7 H -0.2630 0.0758 0.3778
H8 H -0.3377 -0.0394 0.3464
H9 H -0.3364 0.0359 0.2837
H10 H -0.1179 -0.1305 0.2212
H11 H -0.2451 -0.0904 0.1859
H12 H -0.2497 -0.1666 0.2477
H13 H -0.0678 0.0059 0.4320
H14 H -0.0118 -0.0734 0.3713
H15 H -0.1453 -0.1079 0.3964
H16 H -0.3348 -0.0194 0.0820
H17 H -0.4465 0.0472 0.0754
H18 H -0.4164 -0.0051 0.1526
H19 H -0.1726 0.1677 0.0517
H20 H -0.1653 0.2776 0.1085
H21 H -0.2988 0.2180 0.0506
H22 H -0.3692 0.2070 0.2781
H23 H -0.4249 0.2433 0.1961
H24 H -0.2915 0.3028 0.2542
H25 H 0.2073 0.5653 0.0321
H26 H 0.2407 0.4911 -0.0436
H27 H 0.3537 0.5603 0.0278
H28 H 0.0814 0.2768 0.0510
H29 H 0.0907 0.3112 -0.0337
H30 H 0.0310 0.3779 0.0335
H31 H 0.3788 0.2726 0.0741
H32 H 0.4680 0.3677 0.0569
H33 H 0.3564 0.2984 -0.0154
H34 H 0.4971 0.6802 0.3656
H35 H 0.6174 0.7018 0.3236
H36 H 0.5814 0.5937 0.3467
H37 H 0.3543 0.7291 0.2446
H38 H 0.3513 0.6717 0.1524
H39 H 0.4772 0.7493 0.2047
H40 H 0.4898 0.5358 0.1268
H41 H 0.5774 0.5070 0.2031
H42 H 0.6131 0.6154 0.1804
H43 H 0.3745 0.1914 0.4006
H44 H 0.4003 0.1601 0.3096
H45 H 0.4744 0.1170 0.3830
H46 H 0.2703 0.0715 0.4630
H47 H 0.3657 -0.0060 0.4429
H48 H 0.2138 -0.0432 0.4136
H49 H 0.2498 -0.0998 0.2825
H50 H 0.3981 -0.0499 0.2986
H51 H 0.2964 -0.0852 0.1598
H52 H 0.3629 0.0316 0.1942
H53 H 0.2534 0.1399 0.1417
H54 H 0.1060 0.1071 0.0955
H55 H 0.2114 0.0464 0.0638
H56 H 0.0562 -0.1220 0.1637
H57 H 0.0938 -0.1125 0.0775
H58 H -0.0141 -0.0541 0.1082
H59 H -0.0788 0.4533 0.2988
H60 H -0.0542 0.4403 0.2070
H61 H -0.1571 0.5070 0.2345
H62 H 0.0548 0.5831 0.1644
H63 H 0.0944 0.6922 0.2264
H64 H -0.0538 0.6448 0.1896
H65 H -0.0373 0.7056 0.3262
H66 H -0.0735 0.6122 0.3679
H67 H 0.0523 0.7071 0.4647
H68 H 0.1301 0.7619 0.4085
H69 H 0.1041 0.5330 0.4798
H70 H 0.1576 0.6343 0.5500
H71 H 0.2531 0.5599 0.5232
H72 H 0.3336 0.7625 0.4328
H73 H 0.3906 0.6954 0.4943
H74 H 0.2996 0.7733 0.5221
loop_
_geom_bond_atom_site_label_1
_geom_bond_atom_site_label_2
_geom_bond_site_symmetry_1
_geom_bond_site_symmetry_2
Si1 C1 1_555 1_555
Si2 C10 1_555 1_555
Li1 N1 1_555 1_555
Li2 N2 1_555 1_555
N1 C1 1_555 1_555
N2 C10 1_555 1_555
N3 Li1 1_555 1_555
N4 Li1 1_555 1_555
N5 Li2 1_555 1_555
N6 Li2 1_555 1_555
C1 Li1 1_555 1_555
C2 Li1 1_555 1_555
C3 Li1 1_555 1_555
C4 Li1 1_555 1_555
C5 C4 1_555 1_555
C6 C5 1_555 1_555
C7 Li2 1_555 1_555
C8 Li2 1_555 1_555
C9 Li2 1_555 1_555
C10 Li2 1_555 1_555
C11 N1 1_555 1_555
C12 C11 1_555 1_555
C13 C11 1_555 1_555
C14 C11 1_555 1_555
C15 Si1 1_555 1_555
C16 Si1 1_555 1_555
C17 Si1 1_555 1_555
C18 Si2 1_555 1_555
C19 Si2 1_555 1_555
C20 Si2 1_555 1_555
C21 N2 1_555 1_555
C22 C21 1_555 1_555
C23 C21 1_555 1_555
C24 C21 1_555 1_555
C25 N3 1_555 1_555
C26 N3 1_555 1_555
C27 N3 1_555 1_555
C28 N4 1_555 1_555
C29 N4 1_555 1_555
C30 N4 1_555 1_555
C31 N5 1_555 1_555
C32 N5 1_555 1_555
C33 N5 1_555 1_555
C34 N6 1_555 1_555
C35 N6 1_555 1_555
C36 N6 1_555 1_555
H1 C2 1_555 1_555
H2 C4 1_555 1_555
H3 C5 1_555 1_555
H4 C6 1_555 1_555
H5 C7 1_555 1_555
H6 C9 1_555 1_555
H7 C12 1_555 1_555
H8 C12 1_555 1_555
H9 C12 1_555 1_555
H10 C13 1_555 1_555
H11 C13 1_555 1_555
H12 C13 1_555 1_555
H13 C14 1_555 1_555
H14 C14 1_555 1_555
H15 C14 1_555 1_555
H16 C15 1_555 1_555
H17 C15 1_555 1_555
H18 C15 1_555 1_555
H19 C16 1_555 1_555
H20 C16 1_555 1_555
H21 C16 1_555 1_555
H22 C17 1_555 1_555
H23 C17 1_555 1_555
H24 C17 1_555 1_555
H25 C18 1_555 1_555
H26 C18 1_555 1_555
H27 C18 1_555 1_555
H28 C19 1_555 1_555
H29 C19 1_555 1_555
H30 C19 1_555 1_555
H31 C20 1_555 1_555
H32 C20 1_555 1_555
H33 C20 1_555 1_555
H34 C22 1_555 1_555
H35 C22 1_555 1_555
H36 C22 1_555 1_555
H37 C23 1_555 1_555
H38 C23 1_555 1_555
H39 C23 1_555 1_555
H40 C24 1_555 1_555
H41 C24 1_555 1_555
H42 C24 1_555 1_555
H43 C25 1_555 1_555
H44 C25 1_555 1_555
H45 C25 1_555 1_555
H46 C26 1_555 1_555
H47 C26 1_555 1_555
H48 C26 1_555 1_555
H49 C27 1_555 1_555
H50 C27 1_555 1_555
H51 C28 1_555 1_555
H52 C28 1_555 1_555
H53 C29 1_555 1_555
H54 C29 1_555 1_555
H55 C29 1_555 1_555
H56 C30 1_555 1_555
H57 C30 1_555 1_555
H58 C30 1_555 1_555
H59 C31 1_555 1_555
H60 C31 1_555 1_555
H61 C31 1_555 1_555
H62 C32 1_555 1_555
H63 C32 1_555 1_555
H64 C32 1_555 1_555
H65 C33 1_555 1_555
H66 C33 1_555 1_555
H67 C34 1_555 1_555
H68 C34 1_555 1_555
H69 C35 1_555 1_555
H70 C35 1_555 1_555
H71 C35 1_555 1_555
H72 C36 1_555 1_555
H73 C36 1_555 1_555
H74 C36 1_555 1_555
C1 C2 1_555 1_555
C2 C3 1_555 1_555
C3 C4 1_555 1_555
C3 C8 1_555 1_555
C6 C7 1_555 1_555
C7 C8 1_555 1_555
C8 C9 1_555 1_555
C9 C10 1_555 1_555
C27 C28 1_555 1_555
C33 C34 1_555 1_555

#END
