
#######################################################################
#
#                 Cambridge Crystallographic Data Centre
#                                CCDC 
#
#######################################################################
#
# If this CIF has been generated from an entry in the Cambridge 
# Structural Database, then it will include bibliographic, chemical, 
# crystal, experimental, refinement or atomic coordinate data resulting 
# from the CCDC's data processing and validation procedures.
#
#######################################################################

data_ABEVOS
_chemical_formula_moiety         'C40 H66 Li2 N6 Si2'
_chemical_name_systematic        
(\m~2~-\h^5^,\h^5^-1,2-bis(2-N-Trimethylsilylamido-2-phenylethenyl)benzene)-bis(1,2-bis(dimethylamino)ethane-N,N')-di-lithium
_symmetry_cell_setting           monoclinic
_symmetry_space_group_name_H-M   'P 21'
_symmetry_Int_Tables_number      4
_space_group_name_Hall           'P 2yb'
loop_
_symmetry_equiv_pos_site_id
_symmetry_equiv_pos_as_xyz
1 x,y,z
2 -x,1/2+y,-z
_cell_length_a                   10.716(2)
_cell_length_b                   15.817(2)
_cell_length_c                   13.9940(10)
_cell_angle_alpha                90
_cell_angle_beta                 103.730(10)
_cell_angle_gamma                90
_cell_volume                     2304.14
_cell_formula_units_Z            2
_exptl_crystal_recrystallization_method 'diethyl ether'
loop_
_atom_site_label
_atom_site_type_symbol
_atom_site_fract_x
_atom_site_fract_y
_atom_site_fract_z
Si1 Si 0.9334(1) 0.1684(1) 0.7180(1)
Si2 Si 0.2701(1) 0.3365(1) 0.0682(1)
N1 N 0.7958(3) 0.1729(2) 0.6294(2)
N2 N 0.3705(3) 0.2761(2) 0.1522(2)
N3 N 0.4789(4) 0.1993(2) 0.6535(3)
N4 N 0.5885(5) 0.3671(3) 0.6713(3)
N5 N 0.6219(5) 0.1464(3) 0.1197(4)
N6 N 0.7108(4) 0.3172(4) 0.1284(4)
C1 C 0.7553(3) 0.1264(2) 0.5451(3)
C2 C 0.6812(3) 0.1594(2) 0.4588(3)
C3 C 0.6630(3) 0.2485(2) 0.4308(2)
C4 C 0.7582(4) 0.3091(3) 0.4701(3)
C5 C 0.7489(5) 0.3916(3) 0.4392(3)
C6 C 0.6445(5) 0.4186(3) 0.3674(4)
C7 C 0.5475(4) 0.3618(2) 0.3273(3)
C8 C 0.5542(3) 0.2764(2) 0.3561(2)
C9 C 0.4475(3) 0.2170(2) 0.3147(3)
C10 C 0.3583(3) 0.2237(2) 0.2270(2)
C11 C 0.7858(3) 0.0336(2) 0.5460(3)
C12 C 0.8399(5) -0.0009(3) 0.4752(4)
C13 C 0.8743(5) -0.0866(4) 0.4794(5)
C14 C 0.8537(6) -0.1376(4) 0.5538(5)
C15 C 0.7959(6) -0.1051(3) 0.6217(5)
C16 C 0.7643(5) -0.0199(3) 0.6205(4)
C17 C 0.9042(10) 0.1488(9) 0.8380(5)
C18 C 1.0530(10) 0.0911(10) 0.7038(11)
C19 C 1.0134(9) 0.2727(7) 0.7271(7)
C20 C 0.2459(3) 0.1628(2) 0.2107(3)
C21 C 0.1871(4) 0.1433(3) 0.2861(4)
C22 C 0.0851(5) 0.0856(4) 0.2723(5)
C23 C 0.0414(5) 0.0480(4) 0.1816(6)
C24 C 0.0969(5) 0.0667(4) 0.1068(5)
C25 C 0.1983(5) 0.1238(3) 0.1200(3)
C26 C 0.0946(4) 0.3228(4) 0.0567(5)
C27 C 0.3048(6) 0.3218(5) -0.0553(3)
C28 C 0.3029(6) 0.4508(3) 0.0981(4)
C29 C 0.3928(6) 0.1596(5) 0.5698(4)
C30 C 0.5181(6) 0.1371(4) 0.7313(4)
C31 C 0.4141(6) 0.2724(4) 0.6855(5)
C32 C 0.4928(9) 0.3398(5) 0.7223(8)
C33 C 0.6917(10) 0.4044(6) 0.7471(8)
C34 C 0.5363(10) 0.4239(6) 0.5949(7)
C35 C 0.5183(8) 0.1227(5) 0.0387(7)
C36 C 0.6532(13) 0.0786(6) 0.1917(7)
C37 C 0.7324(7) 0.1693(6) 0.0842(5)
C38 C 0.7368(8) 0.2557(7) 0.0587(6)
C39 C 0.6864(10) 0.4017(8) 0.0854(8)
C40 C 0.8228(6) 0.3232(8) 0.2150(6)
Li1 Li 0.6474(7) 0.2476(4) 0.6180(5)
Li2 Li 0.5571(6) 0.2586(5) 0.1742(5)
H1 H 0.6378(3) 0.1204(2) 0.4132(3)
H2 H 0.8294(4) 0.2925(3) 0.5186(3)
H3 H 0.8135(5) 0.4297(3) 0.4668(3)
H4 H 0.6392(5) 0.4744(3) 0.3462(4)
H5 H 0.4764(4) 0.3806(2) 0.2802(3)
H6 H 0.4405(3) 0.1698(2) 0.3528(3)
H7 H 0.8537(5) 0.0328(3) 0.4242(4)
H8 H 0.9114(5) -0.1092(4) 0.4314(5)
H9 H 0.8794(6) -0.1939(4) 0.5575(5)
H10 H 0.7770(6) -0.1402(3) 0.6697(5)
H11 H 0.7286(5) 0.0020(3) 0.6696(4)
H12 H 0.8410(10) 0.1880(9) 0.8497(5)
H13 H 0.9826(10) 0.1560(9) 0.8873(5)
H14 H 0.8733(10) 0.0921(9) 0.8406(5)
H15 H 1.0726(10) 0.0983(10) 0.6408(11)
H16 H 1.0200(10) 0.0351(10) 0.7082(11)
H17 H 1.1296(10) 0.0988(10) 0.7549(11)
H18 H 1.0316(9) 0.2866(7) 0.6650(7)
H19 H 1.0922(9) 0.2707(7) 0.7770(7)
H20 H 0.9579(9) 0.3149(7) 0.7439(7)
H21 H 0.2160(4) 0.1690(3) 0.3471(4)
H22 H 0.0473(5) 0.0727(4) 0.3238(5)
H23 H -0.0263(5) 0.0098(4) 0.1718(6)
H24 H 0.0668(5) 0.0411(4) 0.0459(5)
H25 H 0.2349(5) 0.1362(3) 0.0676(3)
H26 H 0.0760(4) 0.3302(4) 0.1200(5)
H27 H 0.0693(4) 0.2670(4) 0.0326(5)
H28 H 0.0482(4) 0.3640(4) 0.0117(5)
H29 H 0.3952(6) 0.3289(5) -0.0501(3)
H30 H 0.2578(6) 0.3629(5) -0.1003(3)
H31 H 0.2794(6) 0.2659(5) -0.0791(3)
H32 H 0.3926(6) 0.4621(3) 0.1051(4)
H33 H 0.2795(6) 0.4640(3) 0.1585(4)
H34 H 0.2533(6) 0.4849(3) 0.0459(4)
H35 H 0.3665(6) 0.2004(5) 0.5182(4)
H36 H 0.3185(6) 0.1384(5) 0.5893(4)
H37 H 0.4363(6) 0.1137(5) 0.5466(4)
H38 H 0.5749(6) 0.1630(4) 0.7870(4)
H39 H 0.5616(6) 0.0912(4) 0.7080(4)
H40 H 0.4436(6) 0.1158(4) 0.7504(4)
H41 H 0.3480(6) 0.2921(4) 0.6299(5)
H42 H 0.3716(6) 0.2536(4) 0.7357(5)
H43 H 0.5372(9) 0.3259(5) 0.7893(8)
H44 H 0.4379(9) 0.3879(5) 0.7260(8)
H45 H 0.7238(10) 0.3631(6) 0.7972(8)
H46 H 0.6591(10) 0.4522(6) 0.7757(8)
H47 H 0.7600(10) 0.4223(6) 0.7181(8)
H48 H 0.6018(10) 0.4408(6) 0.5625(7)
H49 H 0.5039(10) 0.4728(6) 0.6218(7)
H50 H 0.4675(10) 0.3969(6) 0.5484(7)
H51 H 0.4447(8) 0.1074(5) 0.0629(7)
H52 H 0.5441(8) 0.0753(5) 0.0050(7)
H53 H 0.4969(8) 0.1694(5) -0.0059(7)
H54 H 0.7228(13) 0.0960(6) 0.2448(7)
H55 H 0.6781(13) 0.0291(6) 0.1610(7)
H56 H 0.5794(13) 0.0658(6) 0.2168(7)
H57 H 0.8091(7) 0.1559(6) 0.1345(5)
H58 H 0.7337(7) 0.1352(6) 0.0269(5)
H59 H 0.6754(8) 0.2645(7) -0.0036(6)
H60 H 0.8215(8) 0.2673(7) 0.0483(6)
H61 H 0.6700(10) 0.4402(8) 0.1340(8)
H62 H 0.6131(10) 0.3998(8) 0.0305(8)
H63 H 0.7602(10) 0.4204(8) 0.0635(8)
H64 H 0.8047(6) 0.3638(8) 0.2607(6)
H65 H 0.8975(6) 0.3405(8) 0.1935(6)
H66 H 0.8383(6) 0.2689(8) 0.2464(6)
loop_
_geom_bond_atom_site_label_1
_geom_bond_atom_site_label_2
_geom_bond_site_symmetry_1
_geom_bond_site_symmetry_2
Si1 N1 1_555 1_555
Si2 N2 1_555 1_555
N1 C1 1_555 1_555
N2 C10 1_555 1_555
N3 C29 1_555 1_555
N4 C32 1_555 1_555
N5 C35 1_555 1_555
N6 C38 1_555 1_555
C1 C2 1_555 1_555
C2 C3 1_555 1_555
C3 C4 1_555 1_555
C4 C5 1_555 1_555
C5 C6 1_555 1_555
C6 C7 1_555 1_555
C7 C8 1_555 1_555
C8 C3 1_555 1_555
C9 C8 1_555 1_555
C10 C9 1_555 1_555
C11 C1 1_555 1_555
C12 C11 1_555 1_555
C13 C12 1_555 1_555
C14 C13 1_555 1_555
C15 C14 1_555 1_555
C16 C11 1_555 1_555
C17 Si1 1_555 1_555
C18 Si1 1_555 1_555
C19 Si1 1_555 1_555
C20 C10 1_555 1_555
C21 C20 1_555 1_555
C22 C21 1_555 1_555
C23 C22 1_555 1_555
C24 C23 1_555 1_555
C25 C20 1_555 1_555
C26 Si2 1_555 1_555
C27 Si2 1_555 1_555
C28 Si2 1_555 1_555
C29 H35 1_555 1_555
C30 N3 1_555 1_555
C31 N3 1_555 1_555
C32 C31 1_555 1_555
C33 N4 1_555 1_555
C34 N4 1_555 1_555
C35 H51 1_555 1_555
C36 N5 1_555 1_555
C37 N5 1_555 1_555
C38 C37 1_555 1_555
C39 N6 1_555 1_555
C40 N6 1_555 1_555
Li1 N1 1_555 1_555
Li2 N2 1_555 1_555
H1 C2 1_555 1_555
H2 C4 1_555 1_555
H3 C5 1_555 1_555
H4 C6 1_555 1_555
H5 C7 1_555 1_555
H6 C9 1_555 1_555
H7 C12 1_555 1_555
H8 C13 1_555 1_555
H9 C14 1_555 1_555
H10 C15 1_555 1_555
H11 C16 1_555 1_555
H12 C17 1_555 1_555
H13 C17 1_555 1_555
H14 C17 1_555 1_555
H15 C18 1_555 1_555
H16 C18 1_555 1_555
H17 C18 1_555 1_555
H18 C19 1_555 1_555
H19 C19 1_555 1_555
H20 C19 1_555 1_555
H21 C21 1_555 1_555
H22 C22 1_555 1_555
H23 C23 1_555 1_555
H24 C24 1_555 1_555
H25 C25 1_555 1_555
H26 C26 1_555 1_555
H27 C26 1_555 1_555
H28 C26 1_555 1_555
H29 C27 1_555 1_555
H30 C27 1_555 1_555
H31 C27 1_555 1_555
H32 C28 1_555 1_555
H33 C28 1_555 1_555
H34 C28 1_555 1_555
H36 C29 1_555 1_555
H37 C29 1_555 1_555
H38 C30 1_555 1_555
H39 C30 1_555 1_555
H40 C30 1_555 1_555
H41 C31 1_555 1_555
H42 C31 1_555 1_555
H43 C32 1_555 1_555
H44 C32 1_555 1_555
H45 C33 1_555 1_555
H46 C33 1_555 1_555
H47 C33 1_555 1_555
H48 C34 1_555 1_555
H49 C34 1_555 1_555
H50 C34 1_555 1_555
H52 C35 1_555 1_555
H53 C35 1_555 1_555
H54 C36 1_555 1_555
H55 C36 1_555 1_555
H56 C36 1_555 1_555
H57 C37 1_555 1_555
H58 C37 1_555 1_555
H59 C38 1_555 1_555
H60 C38 1_555 1_555
H61 C39 1_555 1_555
H62 C39 1_555 1_555
H63 C39 1_555 1_555
H64 C40 1_555 1_555
H65 C40 1_555 1_555
H66 C40 1_555 1_555
N3 Li1 1_555 1_555
N4 Li1 1_555 1_555
N5 Li2 1_555 1_555
N6 Li2 1_555 1_555
C1 Li1 1_555 1_555
C2 Li1 1_555 1_555
C3 Li1 1_555 1_555
C4 Li1 1_555 1_555
C7 Li2 1_555 1_555
C8 Li2 1_555 1_555
C9 Li2 1_555 1_555
C10 Li2 1_555 1_555
C15 C16 1_555 1_555
C24 C25 1_555 1_555

#END
