
#######################################################################
#
#                 Cambridge Crystallographic Data Centre
#                                CCDC 
#
#######################################################################
#
# If this CIF has been generated from an entry in the Cambridge 
# Structural Database, then it will include bibliographic, chemical, 
# crystal, experimental, refinement or atomic coordinate data resulting 
# from the CCDC's data processing and validation procedures.
#
#######################################################################

data_ABEWAF
_chemical_formula_moiety         'C36 H74 Li2 N6 Si2'
_chemical_name_systematic        
(\m~2~-\h^2^,\h^2^-1,2-bis(2-N-Trimethylsilylimido-3,3-dimethylbut-2-enyl)benzene)-bis(1,2-bis(dimethylamino)ethane-N,N')-di-lithium
_symmetry_cell_setting           monoclinic
_symmetry_space_group_name_H-M   'C c'
_symmetry_Int_Tables_number      9
_space_group_name_Hall           'C -2yc'
loop_
_symmetry_equiv_pos_site_id
_symmetry_equiv_pos_as_xyz
1 x,y,z
2 x,-y,1/2+z
3 1/2+x,1/2+y,z
4 1/2+x,1/2-y,1/2+z
_cell_length_a                   28.365(3)
_cell_length_b                   9.709(1)
_cell_length_c                   16.383(1)
_cell_angle_alpha                90
_cell_angle_beta                 92.87(1)
_cell_angle_gamma                90
_cell_volume                     4506.15
_exptl_crystal_colour            'pale yellow'
_cell_formula_units_Z            4
loop_
_atom_site_label
_atom_site_type_symbol
_atom_site_fract_x
_atom_site_fract_y
_atom_site_fract_z
Si1 Si 0.3533(1) 0.2824(1) 0.2157(1)
Si2 Si 0.6519(1) 0.5340(1) 0.2595(1)
Li1 Li 0.3985(2) 0.2246(6) 0.3952(3)
Li2 Li 0.6127(2) 0.2537(5) 0.1839(3)
N1 N 0.3889(1) 0.3266(2) 0.2950(1)
N2 N 0.6431(1) 0.3661(2) 0.2737(1)
N3 N 0.3443(1) 0.1701(3) 0.4722(2)
N4 N 0.4455(1) 0.1799(3) 0.4972(1)
N5 N 0.5681(1) 0.3094(3) 0.0731(2)
N6 N 0.6420(1) 0.1072(3) 0.1051(2)
C1 C 0.6549(1) 0.2489(3) 0.3142(2)
C2 C 0.6235(1) 0.1434(3) 0.3204(2)
C3 C 0.5725(1) 0.1449(2) 0.3034(2)
C4 C 0.5489(1) 0.0202(3) 0.2857(2)
C5 C 0.5004(1) 0.0188(3) 0.2717(2)
C6 C 0.4732(1) 0.1351(2) 0.2752(2)
C7 C 0.4957(1) 0.2616(2) 0.2952(2)
C8 C 0.5448(1) 0.2624(2) 0.3073(2)
C9 C 0.4712(1) 0.3914(2) 0.3068(2)
C10 C 0.4247(1) 0.4233(2) 0.3049(1)
C11 C 0.4100(1) 0.5739(3) 0.3212(2)
C12 C 0.4506(1) 0.6645(3) 0.3553(3)
C13 C 0.3905(2) 0.6369(4) 0.2421(2)
C14 C 0.3707(1) 0.5755(3) 0.3813(2)
C15 C 0.2943(1) 0.3713(4) 0.2050(3)
C16 C 0.3830(1) 0.3023(4) 0.1168(2)
C17 C 0.3367(1) 0.0954(3) 0.2265(2)
C18 C 0.7056(1) 0.2325(3) 0.3549(2)
C19 C 0.7433(1) 0.2988(4) 0.3044(2)
C20 C 0.7051(1) 0.3030(5) 0.4404(2)
C21 C 0.7197(1) 0.0812(4) 0.3709(2)
C22 C 0.5927(1) 0.6186(3) 0.2471(3)
C23 C 0.6853(1) 0.6369(4) 0.3408(2)
C24 C 0.6835(1) 0.5646(3) 0.1638(2)
C25 C 0.3665(1) 0.1829(5) 0.5539(2)
C26 C 0.4140(1) 0.1291(4) 0.5601(2)
C27 C 0.3274(2) 0.0308(5) 0.4600(3)
C28 C 0.3032(2) 0.2612(6) 0.4633(3)
C29 C 0.4833(2) 0.0845(5) 0.4873(3)
C30 C 0.4654(2) 0.3102(4) 0.5254(3)
C31 C 0.6180(2) 0.1195(5) 0.0291(3)
C32 C 0.5822(2) 0.1985(5) 0.0160(2)
C33 C 0.6406(2) -0.0325(4) 0.1329(3)
C34 C 0.6905(2) 0.1437(5) 0.0926(3)
C35 C 0.5747(2) 0.4391(5) 0.0335(3)
C36 C 0.5192(1) 0.2945(6) 0.0930(2)
H1 H 0.6373 0.0531 0.3189
H2 H 0.5659 -0.0614 0.2833
H3 H 0.4856 -0.0647 0.2594
H4 H 0.4407 0.1310 0.2648
H5 H 0.5598 0.3461 0.3185
H6 H 0.4917 0.4688 0.3170
H7 H 0.4765 0.6658 0.3197
H8 H 0.4397 0.7568 0.3635
H9 H 0.4609 0.6253 0.4070
H10 H 0.4134 0.6416 0.2009
H11 H 0.3653 0.5763 0.2243
H12 H 0.3781 0.7272 0.2514
H13 H 0.3818 0.5422 0.4339
H14 H 0.3587 0.6674 0.3866
H15 H 0.3460 0.5166 0.3595
H16 H 0.2990 0.4687 0.1995
H17 H 0.2763 0.3373 0.1581
H18 H 0.2775 0.3535 0.2534
H19 H 0.4131 0.2570 0.1206
H20 H 0.3635 0.2610 0.0739
H21 H 0.3874 0.3982 0.1050
H22 H 0.3649 0.0407 0.2311
H23 H 0.3190 0.0832 0.2744
H24 H 0.3179 0.0670 0.1791
H25 H 0.7440 0.2539 0.2523
H26 H 0.7353 0.3941 0.2965
H27 H 0.7737 0.2918 0.3324
H28 H 0.7355 0.2951 0.4683
H29 H 0.6976 0.3986 0.4321
H30 H 0.6817 0.2611 0.4728
H31 H 0.7202 0.0347 0.3192
H32 H 0.7504 0.0765 0.3981
H33 H 0.6971 0.0376 0.4041
H34 H 0.5732 0.5736 0.2055
H35 H 0.5777 0.6135 0.2983
H36 H 0.5969 0.7134 0.2325
H37 H 0.6702 0.6247 0.3914
H38 H 0.7173 0.6043 0.3466
H39 H 0.6853 0.7329 0.3267
H40 H 0.6671 0.5141 0.1207
H41 H 0.6835 0.6608 0.1503
H42 H 0.7154 0.5322 0.1703
H43 H 0.3477 0.1362 0.5925
H44 H 0.3675 0.2789 0.5681
H45 H 0.4284 0.1496 0.6130
H46 H 0.4120 0.0307 0.5553
H47 H 0.3028 0.0051 0.4951
H48 H 0.3163 0.0216 0.4040
H49 H 0.3542 -0.0282 0.4703
H50 H 0.2789 0.2331 0.4984
H51 H 0.3132 0.3531 0.4772
H52 H 0.2912 0.2589 0.4075
H53 H 0.5010 0.0748 0.5384
H54 H 0.4720 -0.0041 0.4692
H55 H 0.5033 0.1223 0.4473
H56 H 0.4875 0.2954 0.5709
H57 H 0.4812 0.3532 0.4817
H58 H 0.4403 0.3687 0.5419
H59 H 0.6098 0.0272 0.0131
H60 H 0.6405 0.1514 -0.0085
H61 H 0.5840 0.2370 -0.0377
H62 H 0.5560 0.1356 0.0134
H63 H 0.6546 -0.0955 0.0960
H64 H 0.6553 -0.0431 0.1866
H65 H 0.6074 -0.0515 0.1347
H66 H 0.7049 0.0809 0.0560
H67 H 0.6907 0.2349 0.0700
H68 H 0.7078 0.1432 0.1444
H69 H 0.5539 0.4488 -0.0141
H70 H 0.5675 0.5083 0.0728
H71 H 0.6068 0.4500 0.0185
H72 H 0.4977 0.3176 0.0480
H73 H 0.5141 0.2009 0.1092
H74 H 0.5141 0.3548 0.1381
loop_
_geom_bond_atom_site_label_1
_geom_bond_atom_site_label_2
_geom_bond_site_symmetry_1
_geom_bond_site_symmetry_2
Si1 N1 1_555 1_555
Si2 N2 1_555 1_555
Li1 N1 1_555 1_555
Li2 N2 1_555 1_555
N1 C10 1_555 1_555
N2 C1 1_555 1_555
N3 Li1 1_555 1_555
N4 Li1 1_555 1_555
N5 Li2 1_555 1_555
N6 Li2 1_555 1_555
C1 Li2 1_555 1_555
C2 Li2 1_555 1_555
C3 Li2 1_555 1_555
C4 C3 1_555 1_555
C5 C4 1_555 1_555
C6 C5 1_555 1_555
C7 C6 1_555 1_555
C8 C3 1_555 1_555
C9 C7 1_555 1_555
C10 Li1 1_555 1_555
C11 C10 1_555 1_555
C12 C11 1_555 1_555
C13 C11 1_555 1_555
C14 C11 1_555 1_555
C15 Si1 1_555 1_555
C16 Si1 1_555 1_555
C17 Si1 1_555 1_555
C18 C1 1_555 1_555
C19 C18 1_555 1_555
C20 C18 1_555 1_555
C21 C18 1_555 1_555
C22 Si2 1_555 1_555
C23 Si2 1_555 1_555
C24 Si2 1_555 1_555
C25 N3 1_555 1_555
C26 N4 1_555 1_555
C27 N3 1_555 1_555
C28 N3 1_555 1_555
C29 N4 1_555 1_555
C30 N4 1_555 1_555
C31 N6 1_555 1_555
C32 N5 1_555 1_555
C33 N6 1_555 1_555
C34 N6 1_555 1_555
C35 N5 1_555 1_555
C36 N5 1_555 1_555
H1 C2 1_555 1_555
H2 C4 1_555 1_555
H3 C5 1_555 1_555
H4 C6 1_555 1_555
H5 C8 1_555 1_555
H6 C9 1_555 1_555
H7 C12 1_555 1_555
H8 C12 1_555 1_555
H9 C12 1_555 1_555
H10 C13 1_555 1_555
H11 C13 1_555 1_555
H12 C13 1_555 1_555
H13 C14 1_555 1_555
H14 C14 1_555 1_555
H15 C14 1_555 1_555
H16 C15 1_555 1_555
H17 C15 1_555 1_555
H18 C15 1_555 1_555
H19 C16 1_555 1_555
H20 C16 1_555 1_555
H21 C16 1_555 1_555
H22 C17 1_555 1_555
H23 C17 1_555 1_555
H24 C17 1_555 1_555
H25 C19 1_555 1_555
H26 C19 1_555 1_555
H27 C19 1_555 1_555
H28 C20 1_555 1_555
H29 C20 1_555 1_555
H30 C20 1_555 1_555
H31 C21 1_555 1_555
H32 C21 1_555 1_555
H33 C21 1_555 1_555
H34 C22 1_555 1_555
H35 C22 1_555 1_555
H36 C22 1_555 1_555
H37 C23 1_555 1_555
H38 C23 1_555 1_555
H39 C23 1_555 1_555
H40 C24 1_555 1_555
H41 C24 1_555 1_555
H42 C24 1_555 1_555
H43 C25 1_555 1_555
H44 C25 1_555 1_555
H45 C26 1_555 1_555
H46 C26 1_555 1_555
H47 C27 1_555 1_555
H48 C27 1_555 1_555
H49 C27 1_555 1_555
H50 C28 1_555 1_555
H51 C28 1_555 1_555
H52 C28 1_555 1_555
H53 C29 1_555 1_555
H54 C29 1_555 1_555
H55 C29 1_555 1_555
H56 C30 1_555 1_555
H57 C30 1_555 1_555
H58 C30 1_555 1_555
H59 C31 1_555 1_555
H60 C31 1_555 1_555
H61 C32 1_555 1_555
H62 C32 1_555 1_555
H63 C33 1_555 1_555
H64 C33 1_555 1_555
H65 C33 1_555 1_555
H66 C34 1_555 1_555
H67 C34 1_555 1_555
H68 C34 1_555 1_555
H69 C35 1_555 1_555
H70 C35 1_555 1_555
H71 C35 1_555 1_555
H72 C36 1_555 1_555
H73 C36 1_555 1_555
H74 C36 1_555 1_555
C1 C2 1_555 1_555
C2 C3 1_555 1_555
C7 C8 1_555 1_555
C9 C10 1_555 1_555
C25 C26 1_555 1_555
C31 C32 1_555 1_555

#END
