
#######################################################################
#
#                 Cambridge Crystallographic Data Centre
#                                CCDC 
#
#######################################################################
#
# If this CIF has been generated from an entry in the Cambridge 
# Structural Database, then it will include bibliographic, chemical, 
# crystal, experimental, refinement or atomic coordinate data resulting 
# from the CCDC's data processing and validation procedures.
#
#######################################################################

data_ABEXOX
_chemical_formula_moiety         'C42 H36 N2 O4'
_chemical_name_systematic        
N,N,N',N'-tetrakis(4-methoxyphenyl)anthracene-2,6-diamine
_symmetry_cell_setting           monoclinic
_symmetry_space_group_name_H-M   'C c'
_symmetry_Int_Tables_number      9
_space_group_name_Hall           'C -2yc'
loop_
_symmetry_equiv_pos_site_id
_symmetry_equiv_pos_as_xyz
1 x,y,z
2 x,-y,1/2+z
3 1/2+x,1/2+y,z
4 1/2+x,1/2-y,1/2+z
_cell_length_a                   18.493(3)
_cell_length_b                   11.0439(17)
_cell_length_c                   16.785(3)
_cell_angle_alpha                90
_cell_angle_beta                 101.077(2)
_cell_angle_gamma                90
_cell_volume                     3364.22
_exptl_crystal_colour            yellow
_exptl_crystal_description       block
_cell_formula_units_Z            4
loop_
_atom_site_label
_atom_site_type_symbol
_atom_site_fract_x
_atom_site_fract_y
_atom_site_fract_z
O1 O 0.65901(16) -0.5215(2) 0.73354(17)
O2 O 0.71388(15) 0.2293(2) 1.00575(15)
O3 O 0.28993(17) 0.2975(3) 0.00863(16)
O4 O 0.32934(17) 1.0585(2) 0.28900(18)
N1 N 0.41503(17) 0.5757(3) 0.27678(16)
N2 N 0.58481(18) -0.0327(3) 0.73108(16)
C1 C 0.45481(17) 0.2070(3) 0.44259(18)
H1 H 0.4239 0.1641 0.4020
C2 C 0.48793(17) 0.1458(3) 0.51267(17)
C3 C 0.47534(18) 0.0215(3) 0.5265(2)
H2 H 0.4440 -0.0225 0.4868
C4 C 0.50779(19) -0.0350(3) 0.5960(2)
H3 H 0.4982 -0.1166 0.6031
C5 C 0.55654(19) 0.0286(3) 0.65870(19)
C6 C 0.56984(18) 0.1482(3) 0.64699(19)
H4 H 0.6021 0.1898 0.6870
C7 C 0.53618(16) 0.2111(3) 0.57603(17)
C8 C 0.54796(18) 0.3332(3) 0.56388(18)
H5 H 0.5793 0.3759 0.6041
C9 C 0.51460(17) 0.3946(3) 0.49360(18)
C10 C 0.5261(2) 0.5186(3) 0.4798(2)
H6 H 0.5575 0.5627 0.5193
C11 C 0.4932(2) 0.5750(3) 0.4113(2)
H7 H 0.5021 0.6570 0.4048
C12 C 0.44475(18) 0.5120(3) 0.34836(19)
C13 C 0.43194(17) 0.3932(3) 0.35945(18)
H8 H 0.3999 0.3516 0.3192
C14 C 0.46603(17) 0.3292(3) 0.43095(18)
C15 C 0.60240(18) -0.1580(3) 0.73055(19)
C16 C 0.63551(18) -0.2097(3) 0.67061(19)
H9 H 0.6457 -0.1619 0.6285
C17 C 0.65304(19) -0.3301(3) 0.6734(2)
H10 H 0.6743 -0.3638 0.6326
C18 C 0.63937(17) -0.4022(3) 0.7365(2)
C19 C 0.60698(19) -0.3527(3) 0.7962(2)
H11 H 0.5977 -0.4005 0.8387
C20 C 0.58845(19) -0.2315(3) 0.7926(2)
H12 H 0.5661 -0.1985 0.8327
C21 C 0.6520(3) -0.5957(4) 0.8003(3)
H13 H 0.6726 -0.6741 0.7937
H14 H 0.6009 -0.6042 0.8029
H15 H 0.6779 -0.5593 0.8495
C22 C 0.61957(18) 0.0339(3) 0.80192(17)
C23 C 0.6941(2) 0.0487(4) 0.8206(2)
H16 H 0.7229 0.0155 0.7864
C24 C 0.7283(2) 0.1111(4) 0.8883(2)
H17 H 0.7793 0.1185 0.8999
C25 C 0.68648(19) 0.1622(3) 0.93869(18)
C26 C 0.61153(19) 0.1464(3) 0.9213(2)
H18 H 0.5829 0.1792 0.9558
C27 C 0.57783(18) 0.0825(3) 0.85334(19)
H19 H 0.5269 0.0725 0.8425
C28 C 0.7892(3) 0.2617(5) 1.0183(3)
H20 H 0.7983 0.3078 0.9727
H21 H 0.8189 0.1897 1.0239
H22 H 0.8016 0.3096 1.0667
C29 C 0.38181(17) 0.5092(3) 0.20549(18)
C30 C 0.42417(19) 0.4332(4) 0.1674(2)
H23 H 0.4747 0.4279 0.1867
C31 C 0.39201(19) 0.3657(3) 0.1013(2)
H24 H 0.4209 0.3149 0.0761
C32 C 0.31677(19) 0.3727(3) 0.07202(18)
C33 C 0.27512(18) 0.4516(3) 0.1069(2)
H25 H 0.2249 0.4591 0.0863
C34 C 0.30812(18) 0.5204(3) 0.1732(2)
H26 H 0.2798 0.5751 0.1961
C35 C 0.2128(3) 0.2908(5) -0.0170(3)
H27 H 0.2010 0.2310 -0.0590
H28 H 0.1943 0.3682 -0.0376
H29 H 0.1905 0.2687 0.0281
C36 C 0.39400(19) 0.6995(3) 0.28096(19)
C37 C 0.3601(2) 0.7434(3) 0.3418(2)
H30 H 0.3506 0.6912 0.3820
C38 C 0.3401(2) 0.8629(3) 0.3434(2)
H31 H 0.3190 0.8916 0.3857
C39 C 0.3513(2) 0.9410(3) 0.2827(2)
C40 C 0.3836(2) 0.8980(4) 0.2210(2)
H32 H 0.3906 0.9495 0.1793
C41 C 0.4055(2) 0.7789(4) 0.2209(2)
H33 H 0.4285 0.7513 0.1797
C42 C 0.3271(4) 1.1355(4) 0.2218(3)
H34 H 0.2959 1.1008 0.1751
H35 H 0.3760 1.1453 0.2112
H36 H 0.3080 1.2131 0.2333
loop_
_geom_bond_atom_site_label_1
_geom_bond_atom_site_label_2
_geom_bond_site_symmetry_1
_geom_bond_site_symmetry_2
O1 C18 1_555 1_555
O2 C25 1_555 1_555
O3 C32 1_555 1_555
O4 C39 1_555 1_555
N1 C12 1_555 1_555
N2 C5 1_555 1_555
C1 H1 1_555 1_555
C2 C1 1_555 1_555
C3 C2 1_555 1_555
H2 C3 1_555 1_555
C4 C3 1_555 1_555
H3 C4 1_555 1_555
C5 C4 1_555 1_555
C6 C5 1_555 1_555
H4 C6 1_555 1_555
C7 C2 1_555 1_555
C8 C7 1_555 1_555
H5 C8 1_555 1_555
C9 C8 1_555 1_555
C10 C9 1_555 1_555
H6 C10 1_555 1_555
C11 C10 1_555 1_555
H7 C11 1_555 1_555
C12 C11 1_555 1_555
C13 C12 1_555 1_555
H8 C13 1_555 1_555
C14 C1 1_555 1_555
C15 N2 1_555 1_555
C16 C15 1_555 1_555
H9 C16 1_555 1_555
C17 C16 1_555 1_555
H10 C17 1_555 1_555
C18 C17 1_555 1_555
C19 C18 1_555 1_555
H11 C19 1_555 1_555
C20 C15 1_555 1_555
H12 C20 1_555 1_555
C21 O1 1_555 1_555
H13 C21 1_555 1_555
H14 C21 1_555 1_555
H15 C21 1_555 1_555
C22 N2 1_555 1_555
C23 C22 1_555 1_555
H16 C23 1_555 1_555
C24 C23 1_555 1_555
H17 C24 1_555 1_555
C25 C24 1_555 1_555
C26 C25 1_555 1_555
H18 C26 1_555 1_555
C27 C22 1_555 1_555
H19 C27 1_555 1_555
C28 O2 1_555 1_555
H20 C28 1_555 1_555
H21 C28 1_555 1_555
H22 C28 1_555 1_555
C29 N1 1_555 1_555
C30 C29 1_555 1_555
H23 C30 1_555 1_555
C31 C30 1_555 1_555
H24 C31 1_555 1_555
C32 C31 1_555 1_555
C33 C32 1_555 1_555
H25 C33 1_555 1_555
C34 C29 1_555 1_555
H26 C34 1_555 1_555
C35 O3 1_555 1_555
H27 C35 1_555 1_555
H28 C35 1_555 1_555
H29 C35 1_555 1_555
C36 N1 1_555 1_555
C37 C36 1_555 1_555
H30 C37 1_555 1_555
C38 C37 1_555 1_555
H31 C38 1_555 1_555
C39 C38 1_555 1_555
C40 C39 1_555 1_555
H32 C40 1_555 1_555
C41 C36 1_555 1_555
H33 C41 1_555 1_555
C42 O4 1_555 1_555
H34 C42 1_555 1_555
H35 C42 1_555 1_555
H36 C42 1_555 1_555
C6 C7 1_555 1_555
C9 C14 1_555 1_555
C13 C14 1_555 1_555
C19 C20 1_555 1_555
C26 C27 1_555 1_555
C33 C34 1_555 1_555
C40 C41 1_555 1_555

#END
