
#######################################################################
#
#                 Cambridge Crystallographic Data Centre
#                                CCDC 
#
#######################################################################
#
# If this CIF has been generated from an entry in the Cambridge 
# Structural Database, then it will include bibliographic, chemical, 
# crystal, experimental, refinement or atomic coordinate data resulting 
# from the CCDC's data processing and validation procedures.
#
#######################################################################

data_ABEYOY01
_chemical_compound_source        'Harrisonia perforate'
_chemical_name_common            'harperspinoid A'
_chemical_formula_moiety         'C25 H28 O7'
_chemical_name_systematic        
3-(3-furyl)-3a,4',4',8a'-tetramethyl-3a,3a',5,5a,8,8a'-hexahydro-3H,3'H-spiro[furo[3,2-e][2]benzofuran-7,2'-furo[3,2-c]oxepine]-1,6'(4H,4'H)-dione
_chemical_properties_biological  
'inhibitory activity against the 11beta-HSD1 enzyme'
_symmetry_cell_setting           monoclinic
_symmetry_space_group_name_H-M   'P 21'
_symmetry_Int_Tables_number      4
_space_group_name_Hall           'P 2yb'
loop_
_symmetry_equiv_pos_site_id
_symmetry_equiv_pos_as_xyz
1 x,y,z
2 -x,1/2+y,-z
_cell_length_a                   10.310(1)
_cell_length_b                   6.714(1)
_cell_length_c                   16.307(2)
_cell_angle_alpha                90
_cell_angle_beta                 100.27(1)
_cell_angle_gamma                90
_cell_volume                     1110.71
_exptl_crystal_colour            colorless
_exptl_crystal_description       column
_cell_formula_units_Z            2
loop_
_atom_site_label
_atom_site_type_symbol
_atom_site_fract_x
_atom_site_fract_y
_atom_site_fract_z
O1 O 0.14864(14) -0.0128(3) 0.91734(9)
O2 O 0.3072(2) -0.1794(3) 0.99210(11)
O3 O 0.32933(13) 0.2548(3) 0.73630(8)
O4 O 0.14977(13) 0.2805(2) 0.62620(8)
O5 O 0.41166(15) -0.2465(3) 0.48223(9)
O6 O 0.41018(13) -0.0456(3) 0.37242(8)
O7 O 0.3388(2) 0.1701(5) 0.12429(11)
C1 C 0.37854(18) 0.2530(4) 0.88213(12)
H1 H 0.4586 0.3198 0.8872
C2 C 0.37585(19) 0.1165(4) 0.94038(12)
H2 H 0.4510 0.1136 0.9815
C3 C 0.2761(2) -0.0304(4) 0.95173(12)
C4 C 0.08591(19) 0.1669(4) 0.87761(12)
C5 C 0.14028(18) 0.2232(3) 0.79972(11)
H3 H 0.0782 0.3203 0.7699
C6 C 0.1486(2) 0.0549(4) 0.73796(12)
H4 H 0.0622 0.0192 0.7075
H5 H 0.1905 -0.0623 0.7657
C7 C 0.23202(19) 0.1472(3) 0.68182(11)
C8 C 0.27388(16) 0.1201(3) 0.54350(11)
C9 C 0.21723(19) 0.3185(3) 0.55842(12)
H6 H 0.2900 0.4107 0.5776
C10 C 0.27779(18) 0.3211(3) 0.80948(12)
C11 C 0.1322(2) 0.4061(4) 0.48206(12)
H7 H 0.1094 0.5427 0.4927
H8 H 0.0514 0.3301 0.4674
C12 C 0.2113(2) 0.3984(4) 0.41073(12)
H9 H 0.1607 0.4605 0.3615
H10 H 0.2924 0.4732 0.4265
C13 C 0.24415(17) 0.1846(3) 0.39023(10)
C14 C 0.28893(16) 0.0644(3) 0.46789(10)
C15 C 0.37331(17) -0.0958(4) 0.44563(11)
C16 C 0.36979(18) 0.1604(4) 0.35221(11)
H11 H 0.4376 0.2486 0.3826
C17 C 0.12570(18) 0.0825(4) 0.33585(12)
H12 H 0.0505 0.0905 0.3630
H13 H 0.1464 -0.0547 0.3279
H14 H 0.1062 0.1481 0.2828
C18 C 0.2719(3) 0.5449(4) 0.80585(17)
H15 H 0.3579 0.5969 0.8034
H16 H 0.2429 0.5950 0.8547
H17 H 0.2112 0.5857 0.7571
C19 C 0.36110(18) 0.1992(4) 0.26194(12)
C20 C 0.3407(3) 0.0734(6) 0.19743(15)
H18 H 0.3293 -0.0633 0.2021
C21 C 0.3747(2) 0.3901(5) 0.22621(14)
H19 H 0.3905 0.5103 0.2546
C22 C 0.3604(2) 0.3624(7) 0.14372(16)
H20 H 0.3648 0.4632 0.1052
C23 C 0.0929(3) 0.3334(5) 0.94103(15)
H21 H 0.1832 0.3706 0.9597
H22 H 0.0556 0.2887 0.9877
H23 H 0.0443 0.4464 0.9159
C24 C -0.0572(2) 0.0983(6) 0.85185(16)
H24 H -0.0949 0.0753 0.9008
H25 H -0.0596 -0.0228 0.8203
H26 H -0.1068 0.1993 0.8183
C25 C 0.3010(2) 0.0166(4) 0.62594(11)
H27 H 0.3950 0.0092 0.6471
H28 H 0.2648 -0.1171 0.6217
loop_
_geom_bond_atom_site_label_1
_geom_bond_atom_site_label_2
_geom_bond_site_symmetry_1
_geom_bond_site_symmetry_2
O1 C3 1_555 1_555
O2 C3 1_555 1_555
O3 C7 1_555 1_555
O4 C7 1_555 1_555
O5 C15 1_555 1_555
O6 C15 1_555 1_555
O7 C20 1_555 1_555
C1 H1 1_555 1_555
C2 C1 1_555 1_555
H2 C2 1_555 1_555
C3 C2 1_555 1_555
C4 O1 1_555 1_555
C5 C4 1_555 1_555
H3 C5 1_555 1_555
C6 C5 1_555 1_555
H4 C6 1_555 1_555
H5 C6 1_555 1_555
C7 C6 1_555 1_555
C8 C9 1_555 1_555
C9 O4 1_555 1_555
H6 C9 1_555 1_555
C10 O3 1_555 1_555
C11 C9 1_555 1_555
H7 C11 1_555 1_555
H8 C11 1_555 1_555
C12 C11 1_555 1_555
H9 C12 1_555 1_555
H10 C12 1_555 1_555
C13 C12 1_555 1_555
C14 C8 1_555 1_555
C15 C14 1_555 1_555
C16 O6 1_555 1_555
H11 C16 1_555 1_555
C17 C13 1_555 1_555
H12 C17 1_555 1_555
H13 C17 1_555 1_555
H14 C17 1_555 1_555
C18 C10 1_555 1_555
H15 C18 1_555 1_555
H16 C18 1_555 1_555
H17 C18 1_555 1_555
C19 C16 1_555 1_555
C20 C19 1_555 1_555
H18 C20 1_555 1_555
C21 C19 1_555 1_555
H19 C21 1_555 1_555
C22 O7 1_555 1_555
H20 C22 1_555 1_555
C23 C4 1_555 1_555
H21 C23 1_555 1_555
H22 C23 1_555 1_555
H23 C23 1_555 1_555
C24 C4 1_555 1_555
H24 C24 1_555 1_555
H25 C24 1_555 1_555
H26 C24 1_555 1_555
C25 C7 1_555 1_555
H27 C25 1_555 1_555
H28 C25 1_555 1_555
C1 C10 1_555 1_555
C5 C10 1_555 1_555
C8 C25 1_555 1_555
C13 C14 1_555 1_555
C13 C16 1_555 1_555
C21 C22 1_555 1_555

#END
