
#######################################################################
#
#                 Cambridge Crystallographic Data Centre
#                                CCDC 
#
#######################################################################
#
# If this CIF has been generated from an entry in the Cambridge 
# Structural Database, then it will include bibliographic, chemical, 
# crystal, experimental, refinement or atomic coordinate data resulting 
# from the CCDC's data processing and validation procedures.
#
#######################################################################

data_ABEYOY
_chemical_compound_source        'Harrisonia perforate'
_chemical_name_common            'harperspinoid A'
_chemical_formula_moiety         'C25 H28 O7'
_chemical_name_systematic        
3-(3-furyl)-3a,4',4',8a'-tetramethyl-3a,3a',5,5a,8,8a'-hexahydro-3H,3'H-spiro[furo[3,2-e][2]benzofuran-7,2'-furo[3,2-c]oxepine]-1,6'(4H,4'H)-dione
_chemical_properties_biological  
'inhibitory activity against the 11beta-HSD1 enzyme'
_symmetry_cell_setting           orthorhombic
_symmetry_space_group_name_H-M   'P 21 21 21'
_symmetry_Int_Tables_number      19
_space_group_name_Hall           'P 2ac 2ab'
loop_
_symmetry_equiv_pos_site_id
_symmetry_equiv_pos_as_xyz
1 x,y,z
2 1/2-x,-y,1/2+z
3 1/2+x,1/2-y,-z
4 -x,1/2+y,1/2-z
_cell_length_a                   7.693(1)
_cell_length_b                   7.727(1)
_cell_length_c                   37.712(1)
_cell_angle_alpha                90
_cell_angle_beta                 90
_cell_angle_gamma                90
_cell_volume                     2241.75
_exptl_crystal_colour            colorless
_exptl_crystal_description       needle
_cell_formula_units_Z            4
loop_
_atom_site_label
_atom_site_type_symbol
_atom_site_fract_x
_atom_site_fract_y
_atom_site_fract_z
O1 O -0.9958(2) 0.7063(3) -0.48587(4)
O2 O -1.0386(3) 0.9840(3) -0.48244(5)
O3 O -0.82216(19) 0.4952(3) -0.38513(4)
O4 O -0.57311(19) 0.3355(3) -0.39838(5)
O5 O -0.8232(2) -0.1559(3) -0.31818(5)
O6 O -0.58970(16) -0.1467(3) -0.28292(4)
O7 O -0.1043(2) -0.1750(4) -0.21569(5)
C1 C -0.9686(4) 0.7394(5) -0.40605(7)
H1 H -0.9995 0.7485 -0.3823
C2 C -1.0556(4) 0.8372(5) -0.42860(8)
H2 H -1.1418 0.9078 -0.4191
C3 C -1.0299(3) 0.8460(5) -0.46724(7)
C4 C -1.0010(3) 0.5269(4) -0.47218(6)
C5 C -0.8437(3) 0.4986(4) -0.44827(6)
H3 H -0.7398 0.5171 -0.4628
C6 C -0.8335(4) 0.3140(5) -0.43371(7)
H4 H -0.9479 0.2613 -0.4330
H5 H -0.7577 0.2432 -0.4483
C7 C -0.7605(3) 0.3330(4) -0.39671(7)
C8 C -0.6353(2) 0.1624(4) -0.35071(6)
C9 C -0.5174(3) 0.3059(4) -0.36273(7)
H6 H -0.5424 0.4095 -0.3486
C10 C -0.8250(3) 0.6148(4) -0.41477(6)
C11 C -0.3259(3) 0.2632(6) -0.35924(9)
H7 H -0.2566 0.3669 -0.3623
H8 H -0.2922 0.1800 -0.3772
C12 C -0.2955(3) 0.1870(6) -0.32212(9)
H9 H -0.3352 0.2685 -0.3043
H10 H -0.1722 0.1677 -0.3185
C13 C -0.3943(3) 0.0144(4) -0.31785(6)
C14 C -0.5799(3) 0.0360(4) -0.33069(6)
C15 C -0.6825(3) -0.0961(4) -0.31183(6)
C16 C -0.4340(2) -0.0356(4) -0.27953(6)
H11 H -0.4670 0.0693 -0.2666
C17 C -0.3081(4) -0.1325(6) -0.33857(7)
H12 H -0.3691 -0.2387 -0.3341
H13 H -0.1893 -0.1442 -0.3311
H14 H -0.3117 -0.1067 -0.3635
C18 C -0.6560(3) 0.7206(5) -0.41570(8)
H15 H -0.6422 0.7812 -0.3937
H16 H -0.6612 0.8025 -0.4348
H17 H -0.5591 0.6443 -0.4192
C19 C -0.3001(3) -0.1297(4) -0.25827(6)
C20 C -0.2242(3) -0.0640(5) -0.22897(7)
H18 H -0.2507 0.0432 -0.2192
C21 C -0.2245(3) -0.2952(4) -0.26295(7)
H19 H -0.2505 -0.3745 -0.2807
C22 C -0.1096(3) -0.3152(5) -0.23717(8)
H20 H -0.0412 -0.4133 -0.2342
C23 C -1.1775(3) 0.4848(5) -0.45570(10)
H21 H -1.2669 0.5474 -0.4680
H22 H -1.1771 0.5176 -0.4312
H23 H -1.1992 0.3628 -0.4576
C24 C -0.9782(4) 0.4219(5) -0.50606(7)
H24 H -0.8643 0.4421 -0.5156
H25 H -1.0642 0.4564 -0.5231
H26 H -0.9916 0.3010 -0.5008
C25 C -0.8057(3) 0.1973(4) -0.36904(7)
H27 H -0.8915 0.2410 -0.3524
H28 H -0.8505 0.0931 -0.3801
loop_
_geom_bond_atom_site_label_1
_geom_bond_atom_site_label_2
_geom_bond_site_symmetry_1
_geom_bond_site_symmetry_2
O1 C3 1_555 1_555
O2 C3 1_555 1_555
O3 C7 1_555 1_555
O4 C7 1_555 1_555
O5 C15 1_555 1_555
O6 C15 1_555 1_555
O7 C20 1_555 1_555
C1 H1 1_555 1_555
C2 C1 1_555 1_555
H2 C2 1_555 1_555
C3 C2 1_555 1_555
C4 O1 1_555 1_555
C5 C4 1_555 1_555
H3 C5 1_555 1_555
C6 C5 1_555 1_555
H4 C6 1_555 1_555
H5 C6 1_555 1_555
C7 C6 1_555 1_555
C8 C9 1_555 1_555
C9 O4 1_555 1_555
H6 C9 1_555 1_555
C10 O3 1_555 1_555
C11 C9 1_555 1_555
H7 C11 1_555 1_555
H8 C11 1_555 1_555
C12 C11 1_555 1_555
H9 C12 1_555 1_555
H10 C12 1_555 1_555
C13 C12 1_555 1_555
C14 C8 1_555 1_555
C15 C14 1_555 1_555
C16 O6 1_555 1_555
H11 C16 1_555 1_555
C17 C13 1_555 1_555
H12 C17 1_555 1_555
H13 C17 1_555 1_555
H14 C17 1_555 1_555
C18 C10 1_555 1_555
H15 C18 1_555 1_555
H16 C18 1_555 1_555
H17 C18 1_555 1_555
C19 C16 1_555 1_555
C20 C19 1_555 1_555
H18 C20 1_555 1_555
C21 C19 1_555 1_555
H19 C21 1_555 1_555
C22 O7 1_555 1_555
H20 C22 1_555 1_555
C23 C4 1_555 1_555
H21 C23 1_555 1_555
H22 C23 1_555 1_555
H23 C23 1_555 1_555
C24 C4 1_555 1_555
H24 C24 1_555 1_555
H25 C24 1_555 1_555
H26 C24 1_555 1_555
C25 C7 1_555 1_555
H27 C25 1_555 1_555
H28 C25 1_555 1_555
C1 C10 1_555 1_555
C5 C10 1_555 1_555
C8 C25 1_555 1_555
C13 C14 1_555 1_555
C13 C16 1_555 1_555
C21 C22 1_555 1_555

#END
