
#######################################################################
#
#                 Cambridge Crystallographic Data Centre
#                                CCDC 
#
#######################################################################
#
# If this CIF has been generated from an entry in the Cambridge 
# Structural Database, then it will include bibliographic, chemical, 
# crystal, experimental, refinement or atomic coordinate data resulting 
# from the CCDC's data processing and validation procedures.
#
#######################################################################

data_ABEZUE
_chemical_formula_moiety         'C23 H31 O2 P1'
_chemical_name_systematic        
'2-Isopropyl-5-methylcyclohexyl (4-methylphenyl)phenylphosphinate'
_symmetry_cell_setting           monoclinic
_symmetry_space_group_name_H-M   'P 21'
_symmetry_Int_Tables_number      4
_space_group_name_Hall           'P 2yb'
loop_
_symmetry_equiv_pos_site_id
_symmetry_equiv_pos_as_xyz
1 x,y,z
2 -x,1/2+y,-z
_cell_length_a                   5.9759(4)
_cell_length_b                   8.3735(6)
_cell_length_c                   21.3183(13)
_cell_angle_alpha                90
_cell_angle_beta                 92.585(5)
_cell_angle_gamma                90
_cell_volume                     1065.67
_exptl_crystal_colour            colorless
_exptl_crystal_description       block
_cell_formula_units_Z            2
loop_
_atom_site_label
_atom_site_type_symbol
_atom_site_fract_x
_atom_site_fract_y
_atom_site_fract_z
P1 P 0.04438(12) 0.34818(11) 0.20247(4)
C1 C 0.1748(5) 0.2868(4) 0.13237(15)
C2 C 0.3866(5) 0.2168(4) 0.13344(16)
H1 H 0.4705 0.2044 0.1720
C3 C 0.4744(6) 0.1651(5) 0.07745(15)
H2 H 0.6186 0.1172 0.0787
C4 C 0.3584(6) 0.1813(4) 0.02013(16)
C5 C 0.1477(6) 0.2532(5) 0.01982(17)
H3 H 0.0642 0.2669 -0.0188
C6 C 0.0594(6) 0.3045(4) 0.07497(16)
H4 H -0.0843 0.3532 0.0736
C7 C 0.4623(7) 0.1312(5) -0.04006(17)
H5 H 0.6095 0.0834 -0.0303
H6 H 0.4797 0.2249 -0.0670
H7 H 0.3652 0.0529 -0.0619
C8 C -0.0425(5) 0.5516(4) 0.19056(14)
C9 C -0.2514(5) 0.6016(5) 0.20948(15)
H8 H -0.3532 0.5262 0.2254
C10 C -0.3103(6) 0.7606(5) 0.20510(18)
H9 H -0.4519 0.7942 0.2188
C11 C -0.1658(6) 0.8716(5) 0.18110(17)
H10 H -0.2069 0.9811 0.1786
C12 C 0.0402(6) 0.8214(5) 0.16059(17)
H11 H 0.1391 0.8965 0.1431
C13 C 0.1010(6) 0.6638(5) 0.16548(16)
H12 H 0.2426 0.6306 0.1516
C14 C 0.2146(5) 0.3418(5) 0.31920(13)
H13 H 0.0765 0.2771 0.3251
C15 C 0.1796(7) 0.5062(5) 0.34599(16)
H14 H 0.0486 0.5572 0.3241
H15 H 0.3129 0.5731 0.3392
C16 C 0.1405(7) 0.4954(5) 0.41685(17)
H16 H 0.0023 0.4304 0.4224
C17 C 0.3351(8) 0.4098(5) 0.44946(17)
H17 H 0.4721 0.4754 0.4464
H18 H 0.3055 0.3975 0.4945
C18 C 0.3748(7) 0.2473(6) 0.42136(17)
H19 H 0.2435 0.1784 0.4283
H20 H 0.5069 0.1978 0.4433
C19 C 0.4140(5) 0.2542(5) 0.35040(15)
H21 H 0.5495 0.3220 0.3449
C20 C 0.1025(9) 0.6611(6) 0.4446(2)
H22 H 0.0780 0.6513 0.4896
H23 H -0.0292 0.7103 0.4234
H24 H 0.2344 0.7280 0.4385
C21 C 0.4608(6) 0.0898(5) 0.32103(16)
H25 H 0.5052 0.1101 0.2771
C22 C 0.2567(6) -0.0194(5) 0.31665(18)
H26 H 0.2977 -0.1213 0.2977
H27 H 0.1375 0.0315 0.2906
H28 H 0.2036 -0.0385 0.3588
C23 C 0.6594(6) 0.0084(5) 0.35518(17)
H29 H 0.6860 -0.0956 0.3358
H30 H 0.6268 -0.0069 0.3994
H31 H 0.7931 0.0753 0.3523
O1 O -0.1444(4) 0.2476(3) 0.22080(11)
O2 O 0.2520(3) 0.3524(3) 0.25176(8)
loop_
_geom_bond_atom_site_label_1
_geom_bond_atom_site_label_2
_geom_bond_site_symmetry_1
_geom_bond_site_symmetry_2
P1 C1 1_555 1_555
C1 C2 1_555 1_555
C2 H1 1_555 1_555
C3 C2 1_555 1_555
H2 C3 1_555 1_555
C4 C3 1_555 1_555
C5 C4 1_555 1_555
H3 C5 1_555 1_555
C6 C1 1_555 1_555
H4 C6 1_555 1_555
C7 C4 1_555 1_555
H5 C7 1_555 1_555
H6 C7 1_555 1_555
H7 C7 1_555 1_555
C8 P1 1_555 1_555
C9 C8 1_555 1_555
H8 C9 1_555 1_555
C10 C9 1_555 1_555
H9 C10 1_555 1_555
C11 C10 1_555 1_555
H10 C11 1_555 1_555
C12 C11 1_555 1_555
H11 C12 1_555 1_555
C13 C8 1_555 1_555
H12 C13 1_555 1_555
C14 H13 1_555 1_555
C15 C14 1_555 1_555
H14 C15 1_555 1_555
H15 C15 1_555 1_555
C16 C15 1_555 1_555
H16 C16 1_555 1_555
C17 C16 1_555 1_555
H17 C17 1_555 1_555
H18 C17 1_555 1_555
C18 C17 1_555 1_555
H19 C18 1_555 1_555
H20 C18 1_555 1_555
C19 C14 1_555 1_555
H21 C19 1_555 1_555
C20 C16 1_555 1_555
H22 C20 1_555 1_555
H23 C20 1_555 1_555
H24 C20 1_555 1_555
C21 C19 1_555 1_555
H25 C21 1_555 1_555
C22 C21 1_555 1_555
H26 C22 1_555 1_555
H27 C22 1_555 1_555
H28 C22 1_555 1_555
C23 C21 1_555 1_555
H29 C23 1_555 1_555
H30 C23 1_555 1_555
H31 C23 1_555 1_555
O1 P1 1_555 1_555
O2 P1 1_555 1_555
C5 C6 1_555 1_555
C12 C13 1_555 1_555
C14 O2 1_555 1_555
C18 C19 1_555 1_555

#END
