
#######################################################################
#
#                 Cambridge Crystallographic Data Centre
#                                CCDC 
#
#######################################################################
#
# If this CIF has been generated from an entry in the Cambridge 
# Structural Database, then it will include bibliographic, chemical, 
# crystal, experimental, refinement or atomic coordinate data resulting 
# from the CCDC's data processing and validation procedures.
#
#######################################################################

data_ABIBEU
_chemical_formula_moiety         'C23 H41 N5 O3'
_chemical_name_systematic        
N^2^-(2-((t-Butylcarbamoyl)amino)cyclohexyl)-N^1^-cyclohexylpyrrolidine-1,2-dicarboxamide
_symmetry_cell_setting           monoclinic
_symmetry_space_group_name_H-M   'P 21'
_symmetry_Int_Tables_number      4
_space_group_name_Hall           'P 2yb'
loop_
_symmetry_equiv_pos_site_id
_symmetry_equiv_pos_as_xyz
1 x,y,z
2 -x,1/2+y,-z
_cell_length_a                   10.1633(2)
_cell_length_b                   9.9300(2)
_cell_length_c                   12.1706(3)
_cell_angle_alpha                90
_cell_angle_beta                 96.2770(10)
_cell_angle_gamma                90
_cell_volume                     1220.91
_exptl_crystal_colour            white
_exptl_crystal_description       block
_cell_formula_units_Z            2
loop_
_atom_site_label
_atom_site_type_symbol
_atom_site_fract_x
_atom_site_fract_y
_atom_site_fract_z
C1 C 0.33921(17) 0.04935(18) 0.92426(14)
H1 H 0.3590(18) 0.0501(19) 1.0070(16)
H2 H 0.3383(18) 0.141(2) 0.8977(15)
H3 H 0.250(2) 0.010(2) 0.9084(18)
C2 C 0.4380(2) -0.17905(17) 0.91277(14)
H4 H 0.4562(19) -0.181(2) 0.9928(18)
H5 H 0.5022(18) -0.231(2) 0.8818(15)
H6 H 0.352(2) -0.221(2) 0.8941(17)
C3 C 0.57539(16) 0.02649(18) 0.89079(15)
H7 H 0.579(2) 0.122(2) 0.8596(17)
H8 H 0.599(2) 0.029(2) 0.9715(18)
H9 H 0.637(2) -0.022(3) 0.8554(19)
C4 C 0.43759(14) -0.03560(14) 0.86848(11)
N1 N 0.39157(12) -0.03200(13) 0.74961(10)
H10 H 0.3299(18) 0.022(2) 0.7285(15)
C5 C 0.45971(13) -0.08542(14) 0.66965(11)
O1 O 0.55352(10) -0.16401(11) 0.68888(8)
N2 N 0.41375(12) -0.04639(14) 0.56513(10)
H11 H 0.3514(19) 0.013(2) 0.5601(15)
C6 C 0.49091(14) -0.06896(14) 0.47306(11)
H12 H 0.5226(16) -0.1629(18) 0.4758(13)
C7 C 0.61023(15) 0.02423(15) 0.47443(15)
H13 H 0.5756(19) 0.118(2) 0.4700(16)
H14 H 0.6639(18) 0.012(2) 0.5412(16)
C8 C 0.68561(18) -0.00411(19) 0.37402(17)
H15 H 0.718(2) -0.097(2) 0.3811(16)
H16 H 0.764(2) 0.053(2) 0.3802(18)
C9 C 0.5952(2) 0.0127(2) 0.26742(17)
H17 H 0.567(2) 0.105(3) 0.2609(18)
H18 H 0.640(3) -0.006(3) 0.197(2)
C10 C 0.4760(2) -0.0794(2) 0.26535(14)
H19 H 0.509(2) -0.172(2) 0.2671(18)
H20 H 0.408(2) -0.064(2) 0.198(2)
C11 C 0.39865(15) -0.05641(15) 0.36462(12)
H21 H 0.3323(18) -0.1220(19) 0.3667(14)
N3 N 0.33423(13) 0.07564(13) 0.36069(10)
H22 H 0.3825(18) 0.150(2) 0.3575(15)
C12 C 0.20640(14) 0.09184(14) 0.37725(11)
O2 O 0.12658(11) -0.00040(12) 0.37940(9)
C13 C 0.16737(13) 0.23859(14) 0.39301(12)
H23 H 0.2442(15) 0.2856(17) 0.4196(13)
C14 C 0.09915(17) 0.3023(2) 0.28718(15)
H24 H 0.1344(19) 0.276(2) 0.2192(17)
H25 H 0.112(2) 0.401(3) 0.288(2)
C15 C -0.04704(18) 0.2853(2) 0.29678(15)
H26 H -0.062(2) 0.184(3) 0.274(2)
H27 H -0.111(2) 0.355(2) 0.2454(19)
C16 C -0.05705(15) 0.30648(18) 0.41898(13)
H28 H -0.129(2) 0.259(2) 0.4462(16)
H29 H -0.073(2) 0.397(3) 0.4425(18)
N4 N 0.06815(11) 0.24984(13) 0.47007(10)
C17 C 0.09389(14) 0.20863(14) 0.57670(11)
O3 O 0.19920(10) 0.15030(10) 0.61026(8)
N5 N -0.00430(12) 0.23337(14) 0.64188(10)
H30 H -0.0572(18) 0.298(2) 0.6237(15)
C18 C 0.01656(13) 0.21954(15) 0.76209(11)
H31 H 0.0593(18) 0.141(2) 0.7788(15)
C19 C 0.10106(15) 0.33406(17) 0.81563(13)
H32 H 0.189(2) 0.330(2) 0.7912(16)
H33 H 0.0595(16) 0.4206(18) 0.7860(14)
C20 C 0.10729(16) 0.3348(2) 0.94139(14)
H34 H 0.160(2) 0.408(2) 0.9734(17)
H35 H 0.1491(18) 0.254(2) 0.9699(15)
C21 C -0.03140(17) 0.3370(2) 0.97787(15)
H36 H -0.079(2) 0.425(3) 0.949(2)
H37 H -0.029(2) 0.340(2) 1.0543(18)
C22 C -0.10928(18) 0.2161(2) 0.93075(14)
H38 H -0.061(2) 0.128(2) 0.9553(18)
H39 H -0.197(2) 0.217(2) 0.9529(18)
C23 C -0.11925(15) 0.21635(17) 0.80501(13)
H40 H -0.166(2) 0.136(2) 0.7746(16)
H41 H -0.166(2) 0.297(2) 0.7770(17)
loop_
_geom_bond_atom_site_label_1
_geom_bond_atom_site_label_2
_geom_bond_site_symmetry_1
_geom_bond_site_symmetry_2
C1 H1 1_555 1_555
H2 C1 1_555 1_555
H3 C1 1_555 1_555
C2 H4 1_555 1_555
H5 C2 1_555 1_555
H6 C2 1_555 1_555
C3 H7 1_555 1_555
H8 C3 1_555 1_555
H9 C3 1_555 1_555
C4 C1 1_555 1_555
N1 C4 1_555 1_555
H10 N1 1_555 1_555
C5 N1 1_555 1_555
O1 C5 1_555 1_555
N2 C5 1_555 1_555
H11 N2 1_555 1_555
C6 N2 1_555 1_555
H12 C6 1_555 1_555
C7 C6 1_555 1_555
H13 C7 1_555 1_555
H14 C7 1_555 1_555
C8 C7 1_555 1_555
H15 C8 1_555 1_555
H16 C8 1_555 1_555
C9 C8 1_555 1_555
H17 C9 1_555 1_555
H18 C9 1_555 1_555
C10 C9 1_555 1_555
H19 C10 1_555 1_555
H20 C10 1_555 1_555
C11 C6 1_555 1_555
H21 C11 1_555 1_555
N3 C11 1_555 1_555
H22 N3 1_555 1_555
C12 N3 1_555 1_555
O2 C12 1_555 1_555
C13 C12 1_555 1_555
H23 C13 1_555 1_555
C14 C13 1_555 1_555
H24 C14 1_555 1_555
H25 C14 1_555 1_555
C15 C14 1_555 1_555
H26 C15 1_555 1_555
H27 C15 1_555 1_555
C16 C15 1_555 1_555
H28 C16 1_555 1_555
H29 C16 1_555 1_555
N4 C13 1_555 1_555
C17 N4 1_555 1_555
O3 C17 1_555 1_555
N5 C17 1_555 1_555
H30 N5 1_555 1_555
C18 N5 1_555 1_555
H31 C18 1_555 1_555
C19 C18 1_555 1_555
H32 C19 1_555 1_555
H33 C19 1_555 1_555
C20 C19 1_555 1_555
H34 C20 1_555 1_555
H35 C20 1_555 1_555
C21 C20 1_555 1_555
H36 C21 1_555 1_555
H37 C21 1_555 1_555
C22 C21 1_555 1_555
H38 C22 1_555 1_555
H39 C22 1_555 1_555
C23 C18 1_555 1_555
H40 C23 1_555 1_555
H41 C23 1_555 1_555
C2 C4 1_555 1_555
C3 C4 1_555 1_555
C10 C11 1_555 1_555
C16 N4 1_555 1_555
C22 C23 1_555 1_555

#END
