
#######################################################################
#
#                 Cambridge Crystallographic Data Centre
#                                CCDC 
#
#######################################################################
#
# If this CIF has been generated from an entry in the Cambridge 
# Structural Database, then it will include bibliographic, chemical, 
# crystal, experimental, refinement or atomic coordinate data resulting 
# from the CCDC's data processing and validation procedures.
#
#######################################################################

data_ABIFUP
_chemical_formula_moiety         'C21 H31 F1 O1'
_chemical_name_systematic        
1-((3S,8S,9S,10R,13S,14S,17S)-3-fluoro-10,13-dimethyl-2,3,4,7,8,9,10,11,12,13,14,15,16,17-tetradecahydro-1H-cyclopenta[a]phenanthren-17-yl)ethanone
_symmetry_cell_setting           monoclinic
_symmetry_space_group_name_H-M   'P 21'
_symmetry_Int_Tables_number      4
_space_group_name_Hall           'P 2yb'
loop_
_symmetry_equiv_pos_site_id
_symmetry_equiv_pos_as_xyz
1 x,y,z
2 -x,1/2+y,-z
_cell_length_a                   12.145(2)
_cell_length_b                   12.015(2)
_cell_length_c                   12.325(3)
_cell_angle_alpha                90
_cell_angle_beta                 100.79(3)
_cell_angle_gamma                90
_cell_volume                     1766.69
_exptl_crystal_colour            colorless
_exptl_crystal_description       block
_chemical_melting_point          '430-432 K'
_cell_formula_units_Z            4
_exptl_crystal_recrystallization_method 'ethyl acetate/hexane'
loop_
_atom_site_label
_atom_site_type_symbol
_atom_site_fract_x
_atom_site_fract_y
_atom_site_fract_z
O1 O 0.19606(14) -0.05302(16) 1.63752(14)
F1 F -0.00591(12) 0.15945(13) 0.65606(9)
C1 C -0.04447(15) 0.03398(18) 0.92184(15)
H1 H -0.0716 -0.0387 0.9389
H2 H -0.0956 0.0893 0.9415
C2 C -0.04711(17) 0.0406(2) 0.79697(15)
H3 H -0.0012 -0.0180 0.7747
H4 H -0.1233 0.0310 0.7570
C3 C -0.00323(17) 0.15191(18) 0.77089(15)
H5 H -0.0515 0.2100 0.7925
C4 C 0.11515(16) 0.17058(18) 0.83129(15)
H6 H 0.1395 0.2446 0.8149
H7 H 0.1646 0.1170 0.8061
C5 C 0.12280(14) 0.15844(16) 0.95529(14)
C6 C 0.17104(16) 0.23642(17) 1.02368(16)
H8 H 0.1992 0.2986 0.9931
C7 C 0.18376(18) 0.23199(18) 1.14723(16)
H9 H 0.1323 0.2848 1.1703
H10 H 0.2593 0.2545 1.1802
C8 C 0.16132(13) 0.11707(15) 1.18995(14)
H11 H 0.2265 0.0695 1.1879
C9 C 0.05812(13) 0.06549(15) 1.11597(14)
H12 H -0.0033 0.1185 1.1152
C10 C 0.07259(13) 0.05273(15) 0.99374(14)
C11 C 0.02121(18) -0.04282(18) 1.16423(15)
H13 H 0.0755 -0.1004 1.1577
H14 H -0.0501 -0.0656 1.1206
C12 C 0.00906(16) -0.03415(18) 1.28567(15)
H15 H -0.0526 0.0154 1.2917
H16 H -0.0081 -0.1069 1.3122
C13 C 0.11708(14) 0.00996(15) 1.35721(14)
C14 C 0.14194(14) 0.12300(15) 1.30863(14)
H17 H 0.0742 0.1679 1.3061
C15 C 0.23099(16) 0.17557(18) 1.39732(15)
H18 H 0.2300 0.2560 1.3908
H19 H 0.3051 0.1486 1.3922
C16 C 0.19794(16) 0.13866(18) 1.50638(15)
H20 H 0.1679 0.2010 1.5414
H21 H 0.2627 0.1099 1.5567
C17 C 0.10819(14) 0.04695(16) 1.47696(14)
H22 H 0.0348 0.0822 1.4730
C18 C 0.1494(2) -0.04615(19) 0.97869(17)
H23 H 0.1566 -0.0512 0.9026
H24 H 0.1174 -0.1138 1.0003
H25 H 0.2220 -0.0350 1.0238
C19 C 0.21387(18) -0.07322(18) 1.36290(16)
H26 H 0.2194 -0.0963 1.2895
H27 H 0.2000 -0.1370 1.4053
H28 H 0.2827 -0.0385 1.3974
C20 C 0.11756(16) -0.04569(18) 1.56248(14)
C21 C 0.0243(2) -0.1282(2) 1.55208(18)
H29 H 0.0410 -0.1822 1.6103
H30 H 0.0160 -0.1650 1.4819
H31 H -0.0442 -0.0905 1.5574
O2 O 0.47023(13) 0.05570(17) -0.45258(13)
F2 F 0.74421(13) 0.00188(17) 0.54944(10)
C22 C 0.6367(2) -0.08842(19) 0.26109(16)
H32 H 0.5820 -0.1445 0.2312
H33 H 0.7081 -0.1104 0.2432
C23 C 0.6479(2) -0.0860(2) 0.38691(17)
H34 H 0.5758 -0.0695 0.4063
H35 H 0.6726 -0.1581 0.4176
C24 C 0.73078(19) 0.0008(3) 0.43288(16)
H36 H 0.8030 -0.0168 0.4124
C25 C 0.6935(2) 0.1152(2) 0.38889(17)
H37 H 0.7500 0.1698 0.4185
H38 H 0.6242 0.1353 0.4124
C26 C 0.67573(15) 0.11574(17) 0.26362(15)
C27 C 0.72247(16) 0.19328(19) 0.21040(17)
H39 H 0.7671 0.2462 0.2528
C28 C 0.70916(17) 0.20240(18) 0.08780(16)
H40 H 0.7795 0.1826 0.0664
H41 H 0.6930 0.2792 0.0664
C29 C 0.61643(14) 0.12852(15) 0.02474(14)
H42 H 0.5438 0.1647 0.0230
C30 C 0.61666(14) 0.01494(15) 0.08244(14)
H43 H 0.6915 -0.0166 0.0848
C31 C 0.60111(14) 0.02399(15) 0.20448(14)
C32 C 0.53388(17) -0.06639(17) 0.01377(15)
H44 H 0.5431 -0.1391 0.0484
H45 H 0.4581 -0.0415 0.0149
C33 C 0.54810(17) -0.07787(17) -0.10657(15)
H46 H 0.6194 -0.1134 -0.1089
H47 H 0.4891 -0.1250 -0.1460
C34 C 0.54387(13) 0.03521(15) -0.16372(14)
C35 C 0.63339(13) 0.10935(15) -0.09338(14)
H48 H 0.7040 0.0681 -0.0867
C36 C 0.64516(18) 0.20893(18) -0.16685(16)
H49 H 0.7198 0.2406 -0.1484
H50 H 0.5907 0.2661 -0.1591
C37 C 0.6233(2) 0.1614(2) -0.28473(17)
H51 H 0.6907 0.1656 -0.3162
H52 H 0.5643 0.2029 -0.3316
C38 C 0.58783(15) 0.03928(18) -0.27502(15)
H53 H 0.6560 -0.0061 -0.2655
C39 C 0.47876(15) 0.0497(2) 0.21322(17)
H54 H 0.4726 0.0544 0.2896
H55 H 0.4309 -0.0087 0.1782
H56 H 0.4565 0.1192 0.1773
C40 C 0.42514(15) 0.08487(19) -0.18053(17)
H57 H 0.3981 0.0819 -0.1122
H58 H 0.3761 0.0428 -0.2357
H59 H 0.4271 0.1609 -0.2041
C41 C 0.50894(16) -0.0041(2) -0.37640(15)
C42 C 0.4822(2) -0.1256(2) -0.38150(19)
H60 H 0.4319 -0.1418 -0.4494
H61 H 0.4476 -0.1454 -0.3203
H62 H 0.5501 -0.1675 -0.3781
loop_
_geom_bond_atom_site_label_1
_geom_bond_atom_site_label_2
_geom_bond_site_symmetry_1
_geom_bond_site_symmetry_2
O1 C20 1_555 1_555
F1 C3 1_555 1_555
C1 H1 1_555 1_555
H2 C1 1_555 1_555
C2 C1 1_555 1_555
H3 C2 1_555 1_555
H4 C2 1_555 1_555
C3 C2 1_555 1_555
H5 C3 1_555 1_555
C4 C3 1_555 1_555
H6 C4 1_555 1_555
H7 C4 1_555 1_555
C5 C4 1_555 1_555
C6 C5 1_555 1_555
H8 C6 1_555 1_555
C7 C6 1_555 1_555
H9 C7 1_555 1_555
H10 C7 1_555 1_555
C8 C7 1_555 1_555
H11 C8 1_555 1_555
C9 C8 1_555 1_555
H12 C9 1_555 1_555
C10 C1 1_555 1_555
C11 C9 1_555 1_555
H13 C11 1_555 1_555
H14 C11 1_555 1_555
C12 C11 1_555 1_555
H15 C12 1_555 1_555
H16 C12 1_555 1_555
C13 C12 1_555 1_555
C14 C8 1_555 1_555
H17 C14 1_555 1_555
C15 C14 1_555 1_555
H18 C15 1_555 1_555
H19 C15 1_555 1_555
C16 C15 1_555 1_555
H20 C16 1_555 1_555
H21 C16 1_555 1_555
C17 C13 1_555 1_555
H22 C17 1_555 1_555
C18 C10 1_555 1_555
H23 C18 1_555 1_555
H24 C18 1_555 1_555
H25 C18 1_555 1_555
C19 C13 1_555 1_555
H26 C19 1_555 1_555
H27 C19 1_555 1_555
H28 C19 1_555 1_555
C20 C17 1_555 1_555
C21 C20 1_555 1_555
H29 C21 1_555 1_555
H30 C21 1_555 1_555
H31 C21 1_555 1_555
O2 C41 1_555 1_555
F2 C24 1_555 1_555
C22 H32 1_555 1_555
H33 C22 1_555 1_555
C23 C22 1_555 1_555
H34 C23 1_555 1_555
H35 C23 1_555 1_555
C24 C23 1_555 1_555
H36 C24 1_555 1_555
C25 C24 1_555 1_555
H37 C25 1_555 1_555
H38 C25 1_555 1_555
C26 C25 1_555 1_555
C27 C26 1_555 1_555
H39 C27 1_555 1_555
C28 C27 1_555 1_555
H40 C28 1_555 1_555
H41 C28 1_555 1_555
C29 C28 1_555 1_555
H42 C29 1_555 1_555
C30 C29 1_555 1_555
H43 C30 1_555 1_555
C31 C22 1_555 1_555
C32 C30 1_555 1_555
H44 C32 1_555 1_555
H45 C32 1_555 1_555
C33 C32 1_555 1_555
H46 C33 1_555 1_555
H47 C33 1_555 1_555
C34 C33 1_555 1_555
C35 C29 1_555 1_555
H48 C35 1_555 1_555
C36 C35 1_555 1_555
H49 C36 1_555 1_555
H50 C36 1_555 1_555
C37 C36 1_555 1_555
H51 C37 1_555 1_555
H52 C37 1_555 1_555
C38 C34 1_555 1_555
H53 C38 1_555 1_555
C39 C31 1_555 1_555
H54 C39 1_555 1_555
H55 C39 1_555 1_555
H56 C39 1_555 1_555
C40 C34 1_555 1_555
H57 C40 1_555 1_555
H58 C40 1_555 1_555
H59 C40 1_555 1_555
C41 C38 1_555 1_555
C42 C41 1_555 1_555
H60 C42 1_555 1_555
H61 C42 1_555 1_555
H62 C42 1_555 1_555
C5 C10 1_555 1_555
C9 C10 1_555 1_555
C13 C14 1_555 1_555
C16 C17 1_555 1_555
C26 C31 1_555 1_555
C30 C31 1_555 1_555
C34 C35 1_555 1_555
C37 C38 1_555 1_555

#END
