
#######################################################################
#
#                 Cambridge Crystallographic Data Centre
#                                CCDC 
#
#######################################################################
#
# If this CIF has been generated from an entry in the Cambridge 
# Structural Database, then it will include bibliographic, chemical, 
# crystal, experimental, refinement or atomic coordinate data resulting 
# from the CCDC's data processing and validation procedures.
#
#######################################################################

data_ABIGAW
_chemical_formula_moiety         'C19 H29 F1 O1'
_chemical_name_systematic        
(3R,5S,8R,9S,10S,13S,14S)-3-fluoro-10,13-dimethyltetradecahydro-1H-cyclopenta[a]phenanthren-17(2H)-one
_symmetry_cell_setting           monoclinic
_symmetry_space_group_name_H-M   'P 21'
_symmetry_Int_Tables_number      4
_space_group_name_Hall           'P 2yb'
loop_
_symmetry_equiv_pos_site_id
_symmetry_equiv_pos_as_xyz
1 x,y,z
2 -x,1/2+y,-z
_cell_length_a                   10.608(2)
_cell_length_b                   5.962(2)
_cell_length_c                   13.638(3)
_cell_angle_alpha                90
_cell_angle_beta                 100.12
_cell_angle_gamma                90
_cell_volume                     849.115
_exptl_crystal_colour            colorless
_exptl_crystal_description       plate
_chemical_melting_point          '385-387 K'
_cell_formula_units_Z            2
_exptl_crystal_recrystallization_method 'ethyl acetate/hexane'
loop_
_atom_site_label
_atom_site_type_symbol
_atom_site_fract_x
_atom_site_fract_y
_atom_site_fract_z
F1 F -0.35566(15) 0.0322(3) 0.03590(13)
O1 O 0.49275(12) 0.2155(4) 0.37885(12)
C1 C -0.13389(17) 0.3300(4) 0.04622(12)
H1 H -0.0740 0.4086 0.0123
H2 H -0.1152 0.1710 0.0442
C2 C -0.2693(2) 0.3711(5) -0.00991(14)
H3 H -0.2842 0.5313 -0.0164
H4 H -0.2774 0.3086 -0.0764
C3 C -0.36916(19) 0.2683(5) 0.04159(17)
H5 H -0.4545 0.3126 0.0072
C4 C -0.35268(17) 0.3354(5) 0.14939(16)
H6 H -0.4129 0.2521 0.1812
H7 H -0.3721 0.4937 0.1537
C5 C -0.21660(14) 0.2914(4) 0.20493(13)
H8 H -0.2024 0.1296 0.2003
C6 C -0.20163(17) 0.3445(5) 0.31511(14)
H9 H -0.2668 0.2652 0.3432
H10 H -0.2141 0.5040 0.3237
C7 C -0.06985(16) 0.2771(5) 0.37045(12)
H11 H -0.0630 0.1149 0.3705
H12 H -0.0607 0.3263 0.4391
C8 C 0.03865(14) 0.3764(3) 0.32439(11)
H13 H 0.0388 0.5396 0.3331
C9 C 0.01876(14) 0.3232(3) 0.21158(11)
H14 H 0.0164 0.1593 0.2062
C10 C -0.11248(15) 0.4067(3) 0.15579(11)
C11 C 0.13444(16) 0.3994(4) 0.16543(13)
H15 H 0.1228 0.3473 0.0971
H16 H 0.1364 0.5621 0.1642
C12 C 0.26278(16) 0.3139(4) 0.22104(13)
H17 H 0.2662 0.1520 0.2150
H18 H 0.3316 0.3773 0.1915
C13 C 0.28100(15) 0.3779(3) 0.33006(13)
C14 C 0.16799(14) 0.2851(3) 0.37382(11)
H19 H 0.1655 0.1238 0.3596
C15 C 0.21173(18) 0.3064(5) 0.48667(13)
H20 H 0.1643 0.2055 0.5226
H21 H 0.2019 0.4588 0.5090
C16 C 0.35365(18) 0.2394(5) 0.49993(14)
H22 H 0.4052 0.3342 0.5492
H23 H 0.3651 0.0844 0.5213
C17 C 0.39153(16) 0.2702(4) 0.39974(14)
C18 C -0.1218(2) 0.6624(4) 0.15855(16)
H24 H -0.2040 0.7091 0.1233
H25 H -0.0557 0.7269 0.1276
H26 H -0.1115 0.7119 0.2265
C19 C 0.3007(2) 0.6316(4) 0.3446(2)
H27 H 0.3724 0.6786 0.3154
H28 H 0.3170 0.6657 0.4145
H29 H 0.2251 0.7093 0.3131
loop_
_geom_bond_atom_site_label_1
_geom_bond_atom_site_label_2
_geom_bond_site_symmetry_1
_geom_bond_site_symmetry_2
F1 C3 1_555 1_555
O1 C17 1_555 1_555
C1 H1 1_555 1_555
H2 C1 1_555 1_555
C2 C1 1_555 1_555
H3 C2 1_555 1_555
H4 C2 1_555 1_555
C3 C2 1_555 1_555
H5 C3 1_555 1_555
C4 C3 1_555 1_555
H6 C4 1_555 1_555
H7 C4 1_555 1_555
C5 C4 1_555 1_555
H8 C5 1_555 1_555
C6 C5 1_555 1_555
H9 C6 1_555 1_555
H10 C6 1_555 1_555
C7 C6 1_555 1_555
H11 C7 1_555 1_555
H12 C7 1_555 1_555
C8 C7 1_555 1_555
H13 C8 1_555 1_555
C9 C8 1_555 1_555
H14 C9 1_555 1_555
C10 C1 1_555 1_555
C11 C9 1_555 1_555
H15 C11 1_555 1_555
H16 C11 1_555 1_555
C12 C11 1_555 1_555
H17 C12 1_555 1_555
H18 C12 1_555 1_555
C13 C12 1_555 1_555
C14 C8 1_555 1_555
H19 C14 1_555 1_555
C15 C14 1_555 1_555
H20 C15 1_555 1_555
H21 C15 1_555 1_555
C16 C15 1_555 1_555
H22 C16 1_555 1_555
H23 C16 1_555 1_555
C17 C13 1_555 1_555
C18 C10 1_555 1_555
H24 C18 1_555 1_555
H25 C18 1_555 1_555
H26 C18 1_555 1_555
C19 C13 1_555 1_555
H27 C19 1_555 1_555
H28 C19 1_555 1_555
H29 C19 1_555 1_555
C5 C10 1_555 1_555
C9 C10 1_555 1_555
C13 C14 1_555 1_555
C16 C17 1_555 1_555

#END
