
#######################################################################
#
#                 Cambridge Crystallographic Data Centre
#                                CCDC 
#
#######################################################################
#
# If this CIF has been generated from an entry in the Cambridge 
# Structural Database, then it will include bibliographic, chemical, 
# crystal, experimental, refinement or atomic coordinate data resulting 
# from the CCDC's data processing and validation procedures.
#
#######################################################################

data_ABIGIB
_chemical_formula_moiety         'C18 H13 N3,C4 H8 O2'
_chemical_name_systematic        
'5-(9-Anthracenyl)-2-aminopyrimidine ethyl acetate clathrate'
_symmetry_cell_setting           monoclinic
_symmetry_space_group_name_H-M   'C 2/c'
_symmetry_Int_Tables_number      15
_space_group_name_Hall           '-C 2yn'
loop_
_symmetry_equiv_pos_site_id
_symmetry_equiv_pos_as_xyz
1 x,y,z
2 1/2+x,1/2+y,z
3 x,-y,1/2+z
4 1/2+x,1/2-y,1/2+z
5 -x,-y,-z
6 1/2-x,1/2-y,-z
7 -x,y,1/2-z
8 1/2-x,1/2+y,1/2-z
_cell_length_a                   23.4834(7)
_cell_length_b                   13.8594(5)
_cell_length_c                   15.0256(5)
_cell_angle_alpha                90
_cell_angle_beta                 125.173(3)
_cell_angle_gamma                90
_cell_volume                     3997.43
_exptl_crystal_colour            yellow
_exptl_crystal_description       block
_chemical_melting_point          178-179deg.C
_cell_formula_units_Z            8
loop_
_atom_site_label
_atom_site_type_symbol
_atom_site_fract_x
_atom_site_fract_y
_atom_site_fract_z
O1 O 0.22159(9) 0.49209(13) 0.37340(16)
O2 O 0.11642(8) 0.42727(15) 0.27512(15)
C19 C 0.12242(13) 0.5957(2) 0.2837(2)
H14 H 0.1458 0.6392 0.3445
H15 H 0.0753 0.5864 0.2609
H16 H 0.1223 0.6224 0.2246
C20 C 0.15916(12) 0.50203(19) 0.31612(19)
C21 C 0.14885(16) 0.3330(2) 0.3069(3)
H17 H 0.1756 0.3233 0.2770
H18 H 0.1807 0.3300 0.3856
C22 C 0.09902(19) 0.2588(3) 0.2700(3)
H19 H 0.0648 0.2769 0.2827
H20 H 0.1216 0.2004 0.3088
H21 H 0.0767 0.2487 0.1935
N1 N 0.40582(7) 0.49882(11) 0.36875(11)
N2 N 0.40716(7) 0.49492(12) 0.21106(12)
N3 N 0.50857(8) 0.50474(14) 0.38304(14)
H1 H 0.5292(13) 0.5034(14) 0.452(2)
H2 H 0.5320(13) 0.5018(14) 0.353(2)
C1 C 0.29835(8) 0.49096(12) 0.19133(14)
C2 C 0.33648(9) 0.49534(13) 0.30336(15)
H3 H 0.3123 0.4959 0.3352
C3 C 0.43884(8) 0.49910(12) 0.31942(14)
C4 C 0.33777(9) 0.49066(14) 0.15010(15)
H4 H 0.3145 0.4873 0.0749
C5 C 0.22043(8) 0.48542(13) 0.11973(14)
C6 C 0.18778(8) 0.39574(14) 0.07995(14)
C7 C 0.22500(10) 0.30804(15) 0.10433(17)
H5 H 0.2734 0.3092 0.1494
C8 C 0.19189(13) 0.22265(17) 0.0638(2)
H6 H 0.2179 0.1664 0.0809
C9 C 0.11906(14) 0.2177(2) -0.0036(2)
H7 H 0.0971 0.1585 -0.0308
C10 C 0.08091(12) 0.29823(19) -0.0290(2)
H8 H 0.0326 0.2939 -0.0735
C11 C 0.11296(9) 0.39026(16) 0.01076(16)
C12 C 0.07417(10) 0.47483(16) -0.01623(18)
H9 H 0.0258 0.4714 -0.0610
C13 C 0.10605(9) 0.56354(16) 0.02207(16)
C14 C 0.06614(11) 0.64988(19) -0.0068(2)
H10 H 0.0178 0.6464 -0.0526
C15 C 0.09707(13) 0.7365(2) 0.0311(2)
H11 H 0.0701 0.7919 0.0122
C16 C 0.17030(12) 0.74315(18) 0.0993(2)
H12 H 0.1913 0.8032 0.1243
C17 C 0.21052(10) 0.66289(15) 0.12884(19)
H13 H 0.2587 0.6690 0.1744
C18 C 0.18058(8) 0.56997(14) 0.09170(14)
loop_
_geom_bond_atom_site_label_1
_geom_bond_atom_site_label_2
_geom_bond_site_symmetry_1
_geom_bond_site_symmetry_2
O1 C20 1_555 1_555
O2 C20 1_555 1_555
N1 C2 1_555 1_555
N2 C3 1_555 1_555
N3 H1 1_555 1_555
H2 N3 1_555 1_555
C1 C2 1_555 1_555
C2 H3 1_555 1_555
C3 N1 1_555 1_555
C4 N2 1_555 1_555
H4 C4 1_555 1_555
C5 C1 1_555 1_555
C6 C5 1_555 1_555
C7 C6 1_555 1_555
H5 C7 1_555 1_555
C8 C7 1_555 1_555
H6 C8 1_555 1_555
C9 C8 1_555 1_555
H7 C9 1_555 1_555
C10 C9 1_555 1_555
H8 C10 1_555 1_555
C11 C6 1_555 1_555
C12 C11 1_555 1_555
H9 C12 1_555 1_555
C13 C12 1_555 1_555
C14 C13 1_555 1_555
H10 C14 1_555 1_555
C15 C14 1_555 1_555
H11 C15 1_555 1_555
C16 C15 1_555 1_555
H12 C16 1_555 1_555
C17 C16 1_555 1_555
H13 C17 1_555 1_555
C18 C5 1_555 1_555
C19 H14 1_555 1_555
H15 C19 1_555 1_555
H16 C19 1_555 1_555
C20 C19 1_555 1_555
C21 O2 1_555 1_555
H17 C21 1_555 1_555
H18 C21 1_555 1_555
C22 C21 1_555 1_555
H19 C22 1_555 1_555
H20 C22 1_555 1_555
H21 C22 1_555 1_555
N3 C3 1_555 1_555
C1 C4 1_555 1_555
C10 C11 1_555 1_555
C13 C18 1_555 1_555
C17 C18 1_555 1_555

#END
