
#######################################################################
#
#                 Cambridge Crystallographic Data Centre
#                                CCDC 
#
#######################################################################
#
# If this CIF has been generated from an entry in the Cambridge 
# Structural Database, then it will include bibliographic, chemical, 
# crystal, experimental, refinement or atomic coordinate data resulting 
# from the CCDC's data processing and validation procedures.
#
#######################################################################

data_ABIGIE
_chemical_formula_moiety         'C21 H21 F1 O2'
_chemical_name_systematic        
'(E)-trans-2-fluorocyclohexyl 2,3-diphenylacrylate'
_symmetry_cell_setting           monoclinic
_symmetry_space_group_name_H-M   'P 21/n'
_symmetry_Int_Tables_number      14
_space_group_name_Hall           '-P 2yn'
loop_
_symmetry_equiv_pos_site_id
_symmetry_equiv_pos_as_xyz
1 x,y,z
2 1/2-x,1/2+y,1/2-z
3 -x,-y,-z
4 1/2+x,1/2-y,1/2+z
_cell_length_a                   6.2779(13)
_cell_length_b                   16.762(3)
_cell_length_c                   16.993(3)
_cell_angle_alpha                90
_cell_angle_beta                 96.73(3)
_cell_angle_gamma                90
_cell_volume                     1775.85
_exptl_crystal_colour            colorless
_exptl_crystal_description       block
_chemical_melting_point          '345-346 K'
_cell_formula_units_Z            4
_exptl_crystal_recrystallization_method 'ethyl acetate/hexane'
loop_
_atom_site_label
_atom_site_type_symbol
_atom_site_fract_x
_atom_site_fract_y
_atom_site_fract_z
F1 F -0.2147(7) 0.8362(3) 0.3535(2)
O1 O 0.1041(3) 0.80795(8) 0.47262(8)
O2 O 0.2857(3) 0.71400(9) 0.41632(10)
C1 C 0.1344(4) 0.86319(12) 0.40930(11)
H1 H 0.1965 0.8343 0.3673
C2 C -0.0769(5) 0.8928(2) 0.3777(2)
H2 H -0.1351 0.9199 0.4216
C3 C -0.0615(7) 0.9557(3) 0.3137(2)
H3 H -0.0043 0.9315 0.2688
H4 H -0.2036 0.9759 0.2957
C4 C 0.0775(6) 1.02194(18) 0.3440(2)
H5 H 0.0137 1.0492 0.3858
H6 H 0.0903 1.0599 0.3018
C5 C 0.2925(7) 0.9923(3) 0.3752(3)
H7 H 0.3786 1.0365 0.3979
H8 H 0.3623 0.9707 0.3319
C6 C 0.2811(6) 0.9276(2) 0.4384(2)
H9 H 0.1931 0.9551 0.4740
C7 C 0.1818(3) 0.73418(11) 0.46772(10)
C8 C 0.1231(3) 0.68150(11) 0.53238(10)
C9 C 0.2115(3) 0.60900(11) 0.53509(10)
H10 H 0.3080 0.6008 0.4983
C10 C -0.0181(3) 0.71236(10) 0.59018(10)
C11 C -0.2247(3) 0.73882(13) 0.56651(12)
H11 H -0.2774 0.7392 0.5130
C12 C -0.3528(4) 0.76470(15) 0.62258(16)
H12 H -0.4919 0.7820 0.6066
C13 C -0.2752(4) 0.76492(14) 0.70178(15)
H13 H -0.3618 0.7824 0.7391
C14 C -0.0717(4) 0.73960(13) 0.72553(12)
H14 H -0.0196 0.7397 0.7791
C15 C 0.0576(3) 0.71381(11) 0.67015(11)
H15 H 0.1970 0.6972 0.6867
C16 C 0.1834(3) 0.54007(11) 0.58574(10)
C17 C -0.0007(3) 0.52455(12) 0.62140(12)
H16 H -0.1128 0.5611 0.6165
C18 C -0.0182(4) 0.45524(13) 0.66395(13)
H17 H -0.1425 0.4453 0.6872
C19 C 0.1468(4) 0.40062(13) 0.67232(13)
H18 H 0.1340 0.3542 0.7014
C20 C 0.3295(4) 0.41460(13) 0.63781(13)
H19 H 0.4412 0.3778 0.6433
C21 C 0.3468(4) 0.48350(12) 0.59489(12)
H20 H 0.4710 0.4925 0.5713
F2? F 0.4364(17) 0.9165(7) 0.4817(7)
loop_
_geom_bond_atom_site_label_1
_geom_bond_atom_site_label_2
_geom_bond_site_symmetry_1
_geom_bond_site_symmetry_2
F1 C2 1_555 1_555
O1 C1 1_555 1_555
O2 C7 1_555 1_555
C1 H1 1_555 1_555
C2 C1 1_555 1_555
H2 C2 1_555 1_555
C3 C2 1_555 1_555
H3 C3 1_555 1_555
H4 C3 1_555 1_555
C4 C3 1_555 1_555
H5 C4 1_555 1_555
H6 C4 1_555 1_555
C5 C4 1_555 1_555
H7 C5 1_555 1_555
H8 C5 1_555 1_555
C6 C1 1_555 1_555
H9 C6 1_555 1_555
C7 O1 1_555 1_555
C8 C7 1_555 1_555
C9 C8 1_555 1_555
H10 C9 1_555 1_555
C10 C8 1_555 1_555
C11 C10 1_555 1_555
H11 C11 1_555 1_555
C12 C11 1_555 1_555
H12 C12 1_555 1_555
C13 C12 1_555 1_555
H13 C13 1_555 1_555
C14 C13 1_555 1_555
H14 C14 1_555 1_555
C15 C10 1_555 1_555
H15 C15 1_555 1_555
C16 C9 1_555 1_555
C17 C16 1_555 1_555
H16 C17 1_555 1_555
C18 C17 1_555 1_555
H17 C18 1_555 1_555
C19 C18 1_555 1_555
H18 C19 1_555 1_555
C20 C19 1_555 1_555
H19 C20 1_555 1_555
C21 C16 1_555 1_555
H20 C21 1_555 1_555
C5 C6 1_555 1_555
C14 C15 1_555 1_555
C20 C21 1_555 1_555

#END
