
#######################################################################
#
#                 Cambridge Crystallographic Data Centre
#                                CCDC 
#
#######################################################################
#
# If this CIF has been generated from an entry in the Cambridge 
# Structural Database, then it will include bibliographic, chemical, 
# crystal, experimental, refinement or atomic coordinate data resulting 
# from the CCDC's data processing and validation procedures.
#
#######################################################################

data_ABIGEA
_chemical_formula_moiety         'C8 H9 F1 O2 S2'
_chemical_name_systematic        
'(4R,6S)-4-fluoro-6-methyl-5,6-dihydro-4H-thieno[2,3-b]thiopyran 7,7-dioxide'
_symmetry_cell_setting           orthorhombic
_symmetry_space_group_name_H-M   'P 21 21 21'
_symmetry_Int_Tables_number      19
_space_group_name_Hall           'P 2ac 2ab'
loop_
_symmetry_equiv_pos_site_id
_symmetry_equiv_pos_as_xyz
1 x,y,z
2 1/2-x,-y,1/2+z
3 -x,1/2+y,1/2-z
4 1/2+x,1/2-y,-z
_cell_length_a                   7.8082(16)
_cell_length_b                   9.3493(19)
_cell_length_c                   26.310(5)
_cell_angle_alpha                90
_cell_angle_beta                 90
_cell_angle_gamma                90
_cell_volume                     1920.66
_exptl_crystal_colour            colorless
_exptl_crystal_description       block
_chemical_melting_point          '349-352 K'
_cell_formula_units_Z            8
_exptl_crystal_recrystallization_method 'ethyl acetate/hexane'
loop_
_atom_site_label
_atom_site_type_symbol
_atom_site_fract_x
_atom_site_fract_y
_atom_site_fract_z
S1 S 0.69066(12) 0.79320(9) 0.89778(3)
S2 S 0.98636(15) 0.97886(12) 0.93045(4)
O1 O 0.7356(5) 0.6546(3) 0.91742(13)
O2 O 0.7370(6) 0.8260(4) 0.84634(10)
F1 F 0.4211(4) 1.0744(3) 0.98160(13)
C1 C 0.7799(5) 0.9211(3) 0.93771(12)
C2 C 0.6995(5) 0.9813(3) 0.97829(12)
C3 C 0.5191(5) 0.9516(4) 0.99271(13)
H1 H 0.5143 0.9343 1.0294
C4 C 0.4371(5) 0.8263(4) 0.96572(13)
H2 H 0.3147 0.8282 0.9721
H3 H 0.4818 0.7383 0.9801
C5 C 0.4673(5) 0.8247(4) 0.90827(12)
H4 H 0.4358 0.9179 0.8940
C6 C 0.8114(6) 1.0776(4) 1.00427(16)
H5 H 0.7798 1.1295 1.0329
C7 C 0.9662(6) 1.0851(5) 0.9829(2)
H6 H 1.0542 1.1423 0.9953
C8 C 0.3652(7) 0.7083(6) 0.88194(19)
H7 H 0.2451 0.7245 0.8873
H8 H 0.3965 0.6169 0.8957
H9 H 0.3893 0.7100 0.8462
S3 S 0.24204(9) 0.22027(8) 0.81914(3)
S4 S -0.02071(14) 0.37986(11) 0.88003(4)
O3 O 0.3299(4) 0.3525(3) 0.81063(14)
O4 O 0.3113(4) 0.1246(3) 0.85657(11)
F2 F -0.1488(4) 0.1548(3) 0.72999(9)
C9 C 0.0294(4) 0.2556(3) 0.83515(10)
C10 C -0.1097(4) 0.1845(3) 0.81706(11)
C11 C -0.1005(5) 0.0786(4) 0.77443(13)
H10 H -0.1825 0.0011 0.7806
C12 C 0.0733(6) 0.0169(4) 0.76606(15)
H11 H 0.0704 -0.0412 0.7355
H12 H 0.1003 -0.0458 0.7943
C13 C 0.2165(5) 0.1271(4) 0.76072(12)
H13 H 0.1839 0.1961 0.7344
C14 C -0.2595(5) 0.2295(5) 0.84191(17)
H14 H -0.3672 0.1911 0.8355
C15 C -0.2306(6) 0.3348(5) 0.87633(19)
H15 H -0.3162 0.3775 0.8957
C16 C 0.3895(8) 0.0615(7) 0.7463(2)
H16 H 0.3785 0.0106 0.7148
H17 H 0.4254 -0.0034 0.7725
H18 H 0.4731 0.1361 0.7426
loop_
_geom_bond_atom_site_label_1
_geom_bond_atom_site_label_2
_geom_bond_site_symmetry_1
_geom_bond_site_symmetry_2
S1 O1 1_555 1_555
S2 C1 1_555 1_555
O2 S1 1_555 1_555
F1 C3 1_555 1_555
C1 S1 1_555 1_555
C2 C1 1_555 1_555
C3 C2 1_555 1_555
H1 C3 1_555 1_555
C4 C3 1_555 1_555
H2 C4 1_555 1_555
H3 C4 1_555 1_555
C5 S1 1_555 1_555
H4 C5 1_555 1_555
C6 C2 1_555 1_555
H5 C6 1_555 1_555
C7 S2 1_555 1_555
H6 C7 1_555 1_555
C8 C5 1_555 1_555
H7 C8 1_555 1_555
H8 C8 1_555 1_555
H9 C8 1_555 1_555
S3 O3 1_555 1_555
S4 C9 1_555 1_555
O4 S3 1_555 1_555
F2 C11 1_555 1_555
C9 S3 1_555 1_555
C10 C9 1_555 1_555
C11 C10 1_555 1_555
H10 C11 1_555 1_555
C12 C11 1_555 1_555
H11 C12 1_555 1_555
H12 C12 1_555 1_555
C13 S3 1_555 1_555
H13 C13 1_555 1_555
C14 C10 1_555 1_555
H14 C14 1_555 1_555
C15 S4 1_555 1_555
H15 C15 1_555 1_555
C16 C13 1_555 1_555
H16 C16 1_555 1_555
H17 C16 1_555 1_555
H18 C16 1_555 1_555
C4 C5 1_555 1_555
C6 C7 1_555 1_555
C12 C13 1_555 1_555
C14 C15 1_555 1_555

#END
