
#######################################################################
#
#                 Cambridge Crystallographic Data Centre
#                                CCDC 
#
#######################################################################
#
# If this CIF has been generated from an entry in the Cambridge 
# Structural Database, then it will include bibliographic, chemical, 
# crystal, experimental, refinement or atomic coordinate data resulting 
# from the CCDC's data processing and validation procedures.
#
#######################################################################

data_ABIHIC
_chemical_formula_moiety         'C29 H24 O4 Si1'
_chemical_name_systematic        
(25-hydroxycalix(4)arene-26,27,28-trioxy)methylsiloxane
_symmetry_cell_setting           triclinic
_symmetry_space_group_name_H-M   'P -1'
_symmetry_Int_Tables_number      2
_space_group_name_Hall           '-P 1'
loop_
_symmetry_equiv_pos_site_id
_symmetry_equiv_pos_as_xyz
1 x,y,z
2 -x,-y,-z
_cell_length_a                   9.655(1)
_cell_length_b                   11.115(1)
_cell_length_c                   11.345(1)
_cell_angle_alpha                72.95(1)
_cell_angle_beta                 73.98(1)
_cell_angle_gamma                87.95(1)
_cell_volume                     1117.43
_exptl_crystal_colour            colorless
_exptl_crystal_description       prismatic
_chemical_melting_point          312-314deg.C
_cell_formula_units_Z            2
_exptl_crystal_recrystallization_method toluene
loop_
_atom_site_label
_atom_site_type_symbol
_atom_site_fract_x
_atom_site_fract_y
_atom_site_fract_z
Si1 Si 0.1278(1) 0.6022(1) 0.1510(1)
C1 C 0.1296(2) 0.4470(2) 0.2638(2)
O1 O 0.4293(1) 0.8673(1) 0.1086(1)
O2 O 0.2742(1) 0.6234(1) 0.0313(1)
O3 O -0.0122(1) 0.6047(1) 0.0947(1)
O4 O 0.1179(1) 0.7199(1) 0.2117(1)
C2 C 0.4356(2) 0.7461(2) 0.1850(2)
C3 C 0.3587(2) 0.7200(2) 0.3139(2)
C4 C 0.3689(2) 0.6014(2) 0.3969(2)
C5 C 0.4499(2) 0.5110(2) 0.3510(2)
C6 C 0.5161(2) 0.5365(2) 0.2210(2)
C7 C 0.5081(2) 0.6538(2) 0.1350(2)
C8 C 0.3417(2) 0.7169(1) -0.0792(2)
C9 C 0.4873(2) 0.7490(2) -0.0973(2)
C10 C 0.5559(2) 0.8454(2) -0.2067(2)
C11 C 0.4864(2) 0.9044(2) -0.2984(2)
C12 C 0.3467(2) 0.8645(2) -0.2827(2)
C13 C 0.2718(2) 0.7697(2) -0.1749(2)
C14 C -0.0580(2) 0.7233(1) 0.0408(2)
C15 C 0.0018(2) 0.7835(2) -0.0895(2)
C16 C -0.0471(2) 0.9024(2) -0.1402(2)
C17 C -0.1486(2) 0.9576(2) -0.0622(2)
C18 C -0.2025(2) 0.8970(2) 0.0678(2)
C19 C -0.1569(2) 0.7784(2) 0.1220(2)
C20 C 0.0322(2) 0.7555(1) 0.3147(1)
C21 C -0.1194(2) 0.7553(2) 0.3405(2)
C22 C -0.1971(2) 0.8012(2) 0.4408(2)
C23 C -0.1299(2) 0.8459(2) 0.5127(2)
C24 C 0.0189(2) 0.8448(2) 0.4864(2)
C25 C 0.1028(2) 0.8011(1) 0.3876(2)
C26 C 0.5748(2) 0.6786(2) -0.0076(2)
C27 C 0.1225(2) 0.7241(2) -0.1675(2)
C28 C -0.2041(2) 0.7111(2) 0.2648(2)
C29 C 0.2662(2) 0.8178(2) 0.3602(2)
H1 H 0.4687(21) 0.8701(18) 0.0353(20)
H2 H 0.0443 0.4329 0.3348
H3 H 0.2133 0.4429 0.2946
H4 H 0.1322 0.3836 0.2213
H5 H 0.3153(21) 0.5880(17) 0.4852(19)
H6 H 0.4586(20) 0.4314(18) 0.4095(18)
H7 H 0.5633(20) 0.4728(18) 0.1851(18)
H8 H 0.6545(21) 0.8704(17) -0.2176(18)
H9 H 0.5349(21) 0.9736(18) -0.3747(18)
H10 H 0.2988(20) 0.9075(17) -0.3516(18)
H11 H -0.0059(22) 0.9466(19) -0.2294(21)
H12 H -0.1812(22) 1.0384(19) -0.1002(20)
H13 H -0.2732(23) 0.9378(18) 0.1271(20)
H14 H -0.3022(23) 0.8025(19) 0.4577(19)
H15 H -0.1812(23) 0.8779(20) 0.5753(20)
H16 H 0.0667(22) 0.8739(19) 0.5375(20)
H17 H 0.5957(22) 0.5951(20) -0.0216(19)
H18 H 0.6665(23) 0.7236(19) -0.0328(20)
H19 H 0.1141(21) 0.6316(19) -0.1340(19)
H20 H 0.1169(21) 0.7467(18) -0.2600(20)
H21 H -0.1987(22) 0.6196(20) 0.2767(19)
H22 H -0.3058(23) 0.7264(19) 0.3013(20)
H23 H 0.2823(22) 0.8161(18) 0.4448(21)
H24 H 0.2933(22) 0.9024(20) 0.2948(20)
loop_
_geom_bond_atom_site_label_1
_geom_bond_atom_site_label_2
_geom_bond_site_symmetry_1
_geom_bond_site_symmetry_2
Si1 C1 1_555 1_555
C1 H2 1_555 1_555
O1 C2 1_555 1_555
O2 Si1 1_555 1_555
O3 Si1 1_555 1_555
O4 Si1 1_555 1_555
C2 C3 1_555 1_555
C3 C4 1_555 1_555
C4 C5 1_555 1_555
C5 C6 1_555 1_555
C6 C7 1_555 1_555
C7 C2 1_555 1_555
C8 O2 1_555 1_555
C9 C8 1_555 1_555
C10 C9 1_555 1_555
C11 C10 1_555 1_555
C12 C11 1_555 1_555
C13 C8 1_555 1_555
C14 O3 1_555 1_555
C15 C14 1_555 1_555
C16 C15 1_555 1_555
C17 C16 1_555 1_555
C18 C17 1_555 1_555
C19 C14 1_555 1_555
C20 O4 1_555 1_555
C21 C20 1_555 1_555
C22 C21 1_555 1_555
C23 C22 1_555 1_555
C24 C23 1_555 1_555
C25 C20 1_555 1_555
C26 C7 1_555 1_555
C27 C13 1_555 1_555
C28 C19 1_555 1_555
C29 C3 1_555 1_555
H1 O1 1_555 1_555
H3 C1 1_555 1_555
H4 C1 1_555 1_555
H5 C4 1_555 1_555
H6 C5 1_555 1_555
H7 C6 1_555 1_555
H8 C10 1_555 1_555
H9 C11 1_555 1_555
H10 C12 1_555 1_555
H11 C16 1_555 1_555
H12 C17 1_555 1_555
H13 C18 1_555 1_555
H14 C22 1_555 1_555
H15 C23 1_555 1_555
H16 C24 1_555 1_555
H17 C26 1_555 1_555
H18 C26 1_555 1_555
H19 C27 1_555 1_555
H20 C27 1_555 1_555
H21 C28 1_555 1_555
H22 C28 1_555 1_555
H23 C29 1_555 1_555
H24 C29 1_555 1_555
C9 C26 1_555 1_555
C12 C13 1_555 1_555
C15 C27 1_555 1_555
C18 C19 1_555 1_555
C21 C28 1_555 1_555
C24 C25 1_555 1_555
C25 C29 1_555 1_555

#END
