
#######################################################################
#
#                 Cambridge Crystallographic Data Centre
#                                CCDC 
#
#######################################################################
#
# If this CIF has been generated from an entry in the Cambridge 
# Structural Database, then it will include bibliographic, chemical, 
# crystal, experimental, refinement or atomic coordinate data resulting 
# from the CCDC's data processing and validation procedures.
#
#######################################################################

data_ABIHIC01
_chemical_formula_moiety         'C29 H24 O4 Si1'
_chemical_name_systematic        
(25-hydroxycalix(4)arene-26,27,28-trioxy)methylsiloxane
_symmetry_cell_setting           monoclinic
_symmetry_space_group_name_H-M   'P 21/n'
_symmetry_Int_Tables_number      14
_space_group_name_Hall           '-P 2yn'
loop_
_symmetry_equiv_pos_site_id
_symmetry_equiv_pos_as_xyz
1 x,y,z
2 1/2+x,1/2-y,1/2+z
3 -x,-y,-z
4 1/2-x,1/2+y,1/2-z
_cell_length_a                   10.751(3)
_cell_length_b                   17.892(5)
_cell_length_c                   11.774(3)
_cell_angle_alpha                90
_cell_angle_beta                 103.88(2)
_cell_angle_gamma                90
_cell_volume                     2198.68
_exptl_crystal_colour            colorless
_exptl_crystal_description       rod
_chemical_melting_point          317-319deg.C
_cell_formula_units_Z            4
loop_
_atom_site_label
_atom_site_type_symbol
_atom_site_fract_x
_atom_site_fract_y
_atom_site_fract_z
Si1 Si 0.13104(14) 0.15313(8) 0.29083(13)
O1 O 0.3834(3) 0.1072(2) 0.4106(3)
O2 O 0.1188(3) 0.0775(2) 0.3579(2)
O3 O -0.0296(3) 0.1805(2) 0.2104(3)
O4 O 0.2162(3) 0.1421(2) 0.1999(2)
C1 C 0.1869(4) 0.2278(2) 0.3973(4)
H1 H 0.1213 0.2654 0.3882
H2 H 0.2633 0.2495 0.3831
H3 H 0.2040 0.2077 0.4746
C2 C 0.4063(4) 0.0432(2) 0.3524(4)
C3 C 0.4597(4) 0.0522(2) 0.2573(4)
C4 C 0.4870(4) -0.0108(3) 0.2018(4)
H7 H 0.5253(4) -0.0061(3) 0.1392(4)
C5 C 0.4587(5) -0.0807(3) 0.2367(4)
H8 H 0.4809(5) -0.1230(3) 0.2001(4)
C6 C 0.3974(5) -0.0876(3) 0.3263(4)
H9 H 0.3749(5) -0.1348(3) 0.3477(4)
C7 C 0.3690(4) -0.0256(2) 0.3847(4)
C8 C 0.0689(4) 0.0069(2) 0.3633(3)
C9 C 0.1522(4) -0.0486(2) 0.4200(3)
C10 C 0.1027(5) -0.1195(2) 0.4257(4)
H10 H 0.1570(5) -0.1574(2) 0.4621(4)
C11 C -0.0228(5) -0.1354(3) 0.3798(4)
H11 H -0.0532(5) -0.1838(3) 0.3827(4)
C12 C -0.1044(4) -0.0793(2) 0.3291(4)
H12 H -0.1910(4) -0.0898(2) 0.3001(4)
C13 C -0.0600(4) -0.0071(2) 0.3205(3)
C14 C -0.0728(4) 0.1311(2) 0.1209(4)
C15 C -0.1418(4) 0.0690(2) 0.1411(3)
C16 C -0.1873(4) 0.0215(2) 0.0486(4)
H13 H -0.2343(4) -0.0205(2) 0.0592(4)
C17 C -0.1639(4) 0.0352(3) -0.0600(4)
H14 H -0.1962(4) 0.0032(3) -0.1223(4)
C18 C -0.0926(4) 0.0966(2) -0.0755(4)
H15 H -0.0752(4) 0.1049(2) -0.1482(4)
C19 C -0.0466(4) 0.1457(2) 0.0141(4)
C20 C 0.2572(4) 0.1651(2) 0.1042(3)
C21 C 0.1726(4) 0.1950(2) 0.0060(4)
C22 C 0.2206(4) 0.2115(2) -0.0907(4)
H16 H 0.1660(4) 0.2314(2) -0.1572(4)
C23 C 0.3466(5) 0.1992(3) -0.0903(4)
H17 H 0.3762(5) 0.2097(3) -0.1566(4)
C24 C 0.4285(4) 0.1714(2) 0.0078(4)
H18 H 0.5139(4) 0.1634(2) 0.0075(4)
C25 C 0.3872(4) 0.1550(2) 0.1072(4)
C26 C 0.2921(4) -0.0342(3) 0.4758(4)
H19 H 0.3263(4) -0.0754(3) 0.5273(4)
H20 H 0.2999(4) 0.0109(3) 0.5227(4)
C27 C -0.1553(4) 0.0519(2) 0.2624(4)
H21 H -0.2416(4) 0.0343(2) 0.2586(4)
H22 H -0.1416(4) 0.0971(2) 0.3091(4)
C28 C 0.0341(4) 0.2119(2) 0.0001(4)
H23 H 0.0302(4) 0.2480(2) 0.0606(4)
H24 H -0.0031(4) 0.2352(2) -0.0747(4)
C29 C 0.4820(4) 0.1296(2) 0.2149(4)
H25 H 0.4812(4) 0.1649(2) 0.2772(4)
H26 H 0.5668(4) 0.1311(2) 0.1998(4)
Si2? Si 0.2208(3) 0.1362(2) 0.3351(2)
H4? H 0.2596 0.2415 0.4578
H5? H 0.1129 0.2226 0.4277
H6? H 0.1723 0.2644 0.3361
loop_
_geom_bond_atom_site_label_1
_geom_bond_atom_site_label_2
_geom_bond_site_symmetry_1
_geom_bond_site_symmetry_2
Si1 O2 1_555 1_555
O1 C2 1_555 1_555
O2 C8 1_555 1_555
O3 Si1 1_555 1_555
O4 Si1 1_555 1_555
C1 Si1 1_555 1_555
H1 C1 1_555 1_555
H2 C1 1_555 1_555
H3 C1 1_555 1_555
C2 C3 1_555 1_555
C3 C4 1_555 1_555
C4 H7 1_555 1_555
C5 C4 1_555 1_555
H8 C5 1_555 1_555
C6 C5 1_555 1_555
H9 C6 1_555 1_555
C7 C2 1_555 1_555
C8 C9 1_555 1_555
C9 C10 1_555 1_555
C10 H10 1_555 1_555
C11 C10 1_555 1_555
H11 C11 1_555 1_555
C12 C11 1_555 1_555
H12 C12 1_555 1_555
C13 C8 1_555 1_555
C14 O3 1_555 1_555
C15 C14 1_555 1_555
C16 C15 1_555 1_555
H13 C16 1_555 1_555
C17 C16 1_555 1_555
H14 C17 1_555 1_555
C18 C17 1_555 1_555
H15 C18 1_555 1_555
C19 C14 1_555 1_555
C20 O4 1_555 1_555
C21 C20 1_555 1_555
C22 C21 1_555 1_555
H16 C22 1_555 1_555
C23 C22 1_555 1_555
H17 C23 1_555 1_555
C24 C23 1_555 1_555
H18 C24 1_555 1_555
C25 C20 1_555 1_555
C26 C7 1_555 1_555
H19 C26 1_555 1_555
H20 C26 1_555 1_555
C27 C13 1_555 1_555
H21 C27 1_555 1_555
H22 C27 1_555 1_555
C28 C19 1_555 1_555
H23 C28 1_555 1_555
H24 C28 1_555 1_555
C29 C3 1_555 1_555
H25 C29 1_555 1_555
H26 C29 1_555 1_555
C6 C7 1_555 1_555
C9 C26 1_555 1_555
C12 C13 1_555 1_555
C15 C27 1_555 1_555
C18 C19 1_555 1_555
C21 C28 1_555 1_555
C24 C25 1_555 1_555
C25 C29 1_555 1_555

#END
