
#######################################################################
#
#                 Cambridge Crystallographic Data Centre
#                                CCDC 
#
#######################################################################
#
# If this CIF has been generated from an entry in the Cambridge 
# Structural Database, then it will include bibliographic, chemical, 
# crystal, experimental, refinement or atomic coordinate data resulting 
# from the CCDC's data processing and validation procedures.
#
#######################################################################

data_ABIHOI
_chemical_formula_moiety         'C30 H26 O4 Si1'
_chemical_name_systematic        
(25-Methoxycalix(4)arene-26,27,28-trioxy)methylsiloxane
_symmetry_cell_setting           monoclinic
_symmetry_space_group_name_H-M   'C 2/c'
_symmetry_Int_Tables_number      15
_space_group_name_Hall           '-C 2yn'
loop_
_symmetry_equiv_pos_site_id
_symmetry_equiv_pos_as_xyz
1 x,y,z
2 -x,y,1/2-z
3 1/2+x,1/2+y,z
4 1/2-x,1/2+y,1/2-z
5 -x,-y,-z
6 x,-y,1/2+z
7 1/2-x,1/2-y,-z
8 1/2+x,1/2-y,1/2+z
_cell_length_a                   30.614(6)
_cell_length_b                   9.254(2)
_cell_length_c                   19.691(3)
_cell_angle_alpha                90
_cell_angle_beta                 123.80(1)
_cell_angle_gamma                90
_cell_volume                     4635.65
_exptl_crystal_colour            colorless
_exptl_crystal_description       prismatic
_chemical_melting_point          278-280deg.C
_cell_formula_units_Z            8
_exptl_crystal_recrystallization_method toluene
loop_
_atom_site_label
_atom_site_type_symbol
_atom_site_fract_x
_atom_site_fract_y
_atom_site_fract_z
Si1 Si 0.4132(1) 0.0998(2) 0.1040(1)
O1 O 0.3777(2) 0.4427(6) -0.0210(3)
O2 O 0.3683(2) 0.1277(5) 0.0083(3)
O3 O 0.3858(2) 0.0110(5) 0.1422(3)
O4 O 0.4348(2) 0.2521(5) 0.1498(3)
C1 C 0.4693(3) -0.0011(9) 0.1220(5)
C2 C 0.3674(3) 0.5791(9) -0.0576(6)
C3 C 0.4223(3) 0.3765(10) -0.0085(5)
C4 C 0.4695(3) 0.4097(9) 0.0623(5)
C5 C 0.5131(4) 0.3390(10) 0.0738(6)
C6 C 0.5100(4) 0.2417(10) 0.0200(6)
C7 C 0.4600(4) 0.2057(9) -0.0491(6)
C8 C 0.4148(3) 0.2742(9) -0.0644(5)
C9 C 0.3384(3) 0.0497(8) -0.0630(4)
C10 C 0.3372(3) 0.0969(9) -0.1317(4)
C11 C 0.3064(3) 0.0213(10) -0.2031(5)
C12 C 0.2754(3) -0.0909(10) -0.2104(5)
C13 C 0.2757(3) -0.1341(9) -0.1430(5)
C14 C 0.3075(3) -0.0659(8) -0.0681(4)
C15 C 0.3343(3) 0.0549(8) 0.1132(5)
C16 C 0.2932(3) -0.0162(8) 0.0449(5)
C17 C 0.2431(3) 0.0281(9) 0.0176(5)
C18 C 0.2345(3) 0.1382(9) 0.0547(5)
C19 C 0.2756(4) 0.2086(8) 0.1208(5)
C20 C 0.3271(3) 0.1662(8) 0.1517(5)
C21 C 0.4178(3) 0.3804(9) 0.1635(4)
C22 C 0.3879(3) 0.3796(8) 0.1964(4)
C23 C 0.3726(3) 0.5122(10) 0.2094(4)
C24 C 0.3874(3) 0.6412(9) 0.1928(5)
C25 C 0.4195(3) 0.6362(9) 0.1636(5)
C26 C 0.4352(3) 0.5067(9) 0.1486(4)
C27 C 0.3627(3) 0.2359(9) -0.1342(5)
C28 C 0.3058(3) -0.1245(8) 0.0020(4)
C29 C 0.3730(3) 0.2440(8) 0.2219(4)
C30 C 0.4751(3) 0.5130(9) 0.1258(4)
H1 H 0.4858 0.0503 0.0997
H2 H 0.4940 -0.0134 0.1798
H3 H 0.4579 -0.0941 0.0964
H4 H 0.3362 0.6189 -0.0644
H5 H 0.3966 0.6419 -0.0236
H6 H 0.3624 0.5699 -0.1101
H7 H 0.5470 0.3596 0.1223
H8 H 0.5412 0.1977 0.0292
H9 H 0.4573 0.1335 -0.0862
H10 H 0.3067 0.0491 -0.2498
H11 H 0.2541 -0.1406 -0.2616
H12 H 0.2531 -0.2116 -0.1482
H13 H 0.2136 -0.0190 -0.0288
H14 H 0.1991 0.1671 0.0338
H15 H 0.2687 0.2861 0.1460
H16 H 0.3510 0.5143 0.2308
H17 H 0.3757 0.7321 0.2008
H18 H 0.4313 0.7254 0.1540
H19 H 0.3644 0.2307 -0.1813
H20 H 0.3394 0.3142 -0.1433
H21 H 0.2799 -0.2000 -0.0185
H22 H 0.3393 -0.1671 0.0411
H23 H 0.3649 0.2691 0.2609
H24 H 0.4028 0.1802 0.2482
H25 H 0.4749 0.6094 0.1076
H26 H 0.5091 0.4974 0.1751
loop_
_geom_bond_atom_site_label_1
_geom_bond_atom_site_label_2
_geom_bond_site_symmetry_1
_geom_bond_site_symmetry_2
Si1 O2 1_555 1_555
O1 C2 1_555 1_555
O2 C9 1_555 1_555
O3 Si1 1_555 1_555
O4 Si1 1_555 1_555
C1 Si1 1_555 1_555
C2 H4 1_555 1_555
C3 O1 1_555 1_555
C4 C3 1_555 1_555
C5 C4 1_555 1_555
C6 C5 1_555 1_555
C7 C6 1_555 1_555
C8 C3 1_555 1_555
C9 C10 1_555 1_555
C10 C11 1_555 1_555
C11 C12 1_555 1_555
C12 C13 1_555 1_555
C13 C14 1_555 1_555
C14 C9 1_555 1_555
C15 O3 1_555 1_555
C16 C15 1_555 1_555
C17 C16 1_555 1_555
C18 C17 1_555 1_555
C19 C18 1_555 1_555
C20 C15 1_555 1_555
C21 O4 1_555 1_555
C22 C21 1_555 1_555
C23 C22 1_555 1_555
C24 C23 1_555 1_555
C25 C24 1_555 1_555
C26 C21 1_555 1_555
C27 C8 1_555 1_555
C28 C14 1_555 1_555
C29 C20 1_555 1_555
C30 C4 1_555 1_555
H1 C1 1_555 1_555
H2 C1 1_555 1_555
H3 C1 1_555 1_555
H5 C2 1_555 1_555
H6 C2 1_555 1_555
H7 C5 1_555 1_555
H8 C6 1_555 1_555
H9 C7 1_555 1_555
H10 C11 1_555 1_555
H11 C12 1_555 1_555
H12 C13 1_555 1_555
H13 C17 1_555 1_555
H14 C18 1_555 1_555
H15 C19 1_555 1_555
H16 C23 1_555 1_555
H17 C24 1_555 1_555
H18 C25 1_555 1_555
H19 C27 1_555 1_555
H20 C27 1_555 1_555
H21 C28 1_555 1_555
H22 C28 1_555 1_555
H23 C29 1_555 1_555
H24 C29 1_555 1_555
H25 C30 1_555 1_555
H26 C30 1_555 1_555
C7 C8 1_555 1_555
C10 C27 1_555 1_555
C16 C28 1_555 1_555
C19 C20 1_555 1_555
C22 C29 1_555 1_555
C25 C26 1_555 1_555
C26 C30 1_555 1_555

#END
