
#######################################################################
#
#                 Cambridge Crystallographic Data Centre
#                                CCDC 
#
#######################################################################
#
# If this CIF has been generated from an entry in the Cambridge 
# Structural Database, then it will include bibliographic, chemical, 
# crystal, experimental, refinement or atomic coordinate data resulting 
# from the CCDC's data processing and validation procedures.
#
#######################################################################

data_ABILEC
_chemical_formula_moiety         'I1 1-,C26 H23 N2 1+'
_chemical_name_systematic        
"trans-4-(4'-(N,N-Diphenylamino)styryl)-N'-methylpyridinium iodide"
_symmetry_cell_setting           orthorhombic
_symmetry_space_group_name_H-M   'P b c a'
_symmetry_Int_Tables_number      61
_space_group_name_Hall           '-P 2ac 2ab'
loop_
_symmetry_equiv_pos_site_id
_symmetry_equiv_pos_as_xyz
1 x,y,z
2 1/2+x,y,1/2-z
3 x,1/2-y,1/2+z
4 1/2-x,1/2+y,z
5 -x,-y,-z
6 1/2-x,-y,1/2+z
7 -x,1/2+y,1/2-z
8 1/2+x,1/2-y,-z
_cell_length_a                   10.5638(14)
_cell_length_b                   11.1909(19)
_cell_length_c                   37.255(4)
_cell_angle_alpha                90
_cell_angle_beta                 90
_cell_angle_gamma                90
_cell_volume                     4404.23
_exptl_crystal_colour            red
_exptl_crystal_description       prism
_cell_formula_units_Z            8
loop_
_atom_site_label
_atom_site_type_symbol
_atom_site_fract_x
_atom_site_fract_y
_atom_site_fract_z
I1 I 0.20154(6) 0.00637(7) 0.293445(19)
N1 N 0.1240(7) 0.2002(8) 0.2163(2)
N2 N 0.5869(8) -0.4946(7) 0.0648(2)
C1 C 0.0595(12) 0.2873(11) 0.2400(4)
H1 H -0.0303 0.2743 0.2390
H2 H 0.0783 0.3670 0.2320
H3 H 0.0886 0.2772 0.2642
C2 C 0.2520(10) 0.2054(10) 0.2143(3)
H4 H 0.2947 0.2658 0.2264
C3 C 0.3194(11) 0.1244(11) 0.1950(3)
H5 H 0.4070 0.1313 0.1941
C4 C 0.2627(11) 0.0341(11) 0.1770(3)
C5 C 0.1294(14) 0.0287(10) 0.1793(3)
H6 H 0.0854 -0.0315 0.1674
C6 C 0.0643(11) 0.1136(12) 0.1992(3)
H7 H -0.0235 0.1093 0.2006
C7 C 0.3452(12) -0.0538(12) 0.1563(3)
H8 H 0.4324 -0.0484 0.1592
C8 C 0.3028(12) -0.1343(10) 0.1352(3)
H9 H 0.2157 -0.1388 0.1316
C9 C 0.3813(10) -0.2180(10) 0.1168(3)
C10 C 0.5166(11) -0.2157(11) 0.1151(3)
H10 H 0.5605 -0.1537 0.1261
C11 C 0.5817(10) -0.3028(10) 0.0976(3)
H11 H 0.6695 -0.2979 0.0964
C12 C 0.5214(10) -0.3985(9) 0.0816(3)
C13 C 0.3896(10) -0.4014(9) 0.0823(3)
H12 H 0.3461 -0.4633 0.0712
C14 C 0.3242(11) -0.3123(11) 0.0997(3)
H13 H 0.2363 -0.3161 0.0998
C15 C 0.6666(10) -0.4719(9) 0.0350(3)
C16 C 0.6549(10) -0.3711(9) 0.0150(3)
H14 H 0.5923 -0.3158 0.0208
C17 C 0.7337(11) -0.3491(10) -0.0137(3)
H15 H 0.7218 -0.2810 -0.0276
C18 C 0.8289(11) -0.4264(11) -0.0218(3)
H16 H 0.8844 -0.4103 -0.0405
C19 C 0.8415(11) -0.5290(9) -0.0016(3)
H17 H 0.9040 -0.5837 -0.0079
C20 C 0.7664(10) -0.5536(11) 0.0272(3)
H18 H 0.7798 -0.6212 0.0412
C21 C 0.5836(9) -0.6065(9) 0.0825(3)
C22 C 0.5538(10) -0.7109(9) 0.0640(3)
H19 H 0.5352 -0.7064 0.0397
C23 C 0.5509(10) -0.8201(10) 0.0807(4)
H20 H 0.5330 -0.8895 0.0679
C24 C 0.5761(10) -0.8236(12) 0.1177(3)
H21 H 0.5722 -0.8962 0.1299
C25 C 0.6056(12) -0.7238(11) 0.1358(3)
H22 H 0.6238 -0.7283 0.1602
C26 C 0.6094(10) -0.6162(10) 0.1189(3)
H23 H 0.6296 -0.5479 0.1319
loop_
_geom_bond_atom_site_label_1
_geom_bond_atom_site_label_2
_geom_bond_site_symmetry_1
_geom_bond_site_symmetry_2
N1 C1 1_555 1_555
N2 C12 1_555 1_555
C1 H1 1_555 1_555
H2 C1 1_555 1_555
H3 C1 1_555 1_555
C2 N1 1_555 1_555
H4 C2 1_555 1_555
C3 C2 1_555 1_555
H5 C3 1_555 1_555
C4 C3 1_555 1_555
C5 C4 1_555 1_555
H6 C5 1_555 1_555
C6 N1 1_555 1_555
H7 C6 1_555 1_555
C7 C4 1_555 1_555
H8 C7 1_555 1_555
C8 C7 1_555 1_555
H9 C8 1_555 1_555
C9 C8 1_555 1_555
C10 C9 1_555 1_555
H10 C10 1_555 1_555
C11 C10 1_555 1_555
H11 C11 1_555 1_555
C12 C11 1_555 1_555
C13 C12 1_555 1_555
H12 C13 1_555 1_555
C14 C9 1_555 1_555
H13 C14 1_555 1_555
C15 N2 1_555 1_555
C16 C15 1_555 1_555
H14 C16 1_555 1_555
C17 C16 1_555 1_555
H15 C17 1_555 1_555
C18 C17 1_555 1_555
H16 C18 1_555 1_555
C19 C18 1_555 1_555
H17 C19 1_555 1_555
C20 C15 1_555 1_555
H18 C20 1_555 1_555
C21 N2 1_555 1_555
C22 C21 1_555 1_555
H19 C22 1_555 1_555
C23 C22 1_555 1_555
H20 C23 1_555 1_555
C24 C23 1_555 1_555
H21 C24 1_555 1_555
C25 C24 1_555 1_555
H22 C25 1_555 1_555
C26 C21 1_555 1_555
H23 C26 1_555 1_555
C5 C6 1_555 1_555
C13 C14 1_555 1_555
C19 C20 1_555 1_555
C25 C26 1_555 1_555

#END
