
#######################################################################
#
#                 Cambridge Crystallographic Data Centre
#                                CCDC 
#
#######################################################################
#
# If this CIF has been generated from an entry in the Cambridge 
# Structural Database, then it will include bibliographic, chemical, 
# crystal, experimental, refinement or atomic coordinate data resulting 
# from the CCDC's data processing and validation procedures.
#
#######################################################################

data_ABILIJ
_chemical_name_common            
'TCC2-R bis(CC3-S) 1,4-dioxane dichloromethane solvate'
_chemical_formula_moiety         
'C102 H102 N12,2(C72 H84 N12),13(C4 H8 O2),8(C1 H2 Cl2)'
_chemical_name_systematic        
'(R)-5,7,11,13,19,21,25,27,30,32,36,38-dodecaaza-6,12,20,26,31,37(1,2)-hexacyclohexana-1,3,9,15,17,23(1,3,5),2,16,24(1,4)-nonabenzenatetracyclo[15.11.5.5^3,15^.1^9,23^]nonatriacontaphane-4,7,10,13,18,21,24,27,29,32,35,38-dodecane bis((S)-3,5,9,11,15,17,21,23,26,28,31,33-dodecaaza-4,10,16,22,27,32(1,2)-hexacyclohexana-1,7,13,19(1,3,5)-tetrabenzenatricyclo[11.11.5.5^7,19^]tetratriacontaphane-2,5,8,11,14,17,20,23,25,28,30,33-dodecaene) 1,4-dioxane dichloromethane solvate'
_symmetry_cell_setting           hexagonal
_symmetry_space_group_name_H-M   'P 63 2 2'
_symmetry_Int_Tables_number      182
_space_group_name_Hall           "P 6c 2'c"
loop_
_symmetry_equiv_pos_site_id
_symmetry_equiv_pos_as_xyz
1 x,y,z
2 x-y,x,1/2+z
3 -y,x-y,z
4 -x,-y,1/2+z
5 -x+y,-x,z
6 y,-x+y,1/2+z
7 -y,-x,1/2-z
8 x-y,-y,-z
9 x,x-y,1/2-z
10 y,x,-z
11 -x+y,y,1/2-z
12 -x,-x+y,-z
_cell_length_a                   17.1566(6)
_cell_length_b                   17.1566(6)
_cell_length_c                   121.803(4)
_cell_angle_alpha                90
_cell_angle_beta                 90
_cell_angle_gamma                120
_cell_volume                     31049.2
_exptl_crystal_colour            colorless
_exptl_crystal_description       prism
_cell_formula_units_Z            4
loop_
_atom_site_label
_atom_site_type_symbol
_atom_site_fract_x
_atom_site_fract_y
_atom_site_fract_z
N5 N 0.7217(5) 0.7426(5) 0.42112(6)
N6 N 0.6736(5) 0.8781(5) 0.41653(5)
N7 N 0.8089(5) 1.1573(5) 0.37513(6)
N8 N 0.8508(6) 1.0970(4) 0.35468(5)
C25 C 0.8940(7) 0.7588(7) 0.41453(7)
H29 H 0.8900 0.7767 0.4218
C26 C 0.8219(6) 0.7310(6) 0.40765(8)
C27 C 0.8267(6) 0.7077(6) 0.39707(9)
H30 H 0.7771 0.6916 0.3923
C28 C 0.7369(6) 0.7279(6) 0.41144(8)
H31 H 0.6912 0.7137 0.4061
C29 C 0.6308(6) 0.7274(7) 0.42291(7)
H32 H 0.5946 0.7013 0.4161
C30 C 0.5864(5) 0.6601(6) 0.43231(6)
H33 H 0.6236 0.6836 0.4390
H34 H 0.5826 0.6023 0.4304
C31 C 0.4919(5) 0.6447(6) 0.43453(7)
H35 H 0.4532 0.6152 0.4281
H36 H 0.4655 0.6039 0.4409
C32 C 0.4937(6) 0.7311(6) 0.43681(7)
H37 H 0.5258 0.7564 0.4438
H38 H 0.4312 0.7189 0.4377
C33 C 0.5395(5) 0.7999(6) 0.42773(7)
H39 H 0.5440 0.8576 0.4299
H40 H 0.5030 0.7786 0.4210
C34 C 0.6335(5) 0.8148(6) 0.42550(6)
H41 H 0.6711 0.8414 0.4322
C35 C 0.7408(7) 0.9533(7) 0.41900(7)
H42 H 0.7609 0.9619 0.4264
C36 C 0.7902(7) 1.0286(6) 0.41135(8)
C37 C 0.7560(6) 1.0238(6) 0.40055(8)
H43 H 0.7016 0.9722 0.3983
C38 C 0.8040(6) 1.0971(6) 0.39308(8)
C39 C 0.7688(6) 1.0916(6) 0.38206(8)
H44 H 0.7153 1.0388 0.3799
C40 C 0.7610(6) 1.1475(6) 0.36467(8)
H45 H 0.7088 1.0850 0.3639
C41 C 0.7293(7) 1.2154(7) 0.36467(9)
H46 H 0.6871 1.2026 0.3708
H47 H 0.7815 1.2766 0.3657
C42 C 0.6834(6) 1.2117(6) 0.35408(8)
H48 H 0.6619 1.2555 0.3543
H49 H 0.6303 1.1509 0.3531
C43 C 0.7459(7) 1.2327(6) 0.34442(7)
H50 H 0.7958 1.2957 0.3449
H51 H 0.7127 1.2262 0.3375
C44 C 0.7840(6) 1.1695(6) 0.34422(7)
H52 H 0.7350 1.1076 0.3426
H53 H 0.8294 1.1881 0.3383
C45 C 0.8271(6) 1.1699(6) 0.35508(6)
H54 H 0.8823 1.2296 0.3563
C46 C 0.9348(6) 1.1247(6) 0.35361(6)
H55 H 0.9764 1.1874 0.3531
C47 C 0.9678(7) 1.0586(6) 0.35314(6)
C48 C 0.9061(5) 0.9643(6) 0.35324(6)
H56 H 0.8429 0.9410 0.3534
N5B N 1.2574(5) 0.9791(7) 0.42112(6)
N6B N 1.1219(5) 0.7955(7) 0.41653(5)
N7B N 0.8427(5) 0.6516(7) 0.37513(6)
N8B N 0.9030(4) 0.7538(7) 0.35468(5)
C25B C 1.2412(7) 1.1352(10) 0.41453(7)
H29B H 1.2233 1.1133 0.4218
C26B C 1.2690(6) 1.0909(8) 0.40765(8)
C27B C 1.2923(6) 1.1190(8) 0.39707(9)
H30B H 1.3084 1.0855 0.3923
C28B C 1.2721(6) 1.0090(8) 0.41144(8)
H31B H 1.2863 0.9775 0.4061
C29B C 1.2726(7) 0.9034(9) 0.42291(7)
H32B H 1.2987 0.8933 0.4161
C30B C 1.3399(6) 0.9263(8) 0.43231(6)
H33B H 1.3164 0.9400 0.4390
H34B H 1.3977 0.9803 0.4304
C31B C 1.3553(6) 0.8472(8) 0.43453(7)
H35B H 1.3848 0.8380 0.4281
H36B H 1.3961 0.8616 0.4409
C32B C 1.2689(6) 0.7626(8) 0.43681(7)
H37B H 1.2436 0.7694 0.4438
H38B H 1.2811 0.7123 0.4377
C33B C 1.2001(6) 0.7396(8) 0.42773(7)
H39B H 1.1424 0.6864 0.4299
H40B H 1.2214 0.7244 0.4210
C34B C 1.1852(6) 0.8187(8) 0.42550(6)
H41B H 1.1586 0.8297 0.4322
C35B C 1.0467(7) 0.7875(10) 0.41900(7)
H42B H 1.0381 0.7990 0.4264
C36B C 0.9714(6) 0.7616(9) 0.41135(8)
C37B C 0.9762(6) 0.7322(8) 0.40055(8)
H43B H 1.0278 0.7294 0.3983
C38B C 0.9029(6) 0.7069(8) 0.39308(8)
C39B C 0.9084(6) 0.6772(8) 0.38206(8)
H44B H 0.9612 0.6765 0.3799
C40B C 0.8525(6) 0.6135(8) 0.36467(8)
H45B H 0.9150 0.6238 0.3639
C41B C 0.7846(7) 0.5139(10) 0.36467(9)
H46B H 0.7974 0.4845 0.3708
H47B H 0.7234 0.5049 0.3657
C42B C 0.7883(6) 0.4717(8) 0.35408(8)
H48B H 0.7445 0.4064 0.3543
H49B H 0.8491 0.4794 0.3531
C43B C 0.7673(6) 0.5132(9) 0.34442(7)
H50B H 0.7043 0.5001 0.3449
H51B H 0.7738 0.4865 0.3375
C44B C 0.8305(6) 0.6145(8) 0.34422(7)
H52B H 0.8924 0.6274 0.3426
H53B H 0.8119 0.6413 0.3383
C45B C 0.8301(6) 0.6572(8) 0.35508(6)
H54B H 0.7704 0.6527 0.3563
C46B C 0.8753(6) 0.8101(8) 0.35361(6)
H55B H 0.8126 0.7890 0.3531
C47B C 0.9414(6) 0.9092(9) 0.35314(6)
C48B C 1.0357(6) 0.9418(8) 0.35324(6)
H56B H 1.0590 0.9019 0.3534
N5D N 1.0209(7) 1.2783(5) 0.42112(6)
N6D N 1.2045(7) 1.3264(5) 0.41653(5)
N7D N 1.3484(7) 1.1911(5) 0.37513(6)
N8D N 1.2462(7) 1.1492(6) 0.35468(5)
C25D C 0.8648(10) 1.1060(7) 0.41453(7)
H29D H 0.8867 1.1100 0.4218
C26D C 0.9091(8) 1.1781(6) 0.40765(8)
C27D C 0.8810(8) 1.1733(6) 0.39707(9)
H30D H 0.9145 1.2229 0.3923
C28D C 0.9910(8) 1.2631(6) 0.41144(8)
H31D H 1.0225 1.3088 0.4061
C29D C 1.0966(9) 1.3692(6) 0.42291(7)
H32D H 1.1067 1.4054 0.4161
C30D C 1.0737(8) 1.4136(5) 0.43231(6)
H33D H 1.0600 1.3764 0.4390
H34D H 1.0197 1.4174 0.4304
C31D C 1.1528(8) 1.5081(5) 0.43453(7)
H35D H 1.1620 1.5468 0.4281
H36D H 1.1384 1.5345 0.4409
C32D C 1.2374(8) 1.5063(6) 0.43681(7)
H37D H 1.2306 1.4742 0.4438
H38D H 1.2877 1.5688 0.4377
C33D C 1.2604(8) 1.4605(5) 0.42773(7)
H39D H 1.3136 1.4560 0.4299
H40D H 1.2756 1.4970 0.4210
C34D C 1.1813(8) 1.3665(5) 0.42550(6)
H41D H 1.1703 1.3289 0.4322
C35D C 1.2125(10) 1.2592(7) 0.41900(7)
H42D H 1.2010 1.2391 0.4264
C36D C 1.2384(9) 1.2098(7) 0.41135(8)
C37D C 1.2678(8) 1.2440(6) 0.40055(8)
H43D H 1.2706 1.2984 0.3983
C38D C 1.2931(8) 1.1960(6) 0.39308(8)
C39D C 1.3228(8) 1.2312(6) 0.38206(8)
H44D H 1.3235 1.2847 0.3799
C40D C 1.3865(8) 1.2390(6) 0.36467(8)
H45D H 1.3762 1.2912 0.3639
C41D C 1.4861(10) 1.2707(7) 0.36467(9)
H46D H 1.5155 1.3129 0.3708
H47D H 1.4951 1.2185 0.3657
C42D C 1.5283(8) 1.3166(6) 0.35408(8)
H48D H 1.5936 1.3381 0.3543
H49D H 1.5206 1.3697 0.3531
C43D C 1.4868(9) 1.2541(7) 0.34442(7)
H50D H 1.4999 1.2042 0.3449
H51D H 1.5135 1.2873 0.3375
C44D C 1.3855(8) 1.2160(6) 0.34422(7)
H52D H 1.3726 1.2650 0.3426
H53D H 1.3587 1.1706 0.3383
C45D C 1.3428(8) 1.1729(6) 0.35508(6)
H54D H 1.3473 1.1177 0.3563
C46D C 1.1899(8) 1.0652(6) 0.35361(6)
H55D H 1.2110 1.0236 0.3531
C47D C 1.0908(9) 1.0322(7) 0.35314(6)
C48D C 1.0582(8) 1.0939(5) 0.35324(6)
H56D H 1.0981 1.1571 0.3534
N9 N 1.0016(5) 0.7244(5) 0.44939(6)
N10 N 0.8229(5) 0.6831(5) 0.45244(5)
C49 C 0.7493(14) 0.7953(14) 0.50720(16)
H57 H 0.7014 0.7790 0.5123
C50 C 0.7358(15) 0.8067(13) 0.49632(15)
H58 H 0.6793 0.7978 0.4939
C51 C 0.8070(6) 0.8317(6) 0.48890(7)
C52 C 0.7934(6) 0.8408(7) 0.47694(6)
C53 C 0.7630(6) 0.8991(6) 0.47345(8)
H59 H 0.7492 0.9309 0.4788
C54 C 0.7531(6) 0.9106(6) 0.46268(8)
C55 C 0.7639(6) 0.8569(6) 0.45490(7)
H60 H 0.7518 0.8619 0.4474
C56 C 0.7918(6) 0.7964(6) 0.45781(7)
C57 C 0.8090(6) 0.7911(6) 0.46901(7)
H61 H 0.8317 0.7531 0.4712
C58 C 0.8053(5) 0.7439(8) 0.44995(7)
H62 H 0.8008 0.7549 0.4424
C59 C 0.8471(6) 0.6400(6) 0.44402(7)
H63 H 0.8628 0.6755 0.4371
C60 C 0.7635(7) 0.5436(7) 0.44226(8)
H64 H 0.7115 0.5484 0.4396
H65 H 0.7466 0.5099 0.4493
C61 C 0.7906(7) 0.4922(7) 0.43331(9)
H66 H 0.7391 0.4311 0.4320
H67 H 0.8070 0.5257 0.4263
C62 C 0.8715(7) 0.4858(6) 0.43777(9)
H68 H 0.8876 0.4520 0.4325
H69 H 0.8552 0.4531 0.4449
C63 C 0.9536(6) 0.5825(6) 0.43944(8)
H70 H 1.0066 0.5789 0.4420
H71 H 0.9691 0.6161 0.4324
C64 C 0.9279(6) 0.6313(5) 0.44812(6)
H72 H 0.9136 0.5987 0.4553
C65 C 1.0212(6) 0.7486(5) 0.45923(8)
H73 H 0.9911 0.7049 0.4648
N9B N 1.2756(5) 1.2772(7) 0.44939(6)
N10B N 1.3169(5) 1.1398(7) 0.45244(5)
C49B C 1.2047(14) 0.9540(20) 0.50720(16)
H57B H 1.2210 0.9224 0.5123
C50B C 1.1933(13) 0.9291(20) 0.49632(15)
H58B H 1.2022 0.8815 0.4939
C51B C 1.1683(6) 0.9753(8) 0.48890(7)
C52B C 1.1592(7) 0.9526(9) 0.47694(6)
C53B C 1.1009(6) 0.8639(8) 0.47345(8)
H59B H 1.0691 0.8183 0.4788
C54B C 1.0894(6) 0.8425(8) 0.46268(8)
C55B C 1.1431(6) 0.9070(8) 0.45490(7)
H60B H 1.1381 0.8899 0.4474
C56B C 1.2036(6) 0.9954(8) 0.45781(7)
C57B C 1.2089(6) 1.0179(8) 0.46901(7)
H61B H 1.2469 1.0786 0.4712
C58B C 1.2561(8) 1.0614(9) 0.44995(7)
H62B H 1.2451 1.0459 0.4424
C59B C 1.3600(6) 1.2071(8) 0.44402(7)
H63B H 1.3245 1.1873 0.4371
C60B C 1.4564(7) 1.2199(10) 0.44226(8)
H64B H 1.4516 1.1631 0.4396
H65B H 1.4901 1.2367 0.4493
C61B C 1.5078(7) 1.2984(10) 0.43331(9)
H66B H 1.5689 1.3080 0.4320
H67B H 1.4743 1.2813 0.4263
C62B C 1.5142(6) 1.3857(9) 0.43777(9)
H68B H 1.5480 1.4356 0.4325
H69B H 1.5469 1.4021 0.4449
C63B C 1.4175(6) 1.3711(8) 0.43944(8)
H70B H 1.4211 1.4277 0.4420
H71B H 1.3839 1.3530 0.4324
C64B C 1.3687(5) 1.2966(8) 0.44812(6)
H72B H 1.4013 1.3149 0.4553
C65B C 1.2514(5) 1.2726(8) 0.45923(8)
H73B H 1.2951 1.2862 0.4648
N9D N 0.7228(7) 0.9984(5) 0.44939(6)
N10D N 0.8602(7) 1.1771(5) 0.45244(5)
C49D C 1.0460(20) 1.2507(14) 0.50720(16)
H57D H 1.0776 1.2986 0.5123
C50D C 1.0709(20) 1.2642(15) 0.49632(15)
H58D H 1.1185 1.3207 0.4939
C51D C 1.0247(8) 1.1930(6) 0.48890(7)
C52D C 1.0474(9) 1.2066(6) 0.47694(6)
C53D C 1.1361(8) 1.2370(6) 0.47345(8)
H59D H 1.1817 1.2508 0.4788
C54D C 1.1575(8) 1.2469(6) 0.46268(8)
C55D C 1.0930(8) 1.2361(6) 0.45490(7)
H60D H 1.1101 1.2482 0.4474
C56D C 1.0046(8) 1.2082(6) 0.45781(7)
C57D C 0.9821(8) 1.1910(6) 0.46901(7)
H61D H 0.9214 1.1683 0.4712
C58D C 0.9386(9) 1.1947(5) 0.44995(7)
H62D H 0.9541 1.1992 0.4424
C59D C 0.7929(8) 1.1529(6) 0.44402(7)
H63D H 0.8127 1.1372 0.4371
C60D C 0.7801(10) 1.2365(7) 0.44226(8)
H64D H 0.8369 1.2885 0.4396
H65D H 0.7633 1.2534 0.4493
C61D C 0.7016(10) 1.2094(7) 0.43331(9)
H66D H 0.6920 1.2609 0.4320
H67D H 0.7187 1.1930 0.4263
C62D C 0.6143(9) 1.1285(7) 0.43777(9)
H68D H 0.5644 1.1124 0.4325
H69D H 0.5979 1.1448 0.4449
C63D C 0.6289(8) 1.0464(6) 0.43944(8)
H70D H 0.5723 0.9934 0.4420
H71D H 0.6470 1.0309 0.4324
C64D C 0.7034(8) 1.0721(6) 0.44812(6)
H72D H 0.6851 1.0864 0.4553
C65D C 0.7274(8) 0.9788(6) 0.45923(8)
H73D H 0.7138 1.0089 0.4648
N9I N 0.7244(5) 1.0016(5) 0.55061(6)
N10I N 0.6831(5) 0.8229(5) 0.54756(5)
C49I C 0.7953(14) 0.7493(14) 0.49280(16)
H57I H 0.7790 0.7014 0.4877
C50I C 0.8067(13) 0.7358(15) 0.50368(15)
H58I H 0.7978 0.6793 0.5061
C51I C 0.8317(6) 0.8070(6) 0.51110(7)
C52I C 0.8408(7) 0.7934(6) 0.52306(6)
C53I C 0.8991(6) 0.7630(6) 0.52655(8)
H59I H 0.9309 0.7492 0.5212
C54I C 0.9106(6) 0.7531(6) 0.53732(8)
C55I C 0.8569(6) 0.7639(6) 0.54510(7)
H60I H 0.8619 0.7518 0.5526
C56I C 0.7964(6) 0.7918(6) 0.54219(7)
C57I C 0.7911(6) 0.8090(6) 0.53099(7)
H61I H 0.7531 0.8317 0.5288
C58I C 0.7439(8) 0.8053(5) 0.55005(7)
H62I H 0.7549 0.8008 0.5576
C59I C 0.6400(6) 0.8471(6) 0.55598(7)
H63I H 0.6755 0.8628 0.5629
C60I C 0.5436(7) 0.7635(7) 0.55774(8)
H64I H 0.5484 0.7115 0.5604
H65I H 0.5099 0.7466 0.5507
C61I C 0.4922(7) 0.7906(7) 0.56669(9)
H66I H 0.4311 0.7391 0.5680
H67I H 0.5257 0.8070 0.5737
C62I C 0.4858(6) 0.8715(7) 0.56223(9)
H68I H 0.4520 0.8876 0.5675
H69I H 0.4531 0.8552 0.5551
C63I C 0.5825(6) 0.9536(6) 0.56056(8)
H70I H 0.5789 1.0066 0.5580
H71I H 0.6161 0.9691 0.5676
C64I C 0.6313(5) 0.9279(6) 0.55188(6)
H72I H 0.5987 0.9136 0.5447
C65I C 0.7486(5) 1.0212(6) 0.54077(8)
H73I H 0.7049 0.9911 0.5352
N9G N 1.2772(7) 1.2756(5) 0.55061(6)
N10G N 1.1398(7) 1.3169(5) 0.54756(5)
C49G C 0.9540(20) 1.2047(14) 0.49280(16)
H57G H 0.9224 1.2210 0.4877
C50G C 0.9291(20) 1.1933(13) 0.50368(15)
H58G H 0.8815 1.2022 0.5061
C51G C 0.9753(8) 1.1683(6) 0.51110(7)
C52G C 0.9526(9) 1.1592(7) 0.52306(6)
C53G C 0.8639(8) 1.1009(6) 0.52655(8)
H59G H 0.8183 1.0691 0.5212
C54G C 0.8425(8) 1.0894(6) 0.53732(8)
C55G C 0.9070(8) 1.1431(6) 0.54510(7)
H60G H 0.8899 1.1381 0.5526
C56G C 0.9954(8) 1.2036(6) 0.54219(7)
C57G C 1.0179(8) 1.2089(6) 0.53099(7)
H61G H 1.0786 1.2469 0.5288
C58G C 1.0614(9) 1.2561(8) 0.55005(7)
H62G H 1.0459 1.2451 0.5576
C59G C 1.2071(8) 1.3600(6) 0.55598(7)
H63G H 1.1873 1.3245 0.5629
C60G C 1.2199(10) 1.4564(7) 0.55774(8)
H64G H 1.1631 1.4516 0.5604
H65G H 1.2367 1.4901 0.5507
C61G C 1.2984(10) 1.5078(7) 0.56669(9)
H66G H 1.3080 1.5689 0.5680
H67G H 1.2813 1.4743 0.5737
C62G C 1.3857(9) 1.5142(6) 0.56223(9)
H68G H 1.4356 1.5480 0.5675
H69G H 1.4021 1.5469 0.5551
C63G C 1.3711(8) 1.4175(6) 0.56056(8)
H70G H 1.4277 1.4211 0.5580
H71G H 1.3530 1.3839 0.5676
C64G C 1.2966(8) 1.3687(5) 0.55188(6)
H72G H 1.3149 1.4013 0.5447
C65G C 1.2726(8) 1.2514(5) 0.54077(8)
H73G H 1.2862 1.2951 0.5352
N9K N 0.9984(5) 0.7228(7) 0.55061(6)
N10K N 1.1771(5) 0.8602(7) 0.54756(5)
C49K C 1.2507(14) 1.0460(20) 0.49280(16)
H57K H 1.2986 1.0776 0.4877
C50K C 1.2642(15) 1.0709(20) 0.50368(15)
H58K H 1.3207 1.1185 0.5061
C51K C 1.1930(6) 1.0247(8) 0.51110(7)
C52K C 1.2066(6) 1.0474(9) 0.52306(6)
C53K C 1.2370(6) 1.1361(8) 0.52655(8)
H59K H 1.2508 1.1817 0.5212
C54K C 1.2469(6) 1.1575(8) 0.53732(8)
C55K C 1.2361(6) 1.0930(8) 0.54510(7)
H60K H 1.2482 1.1101 0.5526
C56K C 1.2082(6) 1.0046(8) 0.54219(7)
C57K C 1.1910(6) 0.9821(8) 0.53099(7)
H61K H 1.1683 0.9214 0.5288
C58K C 1.1947(5) 0.9386(9) 0.55005(7)
H62K H 1.1992 0.9541 0.5576
C59K C 1.1529(6) 0.7929(8) 0.55598(7)
H63K H 1.1372 0.8127 0.5629
C60K C 1.2365(7) 0.7801(10) 0.55774(8)
H64K H 1.2885 0.8369 0.5604
H65K H 1.2534 0.7633 0.5507
C61K C 1.2094(7) 0.7016(10) 0.56669(9)
H66K H 1.2609 0.6920 0.5680
H67K H 1.1930 0.7187 0.5737
C62K C 1.1285(7) 0.6143(9) 0.56223(9)
H68K H 1.1124 0.5644 0.5675
H69K H 1.1448 0.5979 0.5551
C63K C 1.0464(6) 0.6289(8) 0.56056(8)
H70K H 0.9934 0.5723 0.5580
H71K H 1.0309 0.6470 0.5676
C64K C 1.0721(6) 0.7034(8) 0.55188(6)
H72K H 1.0864 0.6851 0.5447
C65K C 0.9788(6) 0.7274(8) 0.54077(8)
H73K H 1.0089 0.7138 0.5352
N11 N 0.6025(5) 0.6421(6) 0.29722(6)
N12 N 0.4452(5) 0.4652(5) 0.30118(7)
C66 C 0.5645(6) 0.9782(6) 0.29163(9)
H74 H 0.5749 1.0242 0.2865
C67 C 0.5830(4) 0.9054(4) 0.28838(6)
C68 C 0.6105(4) 0.9071(4) 0.27761(6)
H75 H 0.6155 0.9526 0.2727
C69 C 0.6305(3) 0.8423(5) 0.27398(4)
C70 C 0.6232(4) 0.7759(4) 0.28113(6)
H76 H 0.6369 0.7316 0.2787
C71 C 0.5958(4) 0.7742(4) 0.29191(5)
C72 C 0.5757(3) 0.8390(4) 0.29554(4)
H77 H 0.5569 0.8378 0.3029
C73 C 0.6305(3) 0.8941(13) 0.2538(2)
H78 H 0.6305 0.9462 0.2564
C74 C 0.6306(3) 0.8308(7) 0.26092(9)
C75 C 0.5985(7) 0.5825(7) 0.30614(7)
H79 H 0.5739 0.5958 0.3129
C76 C 0.6937(7) 0.6013(6) 0.30851(7)
H80 H 0.7324 0.6656 0.3104
H81 H 0.7186 0.5888 0.3018
C77 C 0.6949(7) 0.5425(6) 0.31813(7)
H82 H 0.6730 0.5564 0.3250
H83 H 0.7569 0.5542 0.3194
C78 C 0.6311(6) 0.4411(6) 0.31475(9)
H84 H 0.6560 0.4270 0.3082
H85 H 0.6282 0.4013 0.3208
C79 C 0.5355(7) 0.4233(7) 0.31217(8)
H86 H 0.4972 0.3600 0.3098
H87 H 0.5086 0.4326 0.3189
C80 C 0.5391(7) 0.4868(7) 0.30308(7)
H88 H 0.5627 0.4739 0.2962
C81 C 0.5898(6) 0.7072(7) 0.30006(8)
H89 H 0.5763 0.7123 0.3075
C82 C 0.6305(3) 0.7532(12) 0.2574(3)
H90 H 0.6305 0.7121 0.2627
N11B N 0.3579(6) 0.9604(8) 0.29722(6)
N12B N 0.5348(5) 0.9800(7) 0.30118(7)
C66B C 0.0218(6) 0.5863(8) 0.29163(9)
H74B H -0.0242 0.5507 0.2865
C67B C 0.0946(4) 0.6776(6) 0.28838(6)
C68B C 0.0929(4) 0.7034(6) 0.27761(6)
H75B H 0.0474 0.6629 0.2727
C69B C 0.1577(5) 0.7882(6) 0.27398(4)
C70B C 0.2241(4) 0.8473(6) 0.28113(6)
H76B H 0.2684 0.9053 0.2787
C71B C 0.2258(4) 0.8216(6) 0.29191(5)
C72B C 0.1610(4) 0.7367(5) 0.29554(4)
H77B H 0.1622 0.7191 0.3029
C73B C 0.1059(13) 0.7364(13) 0.2538(2)
H78B H 0.0538 0.6843 0.2564
C74B C 0.1692(7) 0.7998(8) 0.26092(9)
C75B C 0.4175(7) 1.0160(10) 0.30614(7)
H79B H 0.4042 0.9781 0.3129
C76B C 0.3987(6) 1.0924(9) 0.30851(7)
H80B H 0.3344 1.0668 0.3104
H81B H 0.4112 1.1298 0.3018
C77B C 0.4575(6) 1.1524(9) 0.31813(7)
H82B H 0.4436 1.1166 0.3250
H83B H 0.4458 1.2027 0.3194
C78B C 0.5589(6) 1.1900(8) 0.31475(9)
H84B H 0.5730 1.2290 0.3082
H85B H 0.5987 1.2269 0.3208
C79B C 0.5767(7) 1.1122(10) 0.31217(8)
H86B H 0.6400 1.1372 0.3098
H87B H 0.5674 1.0760 0.3189
C80B C 0.5132(7) 1.0523(10) 0.30308(7)
H88B H 0.5261 1.0888 0.2962
C81B C 0.2928(7) 0.8826(9) 0.30006(8)
H89B H 0.2877 0.8640 0.3075
C82B C 0.2468(12) 0.8773(12) 0.2574(3)
H90B H 0.2879 0.9184 0.2627
N11D N 0.0396(8) 0.3975(5) 0.29722(6)
N12D N 0.0200(7) 0.5548(5) 0.30118(7)
C66D C 0.4137(8) 0.4355(6) 0.29163(9)
H74D H 0.4493 0.4251 0.2865
C67D C 0.3224(6) 0.4170(4) 0.28838(6)
C68D C 0.2966(6) 0.3895(4) 0.27761(6)
H75D H 0.3371 0.3845 0.2727
C69D C 0.2118(6) 0.3695(3) 0.27398(4)
C70D C 0.1527(6) 0.3768(4) 0.28113(6)
H76D H 0.0947 0.3631 0.2787
C71D C 0.1784(6) 0.4042(4) 0.29191(5)
C72D C 0.2633(5) 0.4243(3) 0.29554(4)
H77D H 0.2809 0.4431 0.3029
C73D C 0.2636(13) 0.3695(3) 0.2538(2)
H78D H 0.3157 0.3695 0.2564
C74D C 0.2002(8) 0.3694(3) 0.26092(9)
C75D C -0.0160(10) 0.4015(7) 0.30614(7)
H79D H 0.0219 0.4261 0.3129
C76D C -0.0924(9) 0.3063(7) 0.30851(7)
H80D H -0.0668 0.2676 0.3104
H81D H -0.1298 0.2814 0.3018
C77D C -0.1524(9) 0.3051(7) 0.31813(7)
H82D H -0.1166 0.3270 0.3250
H83D H -0.2027 0.2431 0.3194
C78D C -0.1900(8) 0.3689(6) 0.31475(9)
H84D H -0.2290 0.3440 0.3082
H85D H -0.2269 0.3718 0.3208
C79D C -0.1122(10) 0.4645(7) 0.31217(8)
H86D H -0.1372 0.5028 0.3098
H87D H -0.0760 0.4914 0.3189
C80D C -0.0523(10) 0.4609(7) 0.30308(7)
H88D H -0.0888 0.4373 0.2962
C81D C 0.1174(9) 0.4102(6) 0.30006(8)
H89D H 0.1360 0.4237 0.3075
C82D C 0.1227(12) 0.3695(3) 0.2574(3)
H90D H 0.0816 0.3695 0.2627
N11H N 0.6025(5) 0.9604(8) 0.20278(6)
N12H N 0.4452(5) 0.9800(7) 0.19882(7)
C66H C 0.5645(6) 0.5863(8) 0.20837(9)
H74H H 0.5749 0.5507 0.2135
C67H C 0.5830(4) 0.6776(6) 0.21162(6)
C68H C 0.6105(4) 0.7034(6) 0.22239(6)
H75H H 0.6155 0.6629 0.2273
C69H C 0.6305(3) 0.7882(6) 0.22602(4)
C70H C 0.6232(4) 0.8473(6) 0.21887(6)
H76H H 0.6369 0.9053 0.2213
C71H C 0.5958(4) 0.8216(6) 0.20809(5)
C72H C 0.5757(3) 0.7367(5) 0.20446(4)
H77H H 0.5569 0.7191 0.1971
C73H C 0.6305(3) 0.7364(13) 0.2462(2)
H78H H 0.6305 0.6843 0.2436
C74H C 0.6306(3) 0.7998(8) 0.23908(9)
C75H C 0.5985(7) 1.0160(10) 0.19386(7)
H79H H 0.5739 0.9781 0.1871
C76H C 0.6937(7) 1.0924(9) 0.19149(7)
H80H H 0.7324 1.0668 0.1896
H81H H 0.7186 1.1298 0.1982
C77H C 0.6949(7) 1.1524(9) 0.18187(7)
H82H H 0.6730 1.1166 0.1750
H83H H 0.7569 1.2027 0.1806
C78H C 0.6311(6) 1.1900(8) 0.18525(9)
H84H H 0.6560 1.2290 0.1918
H85H H 0.6282 1.2269 0.1792
C79H C 0.5355(7) 1.1122(10) 0.18783(8)
H86H H 0.4972 1.1372 0.1902
H87H H 0.5086 1.0760 0.1811
C80H C 0.5391(7) 1.0523(10) 0.19692(7)
H88H H 0.5627 1.0888 0.2038
C81H C 0.5898(6) 0.8826(9) 0.19994(8)
H89H H 0.5763 0.8640 0.1925
C82H C 0.6305(3) 0.8773(12) 0.2426(3)
H90H H 0.6305 0.9184 0.2373
N11F N 0.3579(6) 0.3975(5) 0.20278(6)
N12F N 0.5348(5) 0.5548(5) 0.19882(7)
C66F C 0.0218(6) 0.4355(6) 0.20837(9)
H74F H -0.0242 0.4251 0.2135
C67F C 0.0946(4) 0.4170(4) 0.21162(6)
C68F C 0.0929(4) 0.3895(4) 0.22239(6)
H75F H 0.0474 0.3845 0.2273
C69F C 0.1577(5) 0.3695(3) 0.22602(4)
C70F C 0.2241(4) 0.3768(4) 0.21887(6)
H76F H 0.2684 0.3631 0.2213
C71F C 0.2258(4) 0.4042(4) 0.20809(5)
C72F C 0.1610(4) 0.4243(3) 0.20446(4)
H77F H 0.1622 0.4431 0.1971
C73F C 0.1059(13) 0.3695(3) 0.2462(2)
H78F H 0.0538 0.3695 0.2436
C74F C 0.1692(7) 0.3694(3) 0.23908(9)
C75F C 0.4175(7) 0.4015(7) 0.19386(7)
H79F H 0.4042 0.4261 0.1871
C76F C 0.3987(6) 0.3063(7) 0.19149(7)
H80F H 0.3344 0.2676 0.1896
H81F H 0.4112 0.2814 0.1982
C77F C 0.4575(6) 0.3051(7) 0.18187(7)
H82F H 0.4436 0.3270 0.1750
H83F H 0.4458 0.2431 0.1806
C78F C 0.5589(6) 0.3689(6) 0.18525(9)
H84F H 0.5730 0.3440 0.1918
H85F H 0.5987 0.3718 0.1792
C79F C 0.5767(7) 0.4645(7) 0.18783(8)
H86F H 0.6400 0.5028 0.1902
H87F H 0.5674 0.4914 0.1811
C80F C 0.5132(7) 0.4609(7) 0.19692(7)
H88F H 0.5261 0.4373 0.2038
C81F C 0.2928(7) 0.4102(6) 0.19994(8)
H89F H 0.2877 0.4237 0.1925
C82F C 0.2468(12) 0.3695(3) 0.2426(3)
H90F H 0.2879 0.3695 0.2373
N11J N 0.0396(8) 0.6421(6) 0.20278(6)
N12J N 0.0200(7) 0.4652(5) 0.19882(7)
C66J C 0.4137(8) 0.9782(6) 0.20837(9)
H74J H 0.4493 1.0242 0.2135
C67J C 0.3224(6) 0.9054(4) 0.21162(6)
C68J C 0.2966(6) 0.9071(4) 0.22239(6)
H75J H 0.3371 0.9526 0.2273
C69J C 0.2118(6) 0.8423(5) 0.22602(4)
C70J C 0.1527(6) 0.7759(4) 0.21887(6)
H76J H 0.0947 0.7316 0.2213
C71J C 0.1784(6) 0.7742(4) 0.20809(5)
C72J C 0.2633(5) 0.8390(4) 0.20446(4)
H77J H 0.2809 0.8378 0.1971
C73J C 0.2636(13) 0.8941(13) 0.2462(2)
H78J H 0.3157 0.9462 0.2436
C74J C 0.2002(8) 0.8308(7) 0.23908(9)
C75J C -0.0160(10) 0.5825(7) 0.19386(7)
H79J H 0.0219 0.5958 0.1871
C76J C -0.0924(9) 0.6013(6) 0.19149(7)
H80J H -0.0668 0.6656 0.1896
H81J H -0.1298 0.5888 0.1982
C77J C -0.1524(9) 0.5425(6) 0.18187(7)
H82J H -0.1166 0.5564 0.1750
H83J H -0.2027 0.5542 0.1806
C78J C -0.1900(8) 0.4411(6) 0.18525(9)
H84J H -0.2290 0.4270 0.1918
H85J H -0.2269 0.4013 0.1792
C79J C -0.1122(10) 0.4233(7) 0.18783(8)
H86J H -0.1372 0.3600 0.1902
H87J H -0.0760 0.4326 0.1811
C80J C -0.0523(10) 0.4868(7) 0.19692(7)
H88J H -0.0888 0.4739 0.2038
C81J C 0.1174(9) 0.7072(7) 0.19994(8)
H89J H 0.1360 0.7123 0.1925
C82J C 0.1227(12) 0.7532(12) 0.2426(3)
H90J H 0.0816 0.7121 0.2373
O1 O 0.7052(5) 0.8184(5) 0.36476(6)
O2 O 0.6342(5) 0.8471(5) 0.38417(6)
C83 C 0.6409(8) 0.8540(8) 0.36422(9)
H91 H 0.6010 0.8297 0.3577
H92 H 0.6739 0.9205 0.3638
C84 C 0.5878(8) 0.8216(8) 0.37470(8)
H93 H 0.5436 0.8426 0.3748
H94 H 0.5533 0.7550 0.3745
C85 C 0.7581(8) 0.8497(8) 0.37482(8)
H95 H 0.8024 0.8288 0.3751
H96 H 0.7914 0.9163 0.3750
C86 C 0.6994(9) 0.8152(9) 0.38395(10)
H97 H 0.7352 0.8338 0.3908
H98 H 0.6665 0.7486 0.3836
N1 N 0.5526(6) 0.5274(5) 0.37589(7)
N2 N 0.4613(5) 0.5452(6) 0.39458(5)
N3 N 0.6443(5) 0.7654(5) 0.33029(7)
N4 N 0.6311(6) 0.9273(5) 0.33369(6)
C1 C 0.4207(7) 0.7370(7) 0.39574(6)
H1 H 0.4812 0.7851 0.3959
C2 C 0.4033(7) 0.6477(8) 0.39564(6)
C3 C 0.4751(6) 0.6241(8) 0.39552(6)
H2 H 0.5356 0.6716 0.3962
C4 C 0.5414(6) 0.5362(6) 0.39534(7)
H3 H 0.5972 0.5967 0.3952
C5 C 0.5324(7) 0.4876(7) 0.40670(8)
H4 H 0.5302 0.5250 0.4128
H5 H 0.4756 0.4290 0.4068
C6 C 0.6099(8) 0.4728(9) 0.40835(11)
H6 H 0.6048 0.4444 0.4156
H7 H 0.6668 0.5312 0.4082
C7 C 0.6103(8) 0.4130(9) 0.39940(13)
H8 H 0.5553 0.3531 0.3999
H9 H 0.6632 0.4049 0.4002
C8 C 0.6142(7) 0.4585(8) 0.38776(11)
H10 H 0.6725 0.5152 0.3871
H11 H 0.6118 0.4177 0.3819
C9 C 0.5421(7) 0.4780(7) 0.38607(9)
H12 H 0.4832 0.4203 0.3859
C10 C 0.4942(6) 0.4918(6) 0.36862(9)
H13 H 0.4425 0.4362 0.3705
C11 C 0.4957(8) 0.5263(8) 0.35727(9)
C12 C 0.4290(6) 0.4726(6) 0.35019(10)
H14 H 0.3814 0.4158 0.3526
C13 C 0.4309(7) 0.5021(7) 0.33913(9)
C14 C 0.4984(7) 0.5842(8) 0.33621(8)
H15 H 0.4989 0.6041 0.3289
C15 C 0.5672(6) 0.6416(7) 0.34323(10)
C16 C 0.5645(6) 0.6126(7) 0.35384(10)
H16 H 0.6093 0.6510 0.3589
C17 C 0.3615(7) 0.4448(8) 0.33094(8)
H17 H 0.3662 0.4652 0.3236
C18 C 0.6384(6) 0.7343(7) 0.34021(10)
H18 H 0.6804 0.7716 0.3456
C19 C 0.7226(5) 0.8569(5) 0.32871(7)
H19 H 0.7564 0.8803 0.3358
C20 C 0.7810(5) 0.8545(5) 0.32024(8)
H20 H 0.8046 0.8153 0.3227
H21 H 0.7450 0.8274 0.3135
C21 C 0.8562(6) 0.9427(6) 0.31758(7)
H22 H 0.8949 0.9366 0.3120
H23 H 0.8928 0.9702 0.3242
C22 C 0.8212(6) 1.0046(7) 0.31301(8)
H24 H 0.8723 1.0653 0.3114
H25 H 0.7864 0.9790 0.3062
C23 C 0.7609(6) 1.0102(6) 0.32194(7)
H26 H 0.7972 1.0388 0.3286
H27 H 0.7362 1.0481 0.3193
C24 C 0.6834(6) 0.9164(6) 0.32484(7)
H28 H 0.6442 0.8887 0.3183
N1B N 0.4726(5) 1.0252(8) 0.37589(7)
N2B N 0.4548(6) 0.9161(8) 0.39458(5)
N3B N 0.2346(5) 0.8789(7) 0.33029(7)
N4B N 0.0727(5) 0.7038(8) 0.33369(6)
C1B C 0.2630(7) 0.6837(10) 0.39574(6)
H1B H 0.2149 0.6961 0.3959
C2B C 0.3523(8) 0.7556(11) 0.39564(6)
C3B C 0.3759(8) 0.8510(10) 0.39552(6)
H2B H 0.3284 0.8640 0.3962
C4B C 0.4638(6) 1.0052(8) 0.39534(7)
H3B H 0.4033 1.0005 0.3952
C5B C 0.5124(7) 1.0448(10) 0.40670(8)
H4B H 0.4750 1.0052 0.4128
H5B H 0.5710 1.0466 0.4068
C6B C 0.5272(9) 1.1371(12) 0.40835(11)
H6B H 0.5556 1.1604 0.4156
H7B H 0.4688 1.1356 0.4082
C7B C 0.5870(9) 1.1973(12) 0.39940(13)
H8B H 0.6469 1.2022 0.3999
H9B H 0.5951 1.2583 0.4002
C8B C 0.5415(8) 1.1557(11) 0.38776(11)
H10B H 0.4848 1.1573 0.3871
H11B H 0.5823 1.1941 0.3819
C9B C 0.5220(7) 1.0641(10) 0.38607(9)
H12B H 0.5797 1.0629 0.3859
C10B C 0.5082(6) 1.0024(8) 0.36862(9)
H13B H 0.5638 1.0063 0.3705
C11B C 0.4737(8) 0.9694(11) 0.35727(9)
C12B C 0.5274(6) 0.9564(8) 0.35019(10)
H14B H 0.5842 0.9656 0.3526
C13B C 0.4979(7) 0.9288(10) 0.33913(9)
C14B C 0.4158(8) 0.9142(11) 0.33621(8)
H15B H 0.3959 0.8948 0.3289
C15B C 0.3584(7) 0.9256(9) 0.34323(10)
C16B C 0.3874(7) 0.9519(9) 0.35384(10)
H16B H 0.3490 0.9583 0.3589
C17B C 0.5552(8) 0.9167(11) 0.33094(8)
H17B H 0.5348 0.9010 0.3236
C18B C 0.2657(7) 0.9041(9) 0.34021(10)
H18B H 0.2284 0.9088 0.3456
C19B C 0.1431(5) 0.8657(7) 0.32871(7)
H19B H 0.1197 0.8761 0.3358
C20B C 0.1455(5) 0.9265(7) 0.32024(8)
H20B H 0.1847 0.9893 0.3227
H21B H 0.1726 0.9176 0.3135
C21B C 0.0573(6) 0.9135(8) 0.31758(7)
H22B H 0.0634 0.9583 0.3120
H23B H 0.0298 0.9226 0.3242
C22B C -0.0046(7) 0.8166(9) 0.31301(8)
H24B H -0.0653 0.8070 0.3114
H25B H 0.0210 0.8074 0.3062
C23B C -0.0102(6) 0.7507(8) 0.32194(7)
H26B H -0.0388 0.7584 0.3286
H27B H -0.0481 0.6881 0.3193
C24B C 0.0836(6) 0.7670(8) 0.32484(7)
H28B H 0.1113 0.7555 0.3183
N1D N -0.0252(8) 0.4474(6) 0.37589(7)
N2D N 0.0839(8) 0.5387(5) 0.39458(5)
N3D N 0.1211(7) 0.3557(5) 0.33029(7)
N4D N 0.2962(8) 0.3689(6) 0.33369(6)
C1D C 0.3163(10) 0.5793(7) 0.39574(6)
H1D H 0.3039 0.5188 0.3959
C2D C 0.2444(11) 0.5967(7) 0.39564(6)
C3D C 0.1490(10) 0.5249(6) 0.39552(6)
H2D H 0.1360 0.4644 0.3962
C4D C -0.0052(8) 0.4586(6) 0.39534(7)
H3D H -0.0005 0.4028 0.3952
C5D C -0.0448(10) 0.4676(7) 0.40670(8)
H4D H -0.0052 0.4698 0.4128
H5D H -0.0466 0.5244 0.4068
C6D C -0.1371(12) 0.3901(8) 0.40835(11)
H6D H -0.1604 0.3952 0.4156
H7D H -0.1356 0.3332 0.4082
C7D C -0.1973(12) 0.3897(8) 0.39940(13)
H8D H -0.2022 0.4447 0.3999
H9D H -0.2583 0.3368 0.4002
C8D C -0.1557(11) 0.3858(7) 0.38776(11)
H10D H -0.1573 0.3275 0.3871
H11D H -0.1941 0.3882 0.3819
C9D C -0.0641(10) 0.4579(7) 0.38607(9)
H12D H -0.0629 0.5168 0.3859
C10D C -0.0024(8) 0.5058(6) 0.36862(9)
H13D H -0.0063 0.5575 0.3705
C11D C 0.0306(11) 0.5043(8) 0.35727(9)
C12D C 0.0436(8) 0.5710(6) 0.35019(10)
H14D H 0.0344 0.6186 0.3526
C13D C 0.0712(10) 0.5691(7) 0.33913(9)
C14D C 0.0858(11) 0.5016(7) 0.33621(8)
H15D H 0.1052 0.5011 0.3289
C15D C 0.0744(9) 0.4328(6) 0.34323(10)
C16D C 0.0481(9) 0.4355(6) 0.35384(10)
H16D H 0.0417 0.3907 0.3589
C17D C 0.0833(11) 0.6385(7) 0.33094(8)
H17D H 0.0990 0.6338 0.3236
C18D C 0.0959(9) 0.3616(6) 0.34021(10)
H18D H 0.0912 0.3196 0.3456
C19D C 0.1343(7) 0.2774(5) 0.32871(7)
H19D H 0.1239 0.2436 0.3358
C20D C 0.0735(7) 0.2190(5) 0.32024(8)
H20D H 0.0107 0.1954 0.3227
H21D H 0.0824 0.2550 0.3135
C21D C 0.0865(8) 0.1438(6) 0.31758(7)
H22D H 0.0417 0.1051 0.3120
H23D H 0.0774 0.1072 0.3242
C22D C 0.1834(9) 0.1788(6) 0.31301(8)
H24D H 0.1930 0.1277 0.3114
H25D H 0.1926 0.2136 0.3062
C23D C 0.2493(8) 0.2391(6) 0.32194(7)
H26D H 0.2416 0.2028 0.3286
H27D H 0.3119 0.2638 0.3193
C24D C 0.2330(8) 0.3166(6) 0.32484(7)
H28D H 0.2445 0.3558 0.3183
C87? C 0.6804(16) 0.7761(18) 0.2458(3)
H99? H 0.7135 0.7498 0.2429
C88? C 0.5791(17) 0.8560(19) 0.2544(3)
H100? H 0.5461 0.8822 0.2573
C89? C 0.5815(18) 0.8386(16) 0.2433(4)
H101? H 0.5485 0.8537 0.2383
C90? C 0.6793(16) 0.7928(16) 0.2570(3)
H102? H 0.7125 0.7778 0.2620
C91? C 0.8905(12) 0.8468(11) 0.49288(13)
H103? H 0.9380 0.8632 0.4878
C92? C 0.9070(13) 0.8391(12) 0.50383(13)
H104? H 0.9652 0.8544 0.5064
O3? O 0.9545(16) 0.9169(13) 0.43877(15)
O4? O 0.9198(14) 0.9601(18) 0.43000(17)
C93? C 0.9545(16) 0.9169(13) 0.43877(15)
C94? C 0.9198(14) 0.9601(18) 0.43000(17)
loop_
_geom_bond_atom_site_label_1
_geom_bond_atom_site_label_2
_geom_bond_site_symmetry_1
_geom_bond_site_symmetry_2
N1 C9 1_555 1_555
N2 C3 1_555 1_555
N3 C18 1_555 1_555
N4 C24 1_555 1_555
C1 H1 1_555 1_555
C2 C1 1_555 1_555
C3 C2 1_555 1_555
H2 C3 1_555 1_555
C4 N2 1_555 1_555
H3 C4 1_555 1_555
C5 C4 1_555 1_555
H4 C5 1_555 1_555
H5 C5 1_555 1_555
C6 C5 1_555 1_555
H6 C6 1_555 1_555
H7 C6 1_555 1_555
C7 C6 1_555 1_555
H8 C7 1_555 1_555
H9 C7 1_555 1_555
C8 C7 1_555 1_555
H10 C8 1_555 1_555
H11 C8 1_555 1_555
C9 C4 1_555 1_555
H12 C9 1_555 1_555
C10 N1 1_555 1_555
H13 C10 1_555 1_555
C11 C10 1_555 1_555
C12 C11 1_555 1_555
H14 C12 1_555 1_555
C13 C12 1_555 1_555
C14 C13 1_555 1_555
H15 C14 1_555 1_555
C15 C14 1_555 1_555
C16 C11 1_555 1_555
H16 C16 1_555 1_555
C17 C13 1_555 1_555
H17 C17 1_555 1_555
C18 C15 1_555 1_555
H18 C18 1_555 1_555
C19 N3 1_555 1_555
H19 C19 1_555 1_555
C20 C19 1_555 1_555
H20 C20 1_555 1_555
H21 C20 1_555 1_555
C21 C20 1_555 1_555
H22 C21 1_555 1_555
H23 C21 1_555 1_555
C22 C21 1_555 1_555
H24 C22 1_555 1_555
H25 C22 1_555 1_555
C23 C22 1_555 1_555
H26 C23 1_555 1_555
H27 C23 1_555 1_555
C24 C19 1_555 1_555
H28 C24 1_555 1_555
N5 C28 1_555 1_555
N6 C34 1_555 1_555
N7 C39 1_555 1_555
N8 C45 1_555 1_555
C25 H29 1_555 1_555
C26 C25 1_555 1_555
C27 C26 1_555 1_555
H30 C27 1_555 1_555
C28 C26 1_555 1_555
H31 C28 1_555 1_555
C29 N5 1_555 1_555
H32 C29 1_555 1_555
C30 C29 1_555 1_555
H33 C30 1_555 1_555
H34 C30 1_555 1_555
C31 C30 1_555 1_555
H35 C31 1_555 1_555
H36 C31 1_555 1_555
C32 C31 1_555 1_555
H37 C32 1_555 1_555
H38 C32 1_555 1_555
C33 C32 1_555 1_555
H39 C33 1_555 1_555
H40 C33 1_555 1_555
C34 C29 1_555 1_555
H41 C34 1_555 1_555
C35 N6 1_555 1_555
H42 C35 1_555 1_555
C36 C35 1_555 1_555
C37 C36 1_555 1_555
H43 C37 1_555 1_555
C38 C37 1_555 1_555
C39 C38 1_555 1_555
H44 C39 1_555 1_555
C40 N7 1_555 1_555
H45 C40 1_555 1_555
C41 C40 1_555 1_555
H46 C41 1_555 1_555
H47 C41 1_555 1_555
C42 C41 1_555 1_555
H48 C42 1_555 1_555
H49 C42 1_555 1_555
C43 C42 1_555 1_555
H50 C43 1_555 1_555
H51 C43 1_555 1_555
C44 C43 1_555 1_555
H52 C44 1_555 1_555
H53 C44 1_555 1_555
C45 C40 1_555 1_555
H54 C45 1_555 1_555
C46 N8 1_555 1_555
H55 C46 1_555 1_555
C47 C46 1_555 1_555
C48 C47 1_555 1_555
H56 C48 1_555 1_555
N9 C64 1_555 1_555
N10 C58 1_555 1_555
C49 H57 1_555 1_555
C50 C49 1_555 1_555
H58 C50 1_555 1_555
C51 C50 1_555 1_555
C52 C51 1_555 1_555
C53 C52 1_555 1_555
H59 C53 1_555 1_555
C54 C53 1_555 1_555
C55 C54 1_555 1_555
H60 C55 1_555 1_555
C56 C55 1_555 1_555
C57 C52 1_555 1_555
H61 C57 1_555 1_555
C58 C56 1_555 1_555
H62 C58 1_555 1_555
C59 N10 1_555 1_555
H63 C59 1_555 1_555
C60 C59 1_555 1_555
H64 C60 1_555 1_555
H65 C60 1_555 1_555
C61 C60 1_555 1_555
H66 C61 1_555 1_555
H67 C61 1_555 1_555
C62 C61 1_555 1_555
H68 C62 1_555 1_555
H69 C62 1_555 1_555
C63 C62 1_555 1_555
H70 C63 1_555 1_555
H71 C63 1_555 1_555
C64 C59 1_555 1_555
H72 C64 1_555 1_555
C65 N9 1_555 1_555
H73 C65 1_555 1_555
N11 C75 1_555 1_555
N12 C80 1_555 1_555
C66 H74 1_555 1_555
C67 C66 1_555 1_555
C68 C67 1_555 1_555
H75 C68 1_555 1_555
C69 C68 1_555 1_555
C70 C69 1_555 1_555
H76 C70 1_555 1_555
C71 C70 1_555 1_555
C72 C67 1_555 1_555
H77 C72 1_555 1_555
C73 H78 1_555 1_555
C74 C69 1_555 1_555
C75 H79 1_555 1_555
C76 C75 1_555 1_555
H80 C76 1_555 1_555
H81 C76 1_555 1_555
C77 C76 1_555 1_555
H82 C77 1_555 1_555
H83 C77 1_555 1_555
C78 C77 1_555 1_555
H84 C78 1_555 1_555
H85 C78 1_555 1_555
C79 C78 1_555 1_555
H86 C79 1_555 1_555
H87 C79 1_555 1_555
C80 C75 1_555 1_555
H88 C80 1_555 1_555
C81 N11 1_555 1_555
H89 C81 1_555 1_555
C82 C74 1_555 1_555
H90 C82 1_555 1_555
O1 C83 1_555 1_555
O2 C84 1_555 1_555
C83 H91 1_555 1_555
H92 C83 1_555 1_555
C84 C83 1_555 1_555
H93 C84 1_555 1_555
H94 C84 1_555 1_555
C85 O1 1_555 1_555
H95 C85 1_555 1_555
H96 C85 1_555 1_555
C86 O2 1_555 1_555
H97 C86 1_555 1_555
H98 C86 1_555 1_555
N1B C9B 1_555 1_555
N2B C3B 1_555 1_555
N3B C18B 1_555 1_555
N4B C24B 1_555 1_555
C1B H1B 1_555 1_555
C2B C1 1_555 1_555
C3B C2B 1_555 1_555
H2B C3B 1_555 1_555
C4B N2B 1_555 1_555
H3B C4B 1_555 1_555
C5B C4B 1_555 1_555
H4B C5B 1_555 1_555
H5B C5B 1_555 1_555
C6B C5B 1_555 1_555
H6B C6B 1_555 1_555
H7B C6B 1_555 1_555
C7B C6B 1_555 1_555
H8B C7B 1_555 1_555
H9B C7B 1_555 1_555
C8B C7B 1_555 1_555
H10B C8B 1_555 1_555
H11B C8B 1_555 1_555
C9B C4B 1_555 1_555
H12B C9B 1_555 1_555
C10B N1B 1_555 1_555
H13B C10B 1_555 1_555
C11B C10B 1_555 1_555
C12B C11B 1_555 1_555
H14B C12B 1_555 1_555
C13B C12B 1_555 1_555
C14B C13B 1_555 1_555
H15B C14B 1_555 1_555
C15B C14B 1_555 1_555
C16B C11B 1_555 1_555
H16B C16B 1_555 1_555
C17B N4 1_555 1_555
H17B C17B 1_555 1_555
C18B C15B 1_555 1_555
H18B C18B 1_555 1_555
C19B N3B 1_555 1_555
H19B C19B 1_555 1_555
C20B C19B 1_555 1_555
H20B C20B 1_555 1_555
H21B C20B 1_555 1_555
C21B C20B 1_555 1_555
H22B C21B 1_555 1_555
H23B C21B 1_555 1_555
C22B C21B 1_555 1_555
H24B C22B 1_555 1_555
H25B C22B 1_555 1_555
C23B C22B 1_555 1_555
H26B C23B 1_555 1_555
H27B C23B 1_555 1_555
C24B C19B 1_555 1_555
H28B C24B 1_555 1_555
N1D C9D 1_555 1_555
N2D C3D 1_555 1_555
N3D C18D 1_555 1_555
N4D C17 1_555 1_555
C1D C2 1_555 1_555
H1D C1D 1_555 1_555
C2D C1B 1_555 1_555
C3D C2D 1_555 1_555
H2D C3D 1_555 1_555
C4D N2D 1_555 1_555
H3D C4D 1_555 1_555
C5D C4D 1_555 1_555
H4D C5D 1_555 1_555
H5D C5D 1_555 1_555
C6D C5D 1_555 1_555
H6D C6D 1_555 1_555
H7D C6D 1_555 1_555
C7D C6D 1_555 1_555
H8D C7D 1_555 1_555
H9D C7D 1_555 1_555
C8D C7D 1_555 1_555
H10D C8D 1_555 1_555
H11D C8D 1_555 1_555
C9D C4D 1_555 1_555
H12D C9D 1_555 1_555
C10D N1D 1_555 1_555
H13D C10D 1_555 1_555
C11D C10D 1_555 1_555
C12D C11D 1_555 1_555
H14D C12D 1_555 1_555
C13D C12D 1_555 1_555
C14D C13D 1_555 1_555
H15D C14D 1_555 1_555
C15D C14D 1_555 1_555
C16D C11D 1_555 1_555
H16D C16D 1_555 1_555
C17D N4B 1_555 1_555
H17D C17D 1_555 1_555
C18D C15D 1_555 1_555
H18D C18D 1_555 1_555
C19D N3D 1_555 1_555
H19D C19D 1_555 1_555
C20D C19D 1_555 1_555
H20D C20D 1_555 1_555
H21D C20D 1_555 1_555
C21D C20D 1_555 1_555
H22D C21D 1_555 1_555
H23D C21D 1_555 1_555
C22D C21D 1_555 1_555
H24D C22D 1_555 1_555
H25D C22D 1_555 1_555
C23D C22D 1_555 1_555
H26D C23D 1_555 1_555
H27D C23D 1_555 1_555
C24D N4D 1_555 1_555
H28D C24D 1_555 1_555
N5B C28B 1_555 1_555
N6B C34B 1_555 1_555
N7B C39B 1_555 1_555
N8B C45B 1_555 1_555
C25B H29B 1_555 1_555
C26B C25B 1_555 1_555
C27B C26B 1_555 1_555
H30B C27B 1_555 1_555
C28B C26B 1_555 1_555
H31B C28B 1_555 1_555
C29B N5B 1_555 1_555
H32B C29B 1_555 1_555
C30B C29B 1_555 1_555
H33B C30B 1_555 1_555
H34B C30B 1_555 1_555
C31B C30B 1_555 1_555
H35B C31B 1_555 1_555
H36B C31B 1_555 1_555
C32B C31B 1_555 1_555
H37B C32B 1_555 1_555
H38B C32B 1_555 1_555
C33B C32B 1_555 1_555
H39B C33B 1_555 1_555
H40B C33B 1_555 1_555
C34B C29B 1_555 1_555
H41B C34B 1_555 1_555
C35B N6B 1_555 1_555
H42B C35B 1_555 1_555
C36B C25 1_555 1_555
C37B C36B 1_555 1_555
H43B C37B 1_555 1_555
C38B C27 1_555 1_555
C39B C38B 1_555 1_555
H44B C39B 1_555 1_555
C40B N7B 1_555 1_555
H45B C40B 1_555 1_555
C41B C40B 1_555 1_555
H46B C41B 1_555 1_555
H47B C41B 1_555 1_555
C42B C41B 1_555 1_555
H48B C42B 1_555 1_555
H49B C42B 1_555 1_555
C43B C42B 1_555 1_555
H50B C43B 1_555 1_555
H51B C43B 1_555 1_555
C44B C43B 1_555 1_555
H52B C44B 1_555 1_555
H53B C44B 1_555 1_555
C45B C40B 1_555 1_555
H54B C45B 1_555 1_555
C46B N8B 1_555 1_555
H55B C46B 1_555 1_555
C47B C48 1_555 1_555
C48B C47B 1_555 1_555
H56B C48B 1_555 1_555
N5D C28D 1_555 1_555
N6D C34D 1_555 1_555
N7D C39D 1_555 1_555
N8D C45D 1_555 1_555
C25D C36 1_555 1_555
H29D C25D 1_555 1_555
C26D C25D 1_555 1_555
C27D C38 1_555 1_555
H30D C27D 1_555 1_555
C28D C26D 1_555 1_555
H31D C28D 1_555 1_555
C29D N5D 1_555 1_555
H32D C29D 1_555 1_555
C30D C29D 1_555 1_555
H33D C30D 1_555 1_555
H34D C30D 1_555 1_555
C31D C30D 1_555 1_555
H35D C31D 1_555 1_555
H36D C31D 1_555 1_555
C32D C31D 1_555 1_555
H37D C32D 1_555 1_555
H38D C32D 1_555 1_555
C33D C32D 1_555 1_555
H39D C33D 1_555 1_555
H40D C33D 1_555 1_555
C34D C29D 1_555 1_555
H41D C34D 1_555 1_555
C35D N6D 1_555 1_555
H42D C35D 1_555 1_555
C36D C25B 1_555 1_555
C37D C36D 1_555 1_555
H43D C37D 1_555 1_555
C38D C27B 1_555 1_555
C39D C38D 1_555 1_555
H44D C39D 1_555 1_555
C40D N7D 1_555 1_555
H45D C40D 1_555 1_555
C41D C40D 1_555 1_555
H46D C41D 1_555 1_555
H47D C41D 1_555 1_555
C42D C41D 1_555 1_555
H48D C42D 1_555 1_555
H49D C42D 1_555 1_555
C43D C42D 1_555 1_555
H50D C43D 1_555 1_555
H51D C43D 1_555 1_555
C44D C43D 1_555 1_555
H52D C44D 1_555 1_555
H53D C44D 1_555 1_555
C45D C40D 1_555 1_555
H54D C45D 1_555 1_555
C46D N8D 1_555 1_555
H55D C46D 1_555 1_555
C47D C48B 1_555 1_555
C48D C47 1_555 1_555
H56D C48D 1_555 1_555
N9B C64B 1_555 1_555
N10B C58B 1_555 1_555
C49B H57B 1_555 1_555
C50B C49B 1_555 1_555
H58B C50B 1_555 1_555
C51B C50B 1_555 1_555
C52B C51B 1_555 1_555
C53B C52B 1_555 1_555
H59B C53B 1_555 1_555
C54B C65 1_555 1_555
C55B C54B 1_555 1_555
H60B C55B 1_555 1_555
C56B C55B 1_555 1_555
C57B C52B 1_555 1_555
H61B C57B 1_555 1_555
C58B C56B 1_555 1_555
H62B C58B 1_555 1_555
C59B N10B 1_555 1_555
H63B C59B 1_555 1_555
C60B C59B 1_555 1_555
H64B C60B 1_555 1_555
H65B C60B 1_555 1_555
C61B C60B 1_555 1_555
H66B C61B 1_555 1_555
H67B C61B 1_555 1_555
C62B C61B 1_555 1_555
H68B C62B 1_555 1_555
H69B C62B 1_555 1_555
C63B C62B 1_555 1_555
H70B C63B 1_555 1_555
H71B C63B 1_555 1_555
C64B C59B 1_555 1_555
H72B C64B 1_555 1_555
C65B N9B 1_555 1_555
H73B C65B 1_555 1_555
N9D C64D 1_555 1_555
N10D C58D 1_555 1_555
C49D H57D 1_555 1_555
C50D C49D 1_555 1_555
H58D C50D 1_555 1_555
C51D C50D 1_555 1_555
C52D C51D 1_555 1_555
C53D C52D 1_555 1_555
H59D C53D 1_555 1_555
C54D C65B 1_555 1_555
C55D C54D 1_555 1_555
H60D C55D 1_555 1_555
C56D C55D 1_555 1_555
C57D C52D 1_555 1_555
H61D C57D 1_555 1_555
C58D C56D 1_555 1_555
H62D C58D 1_555 1_555
C59D N10D 1_555 1_555
H63D C59D 1_555 1_555
C60D C59D 1_555 1_555
H64D C60D 1_555 1_555
H65D C60D 1_555 1_555
C61D C60D 1_555 1_555
H66D C61D 1_555 1_555
H67D C61D 1_555 1_555
C62D C61D 1_555 1_555
H68D C62D 1_555 1_555
H69D C62D 1_555 1_555
C63D C62D 1_555 1_555
H70D C63D 1_555 1_555
H71D C63D 1_555 1_555
C64D C59D 1_555 1_555
H72D C64D 1_555 1_555
C65D C54 1_555 1_555
H73D C65D 1_555 1_555
N9I C64I 1_555 1_555
N10I C58I 1_555 1_555
C49I C51 1_555 1_555
H57I C49I 1_555 1_555
C50I C49I 1_555 1_555
H58I C50I 1_555 1_555
C51I C49 1_555 1_555
C52I C51I 1_555 1_555
C53I C52I 1_555 1_555
H59I C53I 1_555 1_555
C54I C53I 1_555 1_555
C55I C54I 1_555 1_555
H60I C55I 1_555 1_555
C56I C55I 1_555 1_555
C57I C52I 1_555 1_555
H61I C57I 1_555 1_555
C58I C56I 1_555 1_555
H62I C58I 1_555 1_555
C59I N10I 1_555 1_555
H63I C59I 1_555 1_555
C60I C59I 1_555 1_555
H64I C60I 1_555 1_555
H65I C60I 1_555 1_555
C61I C60I 1_555 1_555
H66I C61I 1_555 1_555
H67I C61I 1_555 1_555
C62I C61I 1_555 1_555
H68I C62I 1_555 1_555
H69I C62I 1_555 1_555
C63I C62I 1_555 1_555
H70I C63I 1_555 1_555
H71I C63I 1_555 1_555
C64I C59I 1_555 1_555
H72I C64I 1_555 1_555
C65I N9I 1_555 1_555
H73I C65I 1_555 1_555
N9G C64G 1_555 1_555
N10G C58G 1_555 1_555
C49G C51D 1_555 1_555
H57G C49G 1_555 1_555
C50G C49G 1_555 1_555
H58G C50G 1_555 1_555
C51G C49D 1_555 1_555
C52G C51G 1_555 1_555
C53G C52G 1_555 1_555
H59G C53G 1_555 1_555
C54G C65I 1_555 1_555
C55G C54G 1_555 1_555
H60G C55G 1_555 1_555
C56G C55G 1_555 1_555
C57G C52G 1_555 1_555
H61G C57G 1_555 1_555
C58G C56G 1_555 1_555
H62G C58G 1_555 1_555
C59G N10G 1_555 1_555
H63G C59G 1_555 1_555
C60G C59G 1_555 1_555
H64G C60G 1_555 1_555
H65G C60G 1_555 1_555
C61G C60G 1_555 1_555
H66G C61G 1_555 1_555
H67G C61G 1_555 1_555
C62G C61G 1_555 1_555
H68G C62G 1_555 1_555
H69G C62G 1_555 1_555
C63G C62G 1_555 1_555
H70G C63G 1_555 1_555
H71G C63G 1_555 1_555
C64G C59G 1_555 1_555
H72G C64G 1_555 1_555
C65G N9G 1_555 1_555
H73G C65G 1_555 1_555
N9K C64K 1_555 1_555
N10K C58K 1_555 1_555
C49K C51B 1_555 1_555
H57K C49K 1_555 1_555
C50K C49K 1_555 1_555
H58K C50K 1_555 1_555
C51K C49B 1_555 1_555
C52K C51K 1_555 1_555
C53K C52K 1_555 1_555
H59K C53K 1_555 1_555
C54K C65G 1_555 1_555
C55K C54K 1_555 1_555
H60K C55K 1_555 1_555
C56K C55K 1_555 1_555
C57K C52K 1_555 1_555
H61K C57K 1_555 1_555
C58K C56K 1_555 1_555
H62K C58K 1_555 1_555
C59K N10K 1_555 1_555
H63K C59K 1_555 1_555
C60K C59K 1_555 1_555
H64K C60K 1_555 1_555
H65K C60K 1_555 1_555
C61K C60K 1_555 1_555
H66K C61K 1_555 1_555
H67K C61K 1_555 1_555
C62K C61K 1_555 1_555
H68K C62K 1_555 1_555
H69K C62K 1_555 1_555
C63K C62K 1_555 1_555
H70K C63K 1_555 1_555
H71K C63K 1_555 1_555
C64K C59K 1_555 1_555
H72K C64K 1_555 1_555
C65K C54I 1_555 1_555
H73K C65K 1_555 1_555
N11B C75B 1_555 1_555
N12B C66 1_555 1_555
C66B H74B 1_555 1_555
C67B C66B 1_555 1_555
C68B C67B 1_555 1_555
H75B C68B 1_555 1_555
C69B C68B 1_555 1_555
C70B C69B 1_555 1_555
H76B C70B 1_555 1_555
C71B C70B 1_555 1_555
C72B C67B 1_555 1_555
H77B C72B 1_555 1_555
C73B H78B 1_555 1_555
C74B C69B 1_555 1_555
C75B H79B 1_555 1_555
C76B C75B 1_555 1_555
H80B C76B 1_555 1_555
H81B C76B 1_555 1_555
C77B C76B 1_555 1_555
H82B C77B 1_555 1_555
H83B C77B 1_555 1_555
C78B C77B 1_555 1_555
H84B C78B 1_555 1_555
H85B C78B 1_555 1_555
C79B C78B 1_555 1_555
H86B C79B 1_555 1_555
H87B C79B 1_555 1_555
C80B N12B 1_555 1_555
H88B C80B 1_555 1_555
C81B N11B 1_555 1_555
H89B C81B 1_555 1_555
C82B C74B 1_555 1_555
H90B C82B 1_555 1_555
N11D C75D 1_555 1_555
N12D C66B 1_555 1_555
C66D N12 1_555 1_555
H74D C66D 1_555 1_555
C67D C66D 1_555 1_555
C68D C67D 1_555 1_555
H75D C68D 1_555 1_555
C69D C68D 1_555 1_555
C70D C69D 1_555 1_555
H76D C70D 1_555 1_555
C71D C70D 1_555 1_555
C72D C67D 1_555 1_555
H77D C72D 1_555 1_555
C73D H78D 1_555 1_555
C74D C69D 1_555 1_555
C75D H79D 1_555 1_555
C76D C75D 1_555 1_555
H80D C76D 1_555 1_555
H81D C76D 1_555 1_555
C77D C76D 1_555 1_555
H82D C77D 1_555 1_555
H83D C77D 1_555 1_555
C78D C77D 1_555 1_555
H84D C78D 1_555 1_555
H85D C78D 1_555 1_555
C79D C78D 1_555 1_555
H86D C79D 1_555 1_555
H87D C79D 1_555 1_555
C80D N12D 1_555 1_555
H88D C80D 1_555 1_555
C81D N11D 1_555 1_555
H89D C81D 1_555 1_555
C82D C74D 1_555 1_555
H90D C82D 1_555 1_555
N11H C75H 1_555 1_555
N12H C80H 1_555 1_555
C66H H74H 1_555 1_555
C67H C66H 1_555 1_555
C68H C67H 1_555 1_555
H75H C68H 1_555 1_555
C69H C68H 1_555 1_555
C70H C69H 1_555 1_555
H76H C70H 1_555 1_555
C71H C70H 1_555 1_555
C72H C67H 1_555 1_555
H77H C72H 1_555 1_555
C73H C82 1_555 1_555
H78H C73H 1_555 1_555
C74H C69H 1_555 1_555
C75H H79H 1_555 1_555
C76H C75H 1_555 1_555
H80H C76H 1_555 1_555
H81H C76H 1_555 1_555
C77H C76H 1_555 1_555
H82H C77H 1_555 1_555
H83H C77H 1_555 1_555
C78H C77H 1_555 1_555
H84H C78H 1_555 1_555
H85H C78H 1_555 1_555
C79H C78H 1_555 1_555
H86H C79H 1_555 1_555
H87H C79H 1_555 1_555
C80H C75H 1_555 1_555
H88H C80H 1_555 1_555
C81H N11H 1_555 1_555
H89H C81H 1_555 1_555
C82H C73 1_555 1_555
H90H C82H 1_555 1_555
N11F C75F 1_555 1_555
N12F C66H 1_555 1_555
C66F H74F 1_555 1_555
C67F C66F 1_555 1_555
C68F C67F 1_555 1_555
H75F C68F 1_555 1_555
C69F C68F 1_555 1_555
C70F C69F 1_555 1_555
H76F C70F 1_555 1_555
C71F C70F 1_555 1_555
C72F C67F 1_555 1_555
H77F C72F 1_555 1_555
C73F C82D 1_555 1_555
H78F C73F 1_555 1_555
C74F C69F 1_555 1_555
C75F H79F 1_555 1_555
C76F C75F 1_555 1_555
H80F C76F 1_555 1_555
H81F C76F 1_555 1_555
C77F C76F 1_555 1_555
H82F C77F 1_555 1_555
H83F C77F 1_555 1_555
C78F C77F 1_555 1_555
H84F C78F 1_555 1_555
H85F C78F 1_555 1_555
C79F C78F 1_555 1_555
H86F C79F 1_555 1_555
H87F C79F 1_555 1_555
C80F N12F 1_555 1_555
H88F C80F 1_555 1_555
C81F N11F 1_555 1_555
H89F C81F 1_555 1_555
C82F C73D 1_555 1_555
H90F C82F 1_555 1_555
N11J C75J 1_555 1_555
N12J C66F 1_555 1_555
C66J N12H 1_555 1_555
H74J C66J 1_555 1_555
C67J C66J 1_555 1_555
C68J C67J 1_555 1_555
H75J C68J 1_555 1_555
C69J C68J 1_555 1_555
C70J C69J 1_555 1_555
H76J C70J 1_555 1_555
C71J C70J 1_555 1_555
C72J C67J 1_555 1_555
H77J C72J 1_555 1_555
C73J C82B 1_555 1_555
H78J C73J 1_555 1_555
C74J C69J 1_555 1_555
C75J H79J 1_555 1_555
C76J C75J 1_555 1_555
H80J C76J 1_555 1_555
H81J C76J 1_555 1_555
C77J C76J 1_555 1_555
H82J C77J 1_555 1_555
H83J C77J 1_555 1_555
C78J C77J 1_555 1_555
H84J C78J 1_555 1_555
H85J C78J 1_555 1_555
C79J C78J 1_555 1_555
H86J C79J 1_555 1_555
H87J C79J 1_555 1_555
C80J N12J 1_555 1_555
H88J C80J 1_555 1_555
C81J N11J 1_555 1_555
H89J C81J 1_555 1_555
C82J C73B 1_555 1_555
H90J C82J 1_555 1_555
C8 C9 1_555 1_555
C15 C16 1_555 1_555
C23 C24 1_555 1_555
C33 C34 1_555 1_555
C44 C45 1_555 1_555
C56 C57 1_555 1_555
C63 C64 1_555 1_555
C71 C72 1_555 1_555
C71 C81 1_555 1_555
C73 C74 1_555 1_555
C79 C80 1_555 1_555
C85 C86 1_555 1_555
C1B C2B 1_555 1_555
C8B C9B 1_555 1_555
C13B C17B 1_555 1_555
C15B C16B 1_555 1_555
C23B C24B 1_555 1_555
C1D C2D 1_555 1_555
C8D C9D 1_555 1_555
C13D C17D 1_555 1_555
C15D C16D 1_555 1_555
C19D C24D 1_555 1_555
C23D C24D 1_555 1_555
C33B C34B 1_555 1_555
C35B C36B 1_555 1_555
C37B C38B 1_555 1_555
C44B C45B 1_555 1_555
C46B C47B 1_555 1_555
C26D C27D 1_555 1_555
C33D C34D 1_555 1_555
C35D C36D 1_555 1_555
C37D C38D 1_555 1_555
C44D C45D 1_555 1_555
C46D C47D 1_555 1_555
C47D C48D 1_555 1_555
C53B C54B 1_555 1_555
C56B C57B 1_555 1_555
C63B C64B 1_555 1_555
N9D C65D 1_555 1_555
C53D C54D 1_555 1_555
C56D C57D 1_555 1_555
C63D C64D 1_555 1_555
C50I C51I 1_555 1_555
C56I C57I 1_555 1_555
C63I C64I 1_555 1_555
C50G C51G 1_555 1_555
C53G C54G 1_555 1_555
C56G C57G 1_555 1_555
C63G C64G 1_555 1_555
N9K C65K 1_555 1_555
C50K C51K 1_555 1_555
C53K C54K 1_555 1_555
C56K C57K 1_555 1_555
C63K C64K 1_555 1_555
C71B C72B 1_555 1_555
C71B C81B 1_555 1_555
C73B C74B 1_555 1_555
C75B C80B 1_555 1_555
C79B C80B 1_555 1_555
C71D C72D 1_555 1_555
C71D C81D 1_555 1_555
C73D C74D 1_555 1_555
C75D C80D 1_555 1_555
C79D C80D 1_555 1_555
C71H C72H 1_555 1_555
C71H C81H 1_555 1_555
C73H C74H 1_555 1_555
C74H C82H 1_555 1_555
C79H C80H 1_555 1_555
C71F C72F 1_555 1_555
C71F C81F 1_555 1_555
C73F C74F 1_555 1_555
C74F C82F 1_555 1_555
C75F C80F 1_555 1_555
C79F C80F 1_555 1_555
C71J C72J 1_555 1_555
C71J C81J 1_555 1_555
C73J C74J 1_555 1_555
C74J C82J 1_555 1_555
C75J C80J 1_555 1_555
C79J C80J 1_555 1_555

#END
