
#######################################################################
#
#                 Cambridge Crystallographic Data Centre
#                                CCDC 
#
#######################################################################
#
# If this CIF has been generated from an entry in the Cambridge 
# Structural Database, then it will include bibliographic, chemical, 
# crystal, experimental, refinement or atomic coordinate data resulting 
# from the CCDC's data processing and validation procedures.
#
#######################################################################

data_ABILAC11
_chemical_formula_moiety         'C31 H48 O3'
_chemical_name_systematic        3-Methoxy-23,26-epoxylanosta-7,24-dien-26-one
_symmetry_cell_setting           orthorhombic
_symmetry_space_group_name_H-M   'P 21 21 21'
_symmetry_Int_Tables_number      19
_space_group_name_Hall           'P 2ac 2ab'
loop_
_symmetry_equiv_pos_site_id
_symmetry_equiv_pos_as_xyz
1 x,y,z
2 1/2+x,1/2-y,-z
3 -x,1/2+y,1/2-z
4 1/2-x,-y,1/2+z
_cell_length_a                   6.6474(4)
_cell_length_b                   11.7700(8)
_cell_length_c                   35.166(2)
_cell_angle_alpha                90
_cell_angle_beta                 90
_cell_angle_gamma                90
_cell_volume                     2751.38
_cell_formula_units_Z            4
loop_
_atom_site_label
_atom_site_type_symbol
_atom_site_fract_x
_atom_site_fract_y
_atom_site_fract_z
O1 O 0.8454(3) 0.80553(16) 0.79439(6)
O2 O 0.3781(3) 0.43291(18) 1.11493(6)
O3 O 0.1487(3) 0.3341(2) 1.14750(7)
C1 C 0.4884(5) 0.1969(3) 1.18106(9)
H1 H 0.6204 0.1671 1.1859
H2 H 0.4042 0.1378 1.1710
H3 H 0.4317 0.2248 1.2044
C2 C 0.5021(4) 0.2905(3) 1.15331(8)
C3 C 0.6595(5) 0.3416(3) 1.13800(8)
H4 H 0.7927 0.3228 1.1431
C4 C 0.5953(4) 0.4333(3) 1.11152(8)
H5 H 0.6482 0.5063 1.1204
C5 C 0.6555(5) 0.4151(3) 1.07065(8)
H6 H 0.6106 0.3402 1.0629
H7 H 0.8012 0.4159 1.0691
C6 C 0.5730(5) 0.5021(2) 1.04257(7)
H8 H 0.4259 0.5013 1.0445
C7 C 0.6301(4) 0.4675(2) 1.00140(8)
H9 H 0.7772 0.4634 1.0002
C8 C 0.5595(4) 0.5433(2) 0.96769(8)
C9 C 0.5959(4) 0.4627(2) 0.93321(8)
C10 C 0.5224(4) 0.5156(2) 0.89619(7)
C11 C 0.5078(4) 0.6438(2) 0.89532(7)
H10 H 0.3875 0.6608 0.9104
C12 C 0.4594(4) 0.6931(2) 0.85500(7)
C13 C 0.5683(4) 0.6211(2) 0.82436(7)
H11 H 0.7081 0.6148 0.8329
C14 C 0.5788(4) 0.6714(2) 0.78330(8)
C15 C 0.6377(4) 0.7968(2) 0.78420(8)
H12 H 0.6199 0.8285 0.7587
C16 C 0.9283(5) 0.9135(3) 0.78786(11)
H13 H 0.9001 0.9366 0.7622
H14 H 1.0712 0.9106 0.7916
H15 H 0.8702 0.9672 0.8053
C17 C 0.7416(5) 0.6050(3) 0.76110(9)
H16 H 0.7634 0.6406 0.7369
H17 H 0.6977 0.5281 0.7573
H18 H 0.8649 0.6051 0.7753
C18 C 0.3812(5) 0.6613(3) 0.76005(9)
H19 H 0.2792 0.7079 0.7715
H20 H 0.3373 0.5836 0.7599
H21 H 0.4047 0.6860 0.7344
C19 C 0.5006(5) 0.4527(2) 0.86488(8)
H22 H 0.4957 0.3742 0.8677
C20 C 0.4836(5) 0.5000(2) 0.82560(8)
H23 H 0.3435 0.5007 0.8179
H24 H 0.5573 0.4521 0.8080
C21 C 0.3231(5) 0.3499(3) 1.13950(9)
C22 C 0.5477(5) 0.3484(2) 0.99018(8)
H25 H 0.6482 0.2904 0.9951
H26 H 0.4283 0.3306 1.0049
C23 C 0.4961(5) 0.3526(2) 0.94706(8)
H27 H 0.5507 0.2871 0.9339
H28 H 0.3517 0.3550 0.9431
C24 C 0.6751(5) 0.6550(2) 0.96055(8)
H29 H 0.8122 0.6456 0.9694
H30 H 0.6137 0.7147 0.9756
C25 C 0.6809(5) 0.6940(2) 0.91858(8)
H31 H 0.6734 0.7763 0.9176
H32 H 0.8078 0.6711 0.9073
C26 C 0.3327(4) 0.5664(2) 0.97338(8)
H33 H 0.3153 0.6354 0.9875
H34 H 0.2732 0.5044 0.9871
H35 H 0.2686 0.5737 0.9490
C27 C 0.8221(5) 0.4363(3) 0.92781(9)
H36 H 0.8729 0.3990 0.9501
H37 H 0.8944 0.5058 0.9238
H38 H 0.8392 0.3875 0.9062
C28 C 0.5320(4) 0.8167(2) 0.85195(8)
H39 H 0.4557 0.8634 0.8695
H40 H 0.6724 0.8205 0.8594
C29 C 0.5091(4) 0.8645(2) 0.81185(8)
H41 H 0.3691 0.8606 0.8042
H42 H 0.5502 0.9435 0.8115
C30 C 0.2287(4) 0.6896(3) 0.85108(8)
H43 H 0.1696 0.7433 0.8683
H44 H 0.1811 0.6146 0.8570
H45 H 0.1916 0.7087 0.8255
C31 C 0.6454(7) 0.6215(3) 1.05266(9)
H46 H 0.6021 0.6404 1.0779
H47 H 0.5901 0.6751 1.0349
H48 H 0.7896 0.6241 1.0515
loop_
_geom_bond_atom_site_label_1
_geom_bond_atom_site_label_2
_geom_bond_site_symmetry_1
_geom_bond_site_symmetry_2
O1 C15 1_555 1_555
O2 C4 1_555 1_555
O3 C21 1_555 1_555
C1 H1 1_555 1_555
H2 C1 1_555 1_555
H3 C1 1_555 1_555
C2 C1 1_555 1_555
C3 C2 1_555 1_555
H4 C3 1_555 1_555
C4 C3 1_555 1_555
H5 C4 1_555 1_555
C5 C4 1_555 1_555
H6 C5 1_555 1_555
H7 C5 1_555 1_555
C6 C5 1_555 1_555
H8 C6 1_555 1_555
C7 C6 1_555 1_555
H9 C7 1_555 1_555
C8 C7 1_555 1_555
C9 C8 1_555 1_555
C10 C9 1_555 1_555
C11 C10 1_555 1_555
H10 C11 1_555 1_555
C12 C11 1_555 1_555
C13 C12 1_555 1_555
H11 C13 1_555 1_555
C14 C13 1_555 1_555
C15 C14 1_555 1_555
H12 C15 1_555 1_555
C16 O1 1_555 1_555
H13 C16 1_555 1_555
H14 C16 1_555 1_555
H15 C16 1_555 1_555
C17 C14 1_555 1_555
H16 C17 1_555 1_555
H17 C17 1_555 1_555
H18 C17 1_555 1_555
C18 C14 1_555 1_555
H19 C18 1_555 1_555
H20 C18 1_555 1_555
H21 C18 1_555 1_555
C19 C10 1_555 1_555
H22 C19 1_555 1_555
C20 C13 1_555 1_555
H23 C20 1_555 1_555
H24 C20 1_555 1_555
C21 O2 1_555 1_555
C22 C7 1_555 1_555
H25 C22 1_555 1_555
H26 C22 1_555 1_555
C23 C9 1_555 1_555
H27 C23 1_555 1_555
H28 C23 1_555 1_555
C24 C8 1_555 1_555
H29 C24 1_555 1_555
H30 C24 1_555 1_555
C25 C11 1_555 1_555
H31 C25 1_555 1_555
H32 C25 1_555 1_555
C26 C8 1_555 1_555
H33 C26 1_555 1_555
H34 C26 1_555 1_555
H35 C26 1_555 1_555
C27 C9 1_555 1_555
H36 C27 1_555 1_555
H37 C27 1_555 1_555
H38 C27 1_555 1_555
C28 C12 1_555 1_555
H39 C28 1_555 1_555
H40 C28 1_555 1_555
C29 C15 1_555 1_555
H41 C29 1_555 1_555
H42 C29 1_555 1_555
C30 C12 1_555 1_555
H43 C30 1_555 1_555
H44 C30 1_555 1_555
H45 C30 1_555 1_555
C31 C6 1_555 1_555
H46 C31 1_555 1_555
H47 C31 1_555 1_555
H48 C31 1_555 1_555
C2 C21 1_555 1_555
C19 C20 1_555 1_555
C22 C23 1_555 1_555
C24 C25 1_555 1_555
C28 C29 1_555 1_555

#END
