
#######################################################################
#
#                 Cambridge Crystallographic Data Centre
#                                CCDC 
#
#######################################################################
#
# If this CIF has been generated from an entry in the Cambridge 
# Structural Database, then it will include bibliographic, chemical, 
# crystal, experimental, refinement or atomic coordinate data resulting 
# from the CCDC's data processing and validation procedures.
#
#######################################################################

data_ABILIG
_chemical_formula_moiety         'C21 H23 N2 O1 1+,I1 1-'
_chemical_name_systematic        
"trans-4-((4'-N-Hydroxyethyl-N-methylamino)styryl)-N'-methylquinolinium iodide"
_symmetry_cell_setting           monoclinic
_symmetry_space_group_name_H-M   'P 21/n'
_symmetry_Int_Tables_number      14
_space_group_name_Hall           '-P 2yn'
loop_
_symmetry_equiv_pos_site_id
_symmetry_equiv_pos_as_xyz
1 x,y,z
2 1/2+x,1/2-y,1/2+z
3 -x,-y,-z
4 1/2-x,1/2+y,1/2-z
_cell_length_a                   10.0512(11)
_cell_length_b                   16.2879(12)
_cell_length_c                   12.3328(8)
_cell_angle_alpha                90
_cell_angle_beta                 102.307(6)
_cell_angle_gamma                90
_cell_volume                     1972.64
_exptl_crystal_colour            'dark violet'
_exptl_crystal_description       lath
_cell_formula_units_Z            4
loop_
_atom_site_label
_atom_site_type_symbol
_atom_site_fract_x
_atom_site_fract_y
_atom_site_fract_z
I1 I 0.82252(3) 0.067580(16) 0.62318(2)
N1 N -0.2043(3) 0.2246(2) 0.3182(3)
N2 N 0.7078(4) 0.0867(3) 0.0330(4)
O1 O 0.9595(4) -0.0761(2) 0.1165(3)
H1 H 1.0300 -0.0798 0.1640
C1 C -0.3303(4) 0.2276(3) 0.3613(3)
H2 H -0.3282 0.1849 0.4154
H3 H -0.4075 0.2198 0.3014
H4 H -0.3370 0.2800 0.3954
C2 C -0.1823(4) 0.2805(2) 0.2397(3)
C3 C -0.2822(4) 0.3390(3) 0.1962(4)
H5 H -0.3637 0.3401 0.2204
C4 C -0.2604(5) 0.3939(3) 0.1193(4)
H6 H -0.3270 0.4325 0.0912
C5 C -0.1381(5) 0.3928(3) 0.0818(4)
H7 H -0.1236 0.4309 0.0294
C6 C -0.0403(4) 0.3359(3) 0.1222(4)
H8 H 0.0404 0.3358 0.0967
C7 C -0.0591(4) 0.2771(2) 0.2020(3)
C8 C 0.0408(4) 0.2142(2) 0.2430(3)
C9 C 0.0086(4) 0.1612(3) 0.3215(3)
H9 H 0.0701 0.1202 0.3510
C10 C -0.1115(4) 0.1675(3) 0.3569(3)
H10 H -0.1287 0.1306 0.4098
C11 C 0.1644(4) 0.2076(2) 0.2027(3)
H11 H 0.1853 0.2503 0.1591
C12 C 0.2526(4) 0.1440(2) 0.2236(3)
H12 H 0.2342 0.1037 0.2718
C13 C 0.3723(4) 0.1325(2) 0.1783(3)
C14 C 0.4516(4) 0.0613(3) 0.2030(4)
H13 H 0.4286 0.0232 0.2520
C15 C 0.5612(4) 0.0464(3) 0.1573(4)
H14 H 0.6111 -0.0014 0.1767
C16 C 0.6014(4) 0.1009(3) 0.0816(4)
C17 C 0.5240(4) 0.1731(3) 0.0581(4)
H15 H 0.5478 0.2117 0.0101
C18 C 0.4133(4) 0.1874(2) 0.1051(3)
H16 H 0.3641 0.2357 0.0872
C19 C 0.7739(5) 0.0052(3) 0.0374(4)
H17 H 0.7114 -0.0369 0.0515
H18 H 0.7972 -0.0066 -0.0334
C20 C 0.8968(5) 0.0041(3) 0.1252(4)
H19 H 0.8742 0.0106 0.1974
H20 H 0.9581 0.0480 0.1147
C21 C 0.7486(6) 0.1462(4) -0.0428(5)
H21 H 0.7008 0.1969 -0.0397
H22 H 0.7269 0.1250 -0.1171
H23 H 0.8449 0.1558 -0.0212
loop_
_geom_bond_atom_site_label_1
_geom_bond_atom_site_label_2
_geom_bond_site_symmetry_1
_geom_bond_site_symmetry_2
N1 C1 1_555 1_555
N2 C16 1_555 1_555
O1 H1 1_555 1_555
C1 H2 1_555 1_555
H3 C1 1_555 1_555
H4 C1 1_555 1_555
C2 N1 1_555 1_555
C3 C2 1_555 1_555
H5 C3 1_555 1_555
C4 C3 1_555 1_555
H6 C4 1_555 1_555
C5 C4 1_555 1_555
H7 C5 1_555 1_555
C6 C5 1_555 1_555
H8 C6 1_555 1_555
C7 C2 1_555 1_555
C8 C7 1_555 1_555
C9 C8 1_555 1_555
H9 C9 1_555 1_555
C10 N1 1_555 1_555
H10 C10 1_555 1_555
C11 C8 1_555 1_555
H11 C11 1_555 1_555
C12 C11 1_555 1_555
H12 C12 1_555 1_555
C13 C12 1_555 1_555
C14 C13 1_555 1_555
H13 C14 1_555 1_555
C15 C14 1_555 1_555
H14 C15 1_555 1_555
C16 C15 1_555 1_555
C17 C16 1_555 1_555
H15 C17 1_555 1_555
C18 C13 1_555 1_555
H16 C18 1_555 1_555
C19 N2 1_555 1_555
H17 C19 1_555 1_555
H18 C19 1_555 1_555
C20 O1 1_555 1_555
H19 C20 1_555 1_555
H20 C20 1_555 1_555
C21 N2 1_555 1_555
H21 C21 1_555 1_555
H22 C21 1_555 1_555
H23 C21 1_555 1_555
C6 C7 1_555 1_555
C9 C10 1_555 1_555
C17 C18 1_555 1_555
C19 C20 1_555 1_555

#END
