
#######################################################################
#
#                 Cambridge Crystallographic Data Centre
#                                CCDC 
#
#######################################################################
#
# If this CIF has been generated from an entry in the Cambridge 
# Structural Database, then it will include bibliographic, chemical, 
# crystal, experimental, refinement or atomic coordinate data resulting 
# from the CCDC's data processing and validation procedures.
#
#######################################################################

data_ABINOR
_chemical_formula_moiety         'C5 H10 O5'
_chemical_name_systematic        \b-DL-Arabinose
_symmetry_cell_setting           monoclinic
_symmetry_space_group_name_H-M   'P 21/c'
_symmetry_Int_Tables_number      14
_space_group_name_Hall           '-P 2ybc'
loop_
_symmetry_equiv_pos_site_id
_symmetry_equiv_pos_as_xyz
1 x,y,z
2 -x,1/2+y,1/2-z
3 -x,-y,-z
4 x,1/2-y,1/2+z
_cell_length_a                   5.925(4)
_cell_length_b                   7.820(3)
_cell_length_c                   13.354(6)
_cell_angle_alpha                90
_cell_angle_beta                 99.45(6)
_cell_angle_gamma                90
_cell_volume                     610.341
_cell_formula_units_Z            4
loop_
_atom_site_label
_atom_site_type_symbol
_atom_site_fract_x
_atom_site_fract_y
_atom_site_fract_z
C1 C -0.06250 0.06800 -0.37150
C2 C -0.17000 0.13500 -0.28260
C3 C -0.41480 0.19370 -0.32210
C4 C -0.41430 0.33020 -0.40430
C5 C -0.29540 0.25890 -0.48720
H1 H 0.10500 0.03300 -0.35400
H2 H -0.07900 -0.12000 -0.44500
H3 H -0.07000 0.22800 -0.25300
H4 H -0.28000 -0.08000 -0.22400
H5 H -0.48600 0.09900 -0.35000
H6 H -0.54400 0.15700 -0.23000
H7 H -0.57000 0.36200 -0.43400
H8 H -0.17000 0.49000 -0.35700
H9 H -0.38000 0.16800 -0.52300
H10 H -0.28000 0.35000 -0.53000
O1 O -0.18090 -0.07840 -0.40950
O2 O -0.16000 0.01120 -0.20440
O3 O -0.52250 0.26100 -0.24230
O4 O -0.31390 0.48690 -0.36440
O5 O -0.06680 0.20000 -0.44640
loop_
_geom_bond_atom_site_label_1
_geom_bond_atom_site_label_2
_geom_bond_site_symmetry_1
_geom_bond_site_symmetry_2
C1 C2 1_555 1_555
C2 C3 1_555 1_555
C3 C4 1_555 1_555
C4 C5 1_555 1_555
C5 H9 1_555 1_555
H1 C1 1_555 1_555
H2 O1 1_555 1_555
H3 C2 1_555 1_555
H4 O2 1_555 1_555
H5 C3 1_555 1_555
H6 O3 1_555 1_555
H7 C4 1_555 1_555
H8 O4 1_555 1_555
H10 C5 1_555 1_555
O1 C1 1_555 1_555
O2 C2 1_555 1_555
O3 C3 1_555 1_555
O4 C4 1_555 1_555
O5 C1 1_555 1_555
C5 O5 1_555 1_555

#END
