
#######################################################################
#
#                 Cambridge Crystallographic Data Centre
#                                CCDC 
#
#######################################################################
#
# If this CIF has been generated from an entry in the Cambridge 
# Structural Database, then it will include bibliographic, chemical, 
# crystal, experimental, refinement or atomic coordinate data resulting 
# from the CCDC's data processing and validation procedures.
#
#######################################################################

data_ABINOR02
_chemical_formula_moiety         'C5 H10 O5'
_chemical_name_systematic        \b-DL-Arabinose
_symmetry_cell_setting           monoclinic
_symmetry_space_group_name_H-M   'P 21/c'
_symmetry_Int_Tables_number      14
_space_group_name_Hall           '-P 2ybc'
loop_
_symmetry_equiv_pos_site_id
_symmetry_equiv_pos_as_xyz
1 x,y,z
2 -x,1/2+y,1/2-z
3 -x,-y,-z
4 x,1/2-y,1/2+z
_cell_length_a                   5.8732(8)
_cell_length_b                   7.7704(10)
_cell_length_c                   13.2478(21)
_cell_angle_alpha                90
_cell_angle_beta                 99.96(1)
_cell_angle_gamma                90
_cell_volume                     595.479
_cell_formula_units_Z            4
loop_
_atom_site_label
_atom_site_type_symbol
_atom_site_fract_x
_atom_site_fract_y
_atom_site_fract_z
C1 C -0.06067(12) 0.06829(11) 0.62930(6)
C2 C -0.16952(12) 0.13627(11) 0.71845(6)
C3 C -0.41724(12) 0.19358(11) 0.67760(6)
C4 C -0.41736(12) 0.33058(11) 0.59465(6)
C5 C -0.29705(13) 0.25845(12) 0.51118(6)
O1 O -0.18110(9) -0.07907(9) 0.59051(5)
O2 O -0.15708(9) 0.01209(8) 0.79789(4)
O3 O -0.52578(10) 0.26104(8) 0.75748(5)
O4 O -0.31555(9) 0.48890(8) 0.63509(5)
O5 O -0.06514(9) 0.20072(8) 0.55360(5)
loop_
_geom_bond_atom_site_label_1
_geom_bond_atom_site_label_2
_geom_bond_site_symmetry_1
_geom_bond_site_symmetry_2
C1 C2 1_555 1_555
C2 C3 1_555 1_555
C3 C4 1_555 1_555
C4 C5 1_555 1_555
C5 O5 1_555 1_555
O1 C1 1_555 1_555
O2 C2 1_555 1_555
O3 C3 1_555 1_555
O4 C4 1_555 1_555
O5 C1 1_555 1_555

#END
