
#######################################################################
#
#                 Cambridge Crystallographic Data Centre
#                                CCDC 
#
#######################################################################
#
# If this CIF has been generated from an entry in the Cambridge 
# Structural Database, then it will include bibliographic, chemical, 
# crystal, experimental, refinement or atomic coordinate data resulting 
# from the CCDC's data processing and validation procedures.
#
#######################################################################

data_ABIPOT
_chemical_formula_moiety         'C13 H17 Cl1 O3 S1'
_chemical_name_systematic        
'(R)-t-butyl {[(4-chlorophenyl)methyl]sulfinyl}acetate'
_symmetry_cell_setting           orthorhombic
_symmetry_space_group_name_H-M   'P 21 21 21'
_symmetry_Int_Tables_number      19
_space_group_name_Hall           'P 2ac 2ab'
loop_
_symmetry_equiv_pos_site_id
_symmetry_equiv_pos_as_xyz
1 x,y,z
2 1/2-x,-y,1/2+z
3 -x,1/2+y,1/2-z
4 1/2+x,1/2-y,-z
_cell_length_a                   5.2790(5)
_cell_length_b                   11.5315(8)
_cell_length_c                   23.4325(19)
_cell_angle_alpha                90
_cell_angle_beta                 90
_cell_angle_gamma                90
_cell_volume                     1426.45
_exptl_crystal_colour            colorless
_exptl_crystal_description       block
_cell_formula_units_Z            4
loop_
_atom_site_label
_atom_site_type_symbol
_atom_site_fract_x
_atom_site_fract_y
_atom_site_fract_z
C1 C 0.5472(7) 0.7575(3) 0.40033(11)
C2 C 0.3928(6) 0.6624(3) 0.39098(12)
H1 H 0.2468 0.669 0.3675
C3 C 0.4541(6) 0.5571(3) 0.41640(11)
H2 H 0.3495 0.4914 0.41
C4 C 0.6668(5) 0.5469(2) 0.45113(12)
C5 C 0.8186(6) 0.6444(2) 0.45935(12)
H3 H 0.9644 0.6387 0.483
C6 C 0.7602(6) 0.7496(3) 0.43361(13)
H4 H 0.8664 0.8152 0.439
C7 C 0.7289(6) 0.4364(3) 0.48164(13)
H5 H 0.911 0.435 0.4917
H6 H 0.6931 0.3693 0.4566
O1 O 0.5979(7) 0.3683(3) 0.66339(14)
O2 O 0.615(2) 0.1752(8) 0.6444(3)
C8 C 0.740(2) 0.3116(12) 0.5729(5)
H7 H 0.7374 0.2447 0.5464
H8 H 0.9171 0.3394 0.5762
C9 C 0.6427(14) 0.2757(6) 0.6304(3)
C10 C 0.5027(12) 0.3561(4) 0.7221(2)
C11 C 0.6961(14) 0.2936(6) 0.7585(3)
H9 H 0.702 0.2117 0.7475
H10 H 0.6484 0.3 0.7988
H11 H 0.8633 0.3287 0.7527
C12 C 0.2460(12) 0.2959(6) 0.7205(3)
H12 H 0.1319 0.3385 0.695
H13 H 0.1738 0.2941 0.7591
H14 H 0.267 0.2165 0.7065
Cl1 Cl 0.4674(2) 0.89067(7) 0.36987(3)
O3 O 0.2868(4) 0.37860(19) 0.52827(10)
S1 S 0.53776(14) 0.42702(6) 0.54595(3)
H15 H 0.6326 0.5241 0.7341
C13 C 0.4735(15) 0.4825(5) 0.7409(2)
H16 H 0.4321 0.4852 0.7816
H17 H 0.3372 0.5191 0.719
O4? O 0.643(2) 0.1824(9) 0.6613(3)
O5? O 0.3438(10) 0.3211(4) 0.6518(2)
C14? C 0.682(2) 0.3059(12) 0.5829(5)
H18? H 0.6915 0.2386 0.5568
H19? H 0.8572 0.327 0.594
C15? C 0.5351(16) 0.2720(7) 0.6356(4)
C16? C 0.5377(12) 0.1337(5) 0.7145(2)
C17? C 0.5275(15) 0.2251(5) 0.7615(2)
H20? H 0.6964 0.2587 0.7668
H21? H 0.4715 0.189 0.7972
H22? H 0.4081 0.2863 0.7506
C18? C 0.2866(13) 0.0766(7) 0.7029(3)
H23? H 0.1628 0.1355 0.6915
H24? H 0.2275 0.0373 0.7375
H25? H 0.3062 0.0198 0.6721
C19? C 0.7389(14) 0.0427(5) 0.7306(3)
H26? H 0.7517 -0.0151 0.7001
H27? H 0.6899 0.0044 0.7662
H28? H 0.9031 0.081 0.7356
loop_
_geom_bond_atom_site_label_1
_geom_bond_atom_site_label_2
_geom_bond_site_symmetry_1
_geom_bond_site_symmetry_2
C1 C2 1_555 1_555
C2 H1 1_555 1_555
C3 C2 1_555 1_555
H2 C3 1_555 1_555
C4 C3 1_555 1_555
C5 C4 1_555 1_555
H3 C5 1_555 1_555
C6 C1 1_555 1_555
H4 C6 1_555 1_555
C7 C4 1_555 1_555
H5 C7 1_555 1_555
H6 C7 1_555 1_555
O1 C9 1_555 1_555
O2 C9 1_555 1_555
C8 H7 1_555 1_555
H8 C8 1_555 1_555
C9 C8 1_555 1_555
C10 O1 1_555 1_555
C11 C10 1_555 1_555
H9 C11 1_555 1_555
H10 C11 1_555 1_555
H11 C11 1_555 1_555
C12 C10 1_555 1_555
H12 C12 1_555 1_555
H13 C12 1_555 1_555
H14 C12 1_555 1_555
Cl1 C1 1_555 1_555
O3 S1 1_555 1_555
S1 C7 1_555 1_555
H15 C13 1_555 1_555
C13 C10 1_555 1_555
H16 C13 1_555 1_555
H17 C13 1_555 1_555
C5 C6 1_555 1_555
C8 S1 1_555 1_555

#END
