
#######################################################################
#
#                 Cambridge Crystallographic Data Centre
#                                CCDC 
#
#######################################################################
#
# If this CIF has been generated from an entry in the Cambridge 
# Structural Database, then it will include bibliographic, chemical, 
# crystal, experimental, refinement or atomic coordinate data resulting 
# from the CCDC's data processing and validation procedures.
#
#######################################################################

data_ABIPUZ
_chemical_formula_moiety         'C12 H15 Br1 O3 S1'
_chemical_name_systematic        '(S)-t-butyl ((4-bromophenyl)sulfinyl)acetate'
_symmetry_cell_setting           monoclinic
_symmetry_space_group_name_H-M   'P 21'
_symmetry_Int_Tables_number      4
_space_group_name_Hall           'P 2yb'
loop_
_symmetry_equiv_pos_site_id
_symmetry_equiv_pos_as_xyz
1 x,y,z
2 -x,1/2+y,-z
_cell_length_a                   26.8296(16)
_cell_length_b                   9.6925(5)
_cell_length_c                   10.5106(6)
_cell_angle_alpha                90
_cell_angle_beta                 101.2326(19)
_cell_angle_gamma                90
_cell_volume                     2680.88
_exptl_crystal_colour            colorless
_exptl_crystal_description       plate
_cell_formula_units_Z            8
loop_
_atom_site_label
_atom_site_type_symbol
_atom_site_fract_x
_atom_site_fract_y
_atom_site_fract_z
Br1 Br 0.32950(6) 0.52375(8) -0.05324(16)
C1 C 0.4311(4) 0.3554(10) 0.2550(10)
H1 H 0.4424 0.2655 0.2827
C2 C 0.3947(5) 0.3731(11) 0.1426(12)
H2 H 0.3801 0.2953 0.094
C3 C 0.3799(6) 0.5057(11) 0.1020(14)
C4 C 0.3984(5) 0.6192(12) 0.1708(12)
H3 H 0.3867 0.7086 0.1423
C5 C 0.4346(4) 0.6029(10) 0.2834(11)
H4 H 0.4486 0.6812 0.3319
C6 C 0.4504(4) 0.4686(10) 0.3256(10)
C7 C 0.5481(6) 0.5104(11) 0.4369(14)
H5 H 0.5562 0.4601 0.3616
H6 H 0.5426 0.6087 0.4128
C8 C 0.5908(5) 0.4972(11) 0.5500(14)
C9 C 0.6836(6) 0.5308(11) 0.6167(13)
C10 C 0.6792(5) 0.6229(11) 0.7300(12)
H7 H 0.6635 0.7106 0.6976
H8 H 0.7131 0.6403 0.7818
H9 H 0.6582 0.5774 0.784
C11 C 0.6954(5) 0.3807(11) 0.6570(14)
H10 H 0.7288 0.3757 0.7147
H11 H 0.6957 0.3244 0.5797
H12 H 0.6694 0.3458 0.7026
C12 C 0.7225(5) 0.5912(13) 0.5413(13)
H13 H 0.7119 0.6844 0.5113
H14 H 0.7242 0.5324 0.4664
H15 H 0.756 0.5952 0.5983
O1 O 0.4987(3) 0.2861(7) 0.4873(7)
O2 O 0.5866(3) 0.4559(9) 0.6559(8)
O3 O 0.6357(4) 0.5349(8) 0.5185(9)
S1 S 0.49158(10) 0.4397(3) 0.4795(3)
Br2 Br 0.33007(6) 0.50105(8) 0.44760(16)
C13 C 0.4318(4) 0.3521(10) 0.7662(11)
H16 H 0.443 0.2647 0.8017
C14 C 0.3959(5) 0.3612(11) 0.6532(12)
H17 H 0.3815 0.2796 0.6113
C15 C 0.3807(5) 0.4908(12) 0.6002(14)
C16 C 0.4017(5) 0.6104(11) 0.6611(12)
H18 H 0.3921 0.698 0.6236
C17 C 0.4363(4) 0.6015(11) 0.7758(12)
H19 H 0.4498 0.6831 0.8196
C18 C 0.4515(4) 0.4733(10) 0.8273(10)
C19 C 0.5500(5) 0.5168(10) 0.9327(13)
H20 H 0.5581 0.4557 0.8641
H21 H 0.5454 0.612 0.8983
C20 C 0.5922(5) 0.5119(11) 1.0529(14)
C21 C 0.6845(5) 0.4787(13) 1.1149(14)
C22 C 0.6801(4) 0.3835(10) 1.2278(12)
H22 H 0.7138 0.37 1.2823
H23 H 0.6663 0.2942 1.1941
H24 H 0.6574 0.4252 1.2797
C23 C 0.6974(5) 0.6262(11) 1.1585(13)
H25 H 0.7006 0.6828 1.0832
H26 H 0.7296 0.6274 1.2214
H27 H 0.6703 0.6636 1.199
C24 C 0.7239(5) 0.4229(13) 1.0434(13)
H28 H 0.725 0.4811 0.9678
H29 H 0.7149 0.3284 1.0148
H30 H 0.7572 0.4231 1.1014
O4 O 0.4996(3) 0.3071(8) 1.0094(8)
O5 O 0.5863(3) 0.5353(8) 1.1595(9)
O6 O 0.6367(3) 0.4797(8) 1.0176(9)
S2 S 0.49252(10) 0.4580(3) 0.9845(3)
Br3 Br -0.17082(6) 0.49120(10) 0.38183(16)
C25 C -0.0662(4) 0.4032(10) 0.1487(11)
H31 H -0.0535 0.3239 0.1125
C26 C -0.1023(5) 0.3885(11) 0.2286(12)
H32 H -0.1134 0.2998 0.2495
C27 C -0.1211(6) 0.5068(11) 0.2758(14)
C28 C -0.1049(5) 0.6380(11) 0.2533(12)
H33 H -0.1179 0.7165 0.29
C29 C -0.0683(4) 0.6518(11) 0.1735(11)
H34 H -0.0567 0.7407 0.1545
C30 C -0.0492(4) 0.5335(9) 0.1229(11)
C31 C 0.0487(5) 0.4886(11) 0.1130(13)
H35 H 0.057 0.5384 0.1967
H36 H 0.0427 0.3903 0.1311
C32 C 0.0906(6) 0.5009(12) 0.0432(15)
C33 C 0.1846(5) 0.4713(12) 0.0705(13)
C34 C 0.2226(5) 0.4194(13) 0.1848(13)
H37 H 0.2153 0.3225 0.201
H38 H 0.2202 0.4745 0.2615
H39 H 0.2569 0.4272 0.1665
C35 C 0.1957(5) 0.6191(12) 0.0421(14)
H40 H 0.2279 0.6242 0.0116
H41 H 0.1981 0.6741 0.1213
H42 H 0.1682 0.6552 -0.025
C36 C 0.1822(4) 0.3754(10) -0.0456(12)
H43 H 0.1597 0.4152 -0.1214
H44 H 0.1691 0.2853 -0.0257
H45 H 0.2164 0.3641 -0.0643
O7 O 0.0009(3) 0.7151(7) 0.0124(8)
O8 O 0.0869(4) 0.5373(10) -0.0690(10)
O9 O 0.1355(3) 0.4646(8) 0.1197(9)
S3 S -0.00776(10) 0.5625(3) 0.0120(3)
Br4 Br -0.17060(7) 0.50326(10) 0.88160(16)
C37 C -0.0634(4) 0.4085(10) 0.6589(11)
H46 H -0.0488 0.3286 0.629
C38 C -0.0987(5) 0.3975(11) 0.7392(12)
H47 H -0.1077 0.3099 0.7683
C39 C -0.1206(6) 0.5183(11) 0.7763(14)
C40 C -0.1074(5) 0.6490(10) 0.7412(12)
H48 H -0.1222 0.7294 0.7698
C41 C -0.0713(4) 0.6573(11) 0.6616(11)
H49 H -0.0615 0.7447 0.634
C42 C -0.0502(4) 0.5398(10) 0.6236(11)
C43 C 0.0493(6) 0.5010(11) 0.6148(14)
H50 H 0.0563 0.5607 0.6926
H51 H 0.0452 0.405 0.6432
C44 C 0.0940(6) 0.5094(11) 0.5408(14)
C45 C 0.1846(5) 0.5368(13) 0.5703(13)
C46 C 0.2222(5) 0.5913(13) 0.6854(13)
H52 H 0.2123 0.6849 0.706
H53 H 0.2562 0.5934 0.6645
H54 H 0.2224 0.5311 0.7604
C47 C 0.1811(5) 0.6342(10) 0.4556(12)
H55 H 0.1617 0.5902 0.3775
H56 H 0.2154 0.6558 0.4422
H57 H 0.164 0.7195 0.4731
C48 C 0.1957(5) 0.3886(11) 0.5377(14)
H58 H 0.1943 0.3293 0.6125
H59 H 0.2296 0.3832 0.5164
H60 H 0.1703 0.3576 0.4631
O10 O -0.0019(3) 0.7088(7) 0.4908(8)
O11 O 0.0868(4) 0.4849(9) 0.4264(9)
O12 O 0.1364(3) 0.5397(8) 0.6201(8)
S4 S -0.00808(10) 0.5572(3) 0.5078(3)
loop_
_geom_bond_atom_site_label_1
_geom_bond_atom_site_label_2
_geom_bond_site_symmetry_1
_geom_bond_site_symmetry_2
Br1 C3 1_555 1_555
C1 H1 1_555 1_555
C2 C1 1_555 1_555
H2 C2 1_555 1_555
C3 C2 1_555 1_555
C4 C3 1_555 1_555
H3 C4 1_555 1_555
C5 C4 1_555 1_555
H4 C5 1_555 1_555
C6 C1 1_555 1_555
C7 H5 1_555 1_555
H6 C7 1_555 1_555
C8 C7 1_555 1_555
C9 C10 1_555 1_555
C10 H7 1_555 1_555
H8 C10 1_555 1_555
H9 C10 1_555 1_555
C11 C9 1_555 1_555
H10 C11 1_555 1_555
H11 C11 1_555 1_555
H12 C11 1_555 1_555
C12 C9 1_555 1_555
H13 C12 1_555 1_555
H14 C12 1_555 1_555
H15 C12 1_555 1_555
O1 S1 1_555 1_555
O2 C8 1_555 1_555
O3 C8 1_555 1_555
S1 C6 1_555 1_555
Br2 C15 1_555 1_555
C13 H16 1_555 1_555
C14 C13 1_555 1_555
H17 C14 1_555 1_555
C15 C14 1_555 1_555
C16 C15 1_555 1_555
H18 C16 1_555 1_555
C17 C16 1_555 1_555
H19 C17 1_555 1_555
C18 C13 1_555 1_555
C19 H20 1_555 1_555
H21 C19 1_555 1_555
C20 C19 1_555 1_555
C21 C22 1_555 1_555
C22 H22 1_555 1_555
H23 C22 1_555 1_555
H24 C22 1_555 1_555
C23 C21 1_555 1_555
H25 C23 1_555 1_555
H26 C23 1_555 1_555
H27 C23 1_555 1_555
C24 C21 1_555 1_555
H28 C24 1_555 1_555
H29 C24 1_555 1_555
H30 C24 1_555 1_555
O4 S2 1_555 1_555
O5 C20 1_555 1_555
O6 C20 1_555 1_555
S2 C18 1_555 1_555
Br3 C27 1_555 1_555
C25 H31 1_555 1_555
C26 C25 1_555 1_555
H32 C26 1_555 1_555
C27 C26 1_555 1_555
C28 C27 1_555 1_555
H33 C28 1_555 1_555
C29 C28 1_555 1_555
H34 C29 1_555 1_555
C30 C25 1_555 1_555
C31 H35 1_555 1_555
H36 C31 1_555 1_555
C32 C31 1_555 1_555
C33 C34 1_555 1_555
C34 H37 1_555 1_555
H38 C34 1_555 1_555
H39 C34 1_555 1_555
C35 C33 1_555 1_555
H40 C35 1_555 1_555
H41 C35 1_555 1_555
H42 C35 1_555 1_555
C36 C33 1_555 1_555
H43 C36 1_555 1_555
H44 C36 1_555 1_555
H45 C36 1_555 1_555
O7 S3 1_555 1_555
O8 C32 1_555 1_555
O9 C32 1_555 1_555
S3 C30 1_555 1_555
Br4 C39 1_555 1_555
C37 H46 1_555 1_555
C38 C37 1_555 1_555
H47 C38 1_555 1_555
C39 C38 1_555 1_555
C40 C39 1_555 1_555
H48 C40 1_555 1_555
C41 C40 1_555 1_555
H49 C41 1_555 1_555
C42 C37 1_555 1_555
C43 H50 1_555 1_555
H51 C43 1_555 1_555
C44 C43 1_555 1_555
C45 C46 1_555 1_555
C46 H52 1_555 1_555
H53 C46 1_555 1_555
H54 C46 1_555 1_555
C47 C45 1_555 1_555
H55 C47 1_555 1_555
H56 C47 1_555 1_555
H57 C47 1_555 1_555
C48 C45 1_555 1_555
H58 C48 1_555 1_555
H59 C48 1_555 1_555
H60 C48 1_555 1_555
O10 S4 1_555 1_555
O11 C44 1_555 1_555
O12 C44 1_555 1_555
S4 C42 1_555 1_555
C5 C6 1_555 1_555
C7 S1 1_555 1_555
C9 O3 1_555 1_555
C17 C18 1_555 1_555
C19 S2 1_555 1_555
C21 O6 1_555 1_555
C29 C30 1_555 1_555
C31 S3 1_555 1_555
C33 O9 1_555 1_555
C41 C42 1_555 1_555
C43 S4 1_555 1_555
C45 O12 1_555 1_555

#END
