
#######################################################################
#
#                 Cambridge Crystallographic Data Centre
#                                CCDC 
#
#######################################################################
#
# If this CIF has been generated from an entry in the Cambridge 
# Structural Database, then it will include bibliographic, chemical, 
# crystal, experimental, refinement or atomic coordinate data resulting 
# from the CCDC's data processing and validation procedures.
#
#######################################################################

data_ABIPIN
_chemical_name_common            (R)-(-)-Modafinil
_chemical_formula_moiety         'C15 H15 N1 O2 S1'
_chemical_name_systematic        (R)-2-((diphenylmethyl)sulfinyl)acetamide
_chemical_properties_biological  'wake-promoting agent'
_symmetry_cell_setting           monoclinic
_symmetry_space_group_name_H-M   'P 21'
_symmetry_Int_Tables_number      4
_space_group_name_Hall           'P 2yb'
loop_
_symmetry_equiv_pos_site_id
_symmetry_equiv_pos_as_xyz
1 x,y,z
2 -x,1/2+y,-z
_cell_length_a                   5.6324(3)
_cell_length_b                   26.1594(16)
_cell_length_c                   9.3139(5)
_cell_angle_alpha                90
_cell_angle_beta                 105.6796(19)
_cell_angle_gamma                90
_cell_volume                     1321.25
_exptl_crystal_colour            colorless
_exptl_crystal_description       block
_cell_formula_units_Z            4
loop_
_atom_site_label
_atom_site_type_symbol
_atom_site_fract_x
_atom_site_fract_y
_atom_site_fract_z
C1 C 0.1962(5) 0.32545(11) 0.4458(3)
H1 H 0.0699 0.3485 0.4533
C2 C 0.2341(6) 0.28076(11) 0.5304(3)
H2 H 0.1318 0.2732 0.5937
C3 C 0.4197(6) 0.24738(11) 0.5224(3)
H3 H 0.4478 0.2174 0.5822
C4 C 0.5659(6) 0.25756(11) 0.4270(3)
H4 H 0.6922 0.2343 0.4204
C5 C 0.5265(5) 0.30190(11) 0.3412(3)
H5 H 0.6259 0.3087 0.2756
C6 C 0.3421(5) 0.33654(10) 0.3505(3)
C7 C 0.3024(5) 0.38639(10) 0.2638(3)
H6 H 0.1846 0.4078 0.301
C8 C 0.2045(5) 0.38164(10) 0.0958(3)
C9 C -0.0277(5) 0.40176(11) 0.0255(3)
H7 H -0.1209 0.418 0.0836
C10 C -0.1234(6) 0.39833(12) -0.1272(3)
H8 H -0.2822 0.4119 -0.1732
C11 C 0.0111(5) 0.37518(11) -0.2135(3)
H9 H -0.055 0.3726 -0.3185
C12 C 0.2429(6) 0.35576(12) -0.1454(3)
H10 H 0.3368 0.3403 -0.2045
C13 C 0.3402(5) 0.35861(11) 0.0089(3)
H11 H 0.4987 0.3449 0.0545
C14 C 0.5052(5) 0.48040(10) 0.2280(3)
H12 H 0.3887 0.476 0.1281
H13 H 0.4225 0.5002 0.2911
C15 C 0.7381(5) 0.50761(10) 0.2161(3)
N1 N 0.7132(5) 0.53908(11) 0.1028(3)
H14 H 0.8426 0.5553 0.0897
H15 H 0.5671 0.5439 0.0401
O1 O 0.6770(3) 0.42638(8) 0.47771(19)
O2 O 0.9379(4) 0.49936(10) 0.3074(3)
S1 S 0.60469(11) 0.41878(2) 0.31185(6)
C16 C -0.0008(5) 0.64311(11) 0.5076(3)
H16 H -0.1268 0.6548 0.5498
C17 C -0.0304(6) 0.64787(12) 0.3546(3)
H17 H -0.1766 0.6628 0.2933
C18 C 0.1517(6) 0.63101(11) 0.2912(3)
H18 H 0.1324 0.635 0.1873
C19 C 0.3627(6) 0.60826(12) 0.3812(3)
H19 H 0.4872 0.596 0.3386
C20 C 0.3917(5) 0.60342(11) 0.5341(3)
H20 H 0.536 0.5877 0.5949
C21 C 0.2126(5) 0.62135(10) 0.5985(3)
C22 C 0.2573(5) 0.61602(10) 0.7676(3)
H21 H 0.4219 0.5994 0.8076
C23 C 0.2574(5) 0.66495(10) 0.8552(3)
C24 C 0.4735(5) 0.67976(11) 0.9591(3)
H22 H 0.6188 0.6598 0.972
C25 C 0.4782(6) 0.72371(11) 1.0446(3)
H23 H 0.6271 0.7336 1.115
C26 C 0.2689(6) 0.75300(11) 1.0281(3)
H24 H 0.2735 0.7829 1.0868
C27 C 0.0513(6) 0.73854(11) 0.9250(3)
H25 H -0.0937 0.7585 0.9131
C28 C 0.0458(6) 0.69482(11) 0.8392(3)
H26 H -0.1035 0.6851 0.7689
C29 C 0.0319(5) 0.51872(10) 0.7019(3)
H27 H -0.0634 0.4914 0.7344
H28 H -0.0561 0.5273 0.5975
C30 C 0.2829(5) 0.49681(10) 0.7024(3)
N2 N 0.2783(5) 0.46863(10) 0.5839(3)
H29 H 0.4148 0.4544 0.5744
H30 H 0.1389 0.4641 0.5144
O3 O 0.1337(4) 0.56015(8) 0.9751(2)
O4 O 0.4705(4) 0.50464(9) 0.8033(2)
S2 S 0.02535(12) 0.57426(2) 0.81467(7)
loop_
_geom_bond_atom_site_label_1
_geom_bond_atom_site_label_2
_geom_bond_site_symmetry_1
_geom_bond_site_symmetry_2
C1 H1 1_555 1_555
C2 C1 1_555 1_555
H2 C2 1_555 1_555
C3 C2 1_555 1_555
H3 C3 1_555 1_555
C4 C3 1_555 1_555
H4 C4 1_555 1_555
C5 C4 1_555 1_555
H5 C5 1_555 1_555
C6 C1 1_555 1_555
C7 C6 1_555 1_555
H6 C7 1_555 1_555
C8 C7 1_555 1_555
C9 C8 1_555 1_555
H7 C9 1_555 1_555
C10 C9 1_555 1_555
H8 C10 1_555 1_555
C11 C10 1_555 1_555
H9 C11 1_555 1_555
C12 C11 1_555 1_555
H10 C12 1_555 1_555
C13 C8 1_555 1_555
H11 C13 1_555 1_555
C14 H12 1_555 1_555
H13 C14 1_555 1_555
C15 C14 1_555 1_555
N1 C15 1_555 1_555
H14 N1 1_555 1_555
H15 N1 1_555 1_555
O1 S1 1_555 1_555
O2 C15 1_555 1_555
S1 C7 1_555 1_555
C16 H16 1_555 1_555
C17 C16 1_555 1_555
H17 C17 1_555 1_555
C18 C17 1_555 1_555
H18 C18 1_555 1_555
C19 C18 1_555 1_555
H19 C19 1_555 1_555
C20 C19 1_555 1_555
H20 C20 1_555 1_555
C21 C16 1_555 1_555
C22 C21 1_555 1_555
H21 C22 1_555 1_555
C23 C22 1_555 1_555
C24 C23 1_555 1_555
H22 C24 1_555 1_555
C25 C24 1_555 1_555
H23 C25 1_555 1_555
C26 C25 1_555 1_555
H24 C26 1_555 1_555
C27 C26 1_555 1_555
H25 C27 1_555 1_555
C28 C23 1_555 1_555
H26 C28 1_555 1_555
C29 H27 1_555 1_555
H28 C29 1_555 1_555
C30 C29 1_555 1_555
N2 C30 1_555 1_555
H29 N2 1_555 1_555
H30 N2 1_555 1_555
O3 S2 1_555 1_555
O4 C30 1_555 1_555
S2 C22 1_555 1_555
C5 C6 1_555 1_555
C12 C13 1_555 1_555
C14 S1 1_555 1_555
C20 C21 1_555 1_555
C27 C28 1_555 1_555
C29 S2 1_555 1_555

#END
