
#######################################################################
#
#                 Cambridge Crystallographic Data Centre
#                                CCDC 
#
#######################################################################
#
# If this CIF has been generated from an entry in the Cambridge 
# Structural Database, then it will include bibliographic, chemical, 
# crystal, experimental, refinement or atomic coordinate data resulting 
# from the CCDC's data processing and validation procedures.
#
#######################################################################

data_ABIRAH
_chemical_formula_moiety         'C7 H14 N1 O1 1+,I1 1-'
_chemical_name_systematic        
'(R)-3-hydroxy-1-azoniabicyclo[2.2.2]octane iodide'
_symmetry_cell_setting           tetragonal
_symmetry_space_group_name_H-M   'P 41'
_symmetry_Int_Tables_number      76
_space_group_name_Hall           'P 4w'
loop_
_symmetry_equiv_pos_site_id
_symmetry_equiv_pos_as_xyz
1 x,y,z
2 -x,-y,1/2+z
3 -y,x,1/4+z
4 y,-x,3/4+z
_cell_length_a                   6.8545(10)
_cell_length_b                   6.8545(10)
_cell_length_c                   18.778(4)
_cell_angle_alpha                90
_cell_angle_beta                 90
_cell_angle_gamma                90
_cell_volume                     882.269
_exptl_crystal_colour            colorless
_exptl_crystal_description       block
_cell_formula_units_Z            4
loop_
_atom_site_label
_atom_site_type_symbol
_atom_site_fract_x
_atom_site_fract_y
_atom_site_fract_z
O1 O 0.049(3) 0.081(3) 0.1053(11)
H1 H 0.1538 0.0172 0.1117
C1 C -0.061(3) 0.623(3) 0.2076(11)
H2 H -0.1302 0.7367 0.1901
H3 H 0.0005 0.6556 0.2526
C2 C -0.179(4) 0.420(4) 0.0902(13)
H4 H -0.2949 0.5013 0.0918
H5 H -0.1895 0.3368 0.0486
N1 N 0.087(3) 0.558(3) 0.1550(8)
H6 H 0.1922 0.6547 0.1542
C3 C -0.001(4) 0.550(4) 0.0821(12)
H7 H 0.0899 0.4947 0.0481
H8 H -0.0386 0.6792 0.0662
C4 C -0.174(4) 0.297(3) 0.1539(13)
H9 H -0.2796 0.2008 0.1533
C5 C -0.202(4) 0.448(3) 0.2167(11)
H10 H -0.3354 0.4952 0.2171
H11 H -0.1766 0.3845 0.2618
C6 C 0.015(3) 0.205(3) 0.1666(13)
H12 H 0.0070 0.1245 0.2096
C7 C 0.174(3) 0.365(3) 0.1771(11)
H13 H 0.2143 0.3706 0.2266
H14 H 0.2876 0.3362 0.1481
I1 I 0.4530(3) -0.1477(3) 0.13899(17)
loop_
_geom_bond_atom_site_label_1
_geom_bond_atom_site_label_2
_geom_bond_site_symmetry_1
_geom_bond_site_symmetry_2
O1 H1 1_555 1_555
C1 H2 1_555 1_555
H3 C1 1_555 1_555
C2 H4 1_555 1_555
H5 C2 1_555 1_555
N1 C1 1_555 1_555
H6 N1 1_555 1_555
C3 C2 1_555 1_555
H7 C3 1_555 1_555
H8 C3 1_555 1_555
C4 C2 1_555 1_555
H9 C4 1_555 1_555
C5 C1 1_555 1_555
H10 C5 1_555 1_555
H11 C5 1_555 1_555
C6 O1 1_555 1_555
H12 C6 1_555 1_555
C7 N1 1_555 1_555
H13 C7 1_555 1_555
H14 C7 1_555 1_555
N1 C3 1_555 1_555
C4 C5 1_555 1_555
C4 C6 1_555 1_555
C6 C7 1_555 1_555

#END
