
#######################################################################
#
#                 Cambridge Crystallographic Data Centre
#                                CCDC 
#
#######################################################################
#
# If this CIF has been generated from an entry in the Cambridge 
# Structural Database, then it will include bibliographic, chemical, 
# crystal, experimental, refinement or atomic coordinate data resulting 
# from the CCDC's data processing and validation procedures.
#
#######################################################################

data_ABITUD
_chemical_name_common            
2-ethyl-5-hydroxy-1-methylbenzo[c]pyrrolo[2,1-f][1,2]azaborinin-3(5H)-one
_chemical_formula_moiety         'C14 H14 B1 N1 O2'
_chemical_name_systematic        
2-ethyl-5-hydroxy-1-methylpyrrolo[1,2-b][2,1]benzazaborinin-3(5H)-one
_symmetry_cell_setting           triclinic
_symmetry_space_group_name_H-M   'P -1'
_symmetry_Int_Tables_number      2
_space_group_name_Hall           '-P 1'
loop_
_symmetry_equiv_pos_site_id
_symmetry_equiv_pos_as_xyz
1 x,y,z
2 -x,-y,-z
_cell_length_a                   7.4434(5)
_cell_length_b                   8.1430(5)
_cell_length_c                   10.3466(6)
_cell_angle_alpha                73.1530(10)
_cell_angle_beta                 83.8130(10)
_cell_angle_gamma                82.0180(10)
_cell_volume                     592.884
_exptl_crystal_colour            colorless
_exptl_crystal_description       rod
_chemical_melting_point          '391.15-393.15 K'
_cell_formula_units_Z            2
_exptl_crystal_recrystallization_method 'Vapour deposition'
_exptl_crystal_preparation       ', Luminescent'
loop_
_atom_site_label
_atom_site_type_symbol
_atom_site_fract_x
_atom_site_fract_y
_atom_site_fract_z
O1 O 0.80889(15) 0.69556(15) 1.11625(12)
H1 H 0.8838 0.6542 1.0640
N1 N 0.60651(16) 0.69484(16) 0.94312(13)
C1 C 0.7283(2) 0.62809(18) 0.85303(16)
B1 B 0.6428(2) 0.7318(2) 1.06561(18)
O2 O 0.89104(15) 0.58670(15) 0.86838(12)
C2 C 0.6237(2) 0.62042(19) 0.74160(16)
C3 C 0.4478(2) 0.67786(19) 0.76801(15)
C4 C 0.43212(19) 0.72503(18) 0.89484(15)
C5 C 0.28620(19) 0.78731(18) 0.96298(15)
H2 H 0.1696 0.8014 0.9292
C6 C 0.3025(2) 0.83352(18) 1.08692(15)
C7 C 0.1492(2) 0.89930(19) 1.15559(16)
H3 H 0.0324 0.9107 1.1228
C8 C 0.1671(2) 0.9476(2) 1.27080(17)
H4 H 0.0629 0.9935 1.3160
C9 C 0.3379(2) 0.9290(2) 1.32099(17)
H5 H 0.3501 0.9631 1.3997
C10 C 0.4890(2) 0.8609(2) 1.25564(16)
H6 H 0.6045 0.8470 1.2910
C11 C 0.4753(2) 0.81189(18) 1.13833(15)
C12 C 0.7121(2) 0.5603(2) 0.62406(17)
H7 H 0.6166 0.5407 0.5724
H8 H 0.7871 0.4486 0.6585
C13 C 0.8322(2) 0.6886(2) 0.52885(17)
H9 H 0.8864 0.6427 0.4540
H10 H 0.7584 0.7988 0.4927
H11 H 0.9290 0.7067 0.5788
C14 C 0.2894(2) 0.6979(2) 0.68534(17)
H12 H 0.1794 0.7426 0.7312
H13 H 0.3122 0.7789 0.5961
H14 H 0.2726 0.5855 0.6745
loop_
_geom_bond_atom_site_label_1
_geom_bond_atom_site_label_2
_geom_bond_site_symmetry_1
_geom_bond_site_symmetry_2
O1 H1 1_555 1_555
N1 C1 1_555 1_555
C1 O2 1_555 1_555
B1 O1 1_555 1_555
C2 C1 1_555 1_555
C3 C2 1_555 1_555
C4 N1 1_555 1_555
C5 C4 1_555 1_555
H2 C5 1_555 1_555
C6 C5 1_555 1_555
C7 C6 1_555 1_555
H3 C7 1_555 1_555
C8 C7 1_555 1_555
H4 C8 1_555 1_555
C9 C8 1_555 1_555
H5 C9 1_555 1_555
C10 C9 1_555 1_555
H6 C10 1_555 1_555
C11 B1 1_555 1_555
C12 C2 1_555 1_555
H7 C12 1_555 1_555
H8 C12 1_555 1_555
C13 C12 1_555 1_555
H9 C13 1_555 1_555
H10 C13 1_555 1_555
H11 C13 1_555 1_555
C14 C3 1_555 1_555
H12 C14 1_555 1_555
H13 C14 1_555 1_555
H14 C14 1_555 1_555
N1 B1 1_555 1_555
C3 C4 1_555 1_555
C6 C11 1_555 1_555
C10 C11 1_555 1_555

#END
