
#######################################################################
#
#                 Cambridge Crystallographic Data Centre
#                                CCDC 
#
#######################################################################
#
# If this CIF has been generated from an entry in the Cambridge 
# Structural Database, then it will include bibliographic, chemical, 
# crystal, experimental, refinement or atomic coordinate data resulting 
# from the CCDC's data processing and validation procedures.
#
#######################################################################

data_ABIVEP
_chemical_formula_moiety         'C15 H20 O3'
_chemical_name_systematic        
3a-methoxy-3,3a,4a,5,6,7,7a,8,9b,9c-decahydrophenanthro[4,5-bcd]furan-3-ol
_symmetry_cell_setting           triclinic
_symmetry_space_group_name_H-M   'P -1'
_symmetry_Int_Tables_number      2
_space_group_name_Hall           '-P 1'
loop_
_symmetry_equiv_pos_site_id
_symmetry_equiv_pos_as_xyz
1 x,y,z
2 -x,-y,-z
_cell_length_a                   6.7727(2)
_cell_length_b                   8.6658(3)
_cell_length_c                   10.6659(3)
_cell_angle_alpha                94.6390(10)
_cell_angle_beta                 90.5730(10)
_cell_angle_gamma                99.5660(10)
_cell_volume                     615.089
_exptl_crystal_colour            colorless
_exptl_crystal_description       block
_cell_formula_units_Z            2
loop_
_atom_site_label
_atom_site_type_symbol
_atom_site_fract_x
_atom_site_fract_y
_atom_site_fract_z
O1 O 0.24403(12) 0.56873(10) 0.27363(8)
O2 O 0.57361(12) 0.59159(10) 0.35236(8)
O3 O 0.25628(14) 0.64022(11) 0.54576(9)
H1 H 0.335(3) 0.581(2) 0.5664(16)
C1 C 0.25273(19) 0.96754(14) 0.35572(12)
H2 H 0.175(2) 1.0521(19) 0.3508(14)
C2 C 0.21670(18) 0.86624(15) 0.44351(11)
H3 H 0.107(2) 0.8667(18) 0.5035(15)
C3 C 0.35096(18) 0.74707(14) 0.46290(11)
H4 H 0.477(2) 0.8051(18) 0.5010(14)
C4 C 0.40576(16) 0.67135(13) 0.33505(11)
C5 C 0.73546(17) 0.64787(14) 0.26844(11)
H5 H 0.861(2) 0.6417(18) 0.3144(14)
C6 C 0.7205(2) 0.55008(15) 0.14233(12)
H6 H 0.582(3) 0.5281(19) 0.1116(15)
H7 H 0.766(2) 0.448(2) 0.1528(15)
C7 C 0.8463(2) 0.64040(16) 0.04457(12)
H8 H 0.985(3) 0.662(2) 0.0734(16)
H9 H 0.840(3) 0.577(2) -0.0356(17)
C8 C 0.7755(2) 0.79562(15) 0.02610(12)
H10 H 0.630(2) 0.7733(19) -0.0035(15)
H11 H 0.852(2) 0.8469(19) -0.0406(16)
C9 C 0.7118(2) 1.05830(15) 0.13977(13)
H12 H 0.814(3) 1.148(2) 0.1709(15)
H13 H 0.684(2) 1.070(2) 0.0500(16)
C10 C 0.52670(19) 1.07408(14) 0.21489(11)
H14 H 0.495(2) 1.178(2) 0.2293(15)
C11 C 0.41696(18) 0.95584(14) 0.26908(11)
C12 C 0.47845(16) 0.79752(13) 0.24686(10)
H15 H 0.428(2) 0.7523(17) 0.1629(14)
C13 C 0.70609(17) 0.81618(14) 0.25695(11)
H16 H 0.749(2) 0.8760(18) 0.3398(14)
C14 C 0.80004(18) 0.90382(14) 0.14801(11)
H17 H 0.948(2) 0.9351(18) 0.1643(14)
C15 C 0.1871(2) 0.41747(15) 0.31965(14)
H18 H 0.121(3) 0.352(2) 0.2533(18)
H19 H 0.097(3) 0.418(2) 0.3830(18)
H20 H 0.298(3) 0.376(2) 0.3570(17)
loop_
_geom_bond_atom_site_label_1
_geom_bond_atom_site_label_2
_geom_bond_site_symmetry_1
_geom_bond_site_symmetry_2
O1 C4 1_555 1_555
O2 C4 1_555 1_555
O3 H1 1_555 1_555
C1 H2 1_555 1_555
C2 C1 1_555 1_555
H3 C2 1_555 1_555
C3 O3 1_555 1_555
H4 C3 1_555 1_555
C4 C3 1_555 1_555
C5 O2 1_555 1_555
H5 C5 1_555 1_555
C6 C5 1_555 1_555
H6 C6 1_555 1_555
H7 C6 1_555 1_555
C7 C6 1_555 1_555
H8 C7 1_555 1_555
H9 C7 1_555 1_555
C8 C7 1_555 1_555
H10 C8 1_555 1_555
H11 C8 1_555 1_555
C9 H12 1_555 1_555
H13 C9 1_555 1_555
C10 C9 1_555 1_555
H14 C10 1_555 1_555
C11 C1 1_555 1_555
C12 C4 1_555 1_555
H15 C12 1_555 1_555
C13 C5 1_555 1_555
H16 C13 1_555 1_555
C14 C8 1_555 1_555
H17 C14 1_555 1_555
C15 O1 1_555 1_555
H18 C15 1_555 1_555
H19 C15 1_555 1_555
H20 C15 1_555 1_555
C2 C3 1_555 1_555
C9 C14 1_555 1_555
C10 C11 1_555 1_555
C11 C12 1_555 1_555
C12 C13 1_555 1_555
C13 C14 1_555 1_555

#END
