
#######################################################################
#
#                 Cambridge Crystallographic Data Centre
#                                CCDC 
#
#######################################################################
#
# If this CIF has been generated from an entry in the Cambridge 
# Structural Database, then it will include bibliographic, chemical, 
# crystal, experimental, refinement or atomic coordinate data resulting 
# from the CCDC's data processing and validation procedures.
#
#######################################################################

data_ABIVOZ
_chemical_formula_moiety         'C16 H18 O4'
_chemical_name_systematic        
'3-oxo-4a,5,6,7,7a,8,9b,9c-octahydrophenanthro[4,5-bcd]furan-3a(3H)-yl acetate'
_symmetry_cell_setting           monoclinic
_symmetry_space_group_name_H-M   'P 21/c'
_symmetry_Int_Tables_number      14
_space_group_name_Hall           '-P 2ybc'
loop_
_symmetry_equiv_pos_site_id
_symmetry_equiv_pos_as_xyz
1 x,y,z
2 -x,1/2+y,1/2-z
3 -x,-y,-z
4 x,1/2-y,1/2+z
_cell_length_a                   11.9547(16)
_cell_length_b                   9.8218(14)
_cell_length_c                   11.9089(15)
_cell_angle_alpha                90
_cell_angle_beta                 107.733(4)
_cell_angle_gamma                90
_cell_volume                     1331.86
_exptl_crystal_colour            colorless
_exptl_crystal_description       Block
_cell_formula_units_Z            4
loop_
_atom_site_label
_atom_site_type_symbol
_atom_site_fract_x
_atom_site_fract_y
_atom_site_fract_z
O1 O 0.84435(8) 0.02017(9) 0.44799(8)
O2 O 0.71154(10) 0.18839(11) 0.23710(9)
O3 O 0.80073(8) 0.24094(9) 0.47627(8)
O4 O 0.62126(9) 0.33726(10) 0.41738(9)
C1 C 0.74963(11) 0.10795(13) 0.43556(12)
C2 C 0.67933(13) 0.11467(14) 0.30375(12)
C3 C 0.57922(13) 0.02326(15) 0.26506(13)
H1 H 0.5321 0.0250 0.1848
C4 C 0.55162(12) -0.06339(15) 0.33947(13)
H2 H 0.4876 -0.1239 0.3085
C5 C 0.61400(11) -0.06994(14) 0.46459(12)
C6 C 0.60923(12) -0.18130(14) 0.52759(13)
H3 H 0.5564 -0.2514 0.4897
C7 C 0.68033(13) -0.20377(15) 0.65252(14)
H4 H 0.7257 -0.2890 0.6567
H5 H 0.6259 -0.2178 0.6996
C8 C 0.76696(13) -0.08879(15) 0.71082(12)
H6 H 0.7325 -0.0397 0.7661
C9 C 0.88603(14) -0.14585(17) 0.78484(13)
H7 H 0.8733 -0.2111 0.8431
H8 H 0.9349 -0.0703 0.8289
C10 C 0.95314(14) -0.21831(16) 0.70960(13)
H9 H 1.0382 -0.1999 0.7441
H10 H 0.9413 -0.3178 0.7131
C11 C 0.91401(12) -0.17313(14) 0.57977(12)
H11 H 0.9769 -0.1931 0.5440
H12 H 0.8429 -0.2243 0.5355
C12 C 0.88795(11) -0.02246(14) 0.57204(11)
H13 H 0.9615 0.0288 0.6123
C13 C 0.79098(12) 0.01842(14) 0.62681(12)
H14 H 0.8165 0.1042 0.6728
C14 C 0.68650(11) 0.05296(13) 0.51907(11)
H15 H 0.6361 0.1248 0.5387
C15 C 0.72558(12) 0.34620(14) 0.46485(12)
C16 C 0.78874(14) 0.47247(15) 0.52003(13)
H16 H 0.8617 0.4815 0.4993
H17 H 0.8071 0.4667 0.6059
H18 H 0.7387 0.5519 0.4910
loop_
_geom_bond_atom_site_label_1
_geom_bond_atom_site_label_2
_geom_bond_site_symmetry_1
_geom_bond_site_symmetry_2
O1 C1 1_555 1_555
O2 C2 1_555 1_555
O3 C1 1_555 1_555
O4 C15 1_555 1_555
C1 C2 1_555 1_555
C2 C3 1_555 1_555
C3 H1 1_555 1_555
C4 C3 1_555 1_555
H2 C4 1_555 1_555
C5 C4 1_555 1_555
C6 C5 1_555 1_555
H3 C6 1_555 1_555
C7 C6 1_555 1_555
H4 C7 1_555 1_555
H5 C7 1_555 1_555
C8 C7 1_555 1_555
H6 C8 1_555 1_555
C9 C8 1_555 1_555
H7 C9 1_555 1_555
H8 C9 1_555 1_555
C10 C9 1_555 1_555
H9 C10 1_555 1_555
H10 C10 1_555 1_555
C11 C10 1_555 1_555
H11 C11 1_555 1_555
H12 C11 1_555 1_555
C12 O1 1_555 1_555
H13 C12 1_555 1_555
C13 C8 1_555 1_555
H14 C13 1_555 1_555
C14 C1 1_555 1_555
H15 C14 1_555 1_555
C15 O3 1_555 1_555
C16 C15 1_555 1_555
H16 C16 1_555 1_555
H17 C16 1_555 1_555
H18 C16 1_555 1_555
C5 C14 1_555 1_555
C11 C12 1_555 1_555
C12 C13 1_555 1_555
C13 C14 1_555 1_555

#END
