
#######################################################################
#
#                 Cambridge Crystallographic Data Centre
#                                CCDC 
#
#######################################################################
#
# If this CIF has been generated from an entry in the Cambridge 
# Structural Database, then it will include bibliographic, chemical, 
# crystal, experimental, refinement or atomic coordinate data resulting 
# from the CCDC's data processing and validation procedures.
#
#######################################################################

data_ABIXUF
_chemical_formula_moiety         'C24 H22 N2 O2 Se1'
_chemical_name_systematic        
5-t-Butyl-2-phenyl-7-(phenylcarbamoyl)benzisoselenazol-3(2H)-one
_chemical_properties_biological  'poor glutathione peroxidase-like activity'
_symmetry_cell_setting           monoclinic
_symmetry_space_group_name_H-M   'I 2/a'
_symmetry_Int_Tables_number      15
_space_group_name_Hall           '-I 2ya'
loop_
_symmetry_equiv_pos_site_id
_symmetry_equiv_pos_as_xyz
1 x,y,z
2 1/2+x,1/2+y,1/2+z
3 1/2+x,-y,z
4 x,1/2-y,1/2+z
5 -x,-y,-z
6 1/2-x,1/2-y,1/2-z
7 1/2-x,y,-z
8 -x,1/2+y,1/2-z
_cell_length_a                   18.5372(11)
_cell_length_b                   12.5770(10)
_cell_length_c                   19.9907(12)
_cell_angle_alpha                90
_cell_angle_beta                 115.284(6)
_cell_angle_gamma                90
_cell_volume                     4214.19
_exptl_crystal_colour            colorless
_exptl_crystal_description       plate
_chemical_melting_point          '304-306 deg.C'
_cell_formula_units_Z            8
loop_
_atom_site_label
_atom_site_type_symbol
_atom_site_fract_x
_atom_site_fract_y
_atom_site_fract_z
Se1 Se 0.797970(16) 0.22027(2) 0.608679(14)
O1 O 0.87832(11) 0.40140(14) 0.79015(10)
O2 O 0.84995(11) 0.08254(17) 0.55562(10)
N1 N 0.79625(12) 0.32343(17) 0.67851(12)
N2 N 0.96408(12) -0.01260(15) 0.58775(10)
H1 H 1.0108 -0.0221 0.6230
C1 C 0.90307(14) 0.19968(18) 0.67650(13)
C2 C 0.95420(14) 0.1250(2) 0.66881(12)
C3 C 1.03076(14) 0.1175(2) 0.72486(13)
H2 H 1.0652 0.0667 0.7209
C4 C 1.05817(15) 0.1832(2) 0.78716(13)
C5 C 1.00467(15) 0.25614(19) 0.79269(13)
H3 H 1.0210 0.3003 0.8339
C6 C 0.92770(14) 0.26420(19) 0.73807(13)
C7 C 0.86639(14) 0.3371(2) 0.74016(13)
C8 C 0.72501(15) 0.3816(2) 0.66387(16)
C9 C 0.70556(18) 0.4122(2) 0.71993(19)
H4 H 0.7387 0.3944 0.7687
C10 C 0.6361(2) 0.4700(3) 0.7037(2)
H5 H 0.6231 0.4921 0.7416
C11 C 0.5865(2) 0.4944(3) 0.6313(2)
H6 H 0.5395 0.5317 0.6203
C12 C 0.6062(2) 0.4639(3) 0.5755(2)
H7 H 0.5728 0.4814 0.5268
C13 C 0.67542(18) 0.4071(3) 0.59122(18)
H8 H 0.6886 0.3862 0.5532
C14 C 0.91936(15) 0.0622(2) 0.59915(13)
C15 C 0.94384(15) -0.07805(18) 0.52470(13)
C16 C 0.99682(18) -0.1579(2) 0.52954(15)
H9 H 1.0436 -0.1664 0.5725
C17 C 0.9800(2) -0.2250(2) 0.47018(17)
H10 H 1.0152 -0.2798 0.4740
C18 C 0.9128(2) -0.2126(2) 0.40609(16)
H11 H 0.9021 -0.2581 0.3663
C19 C 0.8611(2) -0.1318(2) 0.40119(15)
H12 H 0.8153 -0.1226 0.3574
C20 C 0.87553(17) -0.0640(2) 0.45964(14)
H13 H 0.8399 -0.0096 0.4555
C21 C 1.14304(15) 0.1713(3) 0.84751(14)
C22 C 1.1689(2) 0.2684(3) 0.8981(2)
H14 H 1.2255 0.2659 0.9276
H15 H 1.1421 0.2684 0.9299
H16 H 1.1554 0.3319 0.8686
C23 C 1.1454(2) 0.0713(4) 0.8921(2)
H17 H 1.1276 0.0113 0.8593
H18 H 1.1111 0.0807 0.9164
H19 H 1.1990 0.0591 0.9283
C24 C 1.20174(16) 0.1578(3) 0.81337(17)
H20 H 1.1874 0.0963 0.7819
H21 H 1.2546 0.1489 0.8519
H22 H 1.2002 0.2197 0.7847
loop_
_geom_bond_atom_site_label_1
_geom_bond_atom_site_label_2
_geom_bond_site_symmetry_1
_geom_bond_site_symmetry_2
Se1 N1 1_555 1_555
O1 C7 1_555 1_555
O2 C14 1_555 1_555
N1 C7 1_555 1_555
N2 H1 1_555 1_555
C1 Se1 1_555 1_555
C2 C1 1_555 1_555
C3 C2 1_555 1_555
H2 C3 1_555 1_555
C4 C3 1_555 1_555
C5 C4 1_555 1_555
H3 C5 1_555 1_555
C6 C1 1_555 1_555
C7 C6 1_555 1_555
C8 N1 1_555 1_555
C9 C8 1_555 1_555
H4 C9 1_555 1_555
C10 C9 1_555 1_555
H5 C10 1_555 1_555
C11 C10 1_555 1_555
H6 C11 1_555 1_555
C12 C11 1_555 1_555
H7 C12 1_555 1_555
C13 C8 1_555 1_555
H8 C13 1_555 1_555
C14 N2 1_555 1_555
C15 N2 1_555 1_555
C16 C15 1_555 1_555
H9 C16 1_555 1_555
C17 C16 1_555 1_555
H10 C17 1_555 1_555
C18 C17 1_555 1_555
H11 C18 1_555 1_555
C19 C18 1_555 1_555
H12 C19 1_555 1_555
C20 C15 1_555 1_555
H13 C20 1_555 1_555
C21 C4 1_555 1_555
C22 C21 1_555 1_555
H14 C22 1_555 1_555
H15 C22 1_555 1_555
H16 C22 1_555 1_555
C23 C21 1_555 1_555
H17 C23 1_555 1_555
H18 C23 1_555 1_555
H19 C23 1_555 1_555
C24 C21 1_555 1_555
H20 C24 1_555 1_555
H21 C24 1_555 1_555
H22 C24 1_555 1_555
C2 C14 1_555 1_555
C5 C6 1_555 1_555
C12 C13 1_555 1_555
C19 C20 1_555 1_555

#END
