
#######################################################################
#
#                 Cambridge Crystallographic Data Centre
#                                CCDC 
#
#######################################################################
#
# If this CIF has been generated from an entry in the Cambridge 
# Structural Database, then it will include bibliographic, chemical, 
# crystal, experimental, refinement or atomic coordinate data resulting 
# from the CCDC's data processing and validation procedures.
#
#######################################################################

data_ABIYUI
_chemical_formula_moiety         'C25 H19 Br1 I1 N1'
_chemical_name_systematic        
7-bromo-8-iodo-10-methyl-9,9-diphenyl-6,9-dihydropyrido[1,2-a]indole
_symmetry_cell_setting           monoclinic
_symmetry_space_group_name_H-M   'P 21/c'
_symmetry_Int_Tables_number      14
_space_group_name_Hall           '-P 2ybc'
loop_
_symmetry_equiv_pos_site_id
_symmetry_equiv_pos_as_xyz
1 x,y,z
2 -x,1/2+y,1/2-z
3 -x,-y,-z
4 x,1/2-y,1/2+z
_cell_length_a                   10.8314(6)
_cell_length_b                   12.0828(5)
_cell_length_c                   15.5269(6)
_cell_angle_alpha                90
_cell_angle_beta                 90.132(5)
_cell_angle_gamma                90
_cell_volume                     2032.06
_exptl_crystal_colour            colorless
_exptl_crystal_description       block
_cell_formula_units_Z            4
loop_
_atom_site_label
_atom_site_type_symbol
_atom_site_fract_x
_atom_site_fract_y
_atom_site_fract_z
I1 I 0.38091(4) 0.74683(3) 0.12028(2)
Br1 Br 0.62923(5) 0.63209(4) 0.00959(4)
C1 C 0.4749(4) 0.6581(3) -0.0468(3)
C2 C 0.2635(4) 0.7386(3) -0.0649(3)
C3 C 0.2826(4) 0.8561(3) -0.1042(3)
C4 C 0.3171(4) 0.5267(3) -0.2317(3)
C5 C 0.3804(4) 0.7078(3) -0.0110(3)
C6 C 0.2488(4) 0.6533(3) -0.1368(3)
C7 C 0.4762(4) 0.6165(4) -0.1373(3)
H1 H 0.5174 0.6698 -0.1740
H2 H 0.5217 0.5475 -0.1399
C8 C 0.1478(4) 0.7346(3) -0.0077(3)
N1 N 0.3527(3) 0.5992(3) -0.1675(2)
C9 C 0.1466(4) 0.6189(3) -0.1822(3)
C10 C 0.0759(5) 0.8253(4) 0.0095(3)
H3 H 0.0970 0.8933 -0.0143
C11 C 0.2428(4) 0.8799(4) -0.1874(3)
H4 H 0.2088 0.8239 -0.2210
C12 C 0.1895(4) 0.5369(3) -0.2423(3)
C13 C 0.0141(4) 0.6599(4) -0.1789(3)
H5 H -0.0246 0.6330 -0.1275
H6 H -0.0301 0.6331 -0.2284
H7 H 0.0135 0.7393 -0.1789
C14 C 0.3888(5) 0.4545(3) -0.2805(3)
H8 H 0.4736 0.4485 -0.2722
C15 C 0.1316(5) 0.4711(4) -0.3047(3)
H9 H 0.0466 0.4754 -0.3129
C16 C 0.3416(5) 1.0479(4) -0.0901(4)
H10 H 0.3752 1.1043 -0.0567
C17 C 0.3278(5) 0.3923(4) -0.3418(3)
H11 H 0.3728 0.3438 -0.3760
C18 C 0.3313(5) 0.9418(3) -0.0565(3)
H12 H 0.3579 0.9283 -0.0004
C19 C 0.3027(5) 1.0698(4) -0.1721(4)
H13 H 0.3097 1.1409 -0.1945
C20 C -0.0271(5) 0.8179(4) 0.0614(3)
H14 H -0.0743 0.8806 0.0721
C21 C 0.0113(5) 0.6268(4) 0.0801(3)
H15 H -0.0106 0.5588 0.1036
C22 C 0.2532(5) 0.9862(4) -0.2211(4)
H16 H 0.2265 1.0007 -0.2770
C23 C -0.0602(5) 0.7181(5) 0.0975(3)
H17 H -0.1293 0.7126 0.1327
C24 C 0.1140(5) 0.6335(4) 0.0291(3)
H18 H 0.1613 0.5707 0.0189
C25 C 0.2013(6) 0.4001(4) -0.3539(3)
H19 H 0.1631 0.3569 -0.3957
loop_
_geom_bond_atom_site_label_1
_geom_bond_atom_site_label_2
_geom_bond_site_symmetry_1
_geom_bond_site_symmetry_2
I1 C5 1_555 1_555
Br1 C1 1_555 1_555
C1 C5 1_555 1_555
C2 C3 1_555 1_555
C3 C11 1_555 1_555
C4 N1 1_555 1_555
C5 C2 1_555 1_555
C6 C2 1_555 1_555
C7 C1 1_555 1_555
H1 C7 1_555 1_555
H2 C7 1_555 1_555
C8 C2 1_555 1_555
N1 C6 1_555 1_555
C9 C6 1_555 1_555
C10 C8 1_555 1_555
H3 C10 1_555 1_555
C11 H4 1_555 1_555
C12 C4 1_555 1_555
C13 C9 1_555 1_555
H5 C13 1_555 1_555
H6 C13 1_555 1_555
H7 C13 1_555 1_555
C14 C4 1_555 1_555
H8 C14 1_555 1_555
C15 C12 1_555 1_555
H9 C15 1_555 1_555
C16 H10 1_555 1_555
C17 C14 1_555 1_555
H11 C17 1_555 1_555
C18 C3 1_555 1_555
H12 C18 1_555 1_555
C19 C16 1_555 1_555
H13 C19 1_555 1_555
C20 C10 1_555 1_555
H14 C20 1_555 1_555
C21 H15 1_555 1_555
C22 C11 1_555 1_555
H16 C22 1_555 1_555
C23 C20 1_555 1_555
H17 C23 1_555 1_555
C24 C8 1_555 1_555
H18 C24 1_555 1_555
C25 C15 1_555 1_555
H19 C25 1_555 1_555
C7 N1 1_555 1_555
C9 C12 1_555 1_555
C16 C18 1_555 1_555
C17 C25 1_555 1_555
C19 C22 1_555 1_555
C21 C23 1_555 1_555
C21 C24 1_555 1_555

#END
