
#######################################################################
#
#                 Cambridge Crystallographic Data Centre
#                                CCDC 
#
#######################################################################
#
# If this CIF has been generated from an entry in the Cambridge 
# Structural Database, then it will include bibliographic, chemical, 
# crystal, experimental, refinement or atomic coordinate data resulting 
# from the CCDC's data processing and validation procedures.
#
#######################################################################

data_ABIYAM
_chemical_formula_moiety         'C14 H18 N2 O2 Se1'
_chemical_name_systematic        
5-t-Butyl-2-methyl-7-(methylcarbamoyl)benzisoselenazol-3(2H)-one
_chemical_properties_biological  'glutathione peroxidase-like activity'
_symmetry_cell_setting           monoclinic
_symmetry_space_group_name_H-M   'P 21/n'
_symmetry_Int_Tables_number      14
_space_group_name_Hall           '-P 2yn'
loop_
_symmetry_equiv_pos_site_id
_symmetry_equiv_pos_as_xyz
1 x,y,z
2 1/2+x,1/2-y,1/2+z
3 -x,-y,-z
4 1/2-x,1/2+y,1/2-z
_cell_length_a                   6.3549(9)
_cell_length_b                   11.0351(10)
_cell_length_c                   19.982(3)
_cell_angle_alpha                90
_cell_angle_beta                 92.497(16)
_cell_angle_gamma                90
_cell_volume                     1399.95
_exptl_crystal_colour            colorless
_exptl_crystal_description       block
_chemical_melting_point          '240 deg.C(dec.)'
_cell_formula_units_Z            4
_exptl_crystal_recrystallization_method chloroform
loop_
_atom_site_label
_atom_site_type_symbol
_atom_site_fract_x
_atom_site_fract_y
_atom_site_fract_z
Se1 Se 0.86637(7) 0.06312(4) 0.422548(19)
N1 N 0.6109(5) 0.1499(3) 0.41851(15)
N2 N 1.2594(4) -0.1396(3) 0.28151(17)
H1 H 1.2231 -0.1487 0.2398
O1 O 0.3676(4) 0.2353(3) 0.34612(13)
O2 O 1.1793(4) -0.0548(3) 0.38001(13)
C1 C 0.8275(5) 0.0529(4) 0.32995(16)
C2 C 0.9520(5) -0.0110(4) 0.28809(17)
C3 C 0.8939(6) -0.0130(4) 0.22010(18)
H2 H 0.9778 -0.0552 0.1911
C4 C 0.7155(5) 0.0457(4) 0.19415(17)
C5 C 0.5940(5) 0.1085(4) 0.23834(18)
H3 H 0.4740 0.1490 0.2221
C6 C 0.6471(6) 0.1125(4) 0.30610(17)
C7 C 0.5264(6) 0.1733(4) 0.35688(18)
C8 C 0.5134(8) 0.1897(5) 0.4790(2)
H4 H 0.5742 0.2654 0.4935
H5 H 0.5366 0.1301 0.5135
H6 H 0.3648 0.2000 0.4701
C9 C 1.1410(5) -0.0715(4) 0.31922(17)
C10 C 1.4474(6) -0.1994(5) 0.3078(2)
H7 H 1.5118 -0.1513 0.3431
H8 H 1.5444 -0.2093 0.2727
H9 H 1.4112 -0.2775 0.3251
C11 C 0.6495(6) 0.0374(4) 0.11965(18)
C12 C 0.8358(8) 0.0147(6) 0.0775(2)
H10 H 0.8944 -0.0635 0.0882
H11 H 0.9404 0.0760 0.0865
H12 H 0.7915 0.0171 0.0310
C13 C 0.5000(11) -0.0673(7) 0.1116(2)
H13 H 0.3773 -0.0519 0.1366
H14 H 0.5679 -0.1399 0.1278
H15 H 0.4593 -0.0770 0.0650
C14 C 0.5517(11) 0.1552(6) 0.0954(3)
H16 H 0.5222 0.1508 0.0479
H17 H 0.6478 0.2207 0.1051
H18 H 0.4232 0.1690 0.1177
loop_
_geom_bond_atom_site_label_1
_geom_bond_atom_site_label_2
_geom_bond_site_symmetry_1
_geom_bond_site_symmetry_2
Se1 N1 1_555 1_555
N1 C7 1_555 1_555
N2 H1 1_555 1_555
O1 C7 1_555 1_555
O2 C9 1_555 1_555
C1 Se1 1_555 1_555
C2 C1 1_555 1_555
C3 C2 1_555 1_555
H2 C3 1_555 1_555
C4 C3 1_555 1_555
C5 C4 1_555 1_555
H3 C5 1_555 1_555
C6 C1 1_555 1_555
C7 C6 1_555 1_555
C8 N1 1_555 1_555
H4 C8 1_555 1_555
H5 C8 1_555 1_555
H6 C8 1_555 1_555
C9 N2 1_555 1_555
C10 N2 1_555 1_555
H7 C10 1_555 1_555
H8 C10 1_555 1_555
H9 C10 1_555 1_555
C11 C4 1_555 1_555
C12 C11 1_555 1_555
H10 C12 1_555 1_555
H11 C12 1_555 1_555
H12 C12 1_555 1_555
C13 C11 1_555 1_555
H13 C13 1_555 1_555
H14 C13 1_555 1_555
H15 C13 1_555 1_555
C14 C11 1_555 1_555
H16 C14 1_555 1_555
H17 C14 1_555 1_555
H18 C14 1_555 1_555
C2 C9 1_555 1_555
C5 C6 1_555 1_555

#END
