
#######################################################################
#
#                 Cambridge Crystallographic Data Centre
#                                CCDC 
#
#######################################################################
#
# If this CIF has been generated from an entry in the Cambridge 
# Structural Database, then it will include bibliographic, chemical, 
# crystal, experimental, refinement or atomic coordinate data resulting 
# from the CCDC's data processing and validation procedures.
#
#######################################################################

data_ABIYOC
_chemical_formula_moiety         'C25 H19 I2 N1'
_chemical_name_systematic        
7,8-diiodo-10-methyl-9,9-diphenyl-6,9-dihydropyrido[1,2-a]indole
_symmetry_cell_setting           monoclinic
_symmetry_space_group_name_H-M   'P 21/c'
_symmetry_Int_Tables_number      14
_space_group_name_Hall           '-P 2ybc'
loop_
_symmetry_equiv_pos_site_id
_symmetry_equiv_pos_as_xyz
1 x,y,z
2 -x,1/2+y,1/2-z
3 -x,-y,-z
4 x,1/2-y,1/2+z
_cell_length_a                   10.8712(2)
_cell_length_b                   12.2577(3)
_cell_length_c                   15.5456(3)
_cell_angle_alpha                90
_cell_angle_beta                 90.4588(19)
_cell_angle_gamma                90
_cell_volume                     2071.48
_exptl_crystal_colour            colorless
_exptl_crystal_description       block
_cell_formula_units_Z            4
loop_
_atom_site_label
_atom_site_type_symbol
_atom_site_fract_x
_atom_site_fract_y
_atom_site_fract_z
I1 I 0.87768(3) 0.74770(3) 0.381245(16)
I2 I 1.14423(3) 0.63438(3) 0.491108(19)
N1 N 0.8490(3) 0.6026(3) 0.66902(18)
C1 C 0.8142(4) 0.5316(3) 0.7316(2)
C2 C 0.8855(4) 0.4594(4) 0.7811(2)
H1 H 0.9700 0.4538 0.7736
C3 C 0.8252(5) 0.3974(4) 0.8412(3)
H2 H 0.8702 0.3499 0.8758
C4 C 0.6982(5) 0.4042(4) 0.8512(3)
H3 H 0.6598 0.3608 0.8921
C5 C 0.6299(4) 0.4733(4) 0.8021(2)
H4 H 0.5452 0.4771 0.8095
C6 C 0.6864(4) 0.5386(4) 0.7408(2)
C7 C 0.6428(4) 0.6186(4) 0.6799(2)
C8 C 0.7447(4) 0.6549(3) 0.6364(2)
C9 C 0.7601(4) 0.7394(4) 0.5656(2)
C10 C 0.8767(4) 0.7081(4) 0.5129(2)
C11 C 0.9731(4) 0.6614(4) 0.5501(2)
C12 C 0.9725(4) 0.6225(4) 0.6410(2)
H5 H 1.0201 0.5558 0.6457
H6 H 1.0106 0.6769 0.6778
C13 C 0.5104(4) 0.6574(4) 0.6758(3)
H7 H 0.4723 0.6311 0.6239
H8 H 0.5085 0.7357 0.6762
H9 H 0.4666 0.6300 0.7246
C14 C 0.6446(4) 0.7364(4) 0.5072(2)
C15 C 0.6112(4) 0.6375(4) 0.4703(3)
H10 H 0.6570 0.5752 0.4825
C16 C 0.5104(4) 0.6307(4) 0.4155(3)
H11 H 0.4895 0.5643 0.3905
C17 C 0.4408(4) 0.7224(5) 0.3981(3)
H12 H 0.3730 0.7180 0.3615
C18 C 0.4723(4) 0.8202(5) 0.4351(3)
H13 H 0.4254 0.8820 0.4237
C19 C 0.5741(4) 0.8273(4) 0.4896(3)
H14 H 0.5948 0.8940 0.5143
C20 C 0.7792(4) 0.8547(4) 0.6052(2)
C21 C 0.7405(4) 0.8775(4) 0.6877(3)
H15 H 0.7067 0.8221 0.7209
C22 C 0.7513(4) 0.9824(5) 0.7219(3)
H16 H 0.7241 0.9965 0.7774
C23 C 0.8016(5) 1.0645(4) 0.6745(3)
H17 H 0.8089 1.1343 0.6974
C24 C 0.8414(5) 1.0432(4) 0.5924(3)
H18 H 0.8752 1.0989 0.5594
C25 C 0.8312(4) 0.9397(4) 0.5591(3)
H19 H 0.8602 0.9262 0.5040
loop_
_geom_bond_atom_site_label_1
_geom_bond_atom_site_label_2
_geom_bond_site_symmetry_1
_geom_bond_site_symmetry_2
I1 C10 1_555 1_555
I2 C11 1_555 1_555
N1 C1 1_555 1_555
C1 C2 1_555 1_555
C2 H1 1_555 1_555
C3 C2 1_555 1_555
H2 C3 1_555 1_555
C4 C3 1_555 1_555
H3 C4 1_555 1_555
C5 C4 1_555 1_555
H4 C5 1_555 1_555
C6 C1 1_555 1_555
C7 C6 1_555 1_555
C8 N1 1_555 1_555
C9 C8 1_555 1_555
C10 C9 1_555 1_555
C11 C10 1_555 1_555
C12 N1 1_555 1_555
H5 C12 1_555 1_555
H6 C12 1_555 1_555
C13 C7 1_555 1_555
H7 C13 1_555 1_555
H8 C13 1_555 1_555
H9 C13 1_555 1_555
C14 C9 1_555 1_555
C15 C14 1_555 1_555
H10 C15 1_555 1_555
C16 C15 1_555 1_555
H11 C16 1_555 1_555
C17 C16 1_555 1_555
H12 C17 1_555 1_555
C18 C17 1_555 1_555
H13 C18 1_555 1_555
C19 C14 1_555 1_555
H14 C19 1_555 1_555
C20 C9 1_555 1_555
C21 C20 1_555 1_555
H15 C21 1_555 1_555
C22 C21 1_555 1_555
H16 C22 1_555 1_555
C23 C22 1_555 1_555
H17 C23 1_555 1_555
C24 C23 1_555 1_555
H18 C24 1_555 1_555
C25 C20 1_555 1_555
H19 C25 1_555 1_555
C5 C6 1_555 1_555
C7 C8 1_555 1_555
C11 C12 1_555 1_555
C18 C19 1_555 1_555
C24 C25 1_555 1_555

#END
