
#######################################################################
#
#                 Cambridge Crystallographic Data Centre
#                                CCDC 
#
#######################################################################
#
# If this CIF has been generated from an entry in the Cambridge 
# Structural Database, then it will include bibliographic, chemical, 
# crystal, experimental, refinement or atomic coordinate data resulting 
# from the CCDC's data processing and validation procedures.
#
#######################################################################

data_ABOGUW
_chemical_formula_moiety         'C16 H11 Br1 N2'
_chemical_name_systematic        
3-(4-bromophenyl)-2,4-dihydroindeno[1,2-c]pyrazole
_symmetry_cell_setting           monoclinic
_symmetry_space_group_name_H-M   'P 21/c'
_symmetry_Int_Tables_number      14
_space_group_name_Hall           '-P 2ybc'
loop_
_symmetry_equiv_pos_site_id
_symmetry_equiv_pos_as_xyz
1 x,y,z
2 -x,1/2+y,1/2-z
3 -x,-y,-z
4 x,1/2-y,1/2+z
_cell_length_a                   13.862(3)
_cell_length_b                   15.342(3)
_cell_length_c                   6.0894(12)
_cell_angle_alpha                90
_cell_angle_beta                 91.046(18)
_cell_angle_gamma                90
_cell_volume                     1294.82
_cell_formula_units_Z            4
loop_
_atom_site_label
_atom_site_type_symbol
_atom_site_fract_x
_atom_site_fract_y
_atom_site_fract_z
Br1 Br 0.36170(4) 0.66445(3) 0.07629(8)
C1 C 0.0809(3) 0.6595(2) 0.2763(6)
C2 C -0.0029(3) 0.6055(2) 0.6051(6)
N1 N -0.0018(2) 0.5630(2) 0.8057(5)
N2 N -0.0905(2) 0.5541(2) 0.8923(5)
C3 C 0.0848(3) 0.6196(2) 0.4831(6)
C4 C -0.1670(3) 0.6656(3) 0.4003(7)
C5 C 0.1622(3) 0.6734(2) 0.1582(6)
C6 C 0.2572(3) 0.6068(3) 0.4481(7)
C7 C -0.1485(3) 0.5927(2) 0.7426(6)
C8 C 0.2496(3) 0.6460(3) 0.2430(7)
C9 C 0.1750(3) 0.5930(3) 0.5662(6)
C10 C -0.2514(3) 0.6058(3) 0.7117(6)
C11 C -0.0985(3) 0.6253(2) 0.5639(6)
C12 C -0.2629(3) 0.6478(3) 0.5089(7)
C13 C -0.3291(3) 0.5822(3) 0.8363(8)
C14 C -0.4213(4) 0.6003(4) 0.7573(9)
C15 C -0.4320(4) 0.6419(4) 0.5490(10)
C16 C -0.3549(4) 0.6663(3) 0.4290(8)
loop_
_geom_bond_atom_site_label_1
_geom_bond_atom_site_label_2
_geom_bond_site_symmetry_1
_geom_bond_site_symmetry_2
Br1 C8 1_555 1_555
C1 C3 1_555 1_555
C2 N1 1_555 1_555
N1 N2 1_555 1_555
N2 C7 1_555 1_555
C3 C2 1_555 1_555
C4 C11 1_555 1_555
C5 C1 1_555 1_555
C6 C8 1_555 1_555
C7 C10 1_555 1_555
C8 C5 1_555 1_555
C9 C3 1_555 1_555
C10 C12 1_555 1_555
C11 C2 1_555 1_555
C12 C4 1_555 1_555
C13 C10 1_555 1_555
C14 C13 1_555 1_555
C15 C14 1_555 1_555
C16 C12 1_555 1_555
C6 C9 1_555 1_555
C7 C11 1_555 1_555
C15 C16 1_555 1_555

#END
