
#######################################################################
#
#                 Cambridge Crystallographic Data Centre
#                                CCDC 
#
#######################################################################
#
# If this CIF has been generated from an entry in the Cambridge 
# Structural Database, then it will include bibliographic, chemical, 
# crystal, experimental, refinement or atomic coordinate data resulting 
# from the CCDC's data processing and validation procedures.
#
#######################################################################

data_ABOHAD
_chemical_formula_moiety         'C23 H18 N2 O3 S1'
_chemical_name_systematic        
1-((4-methylphenyl)sulfonyl)-3-phenyl-1,4-dihydrochromeno[4,3-c]pyrazole
_symmetry_cell_setting           monoclinic
_symmetry_space_group_name_H-M   'P 21/c'
_symmetry_Int_Tables_number      14
_space_group_name_Hall           '-P 2ybc'
loop_
_symmetry_equiv_pos_site_id
_symmetry_equiv_pos_as_xyz
1 x,y,z
2 -x,1/2+y,1/2-z
3 -x,-y,-z
4 x,1/2-y,1/2+z
_cell_length_a                   7.5026(5)
_cell_length_b                   20.3104(14)
_cell_length_c                   12.4356(8)
_cell_angle_alpha                90
_cell_angle_beta                 94.704(2)
_cell_angle_gamma                90
_cell_volume                     1888.56
_exptl_crystal_colour            colorless
_exptl_crystal_description       block
_cell_formula_units_Z            4
loop_
_atom_site_label
_atom_site_type_symbol
_atom_site_fract_x
_atom_site_fract_y
_atom_site_fract_z
S1 S 0.66812(6) 0.37486(3) 0.40011(4)
O1 O 0.7310(2) 0.33833(9) 0.49315(11)
O2 O 0.48871(18) 0.39869(8) 0.38957(11)
O3 O 0.6924(2) 0.38673(8) -0.01614(10)
N1 N 0.68907(18) 0.32360(7) 0.29376(12)
N2 N 0.84934(18) 0.28875(7) 0.30627(12)
C1 C 1.0729(2) 0.24751(8) 0.19388(15)
C2 C 1.1957(2) 0.23690(8) 0.28300(16)
H1 H 1.1659 0.2484 0.3517
C3 C 1.3612(2) 0.20940(9) 0.26962(18)
H2 H 1.4421 0.2026 0.3293
C4 C 1.4069(2) 0.19206(9) 0.16793(18)
H3 H 1.5196 0.1749 0.1589
C5 C 1.2845(2) 0.20034(10) 0.07991(18)
H4 H 1.3138 0.1876 0.0117
C6 C 1.1172(2) 0.22763(9) 0.09269(16)
H5 H 1.0349 0.2326 0.0331
C7 C 0.9036(2) 0.28210(7) 0.20847(14)
C8 C 0.7839(2) 0.31454(8) 0.13045(14)
C9 C 0.7816(3) 0.32551(11) 0.01191(15)
H6 H 0.9032 0.3269 -0.0092
H7 H 0.7196 0.2895 -0.0263
C10 C 0.5303(3) 0.39609(9) 0.02551(14)
C11 C 0.3997(3) 0.43021(12) -0.03719(16)
H8 H 0.4224 0.4449 -0.1056
C12 C 0.2358(3) 0.44236(10) 0.00214(16)
H9 H 0.1486 0.4655 -0.0398
C13 C 0.2011(2) 0.42041(9) 0.10273(17)
H10 H 0.0897 0.4279 0.1281
C14 C 0.3318(2) 0.38703(9) 0.16655(16)
H11 H 0.3072 0.3723 0.2346
C15 C 0.4997(2) 0.37537(7) 0.12985(14)
C16 C 0.6512(2) 0.34061(8) 0.18529(13)
C17 C 0.8149(2) 0.43823(9) 0.37469(13)
C18 C 0.7501(2) 0.49471(9) 0.32182(14)
H12 H 0.6278 0.5005 0.3060
C19 C 0.8695(3) 0.54202(9) 0.29312(15)
H13 H 0.8267 0.5802 0.2587
C20 C 1.0530(3) 0.53341(9) 0.31491(16)
C21 C 1.1140(3) 0.47747(10) 0.37105(17)
H14 H 1.2360 0.4723 0.3889
C22 C 0.9977(2) 0.42970(9) 0.40072(14)
H15 H 1.0403 0.3923 0.4376
C23 C 1.1822(3) 0.58256(11) 0.2753(3)
H16 H 1.1388 0.6263 0.2863
H17 H 1.1934 0.5756 0.1998
H18 H 1.2969 0.5772 0.3146
loop_
_geom_bond_atom_site_label_1
_geom_bond_atom_site_label_2
_geom_bond_site_symmetry_1
_geom_bond_site_symmetry_2
S1 O1 1_555 1_555
O2 S1 1_555 1_555
O3 C9 1_555 1_555
N1 S1 1_555 1_555
N2 N1 1_555 1_555
C1 C2 1_555 1_555
C2 H1 1_555 1_555
C3 C2 1_555 1_555
H2 C3 1_555 1_555
C4 C3 1_555 1_555
H3 C4 1_555 1_555
C5 C4 1_555 1_555
H4 C5 1_555 1_555
C6 C1 1_555 1_555
H5 C6 1_555 1_555
C7 N2 1_555 1_555
C8 C7 1_555 1_555
C9 C8 1_555 1_555
H6 C9 1_555 1_555
H7 C9 1_555 1_555
C10 O3 1_555 1_555
C11 C10 1_555 1_555
H8 C11 1_555 1_555
C12 C11 1_555 1_555
H9 C12 1_555 1_555
C13 C12 1_555 1_555
H10 C13 1_555 1_555
C14 C13 1_555 1_555
H11 C14 1_555 1_555
C15 C10 1_555 1_555
C16 N1 1_555 1_555
C17 S1 1_555 1_555
C18 C17 1_555 1_555
H12 C18 1_555 1_555
C19 C18 1_555 1_555
H13 C19 1_555 1_555
C20 C19 1_555 1_555
C21 C20 1_555 1_555
H14 C21 1_555 1_555
C22 C17 1_555 1_555
H15 C22 1_555 1_555
C23 C20 1_555 1_555
H16 C23 1_555 1_555
H17 C23 1_555 1_555
H18 C23 1_555 1_555
C1 C7 1_555 1_555
C5 C6 1_555 1_555
C8 C16 1_555 1_555
C14 C15 1_555 1_555
C15 C16 1_555 1_555
C21 C22 1_555 1_555

#END
