
#######################################################################
#
#                 Cambridge Crystallographic Data Centre
#                                CCDC 
#
#######################################################################
#
# If this CIF has been generated from an entry in the Cambridge 
# Structural Database, then it will include bibliographic, chemical, 
# crystal, experimental, refinement or atomic coordinate data resulting 
# from the CCDC's data processing and validation procedures.
#
#######################################################################

data_ABOKIN
_chemical_formula_moiety         'C32 H25 N1 O4 S1'
_chemical_name_systematic        
1,1'-(10-Ethyl-10H-phenothiazine-3,7-diyl)bis(3-hydroxy-3-phenylprop-2-en-1-one)
_symmetry_cell_setting           monoclinic
_symmetry_space_group_name_H-M   'P 21/c'
_symmetry_Int_Tables_number      14
_space_group_name_Hall           '-P 2ybc'
loop_
_symmetry_equiv_pos_site_id
_symmetry_equiv_pos_as_xyz
1 x,y,z
2 -x,1/2+y,1/2-z
3 -x,-y,-z
4 x,1/2-y,1/2+z
_cell_length_a                   15.276(5)
_cell_length_b                   16.211(5)
_cell_length_c                   10.466(3)
_cell_angle_alpha                90
_cell_angle_beta                 98.021(4)
_cell_angle_gamma                90
_cell_volume                     2566.44
_exptl_crystal_colour            brown
_exptl_crystal_description       block
_cell_formula_units_Z            4
loop_
_atom_site_label
_atom_site_type_symbol
_atom_site_fract_x
_atom_site_fract_y
_atom_site_fract_z
C1 C 0.12251(15) 1.1749(2) 0.0341(4)
H1 H 0.0697 1.1895 0.0630
C2 C 0.13592(18) 1.19350(18) -0.0913(4)
H2 H 0.0921 1.2206 -0.1464
C3 C 0.2148(2) 1.1716(2) -0.1344(3)
H3 H 0.2238 1.1841 -0.2184
C4 C 0.28023(16) 1.13118(19) -0.0521(3)
H4 H 0.3330 1.1166 -0.0809
C5 C 0.26682(16) 1.11259(18) 0.0734(3)
C6 C 0.1880(2) 1.1345(2) 0.1165(3)
H5 H 0.1790 1.1220 0.2005
C7 C 0.3328(3) 1.0668(3) 0.1615(5)
C8 C 0.4232(3) 1.0699(3) 0.1501(4)
H6 H 0.4426 1.1003 0.0841
C9 C 0.4838(3) 1.0273(3) 0.2379(4)
C10 C 0.58177(11) 1.03270(16) 0.2347(3)
C11 C 0.63751(15) 0.99117(15) 0.3298(2)
H7 H 0.6139 0.9608 0.3922
C12 C 0.72857(14) 0.99501(15) 0.3316(2)
C13 C 0.76390(11) 1.04038(15) 0.2384(2)
C14 C 0.70817(15) 1.08191(15) 0.1433(2)
H8 H 0.7318 1.1123 0.0809
C15 C 0.61711(14) 1.07807(16) 0.1415(2)
H9 H 0.5798 1.1059 0.0778
C16 C 1.0994(2) 0.8185(2) 0.5139(4)
C17 C 0.91655(13) 0.98575(14) 0.3036(2)
C18 C 0.89260(12) 0.93913(15) 0.4046(2)
C19 C 0.95251(15) 0.88395(14) 0.4701(2)
H10 H 0.9365 0.8528 0.5377
C20 C 1.03636(14) 0.87540(14) 0.4345(2)
C21 C 1.06031(11) 0.92202(15) 0.3334(2)
H11 H 1.1164 0.9163 0.3096
C22 C 1.00040(15) 0.97719(15) 0.2680(2)
H12 H 1.0164 1.0084 0.2003
C23 C 1.1902(2) 0.8153(2) 0.5025(4)
H13 H 1.2118 0.8456 0.4382
C24 C 1.2474(3) 0.7678(2) 0.5857(4)
C25 C 1.34407(14) 0.76551(18) 0.5864(3)
C26 C 1.38518(18) 0.82166(17) 0.5138(3)
H14 H 1.3515 0.8600 0.4622
C27 C 1.47655(19) 0.82051(19) 0.5185(3)
H15 H 1.5041 0.8581 0.4700
C28 C 1.52682(14) 0.7632(2) 0.5957(3)
H16 H 1.5880 0.7625 0.5988
C29 C 1.48572(19) 0.7071(2) 0.6683(3)
H17 H 1.5194 0.6687 0.7199
C30 C 1.39435(19) 0.70822(18) 0.6636(3)
H18 H 1.3668 0.6707 0.7121
C31 C 0.8912(2) 1.1026(2) 0.1494(4)
H19 H 0.9511 1.1181 0.1845
H20 H 0.8555 1.1523 0.1435
C32 C 0.8917(3) 1.0685(3) 0.0153(4)
H21 H 0.9232 1.0171 0.0205
H22 H 0.9202 1.1070 -0.0351
H23 H 0.8320 1.0596 -0.0247
N1 N 0.85726(18) 1.04535(19) 0.2397(3)
O1 O 0.3043(2) 1.0238(3) 0.2508(4)
H24 H 0.3463 1.0065 0.3008
O2 O 0.45795(18) 0.9831(2) 0.3263(3)
O3 O 1.06833(17) 0.77438(18) 0.5986(3)
O4 O 1.21817(18) 0.7219(2) 0.6729(3)
H25 H 1.1653 0.7308 0.6729
S1 S 0.79276(7) 0.95191(7) 0.46548(11)
loop_
_geom_bond_atom_site_label_1
_geom_bond_atom_site_label_2
_geom_bond_site_symmetry_1
_geom_bond_site_symmetry_2
C1 H1 1_555 1_555
C2 C1 1_555 1_555
H2 C2 1_555 1_555
C3 C2 1_555 1_555
H3 C3 1_555 1_555
C4 C3 1_555 1_555
H4 C4 1_555 1_555
C5 C4 1_555 1_555
C6 C1 1_555 1_555
H5 C6 1_555 1_555
C7 C5 1_555 1_555
C8 C7 1_555 1_555
H6 C8 1_555 1_555
C9 C8 1_555 1_555
C10 C9 1_555 1_555
C11 C10 1_555 1_555
H7 C11 1_555 1_555
C12 C11 1_555 1_555
C13 C12 1_555 1_555
C14 C13 1_555 1_555
H8 C14 1_555 1_555
C15 C10 1_555 1_555
H9 C15 1_555 1_555
C16 C20 1_555 1_555
C17 C18 1_555 1_555
C18 C19 1_555 1_555
C19 H10 1_555 1_555
C20 C19 1_555 1_555
C21 C20 1_555 1_555
H11 C21 1_555 1_555
C22 C17 1_555 1_555
H12 C22 1_555 1_555
C23 C16 1_555 1_555
H13 C23 1_555 1_555
C24 C23 1_555 1_555
C25 C24 1_555 1_555
C26 C25 1_555 1_555
H14 C26 1_555 1_555
C27 C26 1_555 1_555
H15 C27 1_555 1_555
C28 C27 1_555 1_555
H16 C28 1_555 1_555
C29 C28 1_555 1_555
H17 C29 1_555 1_555
C30 C25 1_555 1_555
H18 C30 1_555 1_555
C31 H19 1_555 1_555
H20 C31 1_555 1_555
C32 C31 1_555 1_555
H21 C32 1_555 1_555
H22 C32 1_555 1_555
H23 C32 1_555 1_555
N1 C13 1_555 1_555
O1 C7 1_555 1_555
H24 O1 1_555 1_555
O2 C9 1_555 1_555
O3 C16 1_555 1_555
O4 C24 1_555 1_555
H25 O4 1_555 1_555
S1 C12 1_555 1_555
C5 C6 1_555 1_555
C14 C15 1_555 1_555
C17 N1 1_555 1_555
C18 S1 1_555 1_555
C21 C22 1_555 1_555
C29 C30 1_555 1_555
C31 N1 1_555 1_555

#END
