
#######################################################################
#
#                 Cambridge Crystallographic Data Centre
#                                CCDC 
#
#######################################################################
#
# If this CIF has been generated from an entry in the Cambridge 
# Structural Database, then it will include bibliographic, chemical, 
# crystal, experimental, refinement or atomic coordinate data resulting 
# from the CCDC's data processing and validation procedures.
#
#######################################################################

data_ABOKUY
_chemical_formula_moiety         'C12 H12 N6'
_chemical_name_systematic        1,4-bis((1H-1,2,4-triazol-1-yl)methyl)benzene
_symmetry_cell_setting           monoclinic
_symmetry_space_group_name_H-M   'P 21/n'
_symmetry_Int_Tables_number      14
_space_group_name_Hall           '-P 2yn'
loop_
_symmetry_equiv_pos_site_id
_symmetry_equiv_pos_as_xyz
1 x,y,z
2 1/2+x,1/2-y,1/2+z
3 -x,-y,-z
4 1/2-x,1/2+y,1/2-z
_cell_length_a                   4.5671(17)
_cell_length_b                   13.695(5)
_cell_length_c                   9.376(4)
_cell_angle_alpha                90
_cell_angle_beta                 94.221(7)
_cell_angle_gamma                90
_cell_volume                     584.845
_exptl_crystal_colour            colorless
_exptl_crystal_description       Platelet
_chemical_melting_point          '192-193 deg.C'
_cell_formula_units_Z            2
_exptl_crystal_recrystallization_method ethanol
loop_
_atom_site_label
_atom_site_type_symbol
_atom_site_fract_x
_atom_site_fract_y
_atom_site_fract_z
N1 N 0.3095(3) 0.25110(8) 0.52652(12)
N2 N 0.1255(3) 0.29278(9) 0.61636(13)
N3 N 0.1847(3) 0.39051(10) 0.42719(14)
C1 C 0.0586(4) 0.37584(11) 0.55124(17)
H1 H -0.0669 0.4213 0.5881
C2 C 0.3401(2) 0.30980(7) 0.41617(12)
H2 H 0.4555 0.2960 0.3410
C3 C 0.4328(2) 0.15392(7) 0.55423(12)
H3 H 0.5118 0.1502 0.6530
H4 H 0.5933 0.1435 0.4937
C4 C 0.1149(3) 0.01858(10) 0.63812(15)
H5 H 0.1914 0.0307 0.7311
C5 C 0.2070(3) 0.07423(10) 0.52643(15)
C6 C 0.0901(3) 0.05493(10) 0.38781(15)
H6 H 0.1504 0.0918 0.3120
C6B C -0.0901(3) -0.05493(10) 0.61219(15)
C5B C -0.2070(3) -0.07423(10) 0.47357(15)
C3B C -0.4328(2) -0.15392(7) 0.44577(12)
N1B N -0.3095(3) -0.25110(8) 0.47348(12)
N2B N -0.1255(3) -0.29278(9) 0.38364(13)
C1B C -0.0586(4) -0.37584(11) 0.44876(17)
N3B N -0.1847(3) -0.39051(10) 0.57281(14)
C2B C -0.3401(2) -0.30980(7) 0.58383(12)
H2B H -0.4555 -0.2960 0.6590
H1B H 0.0669 -0.4213 0.4119
H3B H -0.5118 -0.1502 0.3470
H4B H -0.5933 -0.1435 0.5063
C4B C -0.1149(3) -0.01858(10) 0.36188(15)
H5B H -0.1914 -0.0307 0.2689
H6B H -0.1504 -0.0918 0.6880
loop_
_geom_bond_atom_site_label_1
_geom_bond_atom_site_label_2
_geom_bond_site_symmetry_1
_geom_bond_site_symmetry_2
N1 N2 1_555 1_555
N2 C1 1_555 1_555
N3 C1 1_555 1_555
C1 H1 1_555 1_555
C2 N1 1_555 1_555
H2 C2 1_555 1_555
C3 N1 1_555 1_555
H3 C3 1_555 1_555
H4 C3 1_555 1_555
C4 H5 1_555 1_555
C5 C3 1_555 1_555
C6 C5 1_555 1_555
H6 C6 1_555 1_555
C6B C4 1_555 1_555
C5B C6B 1_555 1_555
C3B C5B 1_555 1_555
N1B C3B 1_555 1_555
N2B N1B 1_555 1_555
C1B N2B 1_555 1_555
N3B C1B 1_555 1_555
C2B N1B 1_555 1_555
H2B C2B 1_555 1_555
H1B C1B 1_555 1_555
H3B C3B 1_555 1_555
H4B C3B 1_555 1_555
C4B C6 1_555 1_555
H5B C4B 1_555 1_555
H6B C6B 1_555 1_555
N3 C2 1_555 1_555
C4 C5 1_555 1_555
C5B C4B 1_555 1_555
N3B C2B 1_555 1_555

#END
