
#######################################################################
#
#                 Cambridge Crystallographic Data Centre
#                                CCDC 
#
#######################################################################
#
# If this CIF has been generated from an entry in the Cambridge 
# Structural Database, then it will include bibliographic, chemical, 
# crystal, experimental, refinement or atomic coordinate data resulting 
# from the CCDC's data processing and validation procedures.
#
#######################################################################

data_ABOMUZ
_chemical_formula_moiety         'C51 H47 N15 O10,3(C6 H5 N1 O2),H2 O1'
_chemical_name_systematic        
'2,6-bis(6-((6-(6-t-Butoxycarbonylaminopyridin-2-ylcarbamoyl)-pyridine-2-carbonyl)amino)pyridin-2-ylcarbamoyl)pyridine nitrobenzene solvate monohydrate'
_symmetry_cell_setting           triclinic
_symmetry_space_group_name_H-M   'P -1'
_symmetry_Int_Tables_number      2
_space_group_name_Hall           '-P 1'
loop_
_symmetry_equiv_pos_site_id
_symmetry_equiv_pos_as_xyz
1 x,y,z
2 -x,-y,-z
_cell_length_a                   18.980(4)
_cell_length_b                   19.230(4)
_cell_length_c                   19.980(4)
_cell_angle_alpha                81.52(3)
_cell_angle_beta                 81.59(3)
_cell_angle_gamma                75.11(3)
_cell_volume                     6925.55
_exptl_crystal_colour            colorless
_exptl_crystal_description       block
_cell_formula_units_Z            4
_exptl_crystal_recrystallization_method nitrobenzene/heptane
loop_
_atom_site_label
_atom_site_type_symbol
_atom_site_fract_x
_atom_site_fract_y
_atom_site_fract_z
N1 N 1.22128(15) 0.87952(14) 0.18747(13)
H1 H 1.2237 0.8376 0.2128
N2 N 1.26729(14) 0.91122(13) 0.27585(13)
N3 N 1.31315(16) 0.93171(14) 0.36961(14)
H2 H 1.3168 0.8851 0.3811
N4 N 1.36156(15) 0.84608(15) 0.47821(14)
N5 N 1.39132(16) 0.70835(15) 0.46233(13)
H3 H 1.3830 0.7477 0.4330
N6 N 1.41741(14) 0.65428(14) 0.36515(13)
N7 N 1.44886(15) 0.61406(13) 0.26069(12)
H4 H 1.4552 0.6581 0.2480
N8 N 1.51564(14) 0.66042(13) 0.13866(12)
N9 N 1.59791(15) 0.75838(13) 0.13461(13)
H5 H 1.5943 0.7231 0.1674
N10 N 1.64990(14) 0.79943(13) 0.21279(13)
N11 N 1.70427(15) 0.82579(14) 0.29706(14)
H6 H 1.7099 0.7792 0.3103
N12 N 1.75465(15) 0.74586(15) 0.40860(14)
N13 N 1.77883(16) 0.60209(15) 0.40739(14)
H7 H 1.7727 0.6366 0.3730
N14 N 1.80759(16) 0.52382(15) 0.32642(14)
N15 N 1.83557(18) 0.45928(15) 0.23546(14)
H8 H 1.8275 0.5018 0.2108
O1 O 1.15877(14) 0.83363(13) 0.12691(12)
O2 O 1.19145(15) 0.93816(14) 0.08283(13)
O3 O 1.32471(18) 1.03162(14) 0.41297(15)
O4 O 1.39472(15) 0.67502(14) 0.57703(12)
O5 O 1.44494(16) 0.51178(13) 0.21762(12)
O6 O 1.57977(14) 0.79407(12) 0.02222(12)
O7 O 1.72062(15) 0.92864(13) 0.33181(14)
O8 O 1.79010(15) 0.58284(14) 0.52193(12)
O9 O 1.87851(17) 0.33874(14) 0.22443(14)
O10 O 1.88897(15) 0.42632(13) 0.13606(12)
C1 C 1.0823(3) 0.7690(3) 0.0958(2)
H17 H 1.1226 0.7254 0.0972
H18 H 1.0487 0.7655 0.0642
H19 H 1.0556 0.7735 0.1414
C2 C 1.1605(2) 0.8285(2) 0.00341(19)
H20 H 1.1991 0.7836 0.0065
H21 H 1.1828 0.8700 -0.0084
H22 H 1.1299 0.8276 -0.0318
C3 C 1.0522(2) 0.9048(2) 0.0687(2)
H23 H 1.0736 0.9464 0.0525
H24 H 1.0257 0.9107 0.1142
H25 H 1.0180 0.9021 0.0374
C4 C 1.1131(2) 0.8353(2) 0.07171(19)
C5 C 1.19060(19) 0.88866(19) 0.12723(18)
C6 C 1.24895(18) 0.93071(17) 0.21223(17)
C7 C 1.25562(18) 0.99623(17) 0.17474(19)
H26 H 1.2441 1.0079 0.1291
C8 C 1.27974(19) 1.04373(18) 0.20668(19)
H27 H 1.2836 1.0894 0.1829
C9 C 1.29819(19) 1.02591(18) 0.27244(19)
H28 H 1.3145 1.0583 0.2947
C10 C 1.29169(18) 0.95834(17) 0.30435(17)
C11 C 1.3292(2) 0.96682(18) 0.41776(19)
C12 C 1.35131(19) 0.91770(19) 0.48073(18)
C13 C 1.3595(2) 0.9448(2) 0.53998(19)
H29 H 1.3521 0.9954 0.5411
C14 C 1.3783(2) 0.8970(2) 0.59595(19)
H30 H 1.3844 0.9145 0.6363
C15 C 1.3885(2) 0.8234(2) 0.59412(18)
H31 H 1.4012 0.7897 0.6328
C16 C 1.37962(18) 0.80040(19) 0.53379(17)
C17 C 1.38917(18) 0.72088(19) 0.52793(17)
C18 C 1.40465(18) 0.64297(17) 0.43335(16)
C19 C 1.40446(19) 0.57589(18) 0.46977(17)
H32 H 1.3967 0.5699 0.5181
C20 C 1.4160(2) 0.51828(19) 0.43260(17)
H33 H 1.4153 0.4715 0.4557
C21 C 1.42871(19) 0.52742(18) 0.36168(17)
H34 H 1.4359 0.4880 0.3358
C22 C 1.43042(17) 0.59687(16) 0.33048(16)
C23 C 1.45828(19) 0.57128(17) 0.20973(17)
C24 C 1.48755(18) 0.60261(16) 0.14112(16)
C25 C 1.4848(2) 0.57114(19) 0.08344(17)
H35 H 1.4649 0.5300 0.0872
C26 C 1.5112(2) 0.60054(19) 0.02099(18)
H36 H 1.5097 0.5799 -0.0190
C27 C 1.54011(19) 0.66065(18) 0.01653(17)
H37 H 1.5581 0.6823 -0.0262
C28 C 1.54188(18) 0.68832(17) 0.07709(16)
C29 C 1.57507(18) 0.75253(17) 0.07440(16)
C30 C 1.62661(17) 0.81401(16) 0.15077(16)
C31 C 1.62805(18) 0.87832(17) 0.10825(18)
H38 H 1.6123 0.8865 0.0641
C32 C 1.65350(19) 0.92977(18) 0.13343(19)
H39 H 1.6539 0.9748 0.1066
C33 C 1.67824(19) 0.91637(18) 0.19698(18)
H40 H 1.6953 0.9515 0.2147
C34 C 1.67710(17) 0.84922(17) 0.23379(17)
C35 C 1.72334(19) 0.86350(19) 0.34135(19)
C36 C 1.74760(18) 0.81756(18) 0.40547(18)
C37 C 1.7595(2) 0.8497(2) 0.45966(19)
H41 H 1.7545 0.9005 0.4558
C38 C 1.7784(2) 0.8065(2) 0.5189(2)
H42 H 1.7863 0.8272 0.5566
C39 C 1.7858(2) 0.7327(2) 0.52273(19)
H43 H 1.7989 0.7019 0.5630
C40 C 1.77357(19) 0.70436(19) 0.46649(17)
C41 C 1.78147(19) 0.62330(19) 0.46916(17)
C42 C 1.78483(19) 0.53097(18) 0.39239(17)
C43 C 1.7670(2) 0.47605(19) 0.43918(19)
H44 H 1.7519 0.4828 0.4857
C44 C 1.7719(2) 0.4109(2) 0.41539(19)
H45 H 1.7593 0.3721 0.4460
C45 C 1.7950(2) 0.4010(2) 0.34786(19)
H46 H 1.7985 0.3563 0.3312
C46 C 1.8127(2) 0.45976(18) 0.30537(18)
C47 C 1.8686(2) 0.4015(2) 0.20084(19)
C48 C 1.9211(2) 0.3768(2) 0.0839(2)
C49 C 1.9345(3) 0.4287(3) 0.0221(2)
H47 H 1.8877 0.4612 0.0110
H48 H 1.9573 0.4014 -0.0164
H49 H 1.9671 0.4572 0.0315
C50 C 1.8637(3) 0.3400(3) 0.0731(3)
H50 H 1.8199 0.3765 0.0603
H51 H 1.8509 0.3105 0.1153
H52 H 1.8828 0.3088 0.0367
C51 C 1.9909(3) 0.3261(4) 0.1028(3)
H53 H 2.0256 0.3539 0.1089
H54 H 2.0120 0.2951 0.0665
H55 H 1.9810 0.2959 0.1454
N16 N 0.21870(14) 0.77517(14) 0.37875(13)
H9 H 0.2359 0.8115 0.3566
N17 N 0.25258(14) 0.72462(13) 0.27848(13)
N18 N 0.29483(15) 0.68478(14) 0.17362(13)
H10 H 0.3166 0.7209 0.1655
N19 N 0.34326(14) 0.74965(14) 0.05473(13)
N20 N 0.39491(15) 0.86234(14) 0.06625(13)
H11 H 0.3815 0.8296 0.0977
N21 N 0.43808(14) 0.89720(13) 0.15387(13)
N22 N 0.48197(14) 0.91680(13) 0.24795(13)
H12 H 0.4855 0.8701 0.2589
N23 N 0.53604(14) 0.82939(14) 0.35505(13)
N24 N 0.59567(15) 0.68702(14) 0.33819(13)
H13 H 0.5965 0.7241 0.3067
N25 N 0.63819(14) 0.62163(13) 0.24760(12)
N26 N 0.68450(14) 0.57018(13) 0.15010(13)
H14 H 0.6993 0.6105 0.1386
N27 N 0.74801(15) 0.62219(14) 0.03231(13)
N28 N 0.79756(16) 0.74078(15) 0.03708(13)
H15 H 0.7826 0.7115 0.0712
N29 N 0.83548(15) 0.78977(14) 0.11851(14)
N30 N 0.87086(16) 0.82584(15) 0.20877(14)
H16 H 0.8514 0.7919 0.2330
O11 O 0.17685(14) 0.85254(13) 0.45537(12)
O12 O 0.15912(16) 0.73916(14) 0.48091(13)
O13 O 0.26634(15) 0.59954(13) 0.12014(12)
O14 O 0.40184(15) 0.89499(13) -0.04947(12)
O15 O 0.49330(16) 1.01613(12) 0.29219(13)
O16 O 0.57853(14) 0.65916(12) 0.45442(11)
O17 O 0.67979(15) 0.46865(13) 0.10467(12)
O18 O 0.81580(15) 0.75804(14) -0.07928(12)
O19 O 0.93693(14) 0.90726(13) 0.21967(12)
O20 O 0.92448(13) 0.81311(12) 0.30187(12)
C52 C 0.1460(3) 0.9551(3) 0.5135(3)
H56 H 0.1980 0.9557 0.5092
H57 H 0.1200 0.9787 0.5533
H58 H 0.1246 0.9812 0.4724
C53 C 0.1791(3) 0.8329(3) 0.5793(2)
H59 H 0.2301 0.8370 0.5723
H60 H 0.1780 0.7821 0.5804
H61 H 0.1553 0.8506 0.6225
C54 C 0.0600(2) 0.8748(3) 0.5297(2)
H62 H 0.0566 0.8242 0.5351
H63 H 0.0375 0.9006 0.4890
H64 H 0.0342 0.8978 0.5699
C55 C 0.1390(2) 0.8774(2) 0.52194(19)
C56 C 0.18228(19) 0.78459(19) 0.44295(17)
C57 C 0.23102(17) 0.71297(16) 0.34522(16)
C58 C 0.22137(19) 0.64607(18) 0.37726(17)
H65 H 0.2046 0.6397 0.4244
C59 C 0.2372(2) 0.58928(18) 0.33792(18)
H66 H 0.2315 0.5429 0.3584
C60 C 0.26111(19) 0.59907(17) 0.26897(17)
H67 H 0.2721 0.5604 0.2416
C61 C 0.26830(17) 0.66786(17) 0.24173(16)
C62 C 0.29127(18) 0.65251(17) 0.11822(16)
C63 C 0.32130(18) 0.68919(17) 0.05192(17)
C64 C 0.3242(2) 0.66143(19) -0.00926(17)
H68 H 0.3092 0.6181 -0.0097
C65 C 0.3494(2) 0.6978(2) -0.06944(18)
H69 H 0.3523 0.6795 -0.1116
C66 C 0.37017(19) 0.76081(19) -0.06727(17)
H70 H 0.3867 0.7873 -0.1079
C67 C 0.36633(18) 0.78487(17) -0.00403(16)
C68 C 0.38955(19) 0.85372(18) 0.00067(17)
C69 C 0.41894(18) 0.91639(17) 0.09042(16)
C70 C 0.42116(19) 0.98329(17) 0.05363(17)
H71 H 0.4072 0.9955 0.0088
C71 C 0.44484(19) 1.03162(18) 0.08553(17)
H72 H 0.4473 1.0778 0.0620
C72 C 0.46472(18) 1.01332(17) 0.15079(17)
H73 H 0.4805 1.0462 0.1728
C73 C 0.46079(17) 0.94486(16) 0.18316(16)
C74 C 0.49792(19) 0.95151(17) 0.29640(17)
C75 C 0.52207(18) 0.90123(17) 0.35896(16)
C76 C 0.52993(19) 0.92928(18) 0.41663(17)
H74 H 0.5208 0.9802 0.4172
C77 C 0.5511(2) 0.88253(18) 0.47322(18)
H75 H 0.5558 0.9007 0.5136
C78 C 0.56548(19) 0.80825(18) 0.47027(17)
H76 H 0.5799 0.7748 0.5087
C79 C 0.55838(17) 0.78383(17) 0.40983(16)
C80 C 0.57747(18) 0.70363(17) 0.40380(16)
C81 C 0.61339(17) 0.61808(16) 0.31403(16)
C82 C 0.60258(18) 0.55499(16) 0.35330(17)
H77 H 0.5858 0.5542 0.4005
C83 C 0.61722(19) 0.49345(17) 0.32076(17)
H78 H 0.6096 0.4495 0.3459
C84 C 0.64281(19) 0.49451(17) 0.25198(17)
H79 H 0.6521 0.4526 0.2291
C85 C 0.65412(17) 0.55999(16) 0.21816(16)
C86 C 0.69481(19) 0.52747(17) 0.09881(17)
C87 C 0.72760(18) 0.56041(17) 0.03216(16)
C88 C 0.7346(2) 0.52772(19) -0.02702(18)
H80 H 0.7179 0.4850 -0.0261
C89 C 0.7662(2) 0.55838(19) -0.08710(18)
H81 H 0.7722 0.5364 -0.1278
C90 C 0.7888(2) 0.62057(19) -0.08754(17)
H82 H 0.8113 0.6421 -0.1281
C91 C 0.77779(18) 0.65161(18) -0.02677(17)
C92 C 0.79907(19) 0.72254(18) -0.02645(17)
C93 C 0.81714(18) 0.80090(18) 0.05441(17)
C94 C 0.8175(2) 0.86413(19) 0.01166(19)
H83 H 0.8043 0.8700 -0.0333
C95 C 0.8377(2) 0.91877(19) 0.03660(19)
H84 H 0.8384 0.9630 0.0085
C96 C 0.85691(19) 0.90958(19) 0.10214(18)
H85 H 0.8711 0.9466 0.1197
C97 C 0.85457(18) 0.84398(17) 0.14117(17)
C98 C 0.91329(19) 0.85450(19) 0.24164(18)
C99 C 0.9727(2) 0.8287(2) 0.34668(19)
C100 C 0.9389(3) 0.9037(2) 0.3696(2)
H86 H 0.8895 0.9052 0.3930
H87 H 0.9359 0.9403 0.3297
H88 H 0.9695 0.9137 0.4006
C101 C 1.0496(2) 0.8211(3) 0.3094(3)
H89 H 1.0682 0.7721 0.2960
H90 H 1.0821 0.8299 0.3395
H91 H 1.0482 0.8565 0.2687
C102 C 0.9710(3) 0.7694(2) 0.4057(2)
H92 H 0.9209 0.7754 0.4288
H93 H 1.0040 0.7724 0.4380
H94 H 0.9869 0.7220 0.3885
N31 N 0.85148(17) 0.64331(15) 0.21848(15)
O21 O 0.81810(15) 0.68551(13) 0.25988(13)
O22 O 0.82151(14) 0.62183(13) 0.17718(13)
C103 C 0.9319(2) 0.61728(19) 0.21687(19)
C104 C 0.9699(2) 0.5736(3) 0.1694(2)
H95 H 0.9451 0.5592 0.1377
C105 C 1.0456(3) 0.5503(3) 0.1680(3)
H96 H 1.0730 0.5189 0.1359
C106 C 1.0814(3) 0.5729(3) 0.2138(3)
H97 H 1.1334 0.5592 0.2113
C107 C 1.0417(3) 0.6145(3) 0.2618(3)
H98 H 1.0663 0.6281 0.2941
C108 C 0.9658(3) 0.6379(2) 0.2648(2)
H99 H 0.9381 0.6669 0.2987
N32 N 1.56505(18) 0.61953(16) 0.82764(16)
O23 O 1.61176(17) 0.59184(17) 0.86609(14)
O24 O 1.50016(17) 0.64000(17) 0.84774(15)
C109 C 1.58816(19) 0.62898(17) 0.75394(17)
C110 C 1.5353(2) 0.65186(17) 0.70933(19)
H100 H 1.4846 0.6627 0.7259
C111 C 1.5578(2) 0.65862(18) 0.63970(19)
H101 H 1.5226 0.6744 0.6081
C112 C 1.6314(2) 0.64229(17) 0.61697(18)
H102 H 1.6467 0.6465 0.5694
C113 C 1.6834(2) 0.61992(18) 0.66185(18)
H103 H 1.7340 0.6090 0.6452
C114 C 1.6619(2) 0.61318(18) 0.73180(18)
H104 H 1.6973 0.5981 0.7633
N33 N 0.5880(2) 0.82335(17) -0.34291(18)
O25 O 0.63987(19) 0.81712(19) -0.38954(16)
O26 O 0.52241(17) 0.83948(16) -0.35176(16)
C115 C 0.6068(2) 0.80800(17) -0.27218(18)
C116 C 0.5518(2) 0.81241(19) -0.2189(2)
H105 H 0.5018 0.8254 -0.2273
C117 C 0.5700(2) 0.79775(19) -0.1537(2)
H106 H 0.5325 0.8008 -0.1163
C118 C 0.6428(2) 0.77857(19) -0.1420(2)
H107 H 0.6549 0.7685 -0.0965
C119 C 0.6981(2) 0.77385(19) -0.19546(19)
H108 H 0.7479 0.7605 -0.1865
C120 C 0.6814(2) 0.78861(19) -0.26245(19)
H109 H 0.7188 0.7857 -0.2999
N34 N 0.1229(2) 1.1452(3) 0.3368(2)
O27 O 0.1198(2) 1.1073(3) 0.3926(2)
O28 O 0.1430(2) 1.2015(2) 0.3266(2)
C121 C 0.1014(2) 1.1183(2) 0.2789(2)
C122 C 0.0860(2) 1.0508(3) 0.2877(3)
H110 H 0.0883 1.0216 0.3304
C123 C 0.0669(3) 1.0271(3) 0.2319(3)
H111 H 0.0553 0.9814 0.2362
C124 C 0.0650(2) 1.0700(3) 0.1707(3)
H112 H 0.0525 1.0532 0.1327
C125 C 0.0805(2) 1.1363(2) 0.1632(2)
H113 H 0.0784 1.1655 0.1205
C126 C 0.0992(2) 1.1605(2) 0.2176(2)
H114 H 0.1106 1.2064 0.2127
N35 N 1.6727(2) 0.2400(2) 0.24090(17)
O29 O 1.6770(2) 0.30065(19) 0.24699(19)
O30 O 1.61509(19) 0.2207(2) 0.23920(17)
C127 C 1.7427(2) 0.1833(2) 0.2358(2)
C128 C 1.8078(3) 0.2024(2) 0.2307(2)
H115 H 1.8091 0.2514 0.2306
C129 C 1.8719(3) 0.1484(3) 0.2258(3)
H116 H 1.9181 0.1604 0.2213
C130 C 1.8692(3) 0.0784(2) 0.2273(3)
H117 H 1.9135 0.0417 0.2239
C131 C 1.8029(3) 0.0601(3) 0.2336(3)
H118 H 1.8017 0.0108 0.2351
C132 C 1.7386(3) 0.1126(3) 0.2377(3)
H119 H 1.6925 0.1006 0.2418
N36 N 1.8973(2) 0.6190(2) 0.7271(2)
O31 O 1.9190(3) 0.6431(3) 0.7718(2)
O32 O 1.8418(2) 0.5966(2) 0.7358(2)
C133 C 1.9414(2) 0.6167(2) 0.6604(2)
C134 C 1.9224(3) 0.5833(3) 0.6120(3)
H120 H 1.8818 0.5616 0.6222
C135 C 1.9619(4) 0.5813(4) 0.5493(3)
H121 H 1.9492 0.5579 0.5157
C136 C 2.0195(4) 0.6128(4) 0.5351(3)
H122 H 2.0475 0.6105 0.4917
C137 C 2.0379(3) 0.6485(4) 0.5832(4)
H123 H 2.0771 0.6721 0.5719
C138 C 1.9986(3) 0.6496(3) 0.6484(3)
H124 H 2.0112 0.6722 0.6826
O33 O 0.39253(16) 0.77304(14) 0.21684(14)
loop_
_geom_bond_atom_site_label_1
_geom_bond_atom_site_label_2
_geom_bond_site_symmetry_1
_geom_bond_site_symmetry_2
N1 H1 1_555 1_555
N2 C6 1_555 1_555
N3 H2 1_555 1_555
N4 C12 1_555 1_555
N5 H3 1_555 1_555
N6 C18 1_555 1_555
N7 H4 1_555 1_555
N8 C24 1_555 1_555
N9 H5 1_555 1_555
N10 C30 1_555 1_555
N11 H6 1_555 1_555
N12 C36 1_555 1_555
N13 H7 1_555 1_555
N14 C42 1_555 1_555
N15 H8 1_555 1_555
N16 H9 1_555 1_555
N17 C57 1_555 1_555
N18 H10 1_555 1_555
N19 C63 1_555 1_555
N20 H11 1_555 1_555
N21 C69 1_555 1_555
N22 H12 1_555 1_555
N23 C75 1_555 1_555
N24 H13 1_555 1_555
N25 C81 1_555 1_555
N26 H14 1_555 1_555
N27 C87 1_555 1_555
N28 H15 1_555 1_555
N29 C93 1_555 1_555
N30 H16 1_555 1_555
O1 C4 1_555 1_555
O2 C5 1_555 1_555
O3 C11 1_555 1_555
O4 C17 1_555 1_555
O5 C23 1_555 1_555
O6 C29 1_555 1_555
O7 C35 1_555 1_555
O8 C41 1_555 1_555
O9 C47 1_555 1_555
O10 C47 1_555 1_555
O11 C55 1_555 1_555
O12 C56 1_555 1_555
O13 C62 1_555 1_555
O14 C68 1_555 1_555
O15 C74 1_555 1_555
O16 C80 1_555 1_555
O17 C86 1_555 1_555
O18 C92 1_555 1_555
O19 C98 1_555 1_555
O20 C98 1_555 1_555
C1 H17 1_555 1_555
H18 C1 1_555 1_555
H19 C1 1_555 1_555
C2 H20 1_555 1_555
H21 C2 1_555 1_555
H22 C2 1_555 1_555
C3 H23 1_555 1_555
H24 C3 1_555 1_555
H25 C3 1_555 1_555
C4 C1 1_555 1_555
C5 N1 1_555 1_555
C6 N1 1_555 1_555
C7 C6 1_555 1_555
H26 C7 1_555 1_555
C8 C7 1_555 1_555
H27 C8 1_555 1_555
C9 C8 1_555 1_555
H28 C9 1_555 1_555
C10 N2 1_555 1_555
C11 N3 1_555 1_555
C12 C11 1_555 1_555
C13 C12 1_555 1_555
H29 C13 1_555 1_555
C14 C13 1_555 1_555
H30 C14 1_555 1_555
C15 C14 1_555 1_555
H31 C15 1_555 1_555
C16 N4 1_555 1_555
C17 N5 1_555 1_555
C18 N5 1_555 1_555
C19 C18 1_555 1_555
H32 C19 1_555 1_555
C20 C19 1_555 1_555
H33 C20 1_555 1_555
C21 C20 1_555 1_555
H34 C21 1_555 1_555
C22 N6 1_555 1_555
C23 N7 1_555 1_555
C24 C23 1_555 1_555
C25 C24 1_555 1_555
H35 C25 1_555 1_555
C26 C25 1_555 1_555
H36 C26 1_555 1_555
C27 C26 1_555 1_555
H37 C27 1_555 1_555
C28 N8 1_555 1_555
C29 N9 1_555 1_555
C30 N9 1_555 1_555
C31 C30 1_555 1_555
H38 C31 1_555 1_555
C32 C31 1_555 1_555
H39 C32 1_555 1_555
C33 C32 1_555 1_555
H40 C33 1_555 1_555
C34 N10 1_555 1_555
C35 N11 1_555 1_555
C36 C35 1_555 1_555
C37 C36 1_555 1_555
H41 C37 1_555 1_555
C38 C37 1_555 1_555
H42 C38 1_555 1_555
C39 C38 1_555 1_555
H43 C39 1_555 1_555
C40 N12 1_555 1_555
C41 N13 1_555 1_555
C42 N13 1_555 1_555
C43 C42 1_555 1_555
H44 C43 1_555 1_555
C44 C43 1_555 1_555
H45 C44 1_555 1_555
C45 C44 1_555 1_555
H46 C45 1_555 1_555
C46 N14 1_555 1_555
C47 N15 1_555 1_555
C48 O10 1_555 1_555
C49 C48 1_555 1_555
H47 C49 1_555 1_555
H48 C49 1_555 1_555
H49 C49 1_555 1_555
C50 C48 1_555 1_555
H50 C50 1_555 1_555
H51 C50 1_555 1_555
H52 C50 1_555 1_555
C51 C48 1_555 1_555
H53 C51 1_555 1_555
H54 C51 1_555 1_555
H55 C51 1_555 1_555
C52 H56 1_555 1_555
H57 C52 1_555 1_555
H58 C52 1_555 1_555
C53 H59 1_555 1_555
H60 C53 1_555 1_555
H61 C53 1_555 1_555
C54 H62 1_555 1_555
H63 C54 1_555 1_555
H64 C54 1_555 1_555
C55 C52 1_555 1_555
C56 N16 1_555 1_555
C57 N16 1_555 1_555
C58 C57 1_555 1_555
H65 C58 1_555 1_555
C59 C58 1_555 1_555
H66 C59 1_555 1_555
C60 C59 1_555 1_555
H67 C60 1_555 1_555
C61 N17 1_555 1_555
C62 N18 1_555 1_555
C63 C62 1_555 1_555
C64 C63 1_555 1_555
H68 C64 1_555 1_555
C65 C64 1_555 1_555
H69 C65 1_555 1_555
C66 C65 1_555 1_555
H70 C66 1_555 1_555
C67 N19 1_555 1_555
C68 N20 1_555 1_555
C69 N20 1_555 1_555
C70 C69 1_555 1_555
H71 C70 1_555 1_555
C71 C70 1_555 1_555
H72 C71 1_555 1_555
C72 C71 1_555 1_555
H73 C72 1_555 1_555
C73 N21 1_555 1_555
C74 N22 1_555 1_555
C75 C74 1_555 1_555
C76 C75 1_555 1_555
H74 C76 1_555 1_555
C77 C76 1_555 1_555
H75 C77 1_555 1_555
C78 C77 1_555 1_555
H76 C78 1_555 1_555
C79 N23 1_555 1_555
C80 N24 1_555 1_555
C81 N24 1_555 1_555
C82 C81 1_555 1_555
H77 C82 1_555 1_555
C83 C82 1_555 1_555
H78 C83 1_555 1_555
C84 C83 1_555 1_555
H79 C84 1_555 1_555
C85 N25 1_555 1_555
C86 N26 1_555 1_555
C87 C86 1_555 1_555
C88 C87 1_555 1_555
H80 C88 1_555 1_555
C89 C88 1_555 1_555
H81 C89 1_555 1_555
C90 C89 1_555 1_555
H82 C90 1_555 1_555
C91 N27 1_555 1_555
C92 N28 1_555 1_555
C93 N28 1_555 1_555
C94 C93 1_555 1_555
H83 C94 1_555 1_555
C95 C94 1_555 1_555
H84 C95 1_555 1_555
C96 C95 1_555 1_555
H85 C96 1_555 1_555
C97 N29 1_555 1_555
C98 N30 1_555 1_555
C99 O20 1_555 1_555
C100 C99 1_555 1_555
H86 C100 1_555 1_555
H87 C100 1_555 1_555
H88 C100 1_555 1_555
C101 C99 1_555 1_555
H89 C101 1_555 1_555
H90 C101 1_555 1_555
H91 C101 1_555 1_555
C102 C99 1_555 1_555
H92 C102 1_555 1_555
H93 C102 1_555 1_555
H94 C102 1_555 1_555
N31 O21 1_555 1_555
O22 N31 1_555 1_555
C103 N31 1_555 1_555
C104 C103 1_555 1_555
H95 C104 1_555 1_555
C105 C104 1_555 1_555
H96 C105 1_555 1_555
C106 C105 1_555 1_555
H97 C106 1_555 1_555
C107 C106 1_555 1_555
H98 C107 1_555 1_555
C108 C103 1_555 1_555
H99 C108 1_555 1_555
N32 O23 1_555 1_555
O24 N32 1_555 1_555
C109 N32 1_555 1_555
C110 C109 1_555 1_555
H100 C110 1_555 1_555
C111 C110 1_555 1_555
H101 C111 1_555 1_555
C112 C111 1_555 1_555
H102 C112 1_555 1_555
C113 C112 1_555 1_555
H103 C113 1_555 1_555
C114 C109 1_555 1_555
H104 C114 1_555 1_555
N33 O25 1_555 1_555
O26 N33 1_555 1_555
C115 N33 1_555 1_555
C116 C115 1_555 1_555
H105 C116 1_555 1_555
C117 C116 1_555 1_555
H106 C117 1_555 1_555
C118 C117 1_555 1_555
H107 C118 1_555 1_555
C119 C118 1_555 1_555
H108 C119 1_555 1_555
C120 C115 1_555 1_555
H109 C120 1_555 1_555
N34 O27 1_555 1_555
O28 N34 1_555 1_555
C121 N34 1_555 1_555
C122 C121 1_555 1_555
H110 C122 1_555 1_555
C123 C122 1_555 1_555
H111 C123 1_555 1_555
C124 C123 1_555 1_555
H112 C124 1_555 1_555
C125 C124 1_555 1_555
H113 C125 1_555 1_555
C126 C121 1_555 1_555
H114 C126 1_555 1_555
N35 O29 1_555 1_555
O30 N35 1_555 1_555
C127 N35 1_555 1_555
C128 C127 1_555 1_555
H115 C128 1_555 1_555
C129 C128 1_555 1_555
H116 C129 1_555 1_555
C130 C129 1_555 1_555
H117 C130 1_555 1_555
C131 C130 1_555 1_555
H118 C131 1_555 1_555
C132 C127 1_555 1_555
H119 C132 1_555 1_555
N36 O31 1_555 1_555
O32 N36 1_555 1_555
C133 N36 1_555 1_555
C134 C133 1_555 1_555
H120 C134 1_555 1_555
C135 C134 1_555 1_555
H121 C135 1_555 1_555
C136 C135 1_555 1_555
H122 C136 1_555 1_555
C137 C136 1_555 1_555
H123 C137 1_555 1_555
C138 C133 1_555 1_555
H124 C138 1_555 1_555
N3 C10 1_555 1_555
N7 C22 1_555 1_555
N11 C34 1_555 1_555
N15 C46 1_555 1_555
N18 C61 1_555 1_555
N22 C73 1_555 1_555
N26 C85 1_555 1_555
N30 C97 1_555 1_555
O1 C5 1_555 1_555
O11 C56 1_555 1_555
C2 C4 1_555 1_555
C3 C4 1_555 1_555
C9 C10 1_555 1_555
C15 C16 1_555 1_555
C16 C17 1_555 1_555
C21 C22 1_555 1_555
C27 C28 1_555 1_555
C28 C29 1_555 1_555
C33 C34 1_555 1_555
C39 C40 1_555 1_555
C40 C41 1_555 1_555
C45 C46 1_555 1_555
C53 C55 1_555 1_555
C54 C55 1_555 1_555
C60 C61 1_555 1_555
C66 C67 1_555 1_555
C67 C68 1_555 1_555
C72 C73 1_555 1_555
C78 C79 1_555 1_555
C79 C80 1_555 1_555
C84 C85 1_555 1_555
C90 C91 1_555 1_555
C91 C92 1_555 1_555
C96 C97 1_555 1_555
C107 C108 1_555 1_555
C113 C114 1_555 1_555
C119 C120 1_555 1_555
C125 C126 1_555 1_555
C131 C132 1_555 1_555
C137 C138 1_555 1_555

#END
