
#######################################################################
#
#                 Cambridge Crystallographic Data Centre
#                                CCDC 
#
#######################################################################
#
# If this CIF has been generated from an entry in the Cambridge 
# Structural Database, then it will include bibliographic, chemical, 
# crystal, experimental, refinement or atomic coordinate data resulting 
# from the CCDC's data processing and validation procedures.
#
#######################################################################

data_ABOMAF
_chemical_formula_moiety         
'C59 H43 N11 O8,0.25(C1 H4 O1),1.5(C1 H1 Cl3),1.8(H2 O1)'
_chemical_name_systematic        
'2,6-bis((6-(6-(9H-Fluoren-9-ylmethoxycarbonylamino)pyridin-2-ylcarbamoyl)pyridine-2-carbonyl)amino)pyridine methanol chloroform solvate hydrate'
_symmetry_cell_setting           triclinic
_symmetry_space_group_name_H-M   'P -1'
_symmetry_Int_Tables_number      2
_space_group_name_Hall           '-P 1'
loop_
_symmetry_equiv_pos_site_id
_symmetry_equiv_pos_as_xyz
1 x,y,z
2 -x,-y,-z
_cell_length_a                   13.202(3)
_cell_length_b                   15.309(3)
_cell_length_c                   15.806(3)
_cell_angle_alpha                80.59(3)
_cell_angle_beta                 87.97(3)
_cell_angle_gamma                68.69(3)
_cell_volume                     2935.08
_exptl_crystal_colour            colorless
_chemical_melting_point          'above 180deg.C(dec)'
_cell_formula_units_Z            2
_exptl_crystal_recrystallization_method chloroform/hexane
loop_
_atom_site_label
_atom_site_type_symbol
_atom_site_fract_x
_atom_site_fract_y
_atom_site_fract_z
N1 N 0.9127(3) 0.2916(2) 0.0406(2)
H1 H 0.8624 0.2814 0.0745
N2 N 0.9021(2) 0.16782(19) -0.01793(18)
N3 N 0.8729(2) 0.04648(19) -0.06705(19)
H2 H 0.8230 0.0550 -0.0276
N4 N 0.7371(2) -0.04856(18) -0.02400(18)
N5 N 0.5934(3) 0.01325(19) 0.09803(19)
H3 H 0.6373 0.0393 0.0708
N6 N 0.5362(2) 0.14738(18) 0.16119(18)
N7 N 0.4933(3) 0.28693(19) 0.2149(2)
H4 H 0.5271 0.3042 0.1700
N8 N 0.5324(2) 0.45182(18) 0.17700(19)
N9 N 0.6328(3) 0.47935(19) 0.0295(2)
H5 H 0.6214 0.4280 0.0541
N10 N 0.6928(2) 0.39476(18) -0.08111(18)
N11 N 0.7450(2) 0.29717(18) -0.18185(18)
H6 H 0.7130 0.2636 -0.1486
O1 O 0.8773(3) 0.4109(2) 0.11219(18)
O2 O 1.0179(3) 0.38417(19) 0.0207(2)
O3 O 0.9467(2) -0.04578(17) -0.17041(17)
O4 O 0.5394(2) -0.11381(17) 0.10404(18)
O5 O 0.4087(3) 0.33572(19) 0.33698(19)
O6 O 0.6002(3) 0.63318(17) 0.04599(19)
O7 O 0.8360(2) 0.29951(18) -0.30912(16)
O8 O 0.7724(2) 0.18215(16) -0.25852(16)
C1 C 0.9703(3) 0.4358(3) 0.2820(2)
C2 C 1.0312(4) 0.3401(3) 0.2871(3)
H7 H 1.0139 0.3032 0.2512
C3 C 1.1184(4) 0.2986(3) 0.3458(3)
H8 H 1.1605 0.2328 0.3501
C4 C 1.1445(4) 0.3528(3) 0.3983(3)
H9 H 1.2043 0.3236 0.4379
C5 C 1.0837(4) 0.4488(3) 0.3932(3)
H10 H 1.1015 0.4856 0.4291
C6 C 0.9969(3) 0.4906(3) 0.3351(2)
C7 C 0.9176(3) 0.5882(3) 0.3181(2)
C8 C 0.9031(4) 0.6675(3) 0.3578(3)
H11 H 0.9510 0.6635 0.4030
C9 C 0.8176(4) 0.7517(3) 0.3299(3)
H12 H 0.8069 0.8055 0.3566
C10 C 0.7475(4) 0.7587(3) 0.2639(3)
H13 H 0.6893 0.8171 0.2460
C11 C 0.7615(3) 0.6803(3) 0.2231(3)
H14 H 0.7151 0.6856 0.1764
C12 C 0.8452(3) 0.5947(3) 0.2527(2)
C13 C 0.8711(3) 0.4979(3) 0.2257(2)
H15 H 0.8099 0.4755 0.2428
C14 C 0.8885(4) 0.4969(3) 0.1300(3)
H16 H 0.8336 0.5535 0.0963
H17 H 0.9618 0.4971 0.1149
C15 C 0.9433(3) 0.3646(3) 0.0540(3)
C16 C 0.9512(3) 0.2309(2) -0.0202(2)
C17 C 1.0314(3) 0.2356(3) -0.0784(3)
H18 H 1.0650 0.2810 -0.0789
C18 C 1.0600(4) 0.1721(3) -0.1351(3)
H19 H 1.1143 0.1738 -0.1757
C19 C 1.0117(3) 0.1059(3) -0.1344(3)
H20 H 1.0322 0.0612 -0.1728
C20 C 0.9316(3) 0.1079(2) -0.0747(2)
C21 C 0.8829(3) -0.0240(2) -0.1124(2)
C22 C 0.8079(3) -0.0773(2) -0.0853(2)
C23 C 0.8194(3) -0.1568(2) -0.1229(3)
H21 H 0.8688 -0.1738 -0.1679
C24 C 0.7568(3) -0.2099(2) -0.0927(3)
H22 H 0.7641 -0.2652 -0.1161
C25 C 0.6832(3) -0.1828(2) -0.0283(3)
H23 H 0.6397 -0.2187 -0.0069
C26 C 0.6754(3) -0.1008(2) 0.0042(2)
C27 C 0.5955(3) -0.0686(2) 0.0736(2)
C28 C 0.5298(3) 0.0617(2) 0.1616(2)
C29 C 0.4688(3) 0.0242(3) 0.2196(3)
H24 H 0.4670 -0.0373 0.2193
C30 C 0.4110(4) 0.0804(3) 0.2778(3)
H25 H 0.3680 0.0574 0.3183
C31 C 0.4141(3) 0.1689(3) 0.2785(3)
H26 H 0.3729 0.2079 0.3179
C32 C 0.4799(3) 0.1993(2) 0.2193(2)
C33 C 0.4596(3) 0.3478(2) 0.2727(2)
C34 C 0.4882(3) 0.4355(2) 0.2530(2)
C35 C 0.4656(3) 0.4963(2) 0.3130(3)
H27 H 0.4350 0.4815 0.3662
C36 C 0.4881(3) 0.5784(3) 0.2945(3)
H28 H 0.4745 0.6205 0.3350
C37 C 0.5307(3) 0.5982(3) 0.2157(3)
H29 H 0.5455 0.6549 0.2006
C38 C 0.5516(3) 0.5334(2) 0.1584(2)
C39 C 0.5967(3) 0.5540(2) 0.0723(3)
C40 C 0.6862(3) 0.4727(2) -0.0492(2)
C41 C 0.7307(3) 0.5382(3) -0.0885(3)
H30 H 0.7241 0.5930 -0.0645
C42 C 0.7850(3) 0.5203(2) -0.1639(3)
H31 H 0.8174 0.5629 -0.1922
C43 C 0.7926(3) 0.4410(2) -0.1986(2)
H32 H 0.8292 0.4286 -0.2507
C44 C 0.7448(3) 0.3798(2) -0.1546(2)
C45 C 0.7897(3) 0.2634(2) -0.2544(2)
C46 C 0.8256(4) 0.1314(3) -0.3271(2)
H33 H 0.9036 0.0958 -0.3121
H34 H 0.8199 0.1767 -0.3808
C47 C 0.7691(3) 0.0631(2) -0.3389(2)
H35 H 0.7648 0.0246 -0.2823
C48 C 0.8306(3) -0.0020(3) -0.4006(3)
C49 C 0.9378(4) -0.0640(3) -0.3960(4)
H36 H 0.9831 -0.0720 -0.3478
C50 C 0.9780(5) -0.1140(3) -0.4628(4)
H37 H 1.0518 -0.1559 -0.4602
C51 C 0.9157(5) -0.1048(4) -0.5308(4)
H38 H 0.9457 -0.1397 -0.5760
C52 C 0.8054(5) -0.0437(4) -0.5361(4)
H39 H 0.7601 -0.0390 -0.5833
C53 C 0.7646(4) 0.0095(3) -0.4710(3)
C54 C 0.6552(4) 0.0816(3) -0.4588(3)
C55 C 0.5629(5) 0.1176(5) -0.5102(4)
H40 H 0.5622 0.0980 -0.5641
C56 C 0.4710(5) 0.1833(5) -0.4814(4)
H41 H 0.4064 0.2086 -0.5161
C57 C 0.4710(4) 0.2131(3) -0.4033(4)
H42 H 0.4069 0.2584 -0.3849
C58 C 0.5645(4) 0.1767(3) -0.3523(3)
H43 H 0.5649 0.1965 -0.2984
C59 C 0.6573(3) 0.1114(2) -0.3799(2)
O9 O 0.6135(3) 0.1990(2) -0.0630(2)
C60 C 0.2611(4) 0.5903(3) 0.4916(3)
H44 H 0.2435 0.5994 0.4290
Cl1 Cl 0.35534(11) 0.64511(9) 0.50333(9)
Cl2 Cl 0.31912(12) 0.46695(8) 0.52907(9)
Cl3 Cl 0.14192(12) 0.63990(10) 0.54246(11)
O10 O 0.6981(15) 0.1848(11) -0.6408(11)
C61 C 0.780(2) 0.1530(19) -0.7144(17)
C62? C 0.7765(8) 0.1830(6) 0.1871(6)
Cl4? Cl 0.7174(4) 0.2549(3) 0.1148(3)
Cl5? Cl 0.6671(6) 0.2773(4) 0.0728(5)
Cl6? Cl 0.7920(6) 0.2318(5) 0.2655(5)
Cl7? Cl 1.2047(8) -0.0597(6) -0.2585(6)
Cl8? Cl 1.1965(18) -0.1130(16) -0.1729(15)
loop_
_geom_bond_atom_site_label_1
_geom_bond_atom_site_label_2
_geom_bond_site_symmetry_1
_geom_bond_site_symmetry_2
N1 H1 1_555 1_555
N2 C16 1_555 1_555
N3 H2 1_555 1_555
N4 C22 1_555 1_555
N5 H3 1_555 1_555
N6 C28 1_555 1_555
N7 H4 1_555 1_555
N8 C34 1_555 1_555
N9 H5 1_555 1_555
N10 C40 1_555 1_555
N11 H6 1_555 1_555
O1 C14 1_555 1_555
O2 C15 1_555 1_555
O3 C21 1_555 1_555
O4 C27 1_555 1_555
O5 C33 1_555 1_555
O6 C39 1_555 1_555
O7 C45 1_555 1_555
O8 C45 1_555 1_555
C1 C2 1_555 1_555
C2 H7 1_555 1_555
C3 C2 1_555 1_555
H8 C3 1_555 1_555
C4 C3 1_555 1_555
H9 C4 1_555 1_555
C5 C4 1_555 1_555
H10 C5 1_555 1_555
C6 C1 1_555 1_555
C7 C6 1_555 1_555
C8 C7 1_555 1_555
H11 C8 1_555 1_555
C9 C8 1_555 1_555
H12 C9 1_555 1_555
C10 C9 1_555 1_555
H13 C10 1_555 1_555
C11 C10 1_555 1_555
H14 C11 1_555 1_555
C12 C7 1_555 1_555
C13 C1 1_555 1_555
H15 C13 1_555 1_555
C14 C13 1_555 1_555
H16 C14 1_555 1_555
H17 C14 1_555 1_555
C15 N1 1_555 1_555
C16 N1 1_555 1_555
C17 C16 1_555 1_555
H18 C17 1_555 1_555
C18 C17 1_555 1_555
H19 C18 1_555 1_555
C19 C18 1_555 1_555
H20 C19 1_555 1_555
C20 N2 1_555 1_555
C21 N3 1_555 1_555
C22 C21 1_555 1_555
C23 C22 1_555 1_555
H21 C23 1_555 1_555
C24 C23 1_555 1_555
H22 C24 1_555 1_555
C25 C24 1_555 1_555
H23 C25 1_555 1_555
C26 N4 1_555 1_555
C27 N5 1_555 1_555
C28 N5 1_555 1_555
C29 C28 1_555 1_555
H24 C29 1_555 1_555
C30 C29 1_555 1_555
H25 C30 1_555 1_555
C31 C30 1_555 1_555
H26 C31 1_555 1_555
C32 N6 1_555 1_555
C33 N7 1_555 1_555
C34 C33 1_555 1_555
C35 C34 1_555 1_555
H27 C35 1_555 1_555
C36 C35 1_555 1_555
H28 C36 1_555 1_555
C37 C36 1_555 1_555
H29 C37 1_555 1_555
C38 N8 1_555 1_555
C39 N9 1_555 1_555
C40 N9 1_555 1_555
C41 C40 1_555 1_555
H30 C41 1_555 1_555
C42 C41 1_555 1_555
H31 C42 1_555 1_555
C43 C42 1_555 1_555
H32 C43 1_555 1_555
C44 N10 1_555 1_555
C45 N11 1_555 1_555
C46 O8 1_555 1_555
H33 C46 1_555 1_555
H34 C46 1_555 1_555
C47 C46 1_555 1_555
H35 C47 1_555 1_555
C48 C47 1_555 1_555
C49 C48 1_555 1_555
H36 C49 1_555 1_555
C50 C49 1_555 1_555
H37 C50 1_555 1_555
C51 C50 1_555 1_555
H38 C51 1_555 1_555
C52 C51 1_555 1_555
H39 C52 1_555 1_555
C53 C48 1_555 1_555
C54 C53 1_555 1_555
C55 C54 1_555 1_555
H40 C55 1_555 1_555
C56 C55 1_555 1_555
H41 C56 1_555 1_555
C57 C56 1_555 1_555
H42 C57 1_555 1_555
C58 C57 1_555 1_555
H43 C58 1_555 1_555
C59 C47 1_555 1_555
C60 H44 1_555 1_555
Cl1 C60 1_555 1_555
Cl2 C60 1_555 1_555
Cl3 C60 1_555 1_555
O10 C61 1_555 1_555
N3 C20 1_555 1_555
N7 C32 1_555 1_555
N11 C44 1_555 1_555
O1 C15 1_555 1_555
C5 C6 1_555 1_555
C11 C12 1_555 1_555
C12 C13 1_555 1_555
C19 C20 1_555 1_555
C25 C26 1_555 1_555
C26 C27 1_555 1_555
C31 C32 1_555 1_555
C37 C38 1_555 1_555
C38 C39 1_555 1_555
C43 C44 1_555 1_555
C52 C53 1_555 1_555
C54 C59 1_555 1_555
C58 C59 1_555 1_555

#END
