
#######################################################################
#
#                 Cambridge Crystallographic Data Centre
#                                CCDC 
#
#######################################################################
#
# If this CIF has been generated from an entry in the Cambridge 
# Structural Database, then it will include bibliographic, chemical, 
# crystal, experimental, refinement or atomic coordinate data resulting 
# from the CCDC's data processing and validation procedures.
#
#######################################################################

data_ABONAG
_chemical_formula_moiety         'C29 H23 N11 O4,0.7(C2 H6 O1 S1),H2 O1'
_chemical_name_systematic        
'2,6-bis((6-(6-Aminopyridin-2-ylcarbamoyl)pyridine-2-carbonyl)amino)pyridine dimethylsulfoxide solvate monohydrate'
_symmetry_cell_setting           monoclinic
_symmetry_space_group_name_H-M   'C 2/c'
_symmetry_Int_Tables_number      15
_space_group_name_Hall           '-C 2yn'
loop_
_symmetry_equiv_pos_site_id
_symmetry_equiv_pos_as_xyz
1 x,y,z
2 1/2+x,1/2+y,z
3 x,-y,1/2+z
4 1/2+x,1/2-y,1/2+z
5 -x,-y,-z
6 1/2-x,1/2-y,-z
7 -x,y,1/2-z
8 1/2-x,1/2+y,1/2-z
_cell_length_a                   21.220(4)
_cell_length_b                   17.880(4)
_cell_length_c                   16.790(3)
_cell_angle_alpha                90
_cell_angle_beta                 93.79(3)
_cell_angle_gamma                90
_cell_volume                     6356.42
_exptl_crystal_colour            colorless
_exptl_crystal_description       parallelepiped
_cell_formula_units_Z            8
_exptl_crystal_recrystallization_method 'dmso/acetonitrile (at 25 deg.C)'
loop_
_atom_site_label
_atom_site_type_symbol
_atom_site_fract_x
_atom_site_fract_y
_atom_site_fract_z
N1 N 0.50147(18) 0.3637(2) 0.4634(3)
H1 H 0.5377 0.3417 0.4767
H2 H 0.5008 0.4109 0.4484
N2 N 0.44848(15) 0.25308(18) 0.4893(2)
N3 N 0.40237(15) 0.13855(17) 0.51778(19)
H3 H 0.4385 0.1299 0.5451
N4 N 0.44369(14) 0.00899(17) 0.57794(19)
N5 N 0.54466(15) 0.01736(18) 0.6674(2)
H4 H 0.5204 0.0538 0.6479
N6 N 0.59315(14) 0.10738(18) 0.73842(18)
N7 N 0.63246(15) 0.20768(18) 0.8054(2)
H5 H 0.5936 0.2228 0.8113
N8 N 0.59385(16) 0.34894(18) 0.8386(2)
N9 N 0.46734(17) 0.37159(19) 0.8500(2)
H6 H 0.4856 0.3313 0.8321
N10 N 0.38202(17) 0.29289(19) 0.8714(2)
N11 N 0.30172(18) 0.2061(2) 0.8933(2)
H7 H 0.3288 0.1699 0.8857
H8 H 0.2627 0.1954 0.9041
O1 O 0.31345(14) 0.07999(17) 0.4782(2)
O2 O 0.55161(15) -0.11033(16) 0.66911(19)
O3 O 0.73437(14) 0.24121(19) 0.8195(2)
O4 O 0.48309(16) 0.49657(18) 0.8702(2)
C1 C 0.4458(2) 0.3244(2) 0.4662(3)
C2 C 0.3893(2) 0.3583(3) 0.4466(3)
H9 H 0.3872 0.4093 0.4306
C3 C 0.3357(2) 0.3163(3) 0.4510(3)
H10 H 0.2960 0.3396 0.4389
C4 C 0.3367(2) 0.2408(2) 0.4724(3)
H11 H 0.2994 0.2114 0.4730
C5 C 0.39435(19) 0.2131(2) 0.4919(2)
C6 C 0.36519(19) 0.0789(2) 0.5084(2)
C7 C 0.39235(18) 0.0055(2) 0.5348(2)
C8 C 0.36586(19) -0.0615(2) 0.5115(3)
H12 H 0.3277 -0.0617 0.4786
C9 C 0.3929(2) -0.1276(2) 0.5344(3)
H13 H 0.3742 -0.1739 0.5180
C10 C 0.4451(2) -0.1256(2) 0.5792(2)
H14 H 0.4662 -0.1701 0.5967
C11 C 0.46826(18) -0.0557(2) 0.6004(2)
C12 C 0.52593(19) -0.0532(2) 0.6491(2)
C13 C 0.59620(18) 0.0371(2) 0.7119(2)
C14 C 0.6459(2) -0.0112(3) 0.7241(3)
H15 H 0.6455 -0.0605 0.7032
C15 C 0.6939(2) 0.0164(3) 0.7669(3)
H16 H 0.7304 -0.0136 0.7780
C16 C 0.69258(19) 0.0891(3) 0.7965(3)
H17 H 0.7277 0.1084 0.8280
C17 C 0.64020(18) 0.1327(2) 0.7799(2)
C18 C 0.6779(2) 0.2567(3) 0.8210(3)
C19 C 0.65572(19) 0.3349(2) 0.8396(3)
C20 C 0.6997(2) 0.3895(3) 0.8576(3)
H18 H 0.7435 0.3787 0.8589
C21 C 0.6785(2) 0.4609(3) 0.8737(3)
H19 H 0.7083 0.4996 0.8856
C22 C 0.6152(2) 0.4765(3) 0.8726(3)
H20 H 0.6005 0.5254 0.8835
C23 C 0.5736(2) 0.4185(2) 0.8552(3)
C24 C 0.5037(2) 0.4331(3) 0.8588(3)
C25 C 0.4016(2) 0.3646(3) 0.8665(3)
C26 C 0.3616(2) 0.4251(3) 0.8780(3)
H21 H 0.3758 0.4750 0.8720
C27 C 0.2985(2) 0.4100(3) 0.8990(3)
H22 H 0.2712 0.4503 0.9097
C28 C 0.2771(2) 0.3371(3) 0.9041(3)
H23 H 0.2352 0.3263 0.9174
C29 C 0.3204(2) 0.2794(2) 0.8884(2)
S1 S 0.13435(17) 0.1852(2) 0.7908(3)
C30 C 0.1284(5) 0.2648(5) 0.7531(4)
H24 H 0.1697 0.2896 0.7577
H25 H 0.0979 0.2943 0.7813
H26 H 0.1139 0.2605 0.6967
C31 C 0.0549(7) 0.1628(11) 0.7701(9)
H27 H 0.0469 0.1121 0.7893
H28 H 0.0447 0.1652 0.7124
H29 H 0.0285 0.1985 0.7971
O5 O 0.1482(2) 0.1838(3) 0.8776(3)
O6 O 0.50368(19) 0.1920(2) 0.6371(3)
H30 H 0.527(10) 0.141(12) 0.718(14)
H31 H 0.532(4) 0.195(5) 0.640(6)
loop_
_geom_bond_atom_site_label_1
_geom_bond_atom_site_label_2
_geom_bond_site_symmetry_1
_geom_bond_site_symmetry_2
N1 H1 1_555 1_555
H2 N1 1_555 1_555
N2 C1 1_555 1_555
N3 H3 1_555 1_555
N4 C7 1_555 1_555
N5 H4 1_555 1_555
N6 C13 1_555 1_555
N7 H5 1_555 1_555
N8 C19 1_555 1_555
N9 H6 1_555 1_555
N10 C25 1_555 1_555
N11 H7 1_555 1_555
H8 N11 1_555 1_555
O1 C6 1_555 1_555
O2 C12 1_555 1_555
O3 C18 1_555 1_555
O4 C24 1_555 1_555
C1 N1 1_555 1_555
C2 C1 1_555 1_555
H9 C2 1_555 1_555
C3 C2 1_555 1_555
H10 C3 1_555 1_555
C4 C3 1_555 1_555
H11 C4 1_555 1_555
C5 N2 1_555 1_555
C6 N3 1_555 1_555
C7 C6 1_555 1_555
C8 C7 1_555 1_555
H12 C8 1_555 1_555
C9 C8 1_555 1_555
H13 C9 1_555 1_555
C10 C9 1_555 1_555
H14 C10 1_555 1_555
C11 N4 1_555 1_555
C12 N5 1_555 1_555
C13 N5 1_555 1_555
C14 C13 1_555 1_555
H15 C14 1_555 1_555
C15 C14 1_555 1_555
H16 C15 1_555 1_555
C16 C15 1_555 1_555
H17 C16 1_555 1_555
C17 N6 1_555 1_555
C18 N7 1_555 1_555
C19 C18 1_555 1_555
C20 C19 1_555 1_555
H18 C20 1_555 1_555
C21 C20 1_555 1_555
H19 C21 1_555 1_555
C22 C21 1_555 1_555
H20 C22 1_555 1_555
C23 N8 1_555 1_555
C24 N9 1_555 1_555
C25 N9 1_555 1_555
C26 C25 1_555 1_555
H21 C26 1_555 1_555
C27 C26 1_555 1_555
H22 C27 1_555 1_555
C28 C27 1_555 1_555
H23 C28 1_555 1_555
C29 N10 1_555 1_555
S1 C30 1_555 1_555
C30 H24 1_555 1_555
H25 C30 1_555 1_555
H26 C30 1_555 1_555
C31 S1 1_555 1_555
H27 C31 1_555 1_555
H28 C31 1_555 1_555
H29 C31 1_555 1_555
O5 S1 1_555 1_555
O6 H30 1_555 1_555
H31 O6 1_555 1_555
N3 C5 1_555 1_555
N7 C17 1_555 1_555
N11 C29 1_555 1_555
C4 C5 1_555 1_555
C10 C11 1_555 1_555
C11 C12 1_555 1_555
C16 C17 1_555 1_555
C22 C23 1_555 1_555
C23 C24 1_555 1_555
C28 C29 1_555 1_555

#END
