
#######################################################################
#
#                 Cambridge Crystallographic Data Centre
#                                CCDC 
#
#######################################################################
#
# If this CIF has been generated from an entry in the Cambridge 
# Structural Database, then it will include bibliographic, chemical, 
# crystal, experimental, refinement or atomic coordinate data resulting 
# from the CCDC's data processing and validation procedures.
#
#######################################################################

data_ABONEK
_chemical_formula_moiety         'C29 H23 N11 O4'
_chemical_name_systematic        
2,6-bis((6-(6-Aminopyridin-2-ylcarbamoyl)pyridine-2-carbonyl)amino)pyridine
_symmetry_cell_setting           orthorhombic
_symmetry_space_group_name_H-M   'P b c n'
_symmetry_Int_Tables_number      60
_space_group_name_Hall           '-P 2n 2ab'
loop_
_symmetry_equiv_pos_site_id
_symmetry_equiv_pos_as_xyz
1 x,y,z
2 1/2+x,1/2+y,1/2-z
3 x,-y,1/2+z
4 1/2-x,1/2+y,z
5 -x,-y,-z
6 1/2-x,1/2-y,1/2+z
7 -x,y,1/2-z
8 1/2+x,1/2-y,-z
_cell_length_a                   23.039(5)
_cell_length_b                   11.340(2)
_cell_length_c                   21.010(4)
_cell_angle_alpha                90
_cell_angle_beta                 90
_cell_angle_gamma                90
_cell_volume                     5489.12
_exptl_crystal_colour            colorless
_exptl_crystal_description       diamond
_cell_formula_units_Z            8
_exptl_crystal_recrystallization_method 
'dmso/acetonitrile/tetraethylammonium chloride (at 8 deg.C)'
loop_
_atom_site_label
_atom_site_type_symbol
_atom_site_fract_x
_atom_site_fract_y
_atom_site_fract_z
N1 N 0.62394(14) 0.0827(3) 0.18627(14)
N2 N 0.43467(13) -0.1105(3) 0.21402(13)
N3 N 0.66819(14) 0.1052(3) 0.30434(15)
H1 H 0.6330 0.0814 0.2944
N4 N 0.51209(12) -0.0196(3) 0.16393(13)
H2 H 0.5321 -0.0348 0.1986
N5 N 0.63607(15) 0.1665(3) 0.40130(15)
N6 N 0.36143(16) -0.2065(4) 0.26780(15)
H3 H 0.3801 -0.1926 0.3036
H4 H 0.3282 -0.2449 0.2685
N7 N 0.43100(17) 0.3481(4) 0.3076(2)
N8 N 0.59292(17) 0.2247(3) 0.49273(15)
H5 H 0.5630 0.2348 0.4673
N9 N 0.42599(19) 0.3837(4) 0.41605(19)
H6 H 0.4600 0.3484 0.4167
N10 N 0.4951(2) 0.3417(4) 0.51615(19)
N11 N 0.4392(2) 0.2971(5) 0.2004(2)
H7 H 0.4241 0.2891 0.1621
H8 H 0.4752 0.2753 0.2075
C1 C 0.60032(17) 0.0789(3) 0.12785(18)
C2 C 0.45692(16) -0.0727(3) 0.15802(17)
C3 C 0.38391(18) -0.1684(4) 0.21132(18)
C4 C 0.43078(18) -0.0909(4) 0.09958(18)
H9 H 0.4478 -0.0637 0.0611
C5 C 0.35399(17) -0.1896(4) 0.15491(18)
H10 H 0.3178 -0.2297 0.1549
C6 C 0.68027(17) 0.1110(3) 0.19007(19)
C7 C 0.70593(19) 0.1221(4) 0.25580(19)
C8 C 0.53695(18) 0.0539(4) 0.11972(19)
C9 C 0.63212(19) 0.0990(4) 0.07355(19)
H11 H 0.6138 0.0951 0.0331
C10 C 0.37829(19) -0.1511(4) 0.10016(18)
H12 H 0.3589 -0.1656 0.0610
C11 C 0.68029(19) 0.1223(4) 0.36889(18)
C12 C 0.3990(2) 0.3876(4) 0.3570(3)
C13 C 0.71463(18) 0.1324(4) 0.13726(19)
H13 H 0.7544 0.1522 0.1422
C14 C 0.6428(2) 0.1789(4) 0.46430(19)
C15 C 0.6903(2) 0.1247(4) 0.0775(2)
H14 H 0.7130 0.1366 0.0402
C16 C 0.4468(3) 0.3993(5) 0.5270(2)
C17 C 0.4067(3) 0.3434(5) 0.2484(3)
C18 C 0.4077(3) 0.4262(5) 0.4726(3)
C19 C 0.7387(2) 0.1091(5) 0.4603(2)
H15 H 0.7744 0.0902 0.4804
C20 C 0.6940(2) 0.1533(5) 0.4955(2)
H16 H 0.6980 0.1660 0.5400
C21 C 0.73251(19) 0.0919(4) 0.3963(2)
H17 H 0.7632 0.0601 0.3716
C22 C 0.5288(3) 0.3166(4) 0.5660(2)
C23 C 0.4281(3) 0.4395(5) 0.5855(3)
H18 H 0.3930 0.4825 0.5904
C24 C 0.3424(3) 0.4240(5) 0.3498(3)
H19 H 0.3206 0.4529 0.3848
C25 C 0.5139(3) 0.3514(5) 0.6279(2)
H20 H 0.5381 0.3328 0.6631
C26 C 0.3182(3) 0.4167(5) 0.2884(4)
H21 H 0.2789 0.4393 0.2823
C27 C 0.4629(4) 0.4140(5) 0.6359(3)
H22 H 0.4520 0.4395 0.6773
C28 C 0.3495(3) 0.3781(5) 0.2372(3)
H23 H 0.3330 0.3750 0.1958
C29 C 0.5845(3) 0.2556(5) 0.5539(2)
O1 O 0.75684(13) 0.1474(3) 0.26313(13)
O2 O 0.51124(13) 0.0939(3) 0.07418(15)
O3 O 0.36254(18) 0.4820(4) 0.47837(19)
O4 O 0.61952(19) 0.2364(4) 0.59628(15)
loop_
_geom_bond_atom_site_label_1
_geom_bond_atom_site_label_2
_geom_bond_site_symmetry_1
_geom_bond_site_symmetry_2
N1 C1 1_555 1_555
N2 C2 1_555 1_555
N3 H1 1_555 1_555
N4 H2 1_555 1_555
N5 C11 1_555 1_555
N6 H3 1_555 1_555
H4 N6 1_555 1_555
N7 C12 1_555 1_555
N8 H5 1_555 1_555
N9 H6 1_555 1_555
N10 C16 1_555 1_555
N11 H7 1_555 1_555
H8 N11 1_555 1_555
C1 C8 1_555 1_555
C2 N4 1_555 1_555
C3 N2 1_555 1_555
C4 C2 1_555 1_555
H9 C4 1_555 1_555
C5 C3 1_555 1_555
H10 C5 1_555 1_555
C6 N1 1_555 1_555
C7 N3 1_555 1_555
C8 N4 1_555 1_555
C9 C1 1_555 1_555
H11 C9 1_555 1_555
C10 C4 1_555 1_555
H12 C10 1_555 1_555
C11 N3 1_555 1_555
C12 N9 1_555 1_555
C13 C6 1_555 1_555
H13 C13 1_555 1_555
C14 N5 1_555 1_555
C15 C9 1_555 1_555
H14 C15 1_555 1_555
C16 C18 1_555 1_555
C17 N7 1_555 1_555
C18 N9 1_555 1_555
C19 H15 1_555 1_555
C20 C14 1_555 1_555
H16 C20 1_555 1_555
C21 C11 1_555 1_555
H17 C21 1_555 1_555
C22 N10 1_555 1_555
C23 C16 1_555 1_555
H18 C23 1_555 1_555
C24 C12 1_555 1_555
H19 C24 1_555 1_555
C25 C22 1_555 1_555
H20 C25 1_555 1_555
C26 C24 1_555 1_555
H21 C26 1_555 1_555
C27 C23 1_555 1_555
H22 C27 1_555 1_555
C28 C17 1_555 1_555
H23 C28 1_555 1_555
C29 N8 1_555 1_555
O1 C7 1_555 1_555
O2 C8 1_555 1_555
O3 C18 1_555 1_555
O4 C29 1_555 1_555
N6 C3 1_555 1_555
N8 C14 1_555 1_555
N11 C17 1_555 1_555
C5 C10 1_555 1_555
C6 C7 1_555 1_555
C13 C15 1_555 1_555
C19 C20 1_555 1_555
C19 C21 1_555 1_555
C22 C29 1_555 1_555
C25 C27 1_555 1_555
C26 C28 1_555 1_555

#END
