
#######################################################################
#
#                 Cambridge Crystallographic Data Centre
#                                CCDC 
#
#######################################################################
#
# If this CIF has been generated from an entry in the Cambridge 
# Structural Database, then it will include bibliographic, chemical, 
# crystal, experimental, refinement or atomic coordinate data resulting 
# from the CCDC's data processing and validation procedures.
#
#######################################################################

data_ABORAN
_chemical_formula_moiety         'C22 H20 O8 S2'
_chemical_name_systematic        
'1-((4-methoxyphenyl)sulfonyl)-2-oxo-2-phenylethyl 4-methoxybenzenesulfonate'
_symmetry_cell_setting           monoclinic
_symmetry_space_group_name_H-M   'P 21/c'
_symmetry_Int_Tables_number      14
_space_group_name_Hall           '-P 2ybc'
loop_
_symmetry_equiv_pos_site_id
_symmetry_equiv_pos_as_xyz
1 x,y,z
2 -x,1/2+y,1/2-z
3 -x,-y,-z
4 x,1/2-y,1/2+z
_cell_length_a                   5.7476(7)
_cell_length_b                   18.106(2)
_cell_length_c                   20.945(3)
_cell_angle_alpha                90
_cell_angle_beta                 96.097(8)
_cell_angle_gamma                90
_cell_volume                     2167.33
_exptl_crystal_colour            colorless
_cell_formula_units_Z            4
loop_
_atom_site_label
_atom_site_type_symbol
_atom_site_fract_x
_atom_site_fract_y
_atom_site_fract_z
S1 S 0.2877(3) 0.31578(10) -0.01324(8)
S2 S 0.0850(3) 0.13842(10) 0.07754(8)
O1 O 0.5507(9) 0.5567(3) 0.1615(3)
O2 O 0.1228(8) 0.2695(2) 0.0294(2)
O3 O 0.1107(8) 0.0492(3) -0.1897(2)
O4 O -0.1553(9) 0.1522(3) 0.0871(3)
O5 O 0.1254(9) 0.3405(3) -0.0652(2)
O6 O 0.4832(9) 0.2708(3) -0.0241(2)
O7 O 0.0381(9) 0.3116(3) 0.1448(2)
O8 O 0.2258(9) 0.0908(3) 0.1201(2)
C1 C 0.7688(14) 0.5604(5) 0.2001(5)
H1 H 0.7957 0.5150 0.2234
H2 H 0.7664 0.6006 0.2299
H3 H 0.8919 0.5681 0.1732
C2 C 0.5082(12) 0.4999(4) 0.1203(3)
C3 C 0.6608(12) 0.4405(4) 0.1165(4)
H4 H 0.8037 0.4386 0.1418
C4 C 0.5930(11) 0.3852(4) 0.0743(4)
H5 H 0.6914 0.3451 0.0705
C5 C 0.3811(11) 0.3883(4) 0.0373(3)
C6 C 0.2330(11) 0.2282(3) 0.0822(3)
H6 H 0.4001 0.2221 0.0779
C7 C 0.0962(10) 0.1127(3) -0.0024(3)
C8 C 0.2907(12) 0.0748(4) -0.0183(3)
H7 H 0.4130 0.0641 0.0131
C9 C 0.3020(12) 0.0528(4) -0.0811(3)
H8 H 0.4338 0.0283 -0.0924
C10 C 0.1157(12) 0.0675(3) -0.1274(3)
C11 C 0.3035(16) 0.0103(6) -0.2099(4)
H9 H 0.4345 0.0432 -0.2102
H10 H 0.2625 -0.0089 -0.2523
H11 H 0.3444 -0.0297 -0.1808
C12 C 0.2958(13) 0.5026(4) 0.0834(4)
H12 H 0.1955 0.5424 0.0871
C13 C 0.2334(13) 0.4473(4) 0.0419(4)
H13 H 0.0907 0.4491 0.0164
C14 C 0.1979(11) 0.2677(4) 0.1464(3)
C15 C 0.3530(10) 0.2506(3) 0.2051(3)
C16 C 0.5592(11) 0.2108(4) 0.2049(3)
H14 H 0.6044 0.1927 0.1665
C17 C 0.6973(12) 0.1981(4) 0.2622(4)
H15 H 0.8360 0.1716 0.2625
C18 C 0.6274(14) 0.2250(4) 0.3188(4)
H16 H 0.7184 0.2156 0.3574
C19 C 0.4257(15) 0.2652(4) 0.3189(3)
H17 H 0.3818 0.2837 0.3573
C20 C 0.2885(11) 0.2783(4) 0.2624(3)
H18 H 0.1517 0.3057 0.2625
C21 C -0.0848(11) 0.1285(4) -0.0486(3)
H19 H -0.2149 0.1540 -0.0373
C22 C -0.0760(11) 0.1073(4) -0.1107(3)
H20 H -0.1977 0.1193 -0.1418
loop_
_geom_bond_atom_site_label_1
_geom_bond_atom_site_label_2
_geom_bond_site_symmetry_1
_geom_bond_site_symmetry_2
S1 O2 1_555 1_555
S2 O4 1_555 1_555
O1 C1 1_555 1_555
O2 C6 1_555 1_555
O3 C10 1_555 1_555
O5 S1 1_555 1_555
O6 S1 1_555 1_555
O7 C14 1_555 1_555
O8 S2 1_555 1_555
C1 H1 1_555 1_555
H2 C1 1_555 1_555
H3 C1 1_555 1_555
C2 O1 1_555 1_555
C3 C2 1_555 1_555
H4 C3 1_555 1_555
C4 C3 1_555 1_555
H5 C4 1_555 1_555
C5 S1 1_555 1_555
C6 S2 1_555 1_555
H6 C6 1_555 1_555
C7 S2 1_555 1_555
C8 C7 1_555 1_555
H7 C8 1_555 1_555
C9 C8 1_555 1_555
H8 C9 1_555 1_555
C10 C9 1_555 1_555
C11 O3 1_555 1_555
H9 C11 1_555 1_555
H10 C11 1_555 1_555
H11 C11 1_555 1_555
C12 C2 1_555 1_555
H12 C12 1_555 1_555
C13 C5 1_555 1_555
H13 C13 1_555 1_555
C14 C6 1_555 1_555
C15 C14 1_555 1_555
C16 C15 1_555 1_555
H14 C16 1_555 1_555
C17 C16 1_555 1_555
H15 C17 1_555 1_555
C18 C17 1_555 1_555
H16 C18 1_555 1_555
C19 C18 1_555 1_555
H17 C19 1_555 1_555
C20 C15 1_555 1_555
H18 C20 1_555 1_555
C21 C7 1_555 1_555
H19 C21 1_555 1_555
C22 C10 1_555 1_555
H20 C22 1_555 1_555
C4 C5 1_555 1_555
C12 C13 1_555 1_555
C19 C20 1_555 1_555
C21 C22 1_555 1_555

#END
