
#######################################################################
#
#                 Cambridge Crystallographic Data Centre
#                                CCDC 
#
#######################################################################
#
# If this CIF has been generated from an entry in the Cambridge 
# Structural Database, then it will include bibliographic, chemical, 
# crystal, experimental, refinement or atomic coordinate data resulting 
# from the CCDC's data processing and validation procedures.
#
#######################################################################

data_ABORER
_chemical_formula_moiety         'C14 H10 N2 O1'
_chemical_name_systematic        2-phenyl-4H-pyrido[1,2-a]pyrimidin-4-one
_symmetry_cell_setting           triclinic
_symmetry_space_group_name_H-M   'P 1'
_symmetry_Int_Tables_number      1
_space_group_name_Hall           'P 1'
loop_
_symmetry_equiv_pos_site_id
_symmetry_equiv_pos_as_xyz
1 x,y,z
_cell_length_a                   6.9929(4)
_cell_length_b                   7.4314(3)
_cell_length_c                   10.8133(4)
_cell_angle_alpha                87.691(3)
_cell_angle_beta                 81.691(3)
_cell_angle_gamma                72.949(3)
_cell_volume                     531.594
_exptl_crystal_colour            colorless
_exptl_crystal_description       Block
_cell_formula_units_Z            2
loop_
_atom_site_label
_atom_site_type_symbol
_atom_site_fract_x
_atom_site_fract_y
_atom_site_fract_z
C1 C 0.1017(7) 0.6443(7) 1.0286(4)
C2 C 0.1570(9) 0.4495(7) 1.0522(4)
H1 H 0.2062 0.3660 0.9854
C3 C 0.1403(10) 0.3805(8) 1.1704(5)
H2 H 0.1774 0.2511 1.1834
C4 C 0.0681(8) 0.5022(7) 1.2718(5)
H3 H 0.0563 0.4555 1.3528
C5 C 0.0152(8) 0.6901(7) 1.2509(4)
H4 H -0.0321 0.7724 1.3184
C6 C -0.0399(9) 0.9645(6) 1.1179(5)
C7 C -0.0226(8) 1.0223(6) 0.9966(4)
H5 H -0.0631 1.1507 0.9803
C8 C 0.0525(7) 0.8985(7) 0.8964(4)
C9 C 0.0662(7) 0.9654(7) 0.7652(4)
C10 C 0.0188(9) 1.1531(7) 0.7327(5)
H6 H -0.0213 1.2426 0.7962
C11 C 0.0280(10) 1.2135(9) 0.6119(5)
H7 H -0.0050 1.3414 0.5937
C12 C 0.0889(10) 1.0777(9) 0.5144(5)
H8 H 0.0952 1.1149 0.4311
C13 C 0.1371(10) 0.8951(9) 0.5448(5)
H9 H 0.1784 0.8055 0.4812
C14 C 0.1271(9) 0.8343(8) 0.6702(5)
H10 H 0.1614 0.7064 0.6886
N1 N 0.0298(6) 0.7608(5) 1.1332(3)
N2 N 0.1146(6) 0.7103(5) 0.9126(3)
O1 O -0.1024(8) 1.0614(6) 1.2156(3)
C15 C 0.5316(7) 1.1115(6) 0.7098(4)
C16 C 0.4702(9) 1.3108(7) 0.6881(5)
H11 H 0.4174 1.3925 0.7556
C17 C 0.4874(10) 1.3815(8) 0.5726(5)
H12 H 0.4518 1.5111 0.5605
C18 C 0.5605(10) 1.2574(8) 0.4681(5)
H13 H 0.5698 1.3057 0.3875
C19 C 0.6153(9) 1.0723(8) 0.4860(4)
H14 H 0.6637 0.9920 0.4175
C20 C 0.6672(8) 0.7972(7) 0.6171(4)
C21 C 0.6527(8) 0.7336(7) 0.7449(4)
H15 H 0.6940 0.6053 0.7616
C22 C 0.5798(7) 0.8577(7) 0.8412(4)
C23 C 0.5646(8) 0.7937(7) 0.9743(4)
C24 C 0.6114(10) 0.6034(8) 1.0060(5)
H16 H 0.6494 0.5117 0.9439
C25 C 0.6006(11) 0.5517(11) 1.1322(6)
H17 H 0.6355 0.4246 1.1528
C26 C 0.5423(10) 0.6778(9) 1.2227(5)
H18 H 0.5359 0.6393 1.3057
C27 C 0.4895(10) 0.8724(8) 1.1934(5)
H19 H 0.4448 0.9626 1.2565
C28 C 0.5057(9) 0.9245(7) 1.0713(5)
H20 H 0.4763 1.0519 1.0518
N3 N 0.6012(6) 0.9967(6) 0.6063(3)
N4 N 0.5188(6) 1.0462(5) 0.8250(3)
O2 O 0.7318(8) 0.7010(6) 0.5243(3)
loop_
_geom_bond_atom_site_label_1
_geom_bond_atom_site_label_2
_geom_bond_site_symmetry_1
_geom_bond_site_symmetry_2
C1 C2 1_555 1_555
C2 H1 1_555 1_555
C3 C2 1_555 1_555
H2 C3 1_555 1_555
C4 C3 1_555 1_555
H3 C4 1_555 1_555
C5 C4 1_555 1_555
H4 C5 1_555 1_555
C6 C7 1_555 1_555
C7 H5 1_555 1_555
C8 C7 1_555 1_555
C9 C8 1_555 1_555
C10 C9 1_555 1_555
H6 C10 1_555 1_555
C11 C10 1_555 1_555
H7 C11 1_555 1_555
C12 C11 1_555 1_555
H8 C12 1_555 1_555
C13 C12 1_555 1_555
H9 C13 1_555 1_555
C14 C9 1_555 1_555
H10 C14 1_555 1_555
N1 C1 1_555 1_555
N2 C1 1_555 1_555
O1 C6 1_555 1_555
C15 C16 1_555 1_555
C16 H11 1_555 1_555
C17 C16 1_555 1_555
H12 C17 1_555 1_555
C18 C17 1_555 1_555
H13 C18 1_555 1_555
C19 C18 1_555 1_555
H14 C19 1_555 1_555
C20 C21 1_555 1_555
C21 H15 1_555 1_555
C22 C21 1_555 1_555
C23 C22 1_555 1_555
C24 C23 1_555 1_555
H16 C24 1_555 1_555
C25 C24 1_555 1_555
H17 C25 1_555 1_555
C26 C25 1_555 1_555
H18 C26 1_555 1_555
C27 C26 1_555 1_555
H19 C27 1_555 1_555
C28 C23 1_555 1_555
H20 C28 1_555 1_555
N3 C15 1_555 1_555
N4 C15 1_555 1_555
O2 C20 1_555 1_555
C5 N1 1_555 1_555
C6 N1 1_555 1_555
C8 N2 1_555 1_555
C13 C14 1_555 1_555
C19 N3 1_555 1_555
C20 N3 1_555 1_555
C22 N4 1_555 1_555
C27 C28 1_555 1_555

#END
