
#######################################################################
#
#                 Cambridge Crystallographic Data Centre
#                                CCDC 
#
#######################################################################
#
# If this CIF has been generated from an entry in the Cambridge 
# Structural Database, then it will include bibliographic, chemical, 
# crystal, experimental, refinement or atomic coordinate data resulting 
# from the CCDC's data processing and validation procedures.
#
#######################################################################

data_ABOROZ
_chemical_formula_moiety         'C28 H20 N4 O5,C1 H1 Cl3'
_chemical_name_systematic        
'1-(3-(Methoxycarbonyl)-\b-carbolin-1-yl)-3-(methoxycarbonyl)-9-acetyl-\b-carboline chloroform solvate'
_symmetry_cell_setting           triclinic
_symmetry_space_group_name_H-M   'P -1'
_symmetry_Int_Tables_number      2
_space_group_name_Hall           '-P 1'
loop_
_symmetry_equiv_pos_site_id
_symmetry_equiv_pos_as_xyz
1 x,y,z
2 -x,-y,-z
_cell_length_a                   7.654(4)
_cell_length_b                   12.030(5)
_cell_length_c                   16.030(6)
_cell_angle_alpha                71.0400(10)
_cell_angle_beta                 79.4000(10)
_cell_angle_gamma                80.7800(10)
_cell_volume                     1364.07
_cell_formula_units_Z            2
loop_
_atom_site_label
_atom_site_type_symbol
_atom_site_fract_x
_atom_site_fract_y
_atom_site_fract_z
O1 O 0.8805(5) -0.1566(3) 0.6564(2)
O2 O 0.6801(5) -0.0011(3) 0.6651(2)
O3 O 0.7221(5) 0.2112(3) 0.1159(2)
C1 C 0.6599(5) 0.1237(3) 0.4076(3)
N1 N 0.6771(4) 0.0773(3) 0.4944(2)
C2 C 0.7726(6) -0.0279(4) 0.5245(3)
C3 C 0.8507(6) -0.0959(4) 0.4712(3)
H1 H 0.9112 -0.1700 0.4946
C4 C 0.8369(6) -0.0511(3) 0.3812(3)
C5 C 0.8986(6) -0.0970(4) 0.3082(3)
C6 C 0.9979(7) -0.2020(4) 0.3011(4)
H2 H 1.0336 -0.2599 0.3513
C7 C 1.0419(9) -0.2188(5) 0.2194(5)
H3 H 1.1095 -0.2882 0.2138
C8 C 0.9870(8) -0.1336(5) 0.1446(5)
H4 H 1.0180 -0.1472 0.0896
C9 C 0.8879(7) -0.0292(5) 0.1493(4)
H5 H 0.8501 0.0269 0.0987
C10 C 0.8465(6) -0.0107(4) 0.2313(3)
N2 N 0.7581(5) 0.0893(3) 0.2549(2)
C11 C 0.7479(5) 0.0634(3) 0.3475(3)
C12 C 0.7591(6) 0.2022(4) 0.1876(3)
C13 C 0.8379(7) 0.2962(4) 0.2056(3)
H6 H 0.8304 0.2803 0.2688
H7 H 0.7731 0.3716 0.1807
H8 H 0.9609 0.2972 0.1790
C14 C 0.7863(6) -0.0700(4) 0.6211(3)
C15 C 0.6774(9) -0.0395(6) 0.7613(3)
H9 H 0.6464 -0.1191 0.7859
H10 H 0.5906 0.0117 0.7869
H11 H 0.7934 -0.0364 0.7747
O4 O 0.3625(5) 0.3551(3) 0.1449(2)
O5 O 0.1958(5) 0.5035(3) 0.1825(2)
C17 C 0.5330(5) 0.2322(3) 0.3884(3)
N3 N 0.4820(4) 0.2734(3) 0.3074(2)
C18 C 0.3619(5) 0.3715(3) 0.2890(3)
C19 C 0.2940(6) 0.4339(4) 0.3478(3)
H13 H 0.2160 0.5025 0.3313
C20 C 0.3440(5) 0.3926(4) 0.4325(3)
C21 C 0.3003(6) 0.4301(4) 0.5110(3)
C22 C 0.1943(7) 0.5247(5) 0.5324(4)
H14 H 0.1323 0.5815 0.4901
C23 C 0.1820(7) 0.5336(6) 0.6165(4)
H15 H 0.1116 0.5970 0.6312
C24 C 0.2740(8) 0.4484(6) 0.6801(4)
H16 H 0.2626 0.4560 0.7369
C25 C 0.3807(8) 0.3538(5) 0.6621(3)
H17 H 0.4416 0.2974 0.7051
C26 C 0.3937(6) 0.3459(4) 0.5765(3)
N4 N 0.4909(5) 0.2613(3) 0.5399(2)
H18 H 0.5577 0.2009 0.5674
C27 C 0.4640(5) 0.2890(4) 0.4530(3)
C28 C 0.3110(6) 0.4060(4) 0.1982(3)
C29 C 0.1430(10) 0.5487(5) 0.0942(4)
H19 H 0.0480 0.6117 0.0928
H20 H 0.1026 0.4864 0.0799
H21 H 0.2434 0.5780 0.0514
Cl1 Cl 0.2015(3) 0.2023(2) 0.02910(11)
Cl2 Cl 0.3849(4) 0.3901(3) -0.08413(16)
Cl3 Cl 0.5526(5) 0.1610(4) -0.0597(3)
C16 C 0.4091(7) 0.2498(5) -0.0100(3)
H12 H 0.4603 0.2542 0.0404
loop_
_geom_bond_atom_site_label_1
_geom_bond_atom_site_label_2
_geom_bond_site_symmetry_1
_geom_bond_site_symmetry_2
O1 C14 1_555 1_555
O2 C14 1_555 1_555
O3 C12 1_555 1_555
Cl1 C16 1_555 1_555
Cl2 C16 1_555 1_555
Cl3 C16 1_555 1_555
C1 N1 1_555 1_555
N1 C2 1_555 1_555
C2 C3 1_555 1_555
C3 H1 1_555 1_555
C4 C3 1_555 1_555
C5 C4 1_555 1_555
C6 C5 1_555 1_555
H2 C6 1_555 1_555
C7 C6 1_555 1_555
H3 C7 1_555 1_555
C8 C7 1_555 1_555
H4 C8 1_555 1_555
C9 C8 1_555 1_555
H5 C9 1_555 1_555
C10 C5 1_555 1_555
N2 C10 1_555 1_555
C11 C1 1_555 1_555
C12 N2 1_555 1_555
C13 C12 1_555 1_555
H6 C13 1_555 1_555
H7 C13 1_555 1_555
H8 C13 1_555 1_555
C14 C2 1_555 1_555
C15 O2 1_555 1_555
H9 C15 1_555 1_555
H10 C15 1_555 1_555
H11 C15 1_555 1_555
C16 H12 1_555 1_555
O4 C28 1_555 1_555
O5 C28 1_555 1_555
C17 C1 1_555 1_555
N3 C17 1_555 1_555
C18 N3 1_555 1_555
C19 C18 1_555 1_555
H13 C19 1_555 1_555
C20 C19 1_555 1_555
C21 C20 1_555 1_555
C22 C21 1_555 1_555
H14 C22 1_555 1_555
C23 C22 1_555 1_555
H15 C23 1_555 1_555
C24 C23 1_555 1_555
H16 C24 1_555 1_555
C25 C24 1_555 1_555
H17 C25 1_555 1_555
C26 C21 1_555 1_555
N4 C26 1_555 1_555
H18 N4 1_555 1_555
C27 C17 1_555 1_555
C28 C18 1_555 1_555
C29 O5 1_555 1_555
H19 C29 1_555 1_555
H20 C29 1_555 1_555
H21 C29 1_555 1_555
C4 C11 1_555 1_555
C9 C10 1_555 1_555
N2 C11 1_555 1_555
C20 C27 1_555 1_555
C25 C26 1_555 1_555
N4 C27 1_555 1_555

#END
