
#######################################################################
#
#                 Cambridge Crystallographic Data Centre
#                                CCDC 
#
#######################################################################
#
# If this CIF has been generated from an entry in the Cambridge 
# Structural Database, then it will include bibliographic, chemical, 
# crystal, experimental, refinement or atomic coordinate data resulting 
# from the CCDC's data processing and validation procedures.
#
#######################################################################

data_ABOSAM
_chemical_compound_source        'gorgonian coral Isis hippuris'
_chemical_formula_moiety         'C28 H44 O6'
_chemical_name_systematic        'A-Nor-22-epi-hippurin-2\a-carboxylic acid'
_chemical_properties_biological  
'significant cytotoxicity against the growth of human hepatocellular carcinoma HepG2 and Hep3B cell lines'
_symmetry_cell_setting           orthorhombic
_symmetry_space_group_name_H-M   'P 21 21 2'
_symmetry_Int_Tables_number      18
_space_group_name_Hall           'P 2 2ab'
loop_
_symmetry_equiv_pos_site_id
_symmetry_equiv_pos_as_xyz
1 x,y,z
2 -x,-y,z
3 1/2+x,1/2-y,-z
4 1/2-x,1/2+y,-z
_cell_length_a                   12.157(3)
_cell_length_b                   31.039(3)
_cell_length_c                   6.771(3)
_cell_angle_alpha                90
_cell_angle_beta                 90
_cell_angle_gamma                90
_cell_volume                     2554.98
_exptl_crystal_colour            colorless
_exptl_crystal_description       prism
_chemical_melting_point          '263-264 deg.C'
_cell_formula_units_Z            4
loop_
_atom_site_label
_atom_site_type_symbol
_atom_site_fract_x
_atom_site_fract_y
_atom_site_fract_z
O1 O -0.3775(2) -0.52047(7) -1.4213(4)
O2 O -0.4530(2) -0.57021(7) -1.2295(4)
O3 O -0.3861(2) -0.42999(7) -0.5215(3)
O4 O -0.2650(2) -0.24413(7) -0.6040(4)
O5 O -0.5130(2) -0.27883(7) -0.4395(4)
O6 O -0.3799(2) -0.18476(6) -0.5987(4)
C1 C -0.3564(3) -0.4995(1) -0.9523(5)
C2 C -0.3004(3) -0.53223(9) -1.0961(6)
C3 C -0.3778(3) -0.5401(1) -1.2673(6)
C4 C -0.1913(3) -0.5113(1) -1.1589(6)
C5 C -0.2051(3) -0.46360(9) -1.1002(6)
C6 C -0.1066(3) -0.4338(1) -1.0868(6)
C7 C -0.1459(3) -0.3887(1) -1.0291(5)
C8 C -0.2251(3) -0.38614(9) -0.8499(5)
C9 C -0.3176(3) -0.42007(9) -0.8687(5)
C10 C -0.2688(3) -0.46544(9) -0.9047(5)
C11 C -0.4121(3) -0.41562(9) -0.7185(5)
C12 C -0.4557(3) -0.3695(1) -0.7084(5)
C13 C -0.3656(3) -0.3358(1) -0.6800(5)
C14 C -0.2780(3) -0.3422(1) -0.8441(5)
C15 C -0.2078(3) -0.3017(1) -0.8305(6)
C16 C -0.2915(3) -0.2666(1) -0.7837(5)
C17 C -0.4006(3) -0.28916(9) -0.7383(5)
C18 C -0.3172(3) -0.3385(1) -0.4732(5)
C19 C -0.1953(3) -0.4814(1) -0.7354(6)
C20 C -0.4601(3) -0.2572(1) -0.6015(5)
C21 C -0.5444(3) -0.2316(1) -0.7185(6)
C22 C -0.3642(3) -0.22711(9) -0.5242(5)
C23 C -0.3498(3) -0.2212(1) -0.3046(5)
C24 C -0.2878(3) -0.1789(1) -0.2941(6)
C25 C -0.3406(3) -0.1528(1) -0.4580(6)
C26 C -0.4407(4) -0.1272(1) -0.3939(9)
C27 C -0.2592(4) -0.1242(1) -0.5649(7)
C28 C -0.2835(5) -0.1579(1) -0.0912(7)
H1 H -0.3799 -0.5136 -0.8347
H2 H -0.4184 -0.4864 -1.0140
H3 H -0.2865 -0.5586 -1.0287
H4 H -0.1805 -0.5139 -1.2978
H5 H -0.1309 -0.5239 -1.0919
H6 H -0.2533 -0.4510 -1.1942
H7 H -0.0704 -0.4328 -1.2113
H8 H -0.0567 -0.4444 -0.9899
H9 H -0.1828 -0.3770 -1.1401
H10 H -0.0829 -0.3721 -0.9995
H11 H -0.1850 -0.3911 -0.7314
H12 H -0.3512 -0.4135 -0.9915
H13 H -0.4707 -0.4334 -0.7659
H14 H -0.5056 -0.3674 -0.6012
H15 H -0.4936 -0.3632 -0.8284
H16 H -0.3170 -0.3395 -0.9650
H17 H -0.1713 -0.2959 -0.9516
H18 H -0.1547 -0.3040 -0.7275
H19 H -0.2988 -0.2469 -0.8908
H20 H -0.4413 -0.2907 -0.8573
H21 H -0.2869 -0.3660 -0.4523
H22 H -0.3738 -0.3332 -0.3786
H23 H -0.2615 -0.3170 -0.4585
H24 H -0.1601 -0.5073 -0.7733
H25 H -0.2388 -0.4863 -0.6211
H26 H -0.1410 -0.4601 -0.7064
H27 H -0.5094 -0.2175 -0.8238
H28 H -0.5782 -0.2109 -0.6332
H29 H -0.5992 -0.2507 -0.7666
H30 H -0.3076 -0.2443 -0.2503
H31 H -0.4184 -0.2196 -0.2399
H32 H -0.2142 -0.1848 -0.3330
H33 H -0.4733 -0.1137 -0.5041
H34 H -0.4179 -0.1056 -0.3011
H35 H -0.4920 -0.1458 -0.3316
H36 H -0.1997 -0.1409 -0.6142
H37 H -0.2318 -0.1029 -0.4768
H38 H -0.2949 -0.1102 -0.6731
H39 H -0.2432 -0.1318 -0.1006
H40 H -0.2470 -0.1768 -0.0016
H41 H -0.3555 -0.1524 -0.0466
H42 H -0.5092 -0.5722 -1.3660
H43 H -0.3879 -0.4606 -0.5170
H44 H -0.5879 -0.2629 -0.4341
loop_
_geom_bond_atom_site_label_1
_geom_bond_atom_site_label_2
_geom_bond_site_symmetry_1
_geom_bond_site_symmetry_2
O1 C3 1_555 1_555
O2 C3 1_555 1_555
O3 C11 1_555 1_555
O4 C16 1_555 1_555
O5 C20 1_555 1_555
O6 C22 1_555 1_555
C1 C2 1_555 1_555
C2 C3 1_555 1_555
C4 C2 1_555 1_555
C5 C4 1_555 1_555
C6 C5 1_555 1_555
C7 C6 1_555 1_555
C8 C7 1_555 1_555
C9 C8 1_555 1_555
C10 C1 1_555 1_555
C11 C9 1_555 1_555
C12 C11 1_555 1_555
C13 C12 1_555 1_555
C14 C8 1_555 1_555
C15 C14 1_555 1_555
C16 C15 1_555 1_555
C17 C13 1_555 1_555
C18 C13 1_555 1_555
C19 C10 1_555 1_555
C20 C17 1_555 1_555
C21 C20 1_555 1_555
C22 O4 1_555 1_555
C23 C22 1_555 1_555
C24 C23 1_555 1_555
C25 O6 1_555 1_555
C26 C25 1_555 1_555
C27 C25 1_555 1_555
C28 C24 1_555 1_555
H1 C1 1_555 1_555
H2 C1 1_555 1_555
H3 C2 1_555 1_555
H4 C4 1_555 1_555
H5 C4 1_555 1_555
H6 C5 1_555 1_555
H7 C6 1_555 1_555
H8 C6 1_555 1_555
H9 C7 1_555 1_555
H10 C7 1_555 1_555
H11 C8 1_555 1_555
H12 C9 1_555 1_555
H13 C11 1_555 1_555
H14 C12 1_555 1_555
H15 C12 1_555 1_555
H16 C14 1_555 1_555
H17 C15 1_555 1_555
H18 C15 1_555 1_555
H19 C16 1_555 1_555
H20 C17 1_555 1_555
H21 C18 1_555 1_555
H22 C18 1_555 1_555
H23 C18 1_555 1_555
H24 C19 1_555 1_555
H25 C19 1_555 1_555
H26 C19 1_555 1_555
H27 C21 1_555 1_555
H28 C21 1_555 1_555
H29 C21 1_555 1_555
H30 C23 1_555 1_555
H31 C23 1_555 1_555
H32 C24 1_555 1_555
H33 C26 1_555 1_555
H34 C26 1_555 1_555
H35 C26 1_555 1_555
H36 C27 1_555 1_555
H37 C27 1_555 1_555
H38 C27 1_555 1_555
H39 C28 1_555 1_555
H40 C28 1_555 1_555
H41 C28 1_555 1_555
H42 O2 1_555 1_555
H43 O3 1_555 1_555
H44 O5 1_555 1_555
C5 C10 1_555 1_555
C9 C10 1_555 1_555
C13 C14 1_555 1_555
C16 C17 1_555 1_555
C20 C22 1_555 1_555
C24 C25 1_555 1_555

#END
