
#######################################################################
#
#                 Cambridge Crystallographic Data Centre
#                                CCDC 
#
#######################################################################
#
# If this CIF has been generated from an entry in the Cambridge 
# Structural Database, then it will include bibliographic, chemical, 
# crystal, experimental, refinement or atomic coordinate data resulting 
# from the CCDC's data processing and validation procedures.
#
#######################################################################

data_ABOTIW
_chemical_formula_moiety         'C14 H9 F12 N1 O2'
_chemical_name_systematic        
5-Fluoro-3-(4-methoxyphenyl)-5-(pentafluoroethyl)-4,4-bis(trifluoromethyl)-1,2-oxazolidine
_symmetry_cell_setting           orthorhombic
_symmetry_space_group_name_H-M   'P b c a'
_symmetry_Int_Tables_number      61
_space_group_name_Hall           '-P 2ac 2ab'
loop_
_symmetry_equiv_pos_site_id
_symmetry_equiv_pos_as_xyz
1 x,y,z
2 1/2-x,-y,1/2+z
3 -x,1/2+y,1/2-z
4 1/2+x,1/2-y,-z
5 -x,-y,-z
6 1/2+x,y,1/2-z
7 x,1/2-y,1/2+z
8 1/2-x,1/2+y,z
_cell_length_a                   6.6420(13)
_cell_length_b                   16.163(3)
_cell_length_c                   29.547(6)
_cell_angle_alpha                90
_cell_angle_beta                 90
_cell_angle_gamma                90
_cell_volume                     3172.01
_exptl_crystal_colour            colorless
_exptl_crystal_description       needle
_chemical_melting_point          47-48deg.C
_cell_formula_units_Z            8
loop_
_atom_site_label
_atom_site_type_symbol
_atom_site_fract_x
_atom_site_fract_y
_atom_site_fract_z
F1 F 0.2126(3) 0.54149(11) 0.19775(6)
F2 F -0.0198(3) 0.61922(9) 0.22727(4)
F3 F -0.0981(2) 0.45424(8) 0.15303(5)
F4 F -0.0778(3) 0.44999(10) 0.22580(5)
F5 F -0.3088(3) 0.52232(10) 0.19455(6)
F6 F 0.4121(2) 0.67339(10) 0.18045(5)
F7 F 0.2138(2) 0.75170(10) 0.22014(4)
F8 F 0.3865(2) 0.80201(9) 0.16505(5)
F9 F -0.1832(2) 0.78247(10) 0.11454(5)
F10 F 0.0252(3) 0.85891(9) 0.15106(5)
F11 F -0.1643(2) 0.77141(9) 0.18690(4)
F12 F -0.1788(2) 0.63214(9) 0.13655(5)
O1 O 0.1190(3) 0.58111(9) 0.11423(5)
C1 C 0.0755(4) 0.97719(13) -0.06883(7)
H1 H 0.1097 1.0223 -0.0896
H2 H -0.0494 0.9908 -0.0528
H3 H 0.0568 0.9259 -0.0860
N1 N 0.1392(3) 0.63531(11) 0.07547(5)
C2 C 0.2116(3) 0.71264(12) 0.09569(6)
C3 C 0.1107(3) 0.71719(12) 0.14442(6)
C4 C 0.0244(3) 0.62614(13) 0.14737(7)
C5 C 0.2000(3) 0.78343(12) 0.06226(6)
C6 C 0.3635(3) 0.83755(13) 0.05906(7)
H4 H 0.4714 0.8325 0.0800
C7 C 0.0427(3) 0.79242(12) 0.03131(6)
H5 H -0.0699 0.7563 0.0331
C8 C 0.3716(3) 0.89825(13) 0.02610(7)
H6 H 0.4839 0.9346 0.0245
C9 C 0.0474(3) 0.85337(12) -0.00215(6)
H7 H -0.0613 0.8590 -0.0228
C10 C 0.2136(3) 0.90580(12) -0.00489(6)
O2 O 0.2352(3) 0.96639(10) -0.03675(5)
C11 C 0.0265(4) 0.57308(14) 0.19101(7)
C12 C -0.1190(4) 0.49811(15) 0.19082(8)
C13 C 0.2814(4) 0.73614(14) 0.17845(7)
C14 C -0.0552(4) 0.78260(15) 0.14936(7)
H8 H 0.349(5) 0.7021(17) 0.1022(9)
H9 H 0.019(5) 0.6444(19) 0.0655(10)
loop_
_geom_bond_atom_site_label_1
_geom_bond_atom_site_label_2
_geom_bond_site_symmetry_1
_geom_bond_site_symmetry_2
F1 C11 1_555 1_555
F2 C11 1_555 1_555
F3 C12 1_555 1_555
F4 C12 1_555 1_555
F5 C12 1_555 1_555
F6 C13 1_555 1_555
F7 C13 1_555 1_555
F8 C13 1_555 1_555
F9 C14 1_555 1_555
F10 C14 1_555 1_555
F11 C14 1_555 1_555
F12 C4 1_555 1_555
O1 N1 1_555 1_555
C1 H1 1_555 1_555
H2 C1 1_555 1_555
H3 C1 1_555 1_555
N1 C2 1_555 1_555
C2 C3 1_555 1_555
C3 C4 1_555 1_555
C4 O1 1_555 1_555
C5 C2 1_555 1_555
C6 C5 1_555 1_555
H4 C6 1_555 1_555
C7 C5 1_555 1_555
H5 C7 1_555 1_555
C8 C6 1_555 1_555
H6 C8 1_555 1_555
C9 C7 1_555 1_555
H7 C9 1_555 1_555
C10 C8 1_555 1_555
O2 C1 1_555 1_555
C11 C4 1_555 1_555
C12 C11 1_555 1_555
C13 C3 1_555 1_555
C14 C3 1_555 1_555
H8 C2 1_555 1_555
H9 N1 1_555 1_555
C9 C10 1_555 1_555
C10 O2 1_555 1_555

#END
