
#######################################################################
#
#                 Cambridge Crystallographic Data Centre
#                                CCDC 
#
#######################################################################
#
# If this CIF has been generated from an entry in the Cambridge 
# Structural Database, then it will include bibliographic, chemical, 
# crystal, experimental, refinement or atomic coordinate data resulting 
# from the CCDC's data processing and validation procedures.
#
#######################################################################

data_ABOTUH
_chemical_formula_moiety         'C25 H23 P1'
_chemical_name_systematic        
4-Isopropyl-4,5-dihydro-3H-dinaphtho(2,1-c:1',2'-e)phosphepine
_symmetry_cell_setting           tetragonal
_symmetry_space_group_name_H-M   'P 43'
_symmetry_Int_Tables_number      78
_space_group_name_Hall           'P 4cw'
loop_
_symmetry_equiv_pos_site_id
_symmetry_equiv_pos_as_xyz
1 x,y,z
2 -x,-y,1/2+z
3 -y,x,3/4+z
4 y,-x,1/4+z
_cell_length_a                   11.275(2)
_cell_length_b                   11.275(2)
_cell_length_c                   15.783(3)
_cell_angle_alpha                90
_cell_angle_beta                 90
_cell_angle_gamma                90
_cell_volume                     2006.42
_exptl_crystal_colour            colorless
_exptl_crystal_description       prism
_cell_formula_units_Z            4
loop_
_atom_site_label
_atom_site_type_symbol
_atom_site_fract_x
_atom_site_fract_y
_atom_site_fract_z
C1 C 0.1854(3) 0.3603(3) -0.0678(2)
H1 H 0.2080(3) 0.4215(3) -0.1078(2)
H2 H 0.1142(3) 0.3872(3) -0.0391(2)
C2 C 0.2820(3) 0.3481(3) -0.0036(2)
C3 C 0.3966(3) 0.3951(3) -0.0196(2)
H3 H 0.4103(3) 0.4368(3) -0.0695(2)
C4 C 0.4858(3) 0.3806(3) 0.0359(2)
H4 H 0.5591(3) 0.4149(3) 0.0245(2)
C5 C 0.4708(2) 0.3144(2) 0.1114(2)
C6 C 0.3581(2) 0.2658(2) 0.1288(2)
C7 C 0.2627(3) 0.2872(2) 0.0709(2)
C8 C 0.1413(3) 0.2368(3) 0.0872(2)
C9 C 0.0686(2) 0.2820(3) 0.1539(2)
C10 C 0.1042(3) 0.3767(3) 0.2054(2)
H5 H 0.1782(3) 0.4110(3) 0.1966(2)
C11 C 0.0328(3) 0.4201(4) 0.2682(3)
H6 H 0.0570(3) 0.4845(4) 0.3007(3)
C12 C -0.0774(4) 0.3659(4) 0.2832(3)
H7 H -0.1250(4) 0.3930(4) 0.3272(3)
C13 C -0.1142(3) 0.2770(4) 0.2355(3)
H8 H -0.1882(3) 0.2438(4) 0.2462(3)
C14 C -0.0437(3) 0.2301(3) 0.1677(2)
C15 C -0.0819(3) 0.1390(3) 0.1145(3)
H9 H -0.1555(3) 0.1040(3) 0.1238(3)
C16 C -0.0138(3) 0.1007(3) 0.0497(2)
H10 H -0.0422(3) 0.0408(3) 0.0146(2)
C17 C 0.0990(3) 0.1493(3) 0.0338(2)
C18 C 0.1704(3) 0.1127(3) -0.0412(2)
H11 H 0.1456(3) 0.0346(3) -0.0600(2)
H12 H 0.2536(3) 0.1087(3) -0.0260(2)
C19 C 0.2875(4) 0.2010(4) -0.1883(3)
H13 H 0.3559(4) 0.2166(4) -0.1517(3)
C20 C 0.2878(4) 0.2872(4) -0.2641(3)
H14 H 0.2849(4) 0.3674(4) -0.2436(3)
H15 H 0.2199(4) 0.2721(4) -0.2991(3)
H16 H 0.3589(4) 0.2759(4) -0.2966(3)
C21 C 0.3444(3) 0.1951(3) 0.2017(2)
H17 H 0.2709(3) 0.1614(3) 0.2133(2)
C22 C 0.4365(3) 0.1749(3) 0.2555(2)
H18 H 0.4255(3) 0.1277(3) 0.3032(2)
C23 C 0.5480(3) 0.2254(3) 0.2391(2)
H19 H 0.6109(3) 0.2125(3) 0.2761(2)
C24 C 0.5634(3) 0.2925(3) 0.1694(2)
H20 H 0.6376(3) 0.3256(3) 0.1592(2)
C25 C 0.2919(5) 0.0730(4) -0.2210(4)
H21 H 0.2916(5) 0.0192(4) -0.1739(4)
H22 H 0.3630(5) 0.0616(4) -0.2536(4)
H23 H 0.2240(5) 0.0580(4) -0.2561(4)
P1 P 0.14871(8) 0.22250(9) -0.12836(6)
loop_
_geom_bond_atom_site_label_1
_geom_bond_atom_site_label_2
_geom_bond_site_symmetry_1
_geom_bond_site_symmetry_2
C1 H1 1_555 1_555
H2 C1 1_555 1_555
C2 C1 1_555 1_555
C3 C2 1_555 1_555
H3 C3 1_555 1_555
C4 C3 1_555 1_555
H4 C4 1_555 1_555
C5 C4 1_555 1_555
C6 C5 1_555 1_555
C7 C2 1_555 1_555
C8 C7 1_555 1_555
C9 C8 1_555 1_555
C10 C9 1_555 1_555
H5 C10 1_555 1_555
C11 C10 1_555 1_555
H6 C11 1_555 1_555
C12 C11 1_555 1_555
H7 C12 1_555 1_555
C13 C12 1_555 1_555
H8 C13 1_555 1_555
C14 C9 1_555 1_555
C15 C14 1_555 1_555
H9 C15 1_555 1_555
C16 C15 1_555 1_555
H10 C16 1_555 1_555
C17 C8 1_555 1_555
C18 C17 1_555 1_555
H11 C18 1_555 1_555
H12 C18 1_555 1_555
C19 H13 1_555 1_555
C20 C19 1_555 1_555
H14 C20 1_555 1_555
H15 C20 1_555 1_555
H16 C20 1_555 1_555
C21 C6 1_555 1_555
H17 C21 1_555 1_555
C22 C21 1_555 1_555
H18 C22 1_555 1_555
C23 C22 1_555 1_555
H19 C23 1_555 1_555
C24 C5 1_555 1_555
H20 C24 1_555 1_555
C25 C19 1_555 1_555
H21 C25 1_555 1_555
H22 C25 1_555 1_555
H23 C25 1_555 1_555
P1 C1 1_555 1_555
C6 C7 1_555 1_555
C13 C14 1_555 1_555
C16 C17 1_555 1_555
C18 P1 1_555 1_555
C19 P1 1_555 1_555
C23 C24 1_555 1_555

#END
