
#######################################################################
#
#                 Cambridge Crystallographic Data Centre
#                                CCDC 
#
#######################################################################
#
# If this CIF has been generated from an entry in the Cambridge 
# Structural Database, then it will include bibliographic, chemical, 
# crystal, experimental, refinement or atomic coordinate data resulting 
# from the CCDC's data processing and validation procedures.
#
#######################################################################

data_ABOVAQ
_chemical_formula_moiety         'C13 H6 F13 N1 O1'
_chemical_name_systematic        
5-Fluoro-3-(4-fluorophenyl)-5-(pentafluoroethyl)-4,4-bis(trifluoromethyl)-1,2-oxazolidine
_symmetry_cell_setting           tetragonal
_symmetry_space_group_name_H-M   'I -4'
_symmetry_Int_Tables_number      82
_space_group_name_Hall           'I -4'
loop_
_symmetry_equiv_pos_site_id
_symmetry_equiv_pos_as_xyz
1 x,y,z
2 -x,-y,z
3 y,-x,-z
4 -y,x,-z
5 1/2+x,1/2+y,1/2+z
6 1/2-x,1/2-y,1/2+z
7 1/2+y,1/2-x,1/2-z
8 1/2-y,1/2+x,1/2-z
_cell_length_a                   15.226(2)
_cell_length_b                   15.226(2)
_cell_length_c                   12.709(3)
_cell_angle_alpha                90
_cell_angle_beta                 90
_cell_angle_gamma                90
_cell_volume                     2946.34
_exptl_crystal_colour            colorless
_exptl_crystal_description       block
_cell_formula_units_Z            8
loop_
_atom_site_label
_atom_site_type_symbol
_atom_site_fract_x
_atom_site_fract_y
_atom_site_fract_z
F1 F 0.9468(2) 0.19946(18) 1.1824(2)
F2 F 0.88562(19) 0.21263(16) 0.4361(2)
C1 C 0.9808(2) 0.25275(19) 0.8701(3)
C2 C 1.0272(2) 0.1845(2) 0.9173(3)
H1 H 1.0667 0.1502 0.8765
C3 C 0.9260(2) 0.3046(2) 0.9308(3)
H2 H 0.8955 0.3524 0.8996
C4 C 1.0164(3) 0.1664(2) 1.0231(3)
H3 H 1.0476 0.1196 1.0556
C5 C 0.9157(3) 0.2870(3) 1.0365(3)
H4 H 0.8785 0.3229 1.0783
C6 C 0.9588(3) 0.2179(3) 1.0806(3)
C7 C 0.8369(2) 0.2239(2) 0.7037(3)
C8 C 0.9612(2) 0.1263(2) 0.6531(3)
C9 C 0.9325(3) 0.3503(3) 0.3906(3)
O1 O 0.97929(18) 0.36127(16) 0.6133(2)
N1 N 0.99608(17) 0.36053(16) 0.7268(2)
C10 C 0.9333(2) 0.22230(19) 0.6721(3)
C11 C 0.99511(18) 0.26775(19) 0.7535(3)
H5 H 1.0555 0.2455 0.7380
C12 C 0.9605(3) 0.2795(3) 0.5727(4)
C13 C 0.8997(3) 0.2893(3) 0.4757(4)
F3 F 0.9335(4) 0.0904(7) 0.5671(6)
F4 F 1.04784(19) 0.11290(18) 0.6578(3)
F5 F 0.9292(3) 0.0751(2) 0.7338(3)
F6 F 0.81308(18) 0.30937(17) 0.7091(3)
F7 F 0.7839(5) 0.1886(6) 0.6341(7)
F8 F 0.8216(2) 0.1866(3) 0.7925(3)
F9 F 1.03698(18) 0.24625(18) 0.5343(2)
F10 F 0.8238(2) 0.3257(2) 0.5036(3)
F11 F 1.0096(2) 0.3151(4) 0.3484(3)
F12 F 0.8800(3) 0.3509(2) 0.3096(2)
F13 F 0.9447(6) 0.4294(3) 0.4233(6)
H6 H 0.955(3) 0.383(3) 0.746(4)
C14? C 0.9402(11) 0.2850(10) 0.4720(11)
C15? C 0.9263(8) 0.3012(7) 0.5908(9)
F14? F 1.0249(8) 0.2691(9) 0.4561(10)
F15? F 0.9613(15) 0.4285(11) 0.4286(13)
F16? F 0.9451(11) 0.3553(12) 0.2910(11)
F17? F 0.8368(7) 0.3690(11) 0.3925(11)
F18? F 0.9100(11) 0.0929(16) 0.5819(16)
F19? F 1.0357(6) 0.1488(7) 0.5959(8)
F20? F 0.9783(13) 0.0883(7) 0.7344(8)
F21? F 0.8014(5) 0.2853(7) 0.7697(9)
F22? F 0.7894(10) 0.1919(10) 0.6240(12)
F23? F 0.8250(13) 0.1513(10) 0.7768(12)
F24? F 0.8495(4) 0.3460(4) 0.5985(6)
loop_
_geom_bond_atom_site_label_1
_geom_bond_atom_site_label_2
_geom_bond_site_symmetry_1
_geom_bond_site_symmetry_2
F1 C6 1_555 1_555
F2 C13 1_555 1_555
C1 C2 1_555 1_555
C2 H1 1_555 1_555
C3 C1 1_555 1_555
H2 C3 1_555 1_555
C4 C2 1_555 1_555
H3 C4 1_555 1_555
C5 C3 1_555 1_555
H4 C5 1_555 1_555
C6 C4 1_555 1_555
C7 C10 1_555 1_555
C8 C10 1_555 1_555
C9 C13 1_555 1_555
O1 N1 1_555 1_555
N1 C11 1_555 1_555
C10 C11 1_555 1_555
C11 C1 1_555 1_555
H5 C11 1_555 1_555
C12 O1 1_555 1_555
C13 C12 1_555 1_555
F3 C8 1_555 1_555
F4 C8 1_555 1_555
F5 C8 1_555 1_555
F6 C7 1_555 1_555
F7 C7 1_555 1_555
F8 C7 1_555 1_555
F9 C12 1_555 1_555
F10 C13 1_555 1_555
F11 C9 1_555 1_555
F12 C9 1_555 1_555
F13 C9 1_555 1_555
H6 N1 1_555 1_555
C5 C6 1_555 1_555
C10 C12 1_555 1_555

#END
