
#######################################################################
#
#                 Cambridge Crystallographic Data Centre
#                                CCDC 
#
#######################################################################
#
# If this CIF has been generated from an entry in the Cambridge 
# Structural Database, then it will include bibliographic, chemical, 
# crystal, experimental, refinement or atomic coordinate data resulting 
# from the CCDC's data processing and validation procedures.
#
#######################################################################

data_ABOVAP
_chemical_formula_moiety         'C29 H23 O1 P1'
_chemical_name_systematic        
4-(4-Methoxyphenyl)-4,5-dihydro-3H-dinaphtho(2,1-c:1',2'-e)phosphepine
_symmetry_cell_setting           monoclinic
_symmetry_space_group_name_H-M   'P 21'
_symmetry_Int_Tables_number      4
_space_group_name_Hall           'P 2yb'
loop_
_symmetry_equiv_pos_site_id
_symmetry_equiv_pos_as_xyz
1 x,y,z
2 -x,1/2+y,-z
_cell_length_a                   9.503(2)
_cell_length_b                   16.723(3)
_cell_length_c                   14.149(3)
_cell_angle_alpha                90
_cell_angle_beta                 91.32(3)
_cell_angle_gamma                90
_cell_volume                     2247.94
_exptl_crystal_colour            colorless
_exptl_crystal_description       prism
_cell_formula_units_Z            4
loop_
_atom_site_label
_atom_site_type_symbol
_atom_site_fract_x
_atom_site_fract_y
_atom_site_fract_z
C1 C 0.4603(6) 0.2767(4) 0.8588(5)
C2 C 0.3622(6) 0.2797(4) 0.7844(5)
H1 H 0.2771(6) 0.2528(4) 0.7898(5)
C3 C 0.3886(7) 0.3226(4) 0.7014(5)
H2 H 0.3219(7) 0.3240(4) 0.6523(5)
C4 C 0.5141(6) 0.3623(4) 0.6936(5)
C5 C 0.6129(6) 0.3592(4) 0.7644(5)
H3 H 0.6993(6) 0.3844(4) 0.7577(5)
C6 C 0.5843(7) 0.3186(4) 0.8454(5)
H4 H 0.6516(7) 0.3190(4) 0.8942(5)
C7 C 0.5898(6) 0.1840(4) 1.0063(4)
H5 H 0.6215(6) 0.1380(4) 0.9708(4)
H6 H 0.6561(6) 0.2272(4) 0.9966(4)
C8 C 0.5896(6) 0.1635(4) 1.1080(4)
C9 C 0.5908(5) 0.2237(3) 1.1762(4)
C10 C 0.5969(6) 0.3090(4) 1.1439(4)
C11 C 0.4898(6) 0.3394(4) 1.0889(4)
C12 C 0.4938(7) 0.4215(4) 1.0614(5)
H7 H 0.4208(7) 0.4425(4) 1.0241(5)
C13 C 0.6021(8) 0.4692(4) 1.0889(5)
H8 H 0.6002(8) 0.5231(4) 1.0728(5)
C14 C 0.7163(7) 0.4391(4) 1.1408(5)
C15 C 0.7167(6) 0.3570(4) 1.1699(4)
C16 C 0.8358(6) 0.3274(4) 1.2184(4)
H9 H 0.8382(6) 0.2735(4) 1.2346(4)
C17 C 0.9477(8) 0.3739(5) 1.2427(5)
H10 H 1.0251(8) 0.3526(5) 1.2752(5)
C18 C 0.9437(9) 0.4547(5) 1.2177(6)
H11 H 1.0190(9) 0.4874(5) 1.2350(6)
C19 C 0.8337(9) 0.4866(5) 1.1690(5)
H12 H 0.8348(9) 0.5406(5) 1.1536(5)
C20 C 0.3688(6) 0.2881(4) 1.0532(4)
H13 H 0.2952(6) 0.3229(4) 1.0282(4)
H14 H 0.3307(6) 0.2593(4) 1.1063(4)
C41 C 0.6587(7) 0.4388(5) 0.5909(6)
H29 H 0.6545(7) 0.4638(5) 0.5298(6)
H30 H 0.7323(7) 0.3995(5) 0.5924(6)
H31 H 0.6779(7) 0.4786(5) 0.6385(6)
C43 C 0.5706(6) 0.2634(4) 1.3442(5)
H35 H 0.5690(6) 0.3171(4) 1.3273(5)
C44 C 0.5830(5) 0.2050(3) 1.2726(4)
C45 C 0.5816(6) 0.1237(4) 1.3031(5)
C46 C 0.5778(6) 0.1046(4) 1.3981(5)
H36 H 0.5826(6) 0.0512(4) 1.4165(5)
C47 C 0.5673(7) 0.1616(5) 1.4644(5)
H37 H 0.5641(7) 0.1480(5) 1.5281(5)
C48 C 0.5611(6) 0.2437(4) 1.4360(5)
H38 H 0.5504(6) 0.2835(4) 1.4811(5)
C57 C 0.5858(6) 0.0821(4) 1.1393(6)
H45 H 0.5839(6) 0.0410(4) 1.0949(6)
C58 C 0.5850(6) 0.0643(4) 1.2317(6)
H46 H 0.5867(6) 0.0108(4) 1.2496(6)
O1 O 0.5276(5) 0.4012(3) 0.6088(3)
P1 P 0.4154(2) 0.21464(10) 0.96019(12)
C21 C 1.0971(6) 0.1826(4) 0.3843(4)
C22 C 0.9703(7) 0.1476(4) 0.3539(5)
H15 H 0.8906(7) 0.1534(4) 0.3903(5)
C23 C 0.9615(7) 0.1050(4) 0.2712(5)
H16 H 0.8757(7) 0.0825(4) 0.2526(5)
C24 C 1.0762(7) 0.0946(4) 0.2152(5)
C25 C 1.2028(7) 0.1302(4) 0.2428(5)
H17 H 1.2814(7) 0.1259(4) 0.2051(5)
C26 C 1.2101(6) 0.1719(4) 0.3269(5)
H18 H 1.2961(6) 0.1940(4) 0.3457(5)
C27 C 0.9558(6) 0.2714(4) 0.5296(4)
H19 H 0.9344(6) 0.3219(4) 0.4986(4)
H20 H 0.8840(6) 0.2329(4) 0.5110(4)
C28 C 0.9585(6) 0.2821(4) 0.6343(5)
C29 C 0.9360(5) 0.2177(4) 0.6957(4)
C30 C 0.9105(6) 0.1366(3) 0.6506(4)
C31 C 0.7792(6) 0.0954(4) 0.6623(4)
C32 C 0.6653(7) 0.1267(4) 0.7135(4)
H21 H 0.6733(7) 0.1766(4) 0.7419(4)
C33 C 0.5440(8) 0.0839(4) 0.7213(5)
H22 H 0.4715(8) 0.1048(4) 0.7569(5)
C34 C 0.5256(8) 0.0098(5) 0.6775(5)
H23 H 0.4417(8) -0.0182(5) 0.6837(5)
C35 C 0.6298(8) -0.0207(4) 0.6264(5)
H24 H 0.6166(8) -0.0701(4) 0.5974(5)
C36 C 0.7589(7) 0.0196(4) 0.6152(5)
C37 C 0.8674(8) -0.0097(4) 0.5605(5)
H25 H 0.8559(8) -0.0587(4) 0.5303(5)
C38 C 0.9893(8) 0.0310(4) 0.5500(5)
H26 H 1.0583(8) 0.0098(4) 0.5117(5)
C39 C 1.0137(7) 0.1047(4) 0.5958(5)
C40 C 1.1485(6) 0.1504(4) 0.5797(5)
H27 H 1.2183(6) 0.1135(4) 0.5563(5)
H28 H 1.1833(6) 0.1709(4) 0.6399(5)
C42 C 1.1775(7) 0.0327(4) 0.0809(5)
H32 H 1.1502(7) 0.0010(4) 0.0270(5)
H33 H 1.2449(7) 0.0037(4) 0.1191(5)
H34 H 1.2187(7) 0.0818(4) 0.0601(5)
C49 C 0.9480(5) 0.2265(4) 0.7946(5)
C50 C 0.9330(6) 0.1645(4) 0.8601(5)
H39 H 0.9114(6) 0.1137(4) 0.8372(5)
C51 C 0.9481(7) 0.1740(5) 0.9544(6)
H40 H 0.9381(7) 0.1308(5) 0.9951(6)
C52 C 0.9799(7) 0.2525(7) 0.9904(6)
H41 H 0.9888(7) 0.2607(7) 1.0552(6)
C53 C 0.9968(7) 0.3139(6) 0.9306(7)
H42 H 1.0188(7) 0.3641(6) 0.9552(7)
C54 C 0.9824(6) 0.3048(5) 0.8318(6)
C55 C 1.0063(6) 0.3674(4) 0.7685(7)
H43 H 1.0310(6) 0.4175(4) 0.7923(7)
C56 C 0.9946(6) 0.3574(4) 0.6742(6)
H44 H 1.0104(6) 0.4006(4) 0.6345(6)
O2 O 1.0573(4) 0.0497(3) 0.1350(3)
P2 P 1.1305(2) 0.23551(11) 0.49489(12)
loop_
_geom_bond_atom_site_label_1
_geom_bond_atom_site_label_2
_geom_bond_site_symmetry_1
_geom_bond_site_symmetry_2
C1 C2 1_555 1_555
C2 H1 1_555 1_555
C3 C2 1_555 1_555
H2 C3 1_555 1_555
C4 C3 1_555 1_555
C5 C4 1_555 1_555
H3 C5 1_555 1_555
C6 C1 1_555 1_555
H4 C6 1_555 1_555
C7 H5 1_555 1_555
H6 C7 1_555 1_555
C8 C7 1_555 1_555
C9 C8 1_555 1_555
C10 C9 1_555 1_555
C11 C10 1_555 1_555
C12 C11 1_555 1_555
H7 C12 1_555 1_555
C13 C12 1_555 1_555
H8 C13 1_555 1_555
C14 C13 1_555 1_555
C15 C10 1_555 1_555
C16 C15 1_555 1_555
H9 C16 1_555 1_555
C17 C16 1_555 1_555
H10 C17 1_555 1_555
C18 C17 1_555 1_555
H11 C18 1_555 1_555
C19 C14 1_555 1_555
H12 C19 1_555 1_555
C20 C11 1_555 1_555
H13 C20 1_555 1_555
H14 C20 1_555 1_555
C21 C22 1_555 1_555
C22 H15 1_555 1_555
C23 C22 1_555 1_555
H16 C23 1_555 1_555
C24 C23 1_555 1_555
C25 C24 1_555 1_555
H17 C25 1_555 1_555
C26 C21 1_555 1_555
H18 C26 1_555 1_555
C27 H19 1_555 1_555
H20 C27 1_555 1_555
C28 C27 1_555 1_555
C29 C28 1_555 1_555
C30 C29 1_555 1_555
C31 C30 1_555 1_555
C32 C31 1_555 1_555
H21 C32 1_555 1_555
C33 C32 1_555 1_555
H22 C33 1_555 1_555
C34 C33 1_555 1_555
H23 C34 1_555 1_555
C35 C34 1_555 1_555
H24 C35 1_555 1_555
C36 C31 1_555 1_555
C37 C36 1_555 1_555
H25 C37 1_555 1_555
C38 C37 1_555 1_555
H26 C38 1_555 1_555
C39 C30 1_555 1_555
C40 C39 1_555 1_555
H27 C40 1_555 1_555
H28 C40 1_555 1_555
C41 H29 1_555 1_555
H30 C41 1_555 1_555
H31 C41 1_555 1_555
C42 H32 1_555 1_555
H33 C42 1_555 1_555
H34 C42 1_555 1_555
C43 H35 1_555 1_555
C44 C9 1_555 1_555
C45 C44 1_555 1_555
C46 C45 1_555 1_555
H36 C46 1_555 1_555
C47 C46 1_555 1_555
H37 C47 1_555 1_555
C48 C43 1_555 1_555
H38 C48 1_555 1_555
C49 C29 1_555 1_555
C50 C49 1_555 1_555
H39 C50 1_555 1_555
C51 C50 1_555 1_555
H40 C51 1_555 1_555
C52 C51 1_555 1_555
H41 C52 1_555 1_555
C53 C52 1_555 1_555
H42 C53 1_555 1_555
C54 C49 1_555 1_555
C55 C54 1_555 1_555
H43 C55 1_555 1_555
C56 C28 1_555 1_555
H44 C56 1_555 1_555
C57 C8 1_555 1_555
H45 C57 1_555 1_555
C58 C45 1_555 1_555
H46 C58 1_555 1_555
O1 C4 1_555 1_555
O2 C24 1_555 1_555
P1 C1 1_555 1_555
P2 C21 1_555 1_555
C5 C6 1_555 1_555
C7 P1 1_555 1_555
C14 C15 1_555 1_555
C18 C19 1_555 1_555
C20 P1 1_555 1_555
C25 C26 1_555 1_555
C27 P2 1_555 1_555
C35 C36 1_555 1_555
C38 C39 1_555 1_555
C40 P2 1_555 1_555
C41 O1 1_555 1_555
C42 O2 1_555 1_555
C43 C44 1_555 1_555
C47 C48 1_555 1_555
C53 C54 1_555 1_555
C55 C56 1_555 1_555
C57 C58 1_555 1_555

#END
