
#######################################################################
#
#                 Cambridge Crystallographic Data Centre
#                                CCDC 
#
#######################################################################
#
# If this CIF has been generated from an entry in the Cambridge 
# Structural Database, then it will include bibliographic, chemical, 
# crystal, experimental, refinement or atomic coordinate data resulting 
# from the CCDC's data processing and validation procedures.
#
#######################################################################

data_ABOXAS
_chemical_formula_moiety         'C8 H20 N1 O1 1+,I1 1-,C20 H14 O2'
_chemical_name_systematic        
"(R,S)-N,N,N-Trimethyl-1-hydroxy-3-methyl-2-butylammonium iodide 1,1'-bi-2-naphthol clathrate"
_symmetry_cell_setting           orthorhombic
_symmetry_space_group_name_H-M   'P 21 21 21'
_symmetry_Int_Tables_number      19
_space_group_name_Hall           'P 2ac 2ab'
loop_
_symmetry_equiv_pos_site_id
_symmetry_equiv_pos_as_xyz
1 x,y,z
2 1/2-x,-y,1/2+z
3 -x,1/2+y,1/2-z
4 1/2+x,1/2-y,-z
_cell_length_a                   9.955(2)
_cell_length_b                   14.462(3)
_cell_length_c                   18.337(4)
_cell_angle_alpha                90
_cell_angle_beta                 90
_cell_angle_gamma                90
_cell_volume                     2639.96
_exptl_crystal_colour            colorless
_exptl_crystal_description       Block
_cell_formula_units_Z            4
loop_
_atom_site_label
_atom_site_type_symbol
_atom_site_fract_x
_atom_site_fract_y
_atom_site_fract_z
I1 I 0.49567(3) 0.24935(2) 0.830772(17)
C1 C 0.8768(5) 0.5997(3) 0.9599(2)
C2 C 1.0105(6) 0.3680(3) 0.7578(2)
H1 H 1.0446 0.3175 0.7325
C3 C 0.9671(5) 0.5403(4) 0.9950(3)
H2 H 1.0143 0.4967 0.9679
C4 C 0.8831(6) 0.3659(3) 0.7817(2)
H3 H 0.8283 0.3158 0.7705
C5 C 0.9069(5) 0.5162(3) 0.8383(2)
C6 C 1.0936(5) 0.4453(3) 0.7704(2)
C7 C 0.6927(6) 0.7198(4) 0.8945(3)
H4 H 0.6309 0.7593 0.8726
C8 C 0.7193(6) 0.7275(4) 0.9666(3)
H5 H 0.6766 0.7733 0.9937
C9 C 0.8323(5) 0.4397(3) 0.8238(2)
C10 C 0.7579(5) 0.6527(3) 0.8531(3)
C11 C 1.0395(4) 0.5217(3) 0.8102(2)
C12 C 1.1213(5) 0.6009(3) 0.8188(2)
H6 H 1.0877 0.6514 0.8444
C13 C 0.8482(4) 0.5925(3) 0.8833(2)
C14 C 0.8100(5) 0.6677(3) 1.0016(3)
C15 C 0.9869(6) 0.5458(4) 1.0692(3)
H7 H 1.0446 0.5045 1.0922
C16 C 0.9202(6) 0.6136(5) 1.1102(3)
H8 H 0.9353 0.6180 1.1602
O1 O 0.7016(4) 0.4392(3) 0.8489(2)
H9 H 0.6669 0.3891 0.8396
O2 O 0.7343(5) 0.6432(4) 0.7805(2)
H10 H 0.6668 0.6725 0.7694
C17 C 0.8357(6) 0.6714(4) 1.0780(3)
H11 H 0.7919 0.7156 1.1061
C18 C 1.2479(5) 0.6052(4) 0.7909(2)
H12 H 1.2982 0.6590 0.7962
C22 C 1.3030(6) 0.5291(4) 0.7540(3)
H18 H 1.3903 0.5316 0.7361
C23 C 1.2278(5) 0.4520(4) 0.7449(3)
H19 H 1.2656 0.4016 0.7211
C19 C 1.0091(6) 0.4919(4) 0.5055(2)
H13 H 0.9158 0.4860 0.4890
N1 N 0.9042(4) 0.6319(3) 0.5713(2)
C20 C 1.0273(5) 0.5924(4) 0.5328(3)
H14 H 1.0423 0.6307 0.4895
C21 C 1.0325(8) 0.4164(5) 0.5613(4)
H15 H 0.9947 0.3594 0.5439
H16 H 0.9904 0.4332 0.6065
H17 H 1.1272 0.4087 0.5690
O3 O 1.1982(5) 0.6905(4) 0.5817(3)
H20 H 1.2635 0.6935 0.6088
C24 C 1.1523(6) 0.6008(5) 0.5792(4)
H21 H 1.1326 0.5799 0.6283
H22 H 1.2220 0.5612 0.5594
C25 C 1.0985(8) 0.4764(6) 0.4388(4)
H23 H 1.1908 0.4860 0.4520
H24 H 1.0739 0.5191 0.4010
H25 H 1.0871 0.4142 0.4214
C26 C 0.7873(6) 0.6282(6) 0.5235(5)
H26 H 0.7191 0.6692 0.5416
H27 H 0.7530 0.5662 0.5221
H28 H 0.8128 0.6469 0.4752
C27 C 0.8568(11) 0.5760(8) 0.6351(5)
H29 H 0.7868 0.6089 0.6601
H30 H 0.9305 0.5656 0.6679
H31 H 0.8228 0.5177 0.6183
C28 C 0.9174(9) 0.7295(6) 0.5855(6)
H32 H 0.9785 0.7563 0.5509
H33 H 0.9512 0.7386 0.6340
H34 H 0.8311 0.7587 0.5810
loop_
_geom_bond_atom_site_label_1
_geom_bond_atom_site_label_2
_geom_bond_site_symmetry_1
_geom_bond_site_symmetry_2
C1 C3 1_555 1_555
C2 H1 1_555 1_555
C3 H2 1_555 1_555
C4 C2 1_555 1_555
H3 C4 1_555 1_555
C5 C9 1_555 1_555
C6 C2 1_555 1_555
C7 H4 1_555 1_555
C8 C7 1_555 1_555
H5 C8 1_555 1_555
C9 C4 1_555 1_555
C10 C7 1_555 1_555
C11 C5 1_555 1_555
C12 C11 1_555 1_555
H6 C12 1_555 1_555
C13 C1 1_555 1_555
C14 C1 1_555 1_555
C15 C3 1_555 1_555
H7 C15 1_555 1_555
C16 C15 1_555 1_555
H8 C16 1_555 1_555
O1 C9 1_555 1_555
H9 O1 1_555 1_555
O2 C10 1_555 1_555
H10 O2 1_555 1_555
C17 C14 1_555 1_555
H11 C17 1_555 1_555
C18 C12 1_555 1_555
H12 C18 1_555 1_555
C19 H13 1_555 1_555
N1 C20 1_555 1_555
C20 C19 1_555 1_555
H14 C20 1_555 1_555
C21 C19 1_555 1_555
H15 C21 1_555 1_555
H16 C21 1_555 1_555
H17 C21 1_555 1_555
C22 C18 1_555 1_555
H18 C22 1_555 1_555
C23 C6 1_555 1_555
H19 C23 1_555 1_555
O3 H20 1_555 1_555
C24 C20 1_555 1_555
H21 C24 1_555 1_555
H22 C24 1_555 1_555
C25 C19 1_555 1_555
H23 C25 1_555 1_555
H24 C25 1_555 1_555
H25 C25 1_555 1_555
C26 N1 1_555 1_555
H26 C26 1_555 1_555
H27 C26 1_555 1_555
H28 C26 1_555 1_555
C27 N1 1_555 1_555
H29 C27 1_555 1_555
H30 C27 1_555 1_555
H31 C27 1_555 1_555
C28 N1 1_555 1_555
H32 C28 1_555 1_555
H33 C28 1_555 1_555
H34 C28 1_555 1_555
C5 C13 1_555 1_555
C6 C11 1_555 1_555
C8 C14 1_555 1_555
C10 C13 1_555 1_555
C16 C17 1_555 1_555
C22 C23 1_555 1_555
O3 C24 1_555 1_555

#END
