
#######################################################################
#
#                 Cambridge Crystallographic Data Centre
#                                CCDC 
#
#######################################################################
#
# If this CIF has been generated from an entry in the Cambridge 
# Structural Database, then it will include bibliographic, chemical, 
# crystal, experimental, refinement or atomic coordinate data resulting 
# from the CCDC's data processing and validation procedures.
#
#######################################################################

data_ABOZEZ
_chemical_formula_moiety         'C36 H20 Br2 O2'
_chemical_name_systematic        
2',3'-dibromo-2',3'-dihydrospiro[benzo[5,6]phenanthro[3,4-b]furan-1,1'-cyclopenta[c]phenanthren]-2-one
_symmetry_cell_setting           triclinic
_symmetry_space_group_name_H-M   'P -1'
_symmetry_Int_Tables_number      2
_space_group_name_Hall           '-P 1'
loop_
_symmetry_equiv_pos_site_id
_symmetry_equiv_pos_as_xyz
1 x,y,z
2 -x,-y,-z
_cell_length_a                   9.7726(11)
_cell_length_b                   10.8797(14)
_cell_length_c                   12.7528(15)
_cell_angle_alpha                100.212(3)
_cell_angle_beta                 94.314(3)
_cell_angle_gamma                96.360(4)
_cell_volume                     1319.97
_exptl_crystal_colour            'orange yellow'
_exptl_crystal_description       Prism
_cell_formula_units_Z            2
_exptl_crystal_recrystallization_method chloroform
loop_
_atom_site_label
_atom_site_type_symbol
_atom_site_fract_x
_atom_site_fract_y
_atom_site_fract_z
Br1 Br 0.13129(4) 0.29950(4) 0.59916(4)
Br2 Br -0.14114(5) 0.35546(4) 0.40286(4)
O1 O -0.1226(3) -0.0292(3) 0.6164(3)
O2 O 0.0124(3) 0.0697(3) 0.7632(3)
C1 C -0.1273(3) 0.1974(3) 0.6802(3)
C2 C -0.0641(4) 0.2399(3) 0.5795(3)
H1 H -0.0784 0.1664 0.5212
C3 C -0.1567(4) 0.3329(4) 0.5497(3)
H2 H -0.1345 0.4139 0.5991
C4 C -0.2949(4) 0.2697(4) 0.5668(3)
C5 C -0.2812(3) 0.1942(3) 0.6437(3)
C6 C -0.4000(3) 0.1207(3) 0.6701(3)
C7 C -0.5267(4) 0.1225(4) 0.6070(3)
C8 C -0.5350(4) 0.2022(5) 0.5321(4)
H3 H -0.6197 0.2034 0.4939
C9 C -0.4214(4) 0.2782(4) 0.5139(3)
H4 H -0.4291 0.3341 0.4671
C10 C -0.4036(4) 0.0475(3) 0.7553(3)
C11 C -0.2952(4) 0.0573(4) 0.8368(3)
H5 H -0.2165 0.1139 0.8374
C12 C -0.3020(5) -0.0140(5) 0.9151(4)
H6 H -0.2286 -0.0046 0.9679
C13 C -0.4174(6) -0.0998(5) 0.9165(5)
H7 H -0.4197 -0.1519 0.9669
C14 C -0.5263(5) -0.1064(5) 0.8431(5)
H8 H -0.6047 -0.1623 0.8455
C15 C -0.5264(4) -0.0329(4) 0.7636(4)
C16 C -0.6463(4) -0.0335(4) 0.6933(5)
H9 H -0.7256 -0.0875 0.6974
C17 C -0.6476(4) 0.0418(5) 0.6215(4)
H10 H -0.7295 0.0420 0.5795
C18 C -0.0857(4) 0.0646(4) 0.6794(4)
C19 C 0.0367(4) 0.1930(4) 0.8198(3)
C20 C -0.0498(3) 0.2735(3) 0.7851(3)
C21 C -0.0222(3) 0.4048(4) 0.8300(3)
C22 C 0.1063(4) 0.4440(4) 0.8960(3)
C23 C 0.1845(4) 0.3552(5) 0.9317(3)
H11 H 0.2618 0.3835 0.9807
C24 C 0.1499(4) 0.2301(5) 0.8966(4)
H12 H 0.1992 0.1716 0.9225
C25 C -0.1036(4) 0.5029(3) 0.8098(3)
C26 C -0.2536(4) 0.4870(3) 0.7897(3)
C27 C -0.3367(4) 0.3862(4) 0.8176(3)
H13 H -0.2949 0.3231 0.8432
C28 C -0.4793(4) 0.3788(4) 0.8079(4)
H14 H -0.5321 0.3121 0.8284
C29 C -0.5440(5) 0.4698(5) 0.7678(4)
H15 H -0.6400 0.4626 0.7585
C30 C -0.4661(5) 0.5704(5) 0.7420(4)
H16 H -0.5100 0.6312 0.7147
C31 C -0.3211(4) 0.5838(4) 0.7557(3)
C32 C -0.2398(6) 0.6990(4) 0.7450(4)
H17 H -0.2804 0.7582 0.7129
C33 C -0.1072(6) 0.7203(4) 0.7808(4)
H18 H -0.0588 0.7988 0.7809
C34 C -0.0354(4) 0.6268(4) 0.8195(3)
C35 C 0.0995(5) 0.6586(4) 0.8723(4)
H19 H 0.1451 0.7394 0.8769
C36 C 0.1625(4) 0.5738(5) 0.9158(4)
H20 H 0.2446 0.6000 0.9598
loop_
_geom_bond_atom_site_label_1
_geom_bond_atom_site_label_2
_geom_bond_site_symmetry_1
_geom_bond_site_symmetry_2
Br1 C2 1_555 1_555
Br2 C3 1_555 1_555
O1 C18 1_555 1_555
O2 C18 1_555 1_555
C1 C2 1_555 1_555
C2 H1 1_555 1_555
C3 C2 1_555 1_555
H2 C3 1_555 1_555
C4 C3 1_555 1_555
C5 C1 1_555 1_555
C6 C5 1_555 1_555
C7 C6 1_555 1_555
C8 C7 1_555 1_555
H3 C8 1_555 1_555
C9 C4 1_555 1_555
H4 C9 1_555 1_555
C10 C6 1_555 1_555
C11 C10 1_555 1_555
H5 C11 1_555 1_555
C12 C11 1_555 1_555
H6 C12 1_555 1_555
C13 C12 1_555 1_555
H7 C13 1_555 1_555
C14 C13 1_555 1_555
H8 C14 1_555 1_555
C15 C10 1_555 1_555
C16 C15 1_555 1_555
H9 C16 1_555 1_555
C17 C7 1_555 1_555
H10 C17 1_555 1_555
C18 C1 1_555 1_555
C19 O2 1_555 1_555
C20 C1 1_555 1_555
C21 C20 1_555 1_555
C22 C21 1_555 1_555
C23 C22 1_555 1_555
H11 C23 1_555 1_555
C24 C19 1_555 1_555
H12 C24 1_555 1_555
C25 C21 1_555 1_555
C26 C25 1_555 1_555
C27 C26 1_555 1_555
H13 C27 1_555 1_555
C28 C27 1_555 1_555
H14 C28 1_555 1_555
C29 C28 1_555 1_555
H15 C29 1_555 1_555
C30 C29 1_555 1_555
H16 C30 1_555 1_555
C31 C26 1_555 1_555
C32 C31 1_555 1_555
H17 C32 1_555 1_555
C33 C32 1_555 1_555
H18 C33 1_555 1_555
C34 C25 1_555 1_555
C35 C34 1_555 1_555
H19 C35 1_555 1_555
C36 C22 1_555 1_555
H20 C36 1_555 1_555
C4 C5 1_555 1_555
C8 C9 1_555 1_555
C14 C15 1_555 1_555
C16 C17 1_555 1_555
C19 C20 1_555 1_555
C23 C24 1_555 1_555
C30 C31 1_555 1_555
C33 C34 1_555 1_555
C35 C36 1_555 1_555

#END
