
#######################################################################
#
#                 Cambridge Crystallographic Data Centre
#                                CCDC 
#
#######################################################################
#
# If this CIF has been generated from an entry in the Cambridge 
# Structural Database, then it will include bibliographic, chemical, 
# crystal, experimental, refinement or atomic coordinate data resulting 
# from the CCDC's data processing and validation procedures.
#
#######################################################################

data_ABOZEY
_chemical_formula_moiety         'C42 H32 B2 N2 O4 S2'
_chemical_name_systematic        
2,10-Dimethoxy-6,6,14,14-tetraphenyl-6H,14H-7\l^5^,15\l^5^,6\l^5^,14\l^5^-[1,3,2]benzoxazaborinino-[4'',3'':2',3'][1,3]thiazolo[5',4':4,5][1,3]thiazolo[3,2-c][1,3,2]-benzoxazaborinine
_symmetry_cell_setting           triclinic
_symmetry_space_group_name_H-M   'P -1'
_symmetry_Int_Tables_number      2
_space_group_name_Hall           '-P 1'
loop_
_symmetry_equiv_pos_site_id
_symmetry_equiv_pos_as_xyz
1 x,y,z
2 -x,-y,-z
_cell_length_a                   9.5072(19)
_cell_length_b                   9.7261(19)
_cell_length_c                   10.865(2)
_cell_angle_alpha                105.12(3)
_cell_angle_beta                 109.66(3)
_cell_angle_gamma                97.57(3)
_cell_volume                     886.325
_cell_formula_units_Z            1
loop_
_atom_site_label
_atom_site_type_symbol
_atom_site_fract_x
_atom_site_fract_y
_atom_site_fract_z
S1 S 0.27149(4) 0.98114(4) 0.88332(4)
O1 O 0.59619(13) 0.76074(13) 0.67257(11)
N1 N 0.53126(15) 0.87373(13) 0.86802(13)
C1 C 0.45619(17) 0.95803(16) 0.93291(15)
C2 C 0.32349(18) 1.10613(16) 1.04756(16)
C3 C 0.32172(19) 0.78537(17) 0.61270(16)
C4 C 0.42751(18) 0.59168(17) 0.74200(16)
B1 B 0.4642(2) 0.74522(19) 0.71519(18)
C5 C 0.22117(19) 1.18253(18) 1.09473(17)
C6 C 0.73148(19) 0.75466(18) 0.76158(18)
C7 C 0.0801(2) 1.1916(2) 1.0038(2)
H1 H 0.0494 1.1493 0.9087
C8 C 0.3627(2) 0.5733(2) 0.83494(19)
H2 H 0.3411 0.6535 0.8874
C9 C 0.4559(2) 0.46689(19) 0.6649(2)
H3 H 0.4994 0.4754 0.6015
C10 C 0.1720(2) 0.6991(2) 0.55876(19)
H4 H 0.1538 0.6154 0.5827
O2 O -0.1509(2) 1.2823(3) 0.97980(19)
C11 C 0.3423(3) 0.9087(2) 0.5729(2)
H5 H 0.4407 0.9687 0.6061
C12 C -0.0122(2) 1.2635(3) 1.0568(2)
C13 C 0.0332(2) 1.3228(3) 1.2002(2)
H6 H -0.0307 1.3698 1.2355
C14 C 0.8311(2) 0.6870(2) 0.7113(2)
H7 H 0.8042 0.6484 0.6164
C15 C 0.4214(3) 0.3319(2) 0.6801(3)
H8 H 0.4409 0.2508 0.6268
C16 C 0.0490(2) 0.7344(3) 0.4702(2)
H9 H -0.0496 0.6741 0.4350
C17 C 0.0730(3) 0.8577(3) 0.4348(2)
H10 H -0.0094 0.8827 0.3771
C18 C 0.2195(3) 0.9447(2) 0.4847(2)
H11 H 0.2365 1.0278 0.4594
C19 C 0.3291(3) 0.4369(3) 0.8514(3)
H12 H 0.2868 0.4268 0.9152
C20 C 0.3589(3) 0.3172(2) 0.7729(3)
H13 H 0.3362 0.2261 0.7833
C21 C -0.1929(4) 1.2490(7) 0.8399(4)
H14 H -0.1202 1.3109 0.8218
H15 H -0.2935 1.2647 0.7998
H16 H -0.1943 1.1481 0.8001
S1A S 0.72851(4) 1.01886(4) 1.11668(4)
O1A O 0.40381(13) 1.23926(13) 1.32743(11)
N1A N 0.46874(15) 1.12627(13) 1.13198(13)
C1A C 0.54381(17) 1.04197(16) 1.06709(15)
C2A C 0.67651(18) 0.89387(16) 0.95244(16)
C3A C 0.67828(19) 1.21463(17) 1.38730(16)
C4A C 0.57249(18) 1.40832(17) 1.25800(16)
B1A B 0.5358(2) 1.25478(19) 1.28481(18)
C5A C 0.77883(19) 0.81747(18) 0.90527(17)
C6A C 0.26852(19) 1.24534(18) 1.23842(18)
C7A C 0.9199(2) 0.8084(2) 0.9962(2)
H1A H 0.9506 0.8507 1.0913
C8A C 0.6373(2) 1.4267(2) 1.16506(19)
H2A H 0.6589 1.3465 1.1126
C9A C 0.5441(2) 1.53311(19) 1.3351(2)
H3A H 0.5006 1.5246 1.3985
C10A C 0.8280(2) 1.3009(2) 1.44124(19)
H4A H 0.8462 1.3846 1.4173
O2A O 1.1509(2) 0.7177(3) 1.02020(19)
C11A C 0.6577(3) 1.0913(2) 1.4271(2)
H5A H 0.5593 1.0313 1.3939
C12A C 1.0122(2) 0.7365(3) 0.9432(2)
C13A C 0.9668(2) 0.6772(3) 0.7998(2)
H6A H 1.0307 0.6302 0.7645
C14A C 0.1689(2) 1.3130(2) 1.2887(2)
H7A H 0.1958 1.3516 1.3836
C15A C 0.5786(3) 1.6681(2) 1.3199(3)
H8A H 0.5591 1.7492 1.3732
C16A C 0.9510(2) 1.2656(3) 1.5298(2)
H9A H 1.0496 1.3259 1.5650
C17A C 0.9270(3) 1.1423(3) 1.5652(2)
H10A H 1.0094 1.1173 1.6229
C18A C 0.7805(3) 1.0553(2) 1.5153(2)
H11A H 0.7635 0.9722 1.5406
C19A C 0.6709(3) 1.5631(3) 1.1486(3)
H12A H 0.7132 1.5732 1.0848
C20A C 0.6411(3) 1.6828(2) 1.2271(3)
H13A H 0.6638 1.7739 1.2167
C21A C 1.1929(4) 0.7510(7) 1.1601(4)
H14A H 1.1202 0.6891 1.1782
H15A H 1.2935 0.7353 1.2002
H16A H 1.1943 0.8519 1.1999
loop_
_geom_bond_atom_site_label_1
_geom_bond_atom_site_label_2
_geom_bond_site_symmetry_1
_geom_bond_site_symmetry_2
S1 C1 1_555 1_555
O1 B1 1_555 1_555
N1 C1 1_555 1_555
C1 C1A 1_555 1_555
C2 S1 1_555 1_555
C3 B1 1_555 1_555
C4 B1 1_555 1_555
B1 N1 1_555 1_555
C5 C2 1_555 1_555
C6 O1 1_555 1_555
C7 C5 1_555 1_555
H1 C7 1_555 1_555
C8 C4 1_555 1_555
H2 C8 1_555 1_555
C9 C4 1_555 1_555
H3 C9 1_555 1_555
C10 C3 1_555 1_555
H4 C10 1_555 1_555
O2 C12 1_555 1_555
C11 C3 1_555 1_555
H5 C11 1_555 1_555
C12 C7 1_555 1_555
C13 C12 1_555 1_555
H6 C13 1_555 1_555
C14 C6 1_555 1_555
H7 C14 1_555 1_555
C15 C9 1_555 1_555
H8 C15 1_555 1_555
C16 C10 1_555 1_555
H9 C16 1_555 1_555
C17 C16 1_555 1_555
H10 C17 1_555 1_555
C18 C11 1_555 1_555
H11 C18 1_555 1_555
C19 C8 1_555 1_555
H12 C19 1_555 1_555
C20 C15 1_555 1_555
H13 C20 1_555 1_555
C21 O2 1_555 1_555
H14 C21 1_555 1_555
H15 C21 1_555 1_555
H16 C21 1_555 1_555
S1A C1A 1_555 1_555
O1A B1A 1_555 1_555
N1A C2 1_555 1_555
C1A N1A 1_555 1_555
C2A N1 1_555 1_555
C3A B1A 1_555 1_555
C4A B1A 1_555 1_555
B1A N1A 1_555 1_555
C5A C6 1_555 1_555
C6A C5 1_555 1_555
C7A C5A 1_555 1_555
H1A C7A 1_555 1_555
C8A C4A 1_555 1_555
H2A C8A 1_555 1_555
C9A C4A 1_555 1_555
H3A C9A 1_555 1_555
C10A C3A 1_555 1_555
H4A C10A 1_555 1_555
O2A C12A 1_555 1_555
C11A C3A 1_555 1_555
H5A C11A 1_555 1_555
C12A C7A 1_555 1_555
C13A C14 1_555 1_555
H6A C13A 1_555 1_555
C14A C13 1_555 1_555
H7A C14A 1_555 1_555
C15A C9A 1_555 1_555
H8A C15A 1_555 1_555
C16A C10A 1_555 1_555
H9A C16A 1_555 1_555
C17A C16A 1_555 1_555
H10A C17A 1_555 1_555
C18A C11A 1_555 1_555
H11A C18A 1_555 1_555
C19A C8A 1_555 1_555
H12A C19A 1_555 1_555
C20A C15A 1_555 1_555
H13A C20A 1_555 1_555
C21A O2A 1_555 1_555
H14A C21A 1_555 1_555
H15A C21A 1_555 1_555
H16A C21A 1_555 1_555
C17 C18 1_555 1_555
C19 C20 1_555 1_555
S1A C2A 1_555 1_555
O1A C6A 1_555 1_555
C2A C5A 1_555 1_555
C6A C14A 1_555 1_555
C12A C13A 1_555 1_555
C17A C18A 1_555 1_555
C19A C20A 1_555 1_555

#END
