
#######################################################################
#
#                 Cambridge Crystallographic Data Centre
#                                CCDC 
#
#######################################################################
#
# If this CIF has been generated from an entry in the Cambridge 
# Structural Database, then it will include bibliographic, chemical, 
# crystal, experimental, refinement or atomic coordinate data resulting 
# from the CCDC's data processing and validation procedures.
#
#######################################################################

data_ABOZAU
_chemical_formula_moiety         'C40 H26 B2 F2 N2 O2 S2'
_chemical_name_systematic        
2,10-Difluoro-6,6,14,14-tetraphenyl-6H,14H-7\l^5^,15\l^5^,6\l^5^,14\l^5^-[1,3,2]benzoxazaborinino-[4'',3'':2',3'][1,3]thiazolo[5',4':4,5][1,3]thiazolo[3,2-c][1,3,2]-benzoxazaborinine
_symmetry_cell_setting           monoclinic
_symmetry_space_group_name_H-M   'P 21/c'
_symmetry_Int_Tables_number      14
_space_group_name_Hall           '-P 2ybc'
loop_
_symmetry_equiv_pos_site_id
_symmetry_equiv_pos_as_xyz
1 x,y,z
2 -x,1/2+y,1/2-z
3 -x,-y,-z
4 x,1/2-y,1/2+z
_cell_length_a                   11.485(2)
_cell_length_b                   15.432(3)
_cell_length_c                   9.831(2)
_cell_angle_alpha                90
_cell_angle_beta                 98.21(3)
_cell_angle_gamma                90
_cell_volume                     1724.55
_cell_formula_units_Z            2
loop_
_atom_site_label
_atom_site_type_symbol
_atom_site_fract_x
_atom_site_fract_y
_atom_site_fract_z
C1 C 0.7009(4) 0.0547(2) 1.1293(3)
H1 H 0.6912 0.0668 1.2197
C2 C 0.8004(4) 0.0173(2) 1.1014(3)
H2 H 0.8590 0.0025 1.1731
C3 C 0.6141(3) 0.0750(2) 1.0243(3)
H3 H 0.5447 0.1004 1.0430
S1 S 0.54986(3) 0.12629(3) 0.46732(4)
O1 O 0.82678(10) -0.07895(8) 0.69574(13)
N1 N 0.62860(11) -0.02753(8) 0.61245(12)
C4 C 0.55033(13) 0.02110(10) 0.52583(15)
C5 C 0.80757(14) 0.07808(11) 0.62295(16)
F1 F 0.34811(11) 0.39163(7) 0.17141(13)
C6 C 0.41156(14) 0.10713(10) 0.37600(16)
C7 C 0.33948(14) 0.17256(11) 0.30008(16)
C8 C 0.38379(16) 0.25318(11) 0.26641(18)
H4 H 0.4639 0.2651 0.2848
B1 B 0.75500(16) 0.00030(13) 0.70226(19)
C9 C 0.79446(16) 0.16476(12) 0.6575(2)
H5 H 0.7570 0.1781 0.7327
C10 C 0.78141(15) -0.15489(12) 0.72853(19)
C11 C 0.86620(17) 0.06231(12) 0.51066(18)
H6 H 0.8766 0.0053 0.4840
C12 C 0.73048(18) 0.02015(13) 0.85628(18)
C13 C 0.89290(19) 0.21320(14) 0.4738(2)
H7 H 0.9207 0.2580 0.4240
C14 C 0.30662(17) 0.31357(12) 0.20600(19)
C15 C 0.83549(18) 0.23145(13) 0.5833(2)
H8 H 0.8241 0.2887 0.6077
C16 C 0.9094(2) 0.12855(14) 0.4376(2)
H9 H 0.9495 0.1159 0.3643
C17 C 0.85622(18) -0.21976(14) 0.7885(2)
H10 H 0.9367 -0.2095 0.8064
C18 C 0.6297(2) 0.05754(17) 0.8888(2)
H11 H 0.5698 0.0717 0.8183
C19 C 0.18745(19) 0.29871(14) 0.1786(2)
H12 H 0.1371 0.3416 0.1382
C20 C 0.8166(3) 0.00045(17) 0.9666(2)
H13 H 0.8867 -0.0246 0.9496
C1B C 0.2991(4) -0.0547(2) -0.1293(3)
H1B H 0.3088 -0.0668 -0.2197
C2B C 0.1996(4) -0.0173(2) -0.1014(3)
H2B H 0.1410 -0.0025 -0.1731
C3B C 0.3859(3) -0.0750(2) -0.0243(3)
H3B H 0.4553 -0.1004 -0.0430
S1B S 0.45014(3) -0.12629(3) 0.53268(4)
O1B O 0.17322(10) 0.07895(8) 0.30426(13)
N1B N 0.37140(11) 0.02753(8) 0.38755(12)
C4B C 0.44967(13) -0.02110(10) 0.47417(15)
C5B C 0.19243(14) -0.07808(11) 0.37705(16)
F1B F 0.65189(11) -0.39163(7) 0.82859(13)
C6B C 0.58844(14) -0.10713(10) 0.62400(16)
C7B C 0.66052(14) -0.17256(11) 0.69992(16)
C8B C 0.61621(16) -0.25318(11) 0.73359(18)
H4B H 0.5361 -0.2651 0.7152
B1B B 0.24500(16) -0.00030(13) 0.29774(19)
C9B C 0.20554(16) -0.16476(12) 0.3425(2)
H5B H 0.2430 -0.1781 0.2673
C10B C 0.21859(15) 0.15489(12) 0.27147(19)
C11B C 0.13380(17) -0.06231(12) 0.48934(18)
H6B H 0.1234 -0.0053 0.5160
C12B C 0.26952(18) -0.02015(13) 0.14372(18)
C13B C 0.10710(19) -0.21320(14) 0.5262(2)
H7B H 0.0793 -0.2580 0.5760
C14B C 0.69338(17) -0.31357(12) 0.79400(19)
C15B C 0.16451(18) -0.23145(13) 0.4167(2)
H8B H 0.1759 -0.2887 0.3923
C16B C 0.0906(2) -0.12855(14) 0.5624(2)
H9B H 0.0505 -0.1159 0.6357
C17B C 0.14378(18) 0.21976(14) 0.2115(2)
H10B H 0.0633 0.2095 0.1936
C18B C 0.3703(2) -0.05754(17) 0.1112(2)
H11B H 0.4302 -0.0717 0.1817
C19B C 0.81255(19) -0.29871(14) 0.8214(2)
H12B H 0.8629 -0.3416 0.8618
C20B C 0.1834(3) -0.00045(17) 0.0334(2)
H13B H 0.1133 0.0246 0.0504
loop_
_geom_bond_atom_site_label_1
_geom_bond_atom_site_label_2
_geom_bond_site_symmetry_1
_geom_bond_site_symmetry_2
C1 H1 1_555 1_555
C2 C1 1_555 1_555
H2 C2 1_555 1_555
C3 C1 1_555 1_555
H3 C3 1_555 1_555
S1 C4 1_555 1_555
O1 B1 1_555 1_555
N1 C4 1_555 1_555
C4 C4B 1_555 1_555
C5 B1 1_555 1_555
F1 C14 1_555 1_555
C6 S1 1_555 1_555
C7 C6 1_555 1_555
C8 C7 1_555 1_555
H4 C8 1_555 1_555
B1 N1 1_555 1_555
C9 C5 1_555 1_555
H5 C9 1_555 1_555
C10 O1 1_555 1_555
C11 C5 1_555 1_555
H6 C11 1_555 1_555
C12 B1 1_555 1_555
C13 H7 1_555 1_555
C14 C8 1_555 1_555
C15 C9 1_555 1_555
H8 C15 1_555 1_555
C16 C11 1_555 1_555
H9 C16 1_555 1_555
C17 C10 1_555 1_555
H10 C17 1_555 1_555
C18 C3 1_555 1_555
H11 C18 1_555 1_555
C19 C14 1_555 1_555
H12 C19 1_555 1_555
C20 C2 1_555 1_555
H13 C20 1_555 1_555
C1B H1B 1_555 1_555
C2B C1B 1_555 1_555
H2B C2B 1_555 1_555
C3B C1B 1_555 1_555
H3B C3B 1_555 1_555
S1B C4B 1_555 1_555
O1B B1B 1_555 1_555
N1B C6 1_555 1_555
C4B N1B 1_555 1_555
C5B B1B 1_555 1_555
F1B C14B 1_555 1_555
C6B N1 1_555 1_555
C7B C10 1_555 1_555
C8B C7B 1_555 1_555
H4B C8B 1_555 1_555
B1B N1B 1_555 1_555
C9B C5B 1_555 1_555
H5B C9B 1_555 1_555
C10B C7 1_555 1_555
C11B C5B 1_555 1_555
H6B C11B 1_555 1_555
C12B B1B 1_555 1_555
C13B H7B 1_555 1_555
C14B C8B 1_555 1_555
C15B C9B 1_555 1_555
H8B C15B 1_555 1_555
C16B C11B 1_555 1_555
H9B C16B 1_555 1_555
C17B C19 1_555 1_555
H10B C17B 1_555 1_555
C18B C3B 1_555 1_555
H11B C18B 1_555 1_555
C19B C17 1_555 1_555
H12B C19B 1_555 1_555
C20B C2B 1_555 1_555
H13B C20B 1_555 1_555
C12 C18 1_555 1_555
C12 C20 1_555 1_555
C13 C15 1_555 1_555
C13 C16 1_555 1_555
S1B C6B 1_555 1_555
O1B C10B 1_555 1_555
C6B C7B 1_555 1_555
C10B C17B 1_555 1_555
C12B C18B 1_555 1_555
C12B C20B 1_555 1_555
C13B C15B 1_555 1_555
C13B C16B 1_555 1_555
C14B C19B 1_555 1_555

#END
