
#######################################################################
#
#                 Cambridge Crystallographic Data Centre
#                                CCDC 
#
#######################################################################
#
# If this CIF has been generated from an entry in the Cambridge 
# Structural Database, then it will include bibliographic, chemical, 
# crystal, experimental, refinement or atomic coordinate data resulting 
# from the CCDC's data processing and validation procedures.
#
#######################################################################

data_ABUJOW
_chemical_formula_moiety         'C13 H23 N1 O3 Si1'
_chemical_name_systematic        
(4aR,5S)-5-((t-butyl(dimethyl)silyl)oxy)-2,4a,5,6-tetrahydro-7H-pyrrolo(1,2-b)oxazin-7-one
_symmetry_cell_setting           monoclinic
_symmetry_space_group_name_H-M   'P 21'
_symmetry_Int_Tables_number      4
_space_group_name_Hall           'P 2yb'
loop_
_symmetry_equiv_pos_site_id
_symmetry_equiv_pos_as_xyz
1 x,y,z
2 -x,1/2+y,-z
_cell_length_a                   13.645(2)
_cell_length_b                   6.180(1)
_cell_length_c                   18.791(3)
_cell_angle_alpha                90
_cell_angle_beta                 94.73(1)
_cell_angle_gamma                90
_cell_volume                     1579.18
_exptl_crystal_colour            colorless
_exptl_crystal_description       'trigonal prism'
_chemical_melting_point          110-111deg.C
_cell_formula_units_Z            4
loop_
_atom_site_label
_atom_site_type_symbol
_atom_site_fract_x
_atom_site_fract_y
_atom_site_fract_z
N1 N 0.9533(10) 0.6801(16) 0.1489(5)
O1 O 0.8763(5) 0.3821(12) 0.2551(3)
O2 O 0.8314(7) 0.758(2) 0.0635(5)
O3 O 1.0187(7) 0.8358(13) 0.1264(5)
C1 C 0.8663(13) 0.635(4) 0.1090(7)
C2 C 0.8350(9) 0.426(3) 0.1302(6)
H1 H 0.8317 0.3269 0.0900
H2 H 0.7704 0.4344 0.1480
C3 C 0.9099(9) 0.3472(18) 0.1885(5)
H3 H 0.9256 0.1941 0.1818
C4 C 0.9986(9) 0.4882(19) 0.1796(5)
H4 H 1.0313 0.5224 0.2266
C5 C 1.0732(8) 0.4115(18) 0.1313(7)
H5 H 1.1018 0.2761 0.1391
C6 C 1.0990(8) 0.529(3) 0.0790(6)
H6 H 1.1407 0.4684 0.0476
C7 C 1.0659(9) 0.752(2) 0.0665(5)
H7 H 1.1219 0.8428 0.0582
H8 H 1.0203 0.7578 0.0242
Si1 Si 0.8053(6) 0.2497(10) 0.3096(4)
C8 C 0.7636(17) -0.011(4) 0.2443(10)
H9 H 0.7310 0.0408 0.2004
H10 H 0.7197 -0.1025 0.2680
H11 H 0.8209 -0.0923 0.2343
C9 C 0.7133(19) 0.406(4) 0.3475(14)
H12 H 0.7403 0.5427 0.3629
H13 H 0.6907 0.3297 0.3876
H14 H 0.6591 0.4283 0.3124
C10 C 0.9045(18) 0.129(4) 0.3753(10)
C11 C 0.980(3) 0.021(6) 0.3449(19)
H15 H 0.9991 0.1023 0.3048
H16 H 0.9573 -0.1195 0.3292
H17 H 1.0350 0.0059 0.3797
C12 C 0.9668(19) 0.306(4) 0.4130(12)
H18 H 0.9839 0.2652 0.4617
H19 H 0.9300 0.4390 0.4119
H20 H 1.0257 0.3268 0.3891
C13 C 0.8535(18) -0.008(4) 0.4309(12)
H21 H 0.8862 -0.1448 0.4372
H22 H 0.7859 -0.0306 0.4143
H23 H 0.8569 0.0678 0.4757
N2 N 0.4114(9) -0.5596(12) 0.1368(4)
O4 O 0.4023(5) -0.2543(11) 0.2605(3)
O5 O 0.3696(5) -0.7097(10) 0.0867(4)
C20 C 0.5095(15) -0.546(3) 0.1538(6)
O6 O 0.5646(8) -0.695(2) 0.1399(4)
C21 C 0.5307(10) -0.332(2) 0.1848(6)
H39 H 0.5696 -0.2465 0.1544
H40 H 0.5658 -0.3445 0.2317
C22 C 0.4282(10) -0.2308(18) 0.1899(5)
H41 H 0.4293 -0.0774 0.1769
C23 C 0.3608(7) -0.3524(18) 0.1378(4)
H42 H 0.2964 -0.3704 0.1566
C24 C 0.3486(6) -0.2703(16) 0.0626(5)
H43 H 0.3303 -0.1272 0.0540
C25 C 0.3635(7) -0.3974(19) 0.0089(5)
H44 H 0.3607 -0.3374 -0.0366
C26 C 0.3840(8) -0.625(2) 0.0163(5)
H45 H 0.4515 -0.6504 0.0061
H46 H 0.3417 -0.7028 -0.0188
Si3 Si 0.3684(7) -0.0267(15) 0.3019(4)
C27 C 0.2529(8) 0.077(2) 0.2468(5)
H47 H 0.2682 0.1050 0.1987
H48 H 0.2309 0.2089 0.2677
H49 H 0.2018 -0.0295 0.2467
C28 C 0.4603(18) 0.177(4) 0.3177(11)
H50 H 0.4834 0.1771 0.3674
H51 H 0.4328 0.3157 0.3048
H52 H 0.5142 0.1470 0.2895
C29 C 0.317(2) -0.130(5) 0.3825(11)
C30 C 0.4082(19) -0.250(4) 0.4285(11)
H53 H 0.4280 -0.1658 0.4700
H54 H 0.4626 -0.2647 0.3995
H55 H 0.3877 -0.3913 0.4429
C31 C 0.2692(16) 0.046(4) 0.4240(10)
H56 H 0.1991 0.0397 0.4141
H57 H 0.2927 0.1847 0.4099
H58 H 0.2857 0.0252 0.4742
C32 C 0.2366(19) -0.305(4) 0.3688(13)
H59 H 0.1976 -0.3130 0.4089
H60 H 0.2672 -0.4431 0.3622
H61 H 0.1953 -0.2690 0.3267
Si2? Si 0.8524(8) 0.1410(16) 0.2985(4)
C14? C 0.7338(17) 0.029(4) 0.2621(12)
H24? H 0.7115 -0.0762 0.2946
H25? H 0.7415 -0.0377 0.2168
H26? H 0.6863 0.1440 0.2559
C15? C 0.964(2) -0.060(4) 0.3211(14)
H27? H 1.0174 0.0174 0.3462
H28? H 0.9855 -0.1177 0.2776
H29? H 0.9436 -0.1755 0.3504
C16? C 0.824(3) 0.246(6) 0.3779(17)
C17? C 0.904(2) 0.343(4) 0.4298(12)
H30? H 0.9446 0.2300 0.4510
H31? H 0.8740 0.4213 0.4665
H32? H 0.9437 0.4406 0.4045
C18? C 0.740(2) 0.415(5) 0.3681(15)
H33? H 0.7178 0.4501 0.4138
H34? H 0.6867 0.3561 0.3378
H35? H 0.7642 0.5435 0.3467
C19? C 0.7833(19) 0.028(5) 0.4277(13)
H36? H 0.8325 -0.0836 0.4310
H37? H 0.7234 -0.0286 0.4045
H38? H 0.7717 0.0768 0.4748
Si4? Si 0.3147(7) -0.1347(13) 0.3063(3)
C33? C 0.2529(8) 0.077(2) 0.2468(5)
H62? H 0.2399 0.2029 0.2747
H63? H 0.1921 0.0214 0.2249
H64? H 0.2951 0.1167 0.2105
C34? C 0.2261(19) -0.334(4) 0.3353(13)
H65? H 0.2610 -0.4513 0.3594
H66? H 0.1871 -0.3889 0.2943
H67? H 0.1841 -0.2662 0.3672
C35? C 0.3891(18) -0.028(4) 0.3806(10)
C36? C 0.461(2) 0.168(5) 0.3534(12)
H68? H 0.5153 0.1901 0.3886
H69? H 0.4240 0.2989 0.3468
H70? H 0.4858 0.1262 0.3089
C37? C 0.3332(17) 0.103(4) 0.4361(9)
H71? H 0.3168 0.0090 0.4739
H72? H 0.2741 0.1634 0.4128
H73? H 0.3745 0.2184 0.4556
C38? C 0.4595(18) -0.169(5) 0.4234(12)
H74? H 0.4955 -0.2547 0.3919
H75? H 0.4241 -0.2617 0.4531
H76? H 0.5045 -0.0805 0.4528
loop_
_geom_bond_atom_site_label_1
_geom_bond_atom_site_label_2
_geom_bond_site_symmetry_1
_geom_bond_site_symmetry_2
N1 O3 1_555 1_555
O1 C3 1_555 1_555
O2 C1 1_555 1_555
O3 C7 1_555 1_555
C1 N1 1_555 1_555
C2 C1 1_555 1_555
H1 C2 1_555 1_555
H2 C2 1_555 1_555
C3 C2 1_555 1_555
H3 C3 1_555 1_555
C4 N1 1_555 1_555
H4 C4 1_555 1_555
C5 C4 1_555 1_555
H5 C5 1_555 1_555
C6 C5 1_555 1_555
H6 C6 1_555 1_555
C7 C6 1_555 1_555
H7 C7 1_555 1_555
H8 C7 1_555 1_555
Si1 O1 1_555 1_555
C8 Si1 1_555 1_555
H9 C8 1_555 1_555
H10 C8 1_555 1_555
H11 C8 1_555 1_555
C9 Si1 1_555 1_555
H12 C9 1_555 1_555
H13 C9 1_555 1_555
H14 C9 1_555 1_555
C10 Si1 1_555 1_555
C11 C10 1_555 1_555
H15 C11 1_555 1_555
H16 C11 1_555 1_555
H17 C11 1_555 1_555
C12 C10 1_555 1_555
H18 C12 1_555 1_555
H19 C12 1_555 1_555
H20 C12 1_555 1_555
C13 C10 1_555 1_555
H21 C13 1_555 1_555
H22 C13 1_555 1_555
H23 C13 1_555 1_555
N2 O5 1_555 1_555
O4 C22 1_555 1_555
O5 C26 1_555 1_555
C20 N2 1_555 1_555
O6 C20 1_555 1_555
C21 C20 1_555 1_555
H39 C21 1_555 1_555
H40 C21 1_555 1_555
C22 C21 1_555 1_555
H41 C22 1_555 1_555
C23 N2 1_555 1_555
H42 C23 1_555 1_555
C24 C23 1_555 1_555
H43 C24 1_555 1_555
C25 C24 1_555 1_555
H44 C25 1_555 1_555
C26 C25 1_555 1_555
H45 C26 1_555 1_555
H46 C26 1_555 1_555
Si3 O4 1_555 1_555
C27 Si3 1_555 1_555
H47 C27 1_555 1_555
H48 C27 1_555 1_555
H49 C27 1_555 1_555
C28 Si3 1_555 1_555
H50 C28 1_555 1_555
H51 C28 1_555 1_555
H52 C28 1_555 1_555
C29 Si3 1_555 1_555
C30 C29 1_555 1_555
H53 C30 1_555 1_555
H54 C30 1_555 1_555
H55 C30 1_555 1_555
C31 C29 1_555 1_555
H56 C31 1_555 1_555
H57 C31 1_555 1_555
H58 C31 1_555 1_555
C32 C29 1_555 1_555
H59 C32 1_555 1_555
H60 C32 1_555 1_555
H61 C32 1_555 1_555
C3 C4 1_555 1_555
C22 C23 1_555 1_555

#END
