
#######################################################################
#
#                 Cambridge Crystallographic Data Centre
#                                CCDC 
#
#######################################################################
#
# If this CIF has been generated from an entry in the Cambridge 
# Structural Database, then it will include bibliographic, chemical, 
# crystal, experimental, refinement or atomic coordinate data resulting 
# from the CCDC's data processing and validation procedures.
#
#######################################################################

data_ABUKAJ
_chemical_formula_moiety         'C15 H24 B1 N1 O4'
_chemical_name_systematic        
(1R,2S,7S,7aS)-1,2-dihydroxy-7-(4-methoxybenzyloxy)hexahydro-1H-pyrrolizine-borane
_symmetry_cell_setting           orthorhombic
_symmetry_space_group_name_H-M   'P 21 21 21'
_symmetry_Int_Tables_number      19
_space_group_name_Hall           'P 2ac 2ab'
loop_
_symmetry_equiv_pos_site_id
_symmetry_equiv_pos_as_xyz
1 x,y,z
2 1/2-x,-y,1/2+z
3 -x,1/2+y,1/2-z
4 1/2+x,1/2-y,-z
_cell_length_a                   8.480(1)
_cell_length_b                   9.322(2)
_cell_length_c                   20.143(3)
_cell_angle_alpha                90
_cell_angle_beta                 90
_cell_angle_gamma                90
_cell_volume                     1592.32
_exptl_crystal_colour            colorless
_exptl_crystal_description       prism
_chemical_melting_point          117-119deg.C
_cell_formula_units_Z            4
loop_
_atom_site_label
_atom_site_type_symbol
_atom_site_fract_x
_atom_site_fract_y
_atom_site_fract_z
O1 O 0.47451(17) 0.83736(17) 0.26495(8)
H1 H 0.412(4) 0.761(3) 0.2559(14)
O2 O 0.6582(2) 0.60881(17) 0.22319(8)
H2 H 0.619(4) 0.529(4) 0.2394(16)
O3 O 0.79266(19) 0.76576(16) 0.41749(7)
N1 N 0.82015(18) 0.94215(17) 0.28329(8)
C1 C 0.6846(2) 0.9202(2) 0.33314(9)
H3 H 0.6116(18) 1.007(2) 0.33161(10)
C2 C 0.7621(3) 0.9120(2) 0.40165(10)
H4 H 0.6978(19) 0.9554(13) 0.4343(9)
C3 C 0.9136(3) 0.9967(3) 0.39159(12)
H5 H 0.8929(4) 1.1016(19) 0.39080(12)
H6 H 0.9919(14) 0.9751(4) 0.4269(6)
C4 C 0.9688(2) 0.9436(3) 0.32480(11)
H7 H 1.0170(9) 0.8411(17) 0.32853(12)
H8 H 1.0527(14) 1.0124(11) 0.3046(4)
C5 C 0.8148(3) 0.8161(2) 0.23699(10)
H9 H 0.9247(18) 0.7803(6) 0.2273(2)
H10 H 0.7628(9) 0.8437(5) 0.1937(7)
C6 C 0.7192(2) 0.7015(2) 0.27231(10)
H11 H 0.7868(18) 0.6473(14) 0.3041(9)
C7 C 0.5949(2) 0.7895(2) 0.30964(10)
H12 H 0.5491(11) 0.7341(14) 0.3480(9)
B1 B 0.8022(3) 1.0882(3) 0.24225(14)
H13 H 0.9061(18) 1.0993(9) 0.2056(8)
H14 H 0.802(2) 1.1842(13) 0.2784(5)
H15 H 0.6851(19) 1.0865(8) 0.2131(8)
O4 O 1.0475(3) 0.1741(2) 0.52451(9)
C8 C 0.8357(4) 0.7439(3) 0.48525(11)
H16 H 0.7411(16) 0.7674(6) 0.5157(5)
H17 H 0.9276(16) 0.8115(12) 0.4977(3)
C9 C 0.8848(3) 0.5909(3) 0.49521(10)
C10 C 0.9713(3) 0.5172(3) 0.44738(11)
H18 H 0.9965(7) 0.5647(12) 0.4053(11)
C11 C 1.0222(3) 0.3785(3) 0.45817(11)
H19 H 1.0836(16) 0.3262(13) 0.4224(9)
C12 C 0.9893(3) 0.3105(3) 0.51795(10)
C13 C 0.9039(3) 0.3820(3) 0.56584(11)
H20 H 0.8787(7) 0.3334(13) 0.6094(11)
C14 C 0.8527(3) 0.5205(3) 0.55403(11)
H21 H 0.7937(17) 0.5687(14) 0.5874(10)
C15 C 1.0328(5) 0.1053(3) 0.58548(14)
H22 H 1.0851(9) 0.1651(10) 0.6211(6)
H23 H 1.0853(9) 0.0080(15) 0.58318(14)
H24 H 0.9172(19) 0.0927(4) 0.5965(2)
loop_
_geom_bond_atom_site_label_1
_geom_bond_atom_site_label_2
_geom_bond_site_symmetry_1
_geom_bond_site_symmetry_2
O1 H1 1_555 1_555
O2 H2 1_555 1_555
O3 C2 1_555 1_555
N1 C1 1_555 1_555
C1 H3 1_555 1_555
C2 C1 1_555 1_555
H4 C2 1_555 1_555
C3 C2 1_555 1_555
H5 C3 1_555 1_555
H6 C3 1_555 1_555
C4 N1 1_555 1_555
H7 C4 1_555 1_555
H8 C4 1_555 1_555
C5 N1 1_555 1_555
H9 C5 1_555 1_555
H10 C5 1_555 1_555
C6 O2 1_555 1_555
H11 C6 1_555 1_555
C7 O1 1_555 1_555
H12 C7 1_555 1_555
B1 N1 1_555 1_555
H13 B1 1_555 1_555
H14 B1 1_555 1_555
H15 B1 1_555 1_555
O4 C12 1_555 1_555
C8 O3 1_555 1_555
H16 C8 1_555 1_555
H17 C8 1_555 1_555
C9 C8 1_555 1_555
C10 C9 1_555 1_555
H18 C10 1_555 1_555
C11 C10 1_555 1_555
H19 C11 1_555 1_555
C12 C11 1_555 1_555
C13 C12 1_555 1_555
H20 C13 1_555 1_555
C14 C9 1_555 1_555
H21 C14 1_555 1_555
C15 O4 1_555 1_555
H22 C15 1_555 1_555
H23 C15 1_555 1_555
H24 C15 1_555 1_555
C1 C7 1_555 1_555
C3 C4 1_555 1_555
C5 C6 1_555 1_555
C6 C7 1_555 1_555
C13 C14 1_555 1_555

#END
