
#######################################################################
#
#                 Cambridge Crystallographic Data Centre
#                                CCDC 
#
#######################################################################
#
# If this CIF has been generated from an entry in the Cambridge 
# Structural Database, then it will include bibliographic, chemical, 
# crystal, experimental, refinement or atomic coordinate data resulting 
# from the CCDC's data processing and validation procedures.
#
#######################################################################

data_ABUKEN
_chemical_formula_moiety         'C16 H24 N2 O6 S2'
_chemical_name_systematic        
'((1R,2S,7S,7aS)-7-hydroxy-1-(methyl(4-tolylsulfonyl)amino)-hexahydro-1H-pyrrolizin-2-yl) methanesulfonate'
_symmetry_cell_setting           tetragonal
_symmetry_space_group_name_H-M   'P 41'
_symmetry_Int_Tables_number      76
_space_group_name_Hall           'P 4w'
loop_
_symmetry_equiv_pos_site_id
_symmetry_equiv_pos_as_xyz
1 x,y,z
2 -x,-y,1/2+z
3 -y,x,1/4+z
4 y,-x,3/4+z
_cell_length_a                   9.649(1)
_cell_length_b                   9.649(1)
_cell_length_c                   20.808(1)
_cell_angle_alpha                90
_cell_angle_beta                 90
_cell_angle_gamma                90
_cell_volume                     1937.29
_exptl_crystal_colour            colorless
_exptl_crystal_description       'square prism'
_chemical_melting_point          175deg.C.(dec.)
_cell_formula_units_Z            4
loop_
_atom_site_label
_atom_site_type_symbol
_atom_site_fract_x
_atom_site_fract_y
_atom_site_fract_z
C1 C 1.0542(7) 1.0271(9) 0.1688(4)
H1 H 1.1168 1.0828 0.1431
H2 H 1.1064 0.9536 0.1894
C2 C 0.9787(7) 1.1161(6) 0.2186(3)
H3 H 1.0338 1.1267 0.2573
H4 H 0.9574 1.2071 0.2014
C3 C 0.8482(6) 1.0350(6) 0.2318(3)
H5 H 0.7770 1.0927 0.2522
C4 C 0.8058(5) 0.9904(6) 0.1636(3)
H6 H 0.7531 1.0650 0.1429
C5 C 0.7237(6) 0.8548(6) 0.1599(3)
H7 H 0.6816 0.8368 0.2019
C6 C 0.8385(7) 0.7460(6) 0.1479(3)
H8 H 0.8745 0.7123 0.1891
C7 C 0.9536(8) 0.8209(7) 0.1110(4)
H9 H 1.0439 0.7853 0.1232
H10 H 0.9418 0.8088 0.0650
C8 C 0.7117(10) 0.3965(9) 0.0797(5)
H11 H 0.7166 0.4363 0.0374
H12 H 0.6185 0.4034 0.0955
H13 H 0.7385 0.3008 0.0777
C9 C 0.6499(8) 0.8910(10) 0.0446(3)
H14 H 0.5690 0.8839 0.0180
H15 H 0.7208 0.8306 0.0285
H16 H 0.6829 0.9849 0.0443
C10 C 0.4210(6) 1.0447(7) 0.1432(3)
C11 C 0.4212(8) 1.1047(10) 0.2038(4)
H20 H 0.4426 1.0522 0.2399
C12 C 0.3894(9) 1.2431(10) 0.2095(5)
H21 H 0.3896 1.2831 0.2502
C13 C 0.3572(8) 1.3244(8) 0.1576(5)
C14 C 0.3590(8) 1.2622(9) 0.0972(5)
H22 H 0.3394 1.3160 0.0613
C15 C 0.3888(8) 1.1243(8) 0.0889(4)
H23 H 0.3876 1.0846 0.0482
C16 C 0.3251(16) 1.4766(12) 0.1647(8)
H24 H 0.3032 1.5151 0.1234
H25 H 0.4042 1.5236 0.1823
H26 H 0.2474 1.4881 0.1930
N1 N 0.9404(5) 0.9696(5) 0.1289(2)
N2 N 0.6145(5) 0.8508(6) 0.1107(2)
O1 O 0.8742(5) 0.9130(4) 0.26749(17)
H30 H 0.9574 0.9071 0.2751
O2 O 0.7855(8) 0.6314(4) 0.1109(3)
O3 O 0.803(2) 0.4569(13) 0.1918(4)
O4 O 0.9571(7) 0.4613(12) 0.1036(9)
O5 O 0.4422(5) 0.8011(5) 0.1941(2)
O6 O 0.3711(5) 0.8181(5) 0.0805(3)
S1 S 0.8202(2) 0.48318(18) 0.12966(11)
S2 S 0.45377(16) 0.86624(16) 0.13313(8)
H17? H 0.7462 0.9157 0.0425
H18? H 0.5944 0.9689 0.0320
H19? H 0.6323 0.8147 0.0162
H27? H 0.3334 1.5028 0.2091
H28? H 0.2323 1.4943 0.1502
H29? H 0.3892 1.5297 0.1394
loop_
_geom_bond_atom_site_label_1
_geom_bond_atom_site_label_2
_geom_bond_site_symmetry_1
_geom_bond_site_symmetry_2
C1 H1 1_555 1_555
H2 C1 1_555 1_555
C2 C1 1_555 1_555
H3 C2 1_555 1_555
H4 C2 1_555 1_555
C3 C2 1_555 1_555
H5 C3 1_555 1_555
C4 C3 1_555 1_555
H6 C4 1_555 1_555
C5 C4 1_555 1_555
H7 C5 1_555 1_555
C6 C5 1_555 1_555
H8 C6 1_555 1_555
C7 C6 1_555 1_555
H9 C7 1_555 1_555
H10 C7 1_555 1_555
C8 H11 1_555 1_555
H12 C8 1_555 1_555
H13 C8 1_555 1_555
C9 H14 1_555 1_555
H15 C9 1_555 1_555
H16 C9 1_555 1_555
C10 C11 1_555 1_555
C11 H20 1_555 1_555
C12 C11 1_555 1_555
H21 C12 1_555 1_555
C13 C12 1_555 1_555
C14 C13 1_555 1_555
H22 C14 1_555 1_555
C15 C10 1_555 1_555
H23 C15 1_555 1_555
C16 C13 1_555 1_555
H24 C16 1_555 1_555
H25 C16 1_555 1_555
H26 C16 1_555 1_555
N1 C1 1_555 1_555
N2 C5 1_555 1_555
O1 C3 1_555 1_555
H30 O1 1_555 1_555
O2 C6 1_555 1_555
O3 S1 1_555 1_555
O4 S1 1_555 1_555
O5 S2 1_555 1_555
O6 S2 1_555 1_555
S1 C8 1_555 1_555
S2 C10 1_555 1_555
C4 N1 1_555 1_555
C7 N1 1_555 1_555
C9 N2 1_555 1_555
C14 C15 1_555 1_555
N2 S2 1_555 1_555
O2 S1 1_555 1_555

#END
