
#######################################################################
#
#                 Cambridge Crystallographic Data Centre
#                                CCDC 
#
#######################################################################
#
# If this CIF has been generated from an entry in the Cambridge 
# Structural Database, then it will include bibliographic, chemical, 
# crystal, experimental, refinement or atomic coordinate data resulting 
# from the CCDC's data processing and validation procedures.
#
#######################################################################

data_ABUQOF
_chemical_formula_moiety         'C33 H28 O6'
_chemical_name_systematic        
2-(2-Acetylphenyl)-5',6-dimethoxy-5-(methoxymethoxy)-2H,4'H-spiro[acenaphthylene-1,1'-naphthalen]-4'-one
_symmetry_cell_setting           monoclinic
_symmetry_space_group_name_H-M   'P 21'
_symmetry_Int_Tables_number      4
_space_group_name_Hall           'P 2yb'
loop_
_symmetry_equiv_pos_site_id
_symmetry_equiv_pos_as_xyz
1 x,y,z
2 -x,1/2+y,-z
_cell_length_a                   8.1397(8)
_cell_length_b                   32.018(3)
_cell_length_c                   9.9603(11)
_cell_angle_alpha                90
_cell_angle_beta                 97.590(7)
_cell_angle_gamma                90
_cell_volume                     2573.08
_exptl_crystal_colour            colorless
_exptl_crystal_description       platelet
_cell_formula_units_Z            4
loop_
_atom_site_label
_atom_site_type_symbol
_atom_site_fract_x
_atom_site_fract_y
_atom_site_fract_z
O1 O -0.1075(4) 0.01515(9) 0.3701(3)
O2 O -0.2793(3) 0.13058(9) 0.6620(2)
O3 O -0.0894(3) 0.17079(8) 0.8565(2)
O4 O 0.5360(3) 0.19689(7) 0.0851(2)
O5 O 0.6585(3) 0.11903(8) 0.0747(2)
O6 O 0.7726(6) 0.05953(10) -0.0117(5)
C1 C 0.1671(4) 0.07802(11) 0.4073(3)
H1 H 0.0752 0.0649 0.3449
C2 C 0.1108(4) 0.12551(11) 0.4327(3)
C3 C 0.2163(4) 0.15088(11) 0.3459(3)
C4 C 0.3278(4) 0.12440(10) 0.2892(3)
C5 C 0.3109(4) 0.08283(10) 0.3281(3)
C6 C 0.1899(4) 0.05185(10) 0.5341(3)
C7 C 0.0592(4) 0.03003(10) 0.5797(4)
C8 C 0.0788(5) 0.01193(11) 0.7083(4)
H2 H -0.0129 -0.0012 0.7409
C9 C 0.2316(5) 0.01298(11) 0.7888(4)
H3 H 0.2446 0.0006 0.8762
C10 C 0.3643(5) 0.03204(11) 0.7414(4)
H4 H 0.4705 0.0315 0.7940
C11 C 0.3426(4) 0.05209(11) 0.6166(4)
H5 H 0.4337 0.0663 0.5868
C12 C -0.1024(5) 0.02144(11) 0.4908(4)
C13 C -0.2582(5) 0.02052(15) 0.5551(5)
H6 H -0.3542 0.0203 0.4844
H7 H -0.2630 0.0453 0.6121
H8 H -0.2596 -0.0047 0.6109
C14 C -0.0712(4) 0.12792(11) 0.3739(3)
H9 H -0.0987 0.1267 0.2783
C15 C -0.1934(4) 0.13160(12) 0.4490(3)
H10 H -0.3043 0.1318 0.4051
C16 C -0.1649(4) 0.13540(11) 0.5959(3)
C17 C 0.0085(4) 0.14641(10) 0.6569(3)
C18 C 0.0430(4) 0.16262(11) 0.7900(3)
C19 C 0.2058(4) 0.17004(12) 0.8445(4)
H11 H 0.2301 0.1804 0.9343
C20 C 0.3327(4) 0.16250(12) 0.7690(4)
H12 H 0.4441 0.1672 0.8080
C21 C 0.3003(4) 0.14832(11) 0.6381(3)
H13 H 0.3893 0.1439 0.5869
C22 C 0.1392(4) 0.14035(10) 0.5800(3)
C23 C -0.0584(6) 0.19110(15) 0.9856(4)
H14 H -0.0071 0.2184 0.9748
H15 H 0.0164 0.1739 1.0479
H16 H -0.1632 0.1950 1.0224
C24 C 0.2216(5) 0.19284(11) 0.3211(3)
H17 H 0.1518 0.2113 0.3621
C25 C 0.3297(5) 0.20848(11) 0.2354(4)
H18 H 0.3314 0.2377 0.2186
C26 C 0.4348(4) 0.18257(11) 0.1740(3)
C27 C 0.4403(4) 0.13888(11) 0.2026(3)
C28 C 0.5423(4) 0.10725(11) 0.1559(3)
C29 C 0.5306(4) 0.06627(11) 0.1975(4)
H19 H 0.6038 0.0461 0.1685
C30 C 0.4129(5) 0.05347(11) 0.2819(4)
H20 H 0.4046 0.0249 0.3062
C31 C 0.5141(5) 0.23854(12) 0.0380(4)
H21 H 0.5831 0.2434 -0.0340
H22 H 0.5466 0.2579 0.1130
H23 H 0.3974 0.2431 0.0024
C32 C 0.6719(6) 0.09416(16) -0.0403(5)
H24 H 0.5598 0.0847 -0.0793
H25 H 0.7170 0.1114 -0.1094
C33 C 0.9432(8) 0.06908(19) 0.0016(7)
H26 H 0.9715 0.0794 -0.0852
H27 H 1.0078 0.0439 0.0280
H28 H 0.9688 0.0906 0.0711
O7 O 1.2345(3) 0.44425(9) 0.2131(3)
O8 O 1.3987(3) 0.33288(10) -0.0661(3)
O9 O 1.2086(3) 0.29320(9) -0.2629(3)
O10 O 0.5841(3) 0.26627(7) 0.5082(2)
O11 O 0.4635(3) 0.34364(8) 0.5238(2)
O12 O 0.3781(5) 0.40514(12) 0.6267(4)
C34 C 0.9476(4) 0.38576(11) 0.1834(4)
H29 H 1.0399 0.3993 0.2443
C35 C 1.0073(4) 0.33782(11) 0.1589(3)
C36 C 0.8994(4) 0.31256(11) 0.2442(3)
C37 C 0.7909(4) 0.33866(11) 0.3037(3)
C38 C 0.8053(4) 0.38047(11) 0.2666(3)
C39 C 0.9178(4) 0.41250(10) 0.0575(3)
C40 C 0.7629(4) 0.41312(12) -0.0197(4)
H30 H 0.6754 0.3974 0.0098
C41 C 0.7320(5) 0.43583(13) -0.1380(4)
H31 H 0.6237 0.4361 -0.1872
C42 C 0.8568(5) 0.45812(13) -0.1851(4)
H32 H 0.8358 0.4735 -0.2672
C43 C 1.0124(5) 0.45799(12) -0.1121(4)
H33 H 1.0992 0.4730 -0.1458
C44 C 1.0461(4) 0.43640(11) 0.0102(4)
C45 C 1.2117(5) 0.44234(11) 0.0901(4)
C46 C 1.3611(5) 0.44701(17) 0.0131(5)
H34 H 1.3457 0.4293 -0.0679
H35 H 1.4618 0.4385 0.0715
H36 H 1.3714 0.4762 -0.0138
C47 C 1.1847(4) 0.33571(11) 0.2190(4)
H37 H 1.2108 0.3374 0.3146
C48 C 1.3081(4) 0.33156(11) 0.1453(3)
H38 H 1.4186 0.3312 0.1903
C49 C 1.2816(4) 0.32749(11) -0.0012(3)
C50 C 1.1116(4) 0.31738(11) -0.0643(3)
C51 C 1.0754(4) 0.30146(11) -0.1975(3)
C52 C 0.9147(4) 0.29371(11) -0.2545(3)
H39 H 0.8924 0.2830 -0.3439
C53 C 0.7855(4) 0.30179(12) -0.1798(4)
H40 H 0.6743 0.2977 -0.2205
C54 C 0.8161(4) 0.31573(12) -0.0465(4)
H41 H 0.7270 0.3201 0.0046
C55 C 0.9781(4) 0.32319(10) 0.0108(3)
C56 C 1.1771(5) 0.27505(14) -0.3952(4)
H42 H 1.1031 0.2933 -0.4545
H43 H 1.1247 0.2477 -0.3893
H44 H 1.2819 0.2717 -0.4324
C57 C 0.8974(4) 0.27062(11) 0.2688(4)
H45 H 0.9669 0.2522 0.2270
C58 C 0.7893(4) 0.25492(11) 0.3581(4)
H46 H 0.7891 0.2258 0.3761
C59 C 0.6853(4) 0.28030(10) 0.4193(3)
C60 C 0.6798(4) 0.32434(10) 0.3919(3)
C61 C 0.5771(4) 0.35609(11) 0.4404(3)
C62 C 0.5894(5) 0.39654(12) 0.4000(4)
H47 H 0.5180 0.4168 0.4310
C63 C 0.7047(5) 0.40944(12) 0.3136(4)
H48 H 0.7117 0.4380 0.2888
C64 C 0.6047(5) 0.22392(12) 0.5526(4)
H49 H 0.5732 0.2051 0.4758
H50 H 0.5341 0.2185 0.6231
H51 H 0.7208 0.2191 0.5892
C65 C 0.4538(7) 0.36774(14) 0.6378(5)
H52 H 0.3975 0.3507 0.7011
H53 H 0.5686 0.3724 0.6820
C66 C 0.1939(8) 0.39943(19) 0.6008(7)
H54 H 0.1655 0.3818 0.5205
H55 H 0.1402 0.4267 0.5854
H56 H 0.1554 0.3860 0.6794
loop_
_geom_bond_atom_site_label_1
_geom_bond_atom_site_label_2
_geom_bond_site_symmetry_1
_geom_bond_site_symmetry_2
O1 C12 1_555 1_555
O2 C16 1_555 1_555
O3 C18 1_555 1_555
O4 C26 1_555 1_555
O5 C28 1_555 1_555
O6 C32 1_555 1_555
O7 C45 1_555 1_555
O8 C49 1_555 1_555
O9 C51 1_555 1_555
O10 C59 1_555 1_555
O11 C61 1_555 1_555
O12 C65 1_555 1_555
C1 H1 1_555 1_555
C2 C1 1_555 1_555
C3 C2 1_555 1_555
C4 C3 1_555 1_555
C5 C1 1_555 1_555
C6 C1 1_555 1_555
C7 C6 1_555 1_555
C8 C7 1_555 1_555
H2 C8 1_555 1_555
C9 C8 1_555 1_555
H3 C9 1_555 1_555
C10 C9 1_555 1_555
H4 C10 1_555 1_555
C11 C6 1_555 1_555
H5 C11 1_555 1_555
C12 C7 1_555 1_555
C13 C12 1_555 1_555
H6 C13 1_555 1_555
H7 C13 1_555 1_555
H8 C13 1_555 1_555
C14 C2 1_555 1_555
H9 C14 1_555 1_555
C15 C14 1_555 1_555
H10 C15 1_555 1_555
C16 C15 1_555 1_555
C17 C16 1_555 1_555
C18 C17 1_555 1_555
C19 C18 1_555 1_555
H11 C19 1_555 1_555
C20 C19 1_555 1_555
H12 C20 1_555 1_555
C21 C20 1_555 1_555
H13 C21 1_555 1_555
C22 C2 1_555 1_555
C23 O3 1_555 1_555
H14 C23 1_555 1_555
H15 C23 1_555 1_555
H16 C23 1_555 1_555
C24 C3 1_555 1_555
H17 C24 1_555 1_555
C25 C24 1_555 1_555
H18 C25 1_555 1_555
C26 C25 1_555 1_555
C27 C4 1_555 1_555
C28 C27 1_555 1_555
C29 C28 1_555 1_555
H19 C29 1_555 1_555
C30 C5 1_555 1_555
H20 C30 1_555 1_555
C31 O4 1_555 1_555
H21 C31 1_555 1_555
H22 C31 1_555 1_555
H23 C31 1_555 1_555
C32 O5 1_555 1_555
H24 C32 1_555 1_555
H25 C32 1_555 1_555
C33 O6 1_555 1_555
H26 C33 1_555 1_555
H27 C33 1_555 1_555
H28 C33 1_555 1_555
C34 H29 1_555 1_555
C35 C34 1_555 1_555
C36 C35 1_555 1_555
C37 C36 1_555 1_555
C38 C34 1_555 1_555
C39 C34 1_555 1_555
C40 C39 1_555 1_555
H30 C40 1_555 1_555
C41 C40 1_555 1_555
H31 C41 1_555 1_555
C42 C41 1_555 1_555
H32 C42 1_555 1_555
C43 C42 1_555 1_555
H33 C43 1_555 1_555
C44 C39 1_555 1_555
C45 C44 1_555 1_555
C46 C45 1_555 1_555
H34 C46 1_555 1_555
H35 C46 1_555 1_555
H36 C46 1_555 1_555
C47 C35 1_555 1_555
H37 C47 1_555 1_555
C48 C47 1_555 1_555
H38 C48 1_555 1_555
C49 C48 1_555 1_555
C50 C49 1_555 1_555
C51 C50 1_555 1_555
C52 C51 1_555 1_555
H39 C52 1_555 1_555
C53 C52 1_555 1_555
H40 C53 1_555 1_555
C54 C53 1_555 1_555
H41 C54 1_555 1_555
C55 C35 1_555 1_555
C56 O9 1_555 1_555
H42 C56 1_555 1_555
H43 C56 1_555 1_555
H44 C56 1_555 1_555
C57 C36 1_555 1_555
H45 C57 1_555 1_555
C58 C57 1_555 1_555
H46 C58 1_555 1_555
C59 C58 1_555 1_555
C60 C37 1_555 1_555
C61 C60 1_555 1_555
C62 C61 1_555 1_555
H47 C62 1_555 1_555
C63 C38 1_555 1_555
H48 C63 1_555 1_555
C64 O10 1_555 1_555
H49 C64 1_555 1_555
H50 C64 1_555 1_555
H51 C64 1_555 1_555
C65 O11 1_555 1_555
H52 C65 1_555 1_555
H53 C65 1_555 1_555
C66 O12 1_555 1_555
H54 C66 1_555 1_555
H55 C66 1_555 1_555
H56 C66 1_555 1_555
C4 C5 1_555 1_555
C10 C11 1_555 1_555
C17 C22 1_555 1_555
C21 C22 1_555 1_555
C26 C27 1_555 1_555
C29 C30 1_555 1_555
C37 C38 1_555 1_555
C43 C44 1_555 1_555
C50 C55 1_555 1_555
C54 C55 1_555 1_555
C59 C60 1_555 1_555
C62 C63 1_555 1_555

#END
