
#######################################################################
#
#                 Cambridge Crystallographic Data Centre
#                                CCDC 
#
#######################################################################
#
# If this CIF has been generated from an entry in the Cambridge 
# Structural Database, then it will include bibliographic, chemical, 
# crystal, experimental, refinement or atomic coordinate data resulting 
# from the CCDC's data processing and validation procedures.
#
#######################################################################

data_ABUQEV
_chemical_formula_moiety         'C31 H22 O5'
_chemical_name_systematic        
"4,10-Dimethoxy-12a,13-dihydrobenzo[3,4]naphtho[1',2':1,7]cyclohepta[1,2-a]acenaphthylene-3,11,14(12H)-trione unknown solvate"
_symmetry_cell_setting           monoclinic
_symmetry_space_group_name_H-M   'C 2/c'
_symmetry_Int_Tables_number      15
_space_group_name_Hall           '-C 2yn'
loop_
_symmetry_equiv_pos_site_id
_symmetry_equiv_pos_as_xyz
1 x,y,z
2 -x,y,1/2-z
3 1/2+x,1/2+y,z
4 1/2-x,1/2+y,1/2-z
5 -x,-y,-z
6 x,-y,1/2+z
7 1/2-x,1/2-y,-z
8 1/2+x,1/2-y,1/2+z
_cell_length_a                   20.496(7)
_cell_length_b                   18.931(5)
_cell_length_c                   15.444(5)
_cell_angle_alpha                90
_cell_angle_beta                 108.178(6)
_cell_angle_gamma                90
_cell_volume                     5693.35
_exptl_crystal_colour            yellow
_exptl_crystal_description       plate
_cell_formula_units_Z            8
loop_
_atom_site_label
_atom_site_type_symbol
_atom_site_fract_x
_atom_site_fract_y
_atom_site_fract_z
O1 O 0.01850(18) 0.38313(17) 0.49367(18)
O2 O 0.14994(16) 0.32300(17) 0.41529(17)
O3 O 0.25400(14) 0.41147(13) 0.46129(15)
O4 O 0.20318(15) 0.13839(14) 1.04290(16)
O5 O 0.29053(13) 0.07488(12) 0.95989(15)
C1 C 0.11134(18) 0.38961(17) 0.7339(2)
C2 C 0.13152(19) 0.44153(18) 0.8031(2)
H1 H 0.1627 0.4294 0.8609
C3 C 0.1064(2) 0.50971(19) 0.7873(2)
H2 H 0.1215 0.5442 0.8340
C4 C 0.0603(2) 0.5283(2) 0.7056(3)
H3 H 0.0423 0.5749 0.6964
C5 C 0.03985(19) 0.4792(2) 0.6366(2)
H4 H 0.0079 0.4925 0.5798
C6 C 0.06512(18) 0.41007(19) 0.6483(2)
C7 C 0.0438(2) 0.3596(2) 0.5695(2)
C8 C 0.04791(18) 0.2814(2) 0.5867(3)
H5 H 0.0174 0.2577 0.5318
H6 H 0.0294 0.2716 0.6375
C9 C 0.11945(18) 0.24718(19) 0.6099(2)
H7 H 0.1138 0.1982 0.6308
C10 C 0.1441(2) 0.23789(18) 0.5259(2)
H8 H 0.1824 0.2035 0.5405
H9 H 0.1061 0.2184 0.4749
C11 C 0.16780(19) 0.3068(2) 0.4964(2)
C12 C 0.21790(18) 0.34891(18) 0.5692(2)
C13 C 0.2621(2) 0.40054(19) 0.5508(2)
C14 C 0.3022(3) 0.4597(2) 0.4403(3)
H10 H 0.2936 0.4611 0.3743
H11 H 0.3492 0.4435 0.4705
H12 H 0.2962 0.5072 0.4622
C15 C 0.3093(2) 0.4352(2) 0.6220(2)
H13 H 0.3392 0.4694 0.6097
C16 C 0.3131(2) 0.4204(2) 0.7093(2)
H14 H 0.3454 0.4454 0.7571
C17 C 0.27229(19) 0.3708(2) 0.7316(2)
H15 H 0.2773 0.3613 0.7937
C18 C 0.22325(18) 0.33434(17) 0.6625(2)
C19 C 0.17683(18) 0.28189(18) 0.6901(2)
C20 C 0.14313(17) 0.31999(18) 0.7549(2)
C21 C 0.15166(17) 0.28130(18) 0.8323(2)
C22 C 0.12781(18) 0.29068(18) 0.9092(2)
H16 H 0.1000 0.3300 0.9128
C23 C 0.14586(19) 0.24238(19) 0.9764(2)
H17 H 0.1282 0.2481 1.0260
C24 C 0.19180(19) 0.18002(17) 0.9790(2)
C25 C 0.21811(17) 0.17258(16) 0.9004(2)
C26 C 0.19616(17) 0.22228(17) 0.8304(2)
C27 C 0.21588(17) 0.22400(18) 0.7536(2)
C28 C 0.26193(19) 0.17441(18) 0.7436(2)
H18 H 0.2764 0.1741 0.6908
C29 C 0.28738(19) 0.12365(18) 0.8135(2)
H19 H 0.3199 0.0898 0.8076
C30 C 0.26596(19) 0.12206(18) 0.8905(2)
C31 C 0.3449(2) 0.0305(2) 0.9553(2)
H20 H 0.3282 -0.0023 0.9041
H21 H 0.3623 0.0038 1.0122
H22 H 0.3820 0.0594 0.9465
loop_
_geom_bond_atom_site_label_1
_geom_bond_atom_site_label_2
_geom_bond_site_symmetry_1
_geom_bond_site_symmetry_2
O1 C7 1_555 1_555
O2 C11 1_555 1_555
O3 C13 1_555 1_555
O4 C24 1_555 1_555
O5 C30 1_555 1_555
C1 C2 1_555 1_555
C2 H1 1_555 1_555
C3 C2 1_555 1_555
H2 C3 1_555 1_555
C4 C3 1_555 1_555
H3 C4 1_555 1_555
C5 C4 1_555 1_555
H4 C5 1_555 1_555
C6 C1 1_555 1_555
C7 C6 1_555 1_555
C8 C7 1_555 1_555
H5 C8 1_555 1_555
H6 C8 1_555 1_555
C9 C8 1_555 1_555
H7 C9 1_555 1_555
C10 C9 1_555 1_555
H8 C10 1_555 1_555
H9 C10 1_555 1_555
C11 C10 1_555 1_555
C12 C11 1_555 1_555
C13 C12 1_555 1_555
C14 O3 1_555 1_555
H10 C14 1_555 1_555
H11 C14 1_555 1_555
H12 C14 1_555 1_555
C15 C13 1_555 1_555
H13 C15 1_555 1_555
C16 C15 1_555 1_555
H14 C16 1_555 1_555
C17 C16 1_555 1_555
H15 C17 1_555 1_555
C18 C12 1_555 1_555
C19 C9 1_555 1_555
C20 C1 1_555 1_555
C21 C20 1_555 1_555
C22 C21 1_555 1_555
H16 C22 1_555 1_555
C23 C22 1_555 1_555
H17 C23 1_555 1_555
C24 C23 1_555 1_555
C25 C24 1_555 1_555
C26 C21 1_555 1_555
C27 C19 1_555 1_555
C28 C27 1_555 1_555
H18 C28 1_555 1_555
C29 C28 1_555 1_555
H19 C29 1_555 1_555
C30 C25 1_555 1_555
C31 O5 1_555 1_555
H20 C31 1_555 1_555
H21 C31 1_555 1_555
H22 C31 1_555 1_555
C5 C6 1_555 1_555
C17 C18 1_555 1_555
C18 C19 1_555 1_555
C19 C20 1_555 1_555
C25 C26 1_555 1_555
C26 C27 1_555 1_555
C29 C30 1_555 1_555

#END
