
#######################################################################
#
#                 Cambridge Crystallographic Data Centre
#                                CCDC 
#
#######################################################################
#
# If this CIF has been generated from an entry in the Cambridge 
# Structural Database, then it will include bibliographic, chemical, 
# crystal, experimental, refinement or atomic coordinate data resulting 
# from the CCDC's data processing and validation procedures.
#
#######################################################################

data_ABUQIZ
_chemical_formula_moiety         'C33 H28 O6'
_chemical_name_systematic        
2-(2-Acetylphenyl)-5',6-dimethoxy-5-(methoxymethoxy)-2H,4'H-spiro[acenaphthylene-1,1'-naphthalen]-4'-one
_symmetry_cell_setting           triclinic
_symmetry_space_group_name_H-M   'P -1'
_symmetry_Int_Tables_number      2
_space_group_name_Hall           '-P 1'
loop_
_symmetry_equiv_pos_site_id
_symmetry_equiv_pos_as_xyz
1 x,y,z
2 -x,-y,-z
_cell_length_a                   7.7247(15)
_cell_length_b                   14.258(3)
_cell_length_c                   22.761(5)
_cell_angle_alpha                84.359(6)
_cell_angle_beta                 87.427(7)
_cell_angle_gamma                87.679(6)
_cell_volume                     2490.57
_exptl_crystal_colour            colorless
_exptl_crystal_description       block
_cell_formula_units_Z            4
loop_
_atom_site_label
_atom_site_type_symbol
_atom_site_fract_x
_atom_site_fract_y
_atom_site_fract_z
O1 O 0.7590(4) 0.89467(18) -0.11904(11)
O2 O 0.3028(4) 0.81339(19) -0.18376(11)
O3 O 0.1694(4) 0.9629(2) -0.13666(12)
O4 O 0.4821(3) 0.53316(16) 0.20663(9)
O5 O 0.8137(3) 0.59513(15) 0.21626(9)
O6 O 0.8400(4) 0.71888(19) 0.27500(11)
C1 C 0.7321(4) 0.7465(2) -0.02175(12)
H1 H 0.7410 0.8165 -0.0289
C2 C 0.5293(4) 0.7200(2) -0.02566(13)
C3 C 0.4944(4) 0.6628(2) 0.03378(13)
C4 C 0.6354(4) 0.6662(2) 0.07071(13)
C5 C 0.7740(4) 0.7157(2) 0.04185(12)
C6 C 0.8507(4) 0.7001(2) -0.06693(12)
C7 C 0.9356(4) 0.6142(2) -0.05052(14)
H2 H 0.9272 0.5885 -0.0104
C8 C 1.0320(4) 0.5652(2) -0.09106(14)
H3 H 1.0895 0.5070 -0.0785
C9 C 1.0446(4) 0.6006(2) -0.14947(14)
H4 H 1.1097 0.5670 -0.1775
C10 C 0.9611(4) 0.6857(2) -0.16680(13)
H5 H 0.9687 0.7097 -0.2072
C11 C 0.8661(4) 0.7375(2) -0.12664(13)
C12 C 0.7846(4) 0.8306(2) -0.14970(14)
C13 C 0.7303(6) 0.8427(3) -0.21207(16)
H6 H 0.6238 0.8823 -0.2147
H7 H 0.7092 0.7809 -0.2252
H8 H 0.8223 0.8729 -0.2373
C14 C 0.5064(4) 0.6601(2) -0.07457(13)
H9 H 0.5545 0.5975 -0.0710
C15 C 0.4224(4) 0.6895(2) -0.12286(14)
H10 H 0.4098 0.6465 -0.1516
C16 C 0.3477(4) 0.7859(2) -0.13394(14)
C17 C 0.3355(4) 0.8436(2) -0.08294(13)
C18 C 0.2421(4) 0.9317(2) -0.08517(15)
C19 C 0.2279(4) 0.9818(2) -0.03616(15)
H11 H 0.1635 1.0401 -0.0376
C20 C 0.3073(5) 0.9472(3) 0.01494(16)
H12 H 0.2964 0.9813 0.0488
C21 C 0.4024(5) 0.8633(2) 0.01708(15)
H13 H 0.4592 0.8412 0.0522
C22 C 0.4172(4) 0.8106(2) -0.03075(13)
C23 C 0.0819(9) 1.0540(4) -0.1399(2)
H14 H 0.0457 1.0715 -0.1804
H15 H 0.1607 1.1009 -0.1288
H16 H -0.0203 1.0518 -0.1128
C24 C 0.3520(4) 0.6150(2) 0.05490(13)
H17 H 0.2561 0.6114 0.0306
C25 C 0.3485(4) 0.5706(2) 0.11338(14)
H18 H 0.2490 0.5371 0.1278
C26 C 0.4841(4) 0.5744(2) 0.14999(13)
C27 C 0.6363(4) 0.6243(2) 0.12952(12)
C28 C 0.3315(5) 0.4817(3) 0.22716(15)
H19 H 0.3434 0.4575 0.2687
H20 H 0.3204 0.4288 0.2033
H21 H 0.2280 0.5236 0.2235
C29 C 0.7905(4) 0.6369(2) 0.15966(12)
C30 C 0.9245(4) 0.6864(2) 0.13173(13)
H22 H 1.0251 0.6940 0.1531
C31 C 0.9186(4) 0.7266(2) 0.07230(13)
H23 H 1.0135 0.7603 0.0541
C32 C 0.7393(5) 0.6458(2) 0.26228(14)
H24 H 0.6236 0.6719 0.2507
H25 H 0.7228 0.6018 0.2984
C33 C 1.0026(6) 0.6866(4) 0.29858(19)
H26 H 1.0534 0.7377 0.3171
H27 H 1.0813 0.6673 0.2667
H28 H 0.9845 0.6328 0.3282
O7 O 0.2869(4) 0.59611(17) 0.60386(10)
O8 O -0.1697(4) 0.66457(18) 0.67785(10)
O9 O -0.3041(3) 0.53176(17) 0.62256(10)
O10 O 0.0238(3) 0.99063(18) 0.29479(10)
O11 O 0.3559(3) 0.92795(16) 0.27906(9)
O12 O 0.4395(5) 0.8202(2) 0.21258(13)
C34 C 0.2602(4) 0.7530(2) 0.51336(12)
H29 H 0.2757 0.6827 0.5172
C35 C 0.0543(4) 0.7813(2) 0.51981(13)
C36 C 0.0233(4) 0.8457(2) 0.46327(13)
C37 C 0.1714(4) 0.8455(2) 0.42477(13)
C38 C 0.3094(4) 0.7909(2) 0.45021(13)
C39 C 0.3661(4) 0.7926(2) 0.55918(13)
C40 C 0.4413(4) 0.8801(2) 0.54575(13)
H30 H 0.4333 0.9108 0.5069
C41 C 0.5268(4) 0.9232(2) 0.58709(14)
H31 H 0.5782 0.9822 0.5762
C42 C 0.5383(4) 0.8816(2) 0.64408(14)
H32 H 0.5956 0.9117 0.6728
C43 C 0.4642(4) 0.7947(2) 0.65870(13)
H33 H 0.4713 0.7656 0.6979
C44 C 0.3801(4) 0.7493(2) 0.61751(13)
C45 C 0.3066(4) 0.6544(2) 0.63774(14)
C46 C 0.2579(5) 0.6335(3) 0.70251(15)
H34 H 0.1676 0.5867 0.7073
H35 H 0.2142 0.6916 0.7186
H36 H 0.3602 0.6086 0.7237
C47 C 0.0161(4) 0.8337(2) 0.57272(13)
H37 H 0.0537 0.8965 0.5716
C48 C -0.0670(4) 0.7975(2) 0.62118(14)
H38 H -0.0877 0.8357 0.6529
C49 C -0.1292(4) 0.7005(2) 0.62835(14)
C50 C -0.1370(4) 0.6535(2) 0.57337(13)
C51 C -0.2314(4) 0.5710(2) 0.57078(14)
C52 C -0.2472(4) 0.5333(2) 0.51779(15)
H39 H -0.3153 0.4797 0.5162
C53 C -0.1639(4) 0.5735(2) 0.46690(15)
H40 H -0.1735 0.5469 0.4306
C54 C -0.0668(4) 0.6522(2) 0.46889(14)
H41 H -0.0081 0.6786 0.4339
C55 C -0.0535(4) 0.6936(2) 0.52134(13)
C56 C -0.3848(5) 0.4434(3) 0.62154(18)
H42 H -0.4214 0.4196 0.6619
H43 H -0.3020 0.3979 0.6051
H44 H -0.4862 0.4521 0.5969
C57 C -0.1232(4) 0.8936(2) 0.44473(14)
H45 H -0.2247 0.8941 0.4699
C58 C -0.1228(4) 0.9424(2) 0.38777(14)
H46 H -0.2255 0.9759 0.3751
C59 C 0.0214(4) 0.9433(2) 0.34978(13)
C60 C 0.1771(4) 0.8923(2) 0.36711(13)
C61 C -0.1303(6) 1.0431(3) 0.27751(18)
H47 H -0.1116 1.0748 0.2377
H48 H -0.1587 1.0903 0.3053
H49 H -0.2263 1.0001 0.2777
C62 C 0.3377(4) 0.8797(2) 0.33444(13)
C63 C 0.4710(4) 0.8251(2) 0.35862(14)
H50 H 0.5749 0.8171 0.3354
C64 C 0.4604(4) 0.7799(2) 0.41695(13)
H51 H 0.5555 0.7429 0.4327
C65 C 0.4891(9) 0.9014(5) 0.2395(3)
H52 H 0.5972 0.8866 0.2608
H53 H 0.5109 0.9541 0.2087
C66 C 0.3176(10) 0.8191(6) 0.1800(3)
H54 H 0.3303 0.7635 0.1579
H55 H 0.3163 0.8763 0.1524
H56 H 0.2087 0.8166 0.2039
C67? C 0.2917(10) 0.8906(6) 0.2308(3)
C68? C 0.5493(12) 0.8663(7) 0.1773(4)
H57? H 0.2696 0.9405 0.1983
H58? H 0.1830 0.8575 0.2418
H59? H 0.6073 0.8235 0.1508
H60? H 0.6359 0.8928 0.2005
H61? H 0.4879 0.9175 0.1538
loop_
_geom_bond_atom_site_label_1
_geom_bond_atom_site_label_2
_geom_bond_site_symmetry_1
_geom_bond_site_symmetry_2
O1 C12 1_555 1_555
O2 C16 1_555 1_555
O3 C18 1_555 1_555
O4 C26 1_555 1_555
O5 C29 1_555 1_555
O6 C32 1_555 1_555
O7 C45 1_555 1_555
O8 C49 1_555 1_555
O9 C51 1_555 1_555
O10 C59 1_555 1_555
O11 C62 1_555 1_555
O12 C65 1_555 1_555
C1 H1 1_555 1_555
C2 C1 1_555 1_555
C3 C2 1_555 1_555
C4 C3 1_555 1_555
C5 C1 1_555 1_555
C6 C1 1_555 1_555
C7 C6 1_555 1_555
H2 C7 1_555 1_555
C8 C7 1_555 1_555
H3 C8 1_555 1_555
C9 C8 1_555 1_555
H4 C9 1_555 1_555
C10 C9 1_555 1_555
H5 C10 1_555 1_555
C11 C6 1_555 1_555
C12 C11 1_555 1_555
C13 C12 1_555 1_555
H6 C13 1_555 1_555
H7 C13 1_555 1_555
H8 C13 1_555 1_555
C14 C2 1_555 1_555
H9 C14 1_555 1_555
C15 C14 1_555 1_555
H10 C15 1_555 1_555
C16 C15 1_555 1_555
C17 C16 1_555 1_555
C18 C17 1_555 1_555
C19 C18 1_555 1_555
H11 C19 1_555 1_555
C20 C19 1_555 1_555
H12 C20 1_555 1_555
C21 C20 1_555 1_555
H13 C21 1_555 1_555
C22 C2 1_555 1_555
C23 O3 1_555 1_555
H14 C23 1_555 1_555
H15 C23 1_555 1_555
H16 C23 1_555 1_555
C24 C3 1_555 1_555
H17 C24 1_555 1_555
C25 C24 1_555 1_555
H18 C25 1_555 1_555
C26 C25 1_555 1_555
C27 C4 1_555 1_555
C28 O4 1_555 1_555
H19 C28 1_555 1_555
H20 C28 1_555 1_555
H21 C28 1_555 1_555
C29 C27 1_555 1_555
C30 C29 1_555 1_555
H22 C30 1_555 1_555
C31 C5 1_555 1_555
H23 C31 1_555 1_555
C32 O5 1_555 1_555
H24 C32 1_555 1_555
H25 C32 1_555 1_555
C33 O6 1_555 1_555
H26 C33 1_555 1_555
H27 C33 1_555 1_555
H28 C33 1_555 1_555
C34 H29 1_555 1_555
C35 C34 1_555 1_555
C36 C35 1_555 1_555
C37 C36 1_555 1_555
C38 C34 1_555 1_555
C39 C34 1_555 1_555
C40 C39 1_555 1_555
H30 C40 1_555 1_555
C41 C40 1_555 1_555
H31 C41 1_555 1_555
C42 C41 1_555 1_555
H32 C42 1_555 1_555
C43 C42 1_555 1_555
H33 C43 1_555 1_555
C44 C39 1_555 1_555
C45 C44 1_555 1_555
C46 C45 1_555 1_555
H34 C46 1_555 1_555
H35 C46 1_555 1_555
H36 C46 1_555 1_555
C47 C35 1_555 1_555
H37 C47 1_555 1_555
C48 C47 1_555 1_555
H38 C48 1_555 1_555
C49 C48 1_555 1_555
C50 C49 1_555 1_555
C51 C50 1_555 1_555
C52 C51 1_555 1_555
H39 C52 1_555 1_555
C53 C52 1_555 1_555
H40 C53 1_555 1_555
C54 C53 1_555 1_555
H41 C54 1_555 1_555
C55 C35 1_555 1_555
C56 O9 1_555 1_555
H42 C56 1_555 1_555
H43 C56 1_555 1_555
H44 C56 1_555 1_555
C57 C36 1_555 1_555
H45 C57 1_555 1_555
C58 C57 1_555 1_555
H46 C58 1_555 1_555
C59 C58 1_555 1_555
C60 C37 1_555 1_555
C61 O10 1_555 1_555
H47 C61 1_555 1_555
H48 C61 1_555 1_555
H49 C61 1_555 1_555
C62 C60 1_555 1_555
C63 C62 1_555 1_555
H50 C63 1_555 1_555
C64 C38 1_555 1_555
H51 C64 1_555 1_555
C65 O11 1_555 1_555
H52 C65 1_555 1_555
H53 C65 1_555 1_555
C66 O12 1_555 1_555
H54 C66 1_555 1_555
H55 C66 1_555 1_555
H56 C66 1_555 1_555
C4 C5 1_555 1_555
C10 C11 1_555 1_555
C17 C22 1_555 1_555
C21 C22 1_555 1_555
C26 C27 1_555 1_555
C30 C31 1_555 1_555
C37 C38 1_555 1_555
C43 C44 1_555 1_555
C50 C55 1_555 1_555
C54 C55 1_555 1_555
C59 C60 1_555 1_555
C63 C64 1_555 1_555

#END
