
#######################################################################
#
#                 Cambridge Crystallographic Data Centre
#                                CCDC 
#
#######################################################################
#
# If this CIF has been generated from an entry in the Cambridge 
# Structural Database, then it will include bibliographic, chemical, 
# crystal, experimental, refinement or atomic coordinate data resulting 
# from the CCDC's data processing and validation procedures.
#
#######################################################################

data_ABUQUL
_chemical_formula_moiety         'C15 H13 F2 N1 O1'
_chemical_name_systematic        3,3-Difluoro-1-methyl-2-phenylindolin-2-ol
_symmetry_cell_setting           monoclinic
_symmetry_space_group_name_H-M   'P 21/c'
_symmetry_Int_Tables_number      14
_space_group_name_Hall           '-P 2ybc'
loop_
_symmetry_equiv_pos_site_id
_symmetry_equiv_pos_as_xyz
1 x,y,z
2 -x,1/2+y,1/2-z
3 -x,-y,-z
4 x,1/2-y,1/2+z
_cell_length_a                   9.9577(6)
_cell_length_b                   13.8736(8)
_cell_length_c                   8.9291(5)
_cell_angle_alpha                90
_cell_angle_beta                 96.997(2)
_cell_angle_gamma                90
_cell_volume                     1224.36
_exptl_crystal_colour            yellow
_exptl_crystal_description       block
_cell_formula_units_Z            4
loop_
_atom_site_label
_atom_site_type_symbol
_atom_site_fract_x
_atom_site_fract_y
_atom_site_fract_z
O1 O 0.07839(12) 0.40235(8) 0.10367(13)
H1 H 0.0500 0.4218 0.0190
F1 F 0.23844(11) 0.48788(8) -0.06582(11)
F2 F 0.39403(10) 0.45775(7) 0.11850(12)
N1 N 0.08799(13) 0.56304(9) 0.19553(14)
C1 C 0.17598(15) 0.64073(11) 0.18114(16)
C2 C 0.16199(18) 0.73567(12) 0.22410(19)
H2 H 0.0886 0.7553 0.2718
C3 C 0.2611(2) 0.80045(13) 0.1936(2)
H3 H 0.2531 0.8647 0.2211
C4 C 0.37119(19) 0.77289(13) 0.1238(2)
H4 H 0.4358 0.8182 0.1050
C5 C 0.38547(17) 0.67771(13) 0.08186(19)
H5 H 0.4589 0.6582 0.0342
C6 C 0.28792(16) 0.61262(11) 0.11251(17)
C7 C 0.27616(16) 0.50766(11) 0.08392(17)
C8 C 0.16277(16) 0.47209(11) 0.17845(17)
C9 C 0.22425(15) 0.42882(11) 0.32830(17)
C10 C 0.21276(17) 0.33117(12) 0.35533(19)
H6 H 0.1655 0.2920 0.2825
C11 C 0.27085(19) 0.29132(14) 0.4896(2)
H7 H 0.2624 0.2256 0.5065
C12 C 0.34102(18) 0.34814(15) 0.5984(2)
H8 H 0.3797 0.3211 0.6888
C13 C 0.35375(18) 0.44540(14) 0.5727(2)
H9 H 0.4016 0.4841 0.6457
C14 C 0.29555(18) 0.48560(13) 0.43876(19)
H10 H 0.3042 0.5514 0.4224
C15 C -0.00325(18) 0.56736(14) 0.3118(2)
H11 H -0.0449 0.6298 0.3104
H12 H 0.0471 0.5563 0.4089
H13 H -0.0719 0.5188 0.2923
loop_
_geom_bond_atom_site_label_1
_geom_bond_atom_site_label_2
_geom_bond_site_symmetry_1
_geom_bond_site_symmetry_2
O1 H1 1_555 1_555
F1 C7 1_555 1_555
F2 C7 1_555 1_555
N1 C1 1_555 1_555
C1 C2 1_555 1_555
C2 H2 1_555 1_555
C3 C2 1_555 1_555
H3 C3 1_555 1_555
C4 C3 1_555 1_555
H4 C4 1_555 1_555
C5 C4 1_555 1_555
H5 C5 1_555 1_555
C6 C1 1_555 1_555
C7 C6 1_555 1_555
C8 O1 1_555 1_555
C9 C8 1_555 1_555
C10 C9 1_555 1_555
H6 C10 1_555 1_555
C11 C10 1_555 1_555
H7 C11 1_555 1_555
C12 C11 1_555 1_555
H8 C12 1_555 1_555
C13 C12 1_555 1_555
H9 C13 1_555 1_555
C14 C9 1_555 1_555
H10 C14 1_555 1_555
C15 N1 1_555 1_555
H11 C15 1_555 1_555
H12 C15 1_555 1_555
H13 C15 1_555 1_555
N1 C8 1_555 1_555
C5 C6 1_555 1_555
C7 C8 1_555 1_555
C13 C14 1_555 1_555

#END
