
#######################################################################
#
#                 Cambridge Crystallographic Data Centre
#                                CCDC 
#
#######################################################################
#
# If this CIF has been generated from an entry in the Cambridge 
# Structural Database, then it will include bibliographic, chemical, 
# crystal, experimental, refinement or atomic coordinate data resulting 
# from the CCDC's data processing and validation procedures.
#
#######################################################################

data_ABURAS
_chemical_formula_moiety         'C52 H70 N2 O15,C18 H34 N2 O2 2+,2(F6 P1 1-)'
_chemical_name_systematic        
"[2]-(N,N'-(1,4-Phenylenebis(methylene))bis(5-hydroxypentan-1-aminium))-(21,50-dipropyl-2,3,5,6,8,9,11,12,14,15,17,18,24,25,27,28,30,31,40,41,43,44,46,47-tetracosahydro[1,4,7,10,13,16,19]heptaoxacyclohenicosino [2'',3'':6',7']anthra[2',3':14,15][1,4,7,10,13,16,19,22]octaoxacyclotetracosino [2,3-b]quinoxaline)-pseudorotaxane bis(hexafluorophosphate) unknown solvate"
_symmetry_cell_setting           monoclinic
_symmetry_space_group_name_H-M   'P 21/n'
_symmetry_Int_Tables_number      14
_space_group_name_Hall           '-P 2yn'
loop_
_symmetry_equiv_pos_site_id
_symmetry_equiv_pos_as_xyz
1 x,y,z
2 1/2-x,1/2+y,1/2-z
3 -x,-y,-z
4 1/2+x,1/2-y,1/2+z
_cell_length_a                   14.1502(6)
_cell_length_b                   21.6375(10)
_cell_length_c                   27.7335(12)
_cell_angle_alpha                90
_cell_angle_beta                 95.860(4)
_cell_angle_gamma                90
_cell_volume                     8446.93
_exptl_crystal_colour            colorless
_exptl_crystal_description       prism
_cell_formula_units_Z            4
loop_
_atom_site_label
_atom_site_type_symbol
_atom_site_fract_x
_atom_site_fract_y
_atom_site_fract_z
P1 P 0.9397(3) 0.90880(19) 0.11271(13)
F1 F 0.8311(6) 0.8979(5) 0.1015(3)
F2 F 0.9107(9) 0.9731(5) 0.1300(3)
F3 F 0.9432(5) 0.9336(4) 0.0593(2)
F4 F 1.0478(7) 0.9208(6) 0.1220(4)
F5 F 0.9644(9) 0.8422(5) 0.0966(4)
F6 F 0.9385(7) 0.8845(5) 0.1650(3)
O1 O 0.5216(4) 1.1044(3) -0.0064(2)
O2 O 0.4565(5) 1.2138(4) -0.0656(2)
O3 O 0.5278(7) 1.3279(4) -0.0901(3)
O4 O 0.7209(9) 1.3634(4) -0.0558(4)
O5 O 0.8746(6) 1.2795(4) -0.0207(3)
O6 O 0.8623(5) 1.1554(3) 0.0283(2)
O7 O 0.6941(5) 1.0795(3) 0.0330(2)
O8 O 0.2489(5) 0.8814(3) 0.2507(2)
O9 O 0.0771(5) 0.8159(5) 0.2667(3)
O10 O 0.0473(6) 0.7021(4) 0.3088(4)
O11 O 0.1165(10) 0.5940(4) 0.2721(4)
O12 O 0.3017(13) 0.5695(5) 0.2524(4)
O13 O 0.4757(7) 0.6331(4) 0.2957(4)
O14 O 0.4781(6) 0.7445(5) 0.3519(3)
O15 O 0.4131(5) 0.8528(3) 0.2914(2)
C1 C 0.6337(7) 1.0231(5) 0.0972(4)
H1 H 0.6963 1.0148 0.1115
C2 C 0.4511(7) 1.0466(4) 0.0540(3)
H2 H 0.3893 1.055 0.0387
C3 C 0.4890(8) 0.9068(5) 0.2283(4)
H3 H 0.5496 0.8966 0.2442
C4 C 0.3111(8) 0.9336(4) 0.1830(3)
H4 H 0.2488 0.9428 0.1686
N1 N 0.2411(8) 0.5167(6) 0.1844(5)
N2 N 0.0556(9) 0.5439(6) 0.2024(5)
C5 C 0.7995(9) 0.9685(7) 0.2494(5)
H5 H 0.8239 0.9989 0.2738
H6 H 0.8444 0.9641 0.225
H7 H 0.7916 0.9286 0.2651
C6 C 0.7032(8) 0.9904(6) 0.2249(4)
H8 H 0.6577 0.9946 0.2495
H9 H 0.7107 1.0315 0.2101
C7 C 0.6640(7) 0.9448(6) 0.1858(4)
H10 H 0.7082 0.9427 0.1604
H11 H 0.6611 0.9032 0.2005
C8 C 0.5657(7) 0.9620(5) 0.1624(3)
C9 C 0.3802(7) 0.9871(4) 0.1166(3)
C10 C 0.2806(6) 0.9966(4) 0.0905(3)
H12 H 0.2393 0.9621 0.0989
H13 H 0.2845 0.9951 0.055
C11 C 0.2345(7) 1.0579(5) 0.1032(4)
H14 H 0.2265 1.0584 0.1382
H15 H 0.2771 1.0924 0.0965
C12 C 0.1404(9) 1.0670(6) 0.0749(5)
H16 H 0.114 1.107 0.0833
H17 H 0.0972 1.0339 0.0825
H18 H 0.148 1.0662 0.0402
C13 C 0.5533(8) 0.9990(5) 0.1202(4)
C14 C 0.4596(7) 1.0104(5) 0.0969(3)
C15 C 0.6218(7) 1.0570(5) 0.0562(4)
C16 C 0.5271(7) 1.0699(4) 0.0337(3)
C17 C 0.4275(7) 1.1155(5) -0.0302(3)
H19 H 0.3895 1.1386 -0.0082
H20 H 0.3955 1.0755 -0.0381
C18 C 0.4332(8) 1.1518(6) -0.0759(4)
H21 H 0.4819 1.1333 -0.0946
H22 H 0.3714 1.1498 -0.096
C19 C 0.3987(9) 1.2553(7) -0.0968(5)
H23 H 0.3306 1.2488 -0.093
H24 H 0.4089 1.248 -0.1311
C20 C 0.4275(13) 1.3184(10) -0.0823(6)
H25 H 0.4189 1.3249 -0.0477
H26 H 0.3873 1.3487 -0.1017
C21 C 0.5629(13) 1.3925(6) -0.0812(7)
H27 H 0.5233 1.4218 -0.1019
H28 H 0.5594 1.404 -0.0469
C22 C 0.6634(14) 1.3951(7) -0.0930(6)
H29 H 0.6691 1.3753 -0.1248
H30 H 0.6844 1.4387 -0.0948
C23 C 0.8172(14) 1.3747(7) -0.0588(6)
H31 H 0.828 1.4199 -0.0586
H32 H 0.835 1.3584 -0.0899
C24 C 0.8810(14) 1.3457(7) -0.0175(6)
H33 H 0.9476 1.3588 -0.0194
H34 H 0.8614 1.3597 0.0139
C25 C 0.9433(10) 1.2501(7) 0.0120(4)
H35 H 0.9318 1.2608 0.0456
H36 H 1.0072 1.2653 0.0065
C26 C 0.9403(7) 1.1818(6) 0.0061(4)
H37 H 0.934 1.1714 -0.0288
H38 H 1.0006 1.1638 0.0211
C27 C 0.8580(8) 1.0905(6) 0.0218(4)
H39 H 0.9217 1.0724 0.0305
H40 H 0.8385 1.0809 -0.0127
C28 C 0.7893(7) 1.0628(5) 0.0523(4)
H41 H 0.7962 1.0172 0.0526
H42 H 0.8021 1.078 0.086
C29 C 0.4855(7) 0.9421(4) 0.1833(3)
C30 C 0.3913(7) 0.9542(4) 0.1597(4)
C31 C 0.4122(8) 0.8881(5) 0.2484(3)
C32 C 0.3219(7) 0.9017(5) 0.2245(4)
C33 C 0.1540(8) 0.8974(6) 0.2299(4)
H43 H 0.1389 0.8745 0.1991
H44 H 0.1509 0.9421 0.2226
C34 C 0.0832(9) 0.8817(5) 0.2640(4)
H45 H 0.1033 0.899 0.2965
H46 H 0.0205 0.8993 0.2523
C35 C -0.0038(13) 0.8031(8) 0.2837(6)
H47 H -0.0562 0.8245 0.264
H48 H -0.0022 0.8183 0.3175
C36 C -0.0214(8) 0.7377(7) 0.2828(5)
H49 H -0.083 0.7299 0.2956
H50 H -0.0273 0.7237 0.2486
C37 C 0.0248(11) 0.6434(8) 0.3243(7)
H51 H -0.0381 0.644 0.337
H52 H 0.0727 0.6298 0.3507
C38 C 0.0231(10) 0.5989(9) 0.2820(7)
H53 H -0.0018 0.5581 0.2908
H54 H -0.0173 0.6151 0.2536
C39 C 0.1319(12) 0.5643(6) 0.2333(4)
C40 C 0.2236(11) 0.5493(7) 0.2251(5)
C41 C 0.3916(18) 0.5589(7) 0.2370(7)
H55 H 0.4046 0.5894 0.2119
H56 H 0.3946 0.517 0.223
C42 C 0.4676(13) 0.5655(7) 0.2826(7)
H57 H 0.4474 0.5415 0.3101
H58 H 0.5298 0.5494 0.2749
C43 C 0.5384(11) 0.6436(8) 0.3375(7)
H59 H 0.5981 0.6204 0.3353
H60 H 0.5095 0.6288 0.3664
C44 C 0.5585(9) 0.7077(9) 0.3422(5)
H61 H 0.5821 0.7226 0.3119
H62 H 0.6099 0.7138 0.3688
C45 C 0.4962(10) 0.8048(8) 0.3614(5)
H63 H 0.5549 0.8077 0.384
H64 H 0.4436 0.8218 0.3783
C46 C 0.5083(8) 0.8456(6) 0.3171(4)
H65 H 0.5349 0.8863 0.3275
H66 H 0.5516 0.8256 0.296
C47 C 0.0727(7) 0.5117(6) 0.1606(4)
C48 C 0.1653(7) 0.4963(5) 0.1528(4)
C49 C 0.1827(8) 0.4633(6) 0.1117(4)
H67 H 0.246 0.4527 0.1063
C50 C 0.1075(11) 0.4456(6) 0.0783(4)
H68 H 0.1194 0.4231 0.0502
C51 C 0.0149(10) 0.4611(7) 0.0861(5)
H69 H -0.0364 0.449 0.0633
C52 C -0.0025(7) 0.4941(7) 0.1273(5)
H70 H -0.0657 0.5046 0.1326
O16 O 0.2700(13) 0.6769(12) 0.5156(8)
H71 H 0.2659 0.6671 0.5446
N3 N 0.2544(6) 0.7587(4) 0.2993(3)
H72 H 0.1952 0.7737 0.2884
H73 H 0.2972 0.7906 0.2988
N4 N 0.3401(6) 0.7596(4) 0.0422(2)
H74 H 0.3082 0.7231 0.0455
H75 H 0.402 0.7538 0.055
C53 C 0.3042(15) 0.7358(14) 0.5135(5)
H76 H 0.3709 0.7375 0.5283
H77 H 0.2658 0.7643 0.5316
C54 C 0.2986(15) 0.7548(10) 0.4605(5)
H78 H 0.33 0.7956 0.459
H79 H 0.3369 0.725 0.4437
C55 C 0.2085(14) 0.7593(10) 0.4333(5)
H80 H 0.1667 0.7859 0.4509
H81 H 0.1794 0.7177 0.4302
C56 C 0.2148(11) 0.7866(7) 0.3816(4)
H82 H 0.1511 0.8 0.3673
H83 H 0.2577 0.8228 0.3834
C57 C 0.2536(8) 0.7356(7) 0.3502(4)
H84 H 0.3188 0.7242 0.3635
H85 H 0.2131 0.6983 0.3505
C58 C 0.2803(8) 0.7092(5) 0.2665(4)
H86 H 0.2327 0.6756 0.2659
H87 H 0.3428 0.6918 0.2789
C59 C 0.2851(8) 0.7335(5) 0.2152(3)
C60 C 0.2032(7) 0.7415(6) 0.1837(4)
H88 H 0.1435 0.7299 0.1937
C61 C 0.2076(8) 0.7665(5) 0.1375(4)
H89 H 0.1511 0.7712 0.1162
C62 C 0.2925(8) 0.7840(5) 0.1231(3)
C63 C 0.3765(7) 0.7777(5) 0.1544(4)
H90 H 0.4357 0.7907 0.1446
C64 C 0.3713(8) 0.7520(5) 0.2001(4)
H91 H 0.4279 0.7469 0.2213
C65 C 0.2968(7) 0.8080(5) 0.0711(3)
H92 H 0.2319 0.8177 0.0561
H93 H 0.3353 0.8462 0.0717
C66 C 0.3394(8) 0.7738(5) -0.0109(3)
H94 H 0.3643 0.8161 -0.0149
H95 H 0.2732 0.7727 -0.0264
C67 C 0.3995(11) 0.7276(6) -0.0361(4)
H96 H 0.3823 0.6849 -0.0278
H97 H 0.4677 0.734 -0.0255
C68 C 0.3801(13) 0.7381(14) -0.0909(4)
H98 H 0.436 0.7244 -0.1068
H99 H 0.3707 0.7827 -0.0973
C69 C 0.291(3) 0.702(2) -0.1126(10)
H100 H 0.3028 0.6572 -0.1102
H101 H 0.2362 0.7124 -0.0948
C70 C 0.271(3) 0.721(3) -0.1656(11)
H102 H 0.2405 0.7617 -0.1614
H103 H 0.3367 0.7323 -0.1724
O17 O 0.231(3) 0.7067(19) -0.2145(11)
H104 H 0.2523 0.6728 -0.2232
C71? C -0.2947(14) 0.6683(9) 0.2277(7)
C72? C -0.251(5) 0.488(4) 0.075(3)
C73? C -0.2266(17) 0.7949(12) 0.2051(9)
C74? C -0.1921(17) 0.6876(12) 0.1796(8)
C75? C 0.507(4) 1.552(3) -0.102(2)
C76? C -0.085(4) 0.722(3) 0.1360(19)
C77? C -0.245(3) 0.636(2) 0.2010(16)
C78? C -0.061(4) 0.690(3) 0.1260(18)
C79? C -0.223(3) 0.557(2) 0.0872(17)
C80? C -0.2624(15) 0.5276(11) 0.0396(8)
C81? C 0.485(3) 1.530(2) -0.1480(16)
C82? C -0.133(3) 0.6576(19) 0.1496(14)
C83? C -0.375(5) 0.718(3) 0.225(2)
C84? C -0.242(4) 0.723(3) 0.1886(17)
C85? C -0.182(5) 0.496(3) 0.036(2)
C86? C 0.529(3) 1.563(2) -0.070(2)
C87? C 0.424(2) 0.751(3) -0.0861(9)
C88? C 0.318(3) 0.753(2) -0.1071(19)
C89? C 0.278(4) 0.689(3) -0.0977(19)
H105? H 0.4548 0.7918 -0.0847
H106? H 0.4616 0.7207 -0.103
H107? H 0.2839 0.7855 -0.0906
H108? H 0.3129 0.7622 -0.1422
H109? H 0.2532 0.6197 -0.1393
H110? H 0.321 0.6667 -0.0732
H111? H 0.215 0.6928 -0.0856
O18? O 0.270(4) 0.656(2) -0.144(3)
loop_
_geom_bond_atom_site_label_1
_geom_bond_atom_site_label_2
_geom_bond_site_symmetry_1
_geom_bond_site_symmetry_2
P1 F1 1_555 1_555
F2 P1 1_555 1_555
F3 P1 1_555 1_555
F4 P1 1_555 1_555
F5 P1 1_555 1_555
F6 P1 1_555 1_555
O1 C16 1_555 1_555
O2 C18 1_555 1_555
O3 C20 1_555 1_555
O4 C22 1_555 1_555
O5 C24 1_555 1_555
O6 C26 1_555 1_555
O7 C15 1_555 1_555
O8 C32 1_555 1_555
O9 C34 1_555 1_555
O10 C36 1_555 1_555
O11 C38 1_555 1_555
O12 C40 1_555 1_555
O13 C42 1_555 1_555
O14 C44 1_555 1_555
O15 C31 1_555 1_555
C1 H1 1_555 1_555
C2 H2 1_555 1_555
C3 H3 1_555 1_555
C4 H4 1_555 1_555
N1 C40 1_555 1_555
N2 C39 1_555 1_555
C5 H5 1_555 1_555
H6 C5 1_555 1_555
H7 C5 1_555 1_555
C6 C5 1_555 1_555
H8 C6 1_555 1_555
H9 C6 1_555 1_555
C7 C6 1_555 1_555
H10 C7 1_555 1_555
H11 C7 1_555 1_555
C8 C7 1_555 1_555
C9 C10 1_555 1_555
C10 H12 1_555 1_555
H13 C10 1_555 1_555
C11 C10 1_555 1_555
H14 C11 1_555 1_555
H15 C11 1_555 1_555
C12 C11 1_555 1_555
H16 C12 1_555 1_555
H17 C12 1_555 1_555
H18 C12 1_555 1_555
C13 C1 1_555 1_555
C14 C2 1_555 1_555
C15 C1 1_555 1_555
C16 C2 1_555 1_555
C17 O1 1_555 1_555
H19 C17 1_555 1_555
H20 C17 1_555 1_555
C18 C17 1_555 1_555
H21 C18 1_555 1_555
H22 C18 1_555 1_555
C19 O2 1_555 1_555
H23 C19 1_555 1_555
H24 C19 1_555 1_555
C20 C19 1_555 1_555
H25 C20 1_555 1_555
H26 C20 1_555 1_555
C21 O3 1_555 1_555
H27 C21 1_555 1_555
H28 C21 1_555 1_555
C22 C21 1_555 1_555
H29 C22 1_555 1_555
H30 C22 1_555 1_555
C23 O4 1_555 1_555
H31 C23 1_555 1_555
H32 C23 1_555 1_555
C24 C23 1_555 1_555
H33 C24 1_555 1_555
H34 C24 1_555 1_555
C25 O5 1_555 1_555
H35 C25 1_555 1_555
H36 C25 1_555 1_555
C26 C25 1_555 1_555
H37 C26 1_555 1_555
H38 C26 1_555 1_555
C27 O6 1_555 1_555
H39 C27 1_555 1_555
H40 C27 1_555 1_555
C28 O7 1_555 1_555
H41 C28 1_555 1_555
H42 C28 1_555 1_555
C29 C3 1_555 1_555
C30 C4 1_555 1_555
C31 C3 1_555 1_555
C32 C4 1_555 1_555
C33 O8 1_555 1_555
H43 C33 1_555 1_555
H44 C33 1_555 1_555
C34 C33 1_555 1_555
H45 C34 1_555 1_555
H46 C34 1_555 1_555
C35 O9 1_555 1_555
H47 C35 1_555 1_555
H48 C35 1_555 1_555
C36 C35 1_555 1_555
H49 C36 1_555 1_555
H50 C36 1_555 1_555
C37 O10 1_555 1_555
H51 C37 1_555 1_555
H52 C37 1_555 1_555
C38 C37 1_555 1_555
H53 C38 1_555 1_555
H54 C38 1_555 1_555
C39 O11 1_555 1_555
C40 C39 1_555 1_555
C41 O12 1_555 1_555
H55 C41 1_555 1_555
H56 C41 1_555 1_555
C42 C41 1_555 1_555
H57 C42 1_555 1_555
H58 C42 1_555 1_555
C43 O13 1_555 1_555
H59 C43 1_555 1_555
H60 C43 1_555 1_555
C44 C43 1_555 1_555
H61 C44 1_555 1_555
H62 C44 1_555 1_555
C45 O14 1_555 1_555
H63 C45 1_555 1_555
H64 C45 1_555 1_555
C46 O15 1_555 1_555
H65 C46 1_555 1_555
H66 C46 1_555 1_555
C47 N2 1_555 1_555
C48 N1 1_555 1_555
C49 C48 1_555 1_555
H67 C49 1_555 1_555
C50 C49 1_555 1_555
H68 C50 1_555 1_555
C51 C50 1_555 1_555
H69 C51 1_555 1_555
C52 C47 1_555 1_555
H70 C52 1_555 1_555
O16 H71 1_555 1_555
N3 H72 1_555 1_555
H73 N3 1_555 1_555
N4 H74 1_555 1_555
H75 N4 1_555 1_555
C53 O16 1_555 1_555
H76 C53 1_555 1_555
H77 C53 1_555 1_555
C54 C53 1_555 1_555
H78 C54 1_555 1_555
H79 C54 1_555 1_555
C55 C54 1_555 1_555
H80 C55 1_555 1_555
H81 C55 1_555 1_555
C56 C55 1_555 1_555
H82 C56 1_555 1_555
H83 C56 1_555 1_555
C57 N3 1_555 1_555
H84 C57 1_555 1_555
H85 C57 1_555 1_555
C58 N3 1_555 1_555
H86 C58 1_555 1_555
H87 C58 1_555 1_555
C59 C58 1_555 1_555
C60 C59 1_555 1_555
H88 C60 1_555 1_555
C61 C60 1_555 1_555
H89 C61 1_555 1_555
C62 C61 1_555 1_555
C63 C62 1_555 1_555
H90 C63 1_555 1_555
C64 C59 1_555 1_555
H91 C64 1_555 1_555
C65 N4 1_555 1_555
H92 C65 1_555 1_555
H93 C65 1_555 1_555
C66 N4 1_555 1_555
H94 C66 1_555 1_555
H95 C66 1_555 1_555
C67 C66 1_555 1_555
H96 C67 1_555 1_555
H97 C67 1_555 1_555
C68 C67 1_555 1_555
H98 C68 1_555 1_555
H99 C68 1_555 1_555
C69 C68 1_555 1_555
H100 C69 1_555 1_555
H101 C69 1_555 1_555
C70 C69 1_555 1_555
H102 C70 1_555 1_555
H103 C70 1_555 1_555
O17 C70 1_555 1_555
H104 O17 1_555 1_555
C8 C13 1_555 1_555
C8 C29 1_555 1_555
C9 C14 1_555 1_555
C9 C30 1_555 1_555
C13 C14 1_555 1_555
C15 C16 1_555 1_555
C27 C28 1_555 1_555
C29 C30 1_555 1_555
C31 C32 1_555 1_555
C45 C46 1_555 1_555
C47 C48 1_555 1_555
C51 C52 1_555 1_555
C56 C57 1_555 1_555
C62 C65 1_555 1_555
C63 C64 1_555 1_555

#END
