
#######################################################################
#
#                 Cambridge Crystallographic Data Centre
#                                CCDC 
#
#######################################################################
#
# If this CIF has been generated from an entry in the Cambridge 
# Structural Database, then it will include bibliographic, chemical, 
# crystal, experimental, refinement or atomic coordinate data resulting 
# from the CCDC's data processing and validation procedures.
#
#######################################################################

data_ABUTAV
_chemical_formula_moiety         'C23 H19 Cl1 N4 O2 Si1'
_chemical_name_systematic        
2-(4-chlorophenyl)-6-(4-nitrophenyl)-7-((trimethylsilyl)ethynyl)pyrazolo[1,5-a]pyrimidine
_symmetry_cell_setting           monoclinic
_symmetry_space_group_name_H-M   'C c'
_symmetry_Int_Tables_number      9
_space_group_name_Hall           'C -2yc'
loop_
_symmetry_equiv_pos_site_id
_symmetry_equiv_pos_as_xyz
1 x,y,z
2 x,-y,1/2+z
3 1/2+x,1/2+y,z
4 1/2+x,1/2-y,1/2+z
_cell_length_a                   6.9864(6)
_cell_length_b                   30.542(2)
_cell_length_c                   11.0261(8)
_cell_angle_alpha                90
_cell_angle_beta                 106.329(8)
_cell_angle_gamma                90
_cell_volume                     2257.83
_exptl_crystal_colour            colorless
_exptl_crystal_description       prism
_chemical_melting_point          '477-479 K'
_cell_formula_units_Z            4
_exptl_crystal_preparation       ', Luminescent'
loop_
_atom_site_label
_atom_site_type_symbol
_atom_site_fract_x
_atom_site_fract_y
_atom_site_fract_z
Si1 Si 0.05190(13) 0.11987(3) 0.64029(8)
Cl1 Cl -1.06647(14) 0.29605(4) -0.00763(12)
N1 N -0.0937(3) 0.14451(7) 0.14430(19)
N2 N -0.2422(3) 0.16819(7) 0.1687(2)
C1 C 0.0468(4) 0.12091(7) 0.2328(2)
C2 C 0.1852(4) 0.09829(8) 0.1899(3)
C3 C 0.0412(4) 0.12292(8) 0.3610(3)
C4 C -0.3393(4) 0.18528(9) 0.0549(2)
C5 C 0.3398(4) 0.06972(8) 0.2696(2)
C6 C -0.5151(4) 0.21339(9) 0.0432(3)
C7 C 0.0430(4) 0.12325(10) 0.4697(3)
C8 C -0.0962(5) 0.14628(9) 0.0179(3)
C9 C -0.6312(5) 0.20930(10) 0.1260(3)
H1 H -0.5954 0.1890 0.1914
C10 C -0.8516(5) 0.26465(10) 0.0142(3)
C11 C 0.2981(4) 0.04071(9) 0.3566(3)
H2 H 0.1719 0.0407 0.3691
C12 C -0.5700(5) 0.24432(10) -0.0531(3)
H3 H -0.4923 0.2477 -0.1084
C13 C 0.1728(4) 0.10215(10) 0.0586(3)
H4 H 0.2680 0.0872 0.0303
C14 C 0.5306(5) 0.06969(11) 0.2545(3)
H5 H 0.5616 0.0893 0.1984
C15 C -0.2540(5) 0.17291(10) -0.0395(3)
H6 H -0.2953 0.1810 -0.1242
N3 N 0.0419(4) 0.12439(9) -0.0242(2)
C16 C 0.6284(4) 0.01257(9) 0.4045(3)
C17 C -0.7996(5) 0.23485(11) 0.1128(3)
H7 H -0.8763 0.2321 0.1690
C18 C 0.4426(5) 0.01188(10) 0.4248(3)
H8 H 0.4146 -0.0074 0.4828
N4 N 0.7822(5) -0.01777(10) 0.4767(3)
C19 C -0.7376(5) 0.27002(10) -0.0680(3)
H9 H -0.7727 0.2906 -0.1325
O1 O 0.9526(5) -0.01295(13) 0.4683(5)
C20 C 0.1283(9) 0.17366(15) 0.7134(4)
H10 H 0.2695 0.1772 0.7283
H11 H 0.0957 0.1754 0.7923
H12 H 0.0594 0.1964 0.6579
C21 C 0.6754(4) 0.04098(11) 0.3215(3)
H13 H 0.8024 0.0410 0.3102
O2 O 0.7336(5) -0.04676(12) 0.5361(4)
C22 C -0.2024(8) 0.1052(2) 0.6463(4)
H14 H -0.2839 0.0985 0.5627
H15 H -0.2595 0.1295 0.6794
H16 H -0.1957 0.0802 0.7000
C23 C 0.2383(11) 0.0776(2) 0.7099(5)
H17 H 0.2147 0.0522 0.6567
H18 H 0.2278 0.0699 0.7922
H19 H 0.3695 0.0888 0.7172
loop_
_geom_bond_atom_site_label_1
_geom_bond_atom_site_label_2
_geom_bond_site_symmetry_1
_geom_bond_site_symmetry_2
Si1 C7 1_555 1_555
Cl1 C10 1_555 1_555
N1 N2 1_555 1_555
N2 C4 1_555 1_555
C1 N1 1_555 1_555
C2 C1 1_555 1_555
C3 C1 1_555 1_555
C4 C6 1_555 1_555
C5 C2 1_555 1_555
C6 C9 1_555 1_555
C7 C3 1_555 1_555
C8 N1 1_555 1_555
C9 H1 1_555 1_555
C10 C17 1_555 1_555
C11 C5 1_555 1_555
H2 C11 1_555 1_555
C12 C6 1_555 1_555
H3 C12 1_555 1_555
C13 C2 1_555 1_555
H4 C13 1_555 1_555
C14 C5 1_555 1_555
H5 C14 1_555 1_555
C15 C4 1_555 1_555
H6 C15 1_555 1_555
N3 C8 1_555 1_555
C16 C18 1_555 1_555
C17 C9 1_555 1_555
H7 C17 1_555 1_555
C18 C11 1_555 1_555
H8 C18 1_555 1_555
N4 C16 1_555 1_555
C19 C10 1_555 1_555
H9 C19 1_555 1_555
O1 N4 1_555 1_555
C20 Si1 1_555 1_555
H10 C20 1_555 1_555
H11 C20 1_555 1_555
H12 C20 1_555 1_555
C21 C14 1_555 1_555
H13 C21 1_555 1_555
O2 N4 1_555 1_555
C22 Si1 1_555 1_555
H14 C22 1_555 1_555
H15 C22 1_555 1_555
H16 C22 1_555 1_555
C23 Si1 1_555 1_555
H17 C23 1_555 1_555
H18 C23 1_555 1_555
H19 C23 1_555 1_555
C8 C15 1_555 1_555
C12 C19 1_555 1_555
C13 N3 1_555 1_555
C16 C21 1_555 1_555

#END
