
#######################################################################
#
#                 Cambridge Crystallographic Data Centre
#                                CCDC 
#
#######################################################################
#
# If this CIF has been generated from an entry in the Cambridge 
# Structural Database, then it will include bibliographic, chemical, 
# crystal, experimental, refinement or atomic coordinate data resulting 
# from the CCDC's data processing and validation procedures.
#
#######################################################################

data_ABUTAU
_chemical_formula_moiety         'C28 H21 N3'
_chemical_name_systematic        
N-(3,5-Dihydro-4H-dinaphtho[2,1-d:1',2'-f][1,3]diazepin-4-ylidene)-4-methylaniline
_symmetry_cell_setting           triclinic
_symmetry_space_group_name_H-M   'P -1'
_symmetry_Int_Tables_number      2
_space_group_name_Hall           '-P 1'
loop_
_symmetry_equiv_pos_site_id
_symmetry_equiv_pos_as_xyz
1 x,y,z
2 -x,-y,-z
_cell_length_a                   9.8597(6)
_cell_length_b                   10.9565(8)
_cell_length_c                   11.4297(7)
_cell_angle_alpha                109.8430(10)
_cell_angle_beta                 96.1180(10)
_cell_angle_gamma                111.0590(10)
_cell_volume                     1046.46
_exptl_crystal_colour            colorless
_exptl_crystal_description       block
_cell_formula_units_Z            2
loop_
_atom_site_label
_atom_site_type_symbol
_atom_site_fract_x
_atom_site_fract_y
_atom_site_fract_z
N1 N 0.05216(19) 0.6302(2) -0.07646(18)
N2 N 0.20957(18) 0.6470(2) 0.09613(17)
H1 H 0.1406 0.6217 0.1343
N3 N 0.30341(19) 0.8056(2) -0.00076(18)
H2 H 0.3178 0.8044 -0.0740
C1 C 0.0168(2) 0.6886(2) -0.1635(2)
C2 C 0.0228(3) 0.6347(3) -0.2894(2)
H3 H 0.0636 0.5685 -0.3154
C3 C -0.0308(4) 0.6775(3) -0.3775(3)
H4 H -0.0245 0.6401 -0.4618
C4 C -0.0936(3) 0.7744(3) -0.3439(2)
C5 C -0.0955(3) 0.8305(3) -0.2170(3)
H5 H -0.1350 0.8977 -0.1908
C6 C -0.0404(3) 0.7901(3) -0.1276(2)
H6 H -0.0417 0.8315 -0.0422
C7 C -0.1595(4) 0.8159(4) -0.4422(3)
H7 H -0.1982 0.8835 -0.4008
H8 H -0.2396 0.7321 -0.5087
H9 H -0.0826 0.8584 -0.4793
C8 C 0.1833(2) 0.6939(2) 0.0023(2)
C9 C 0.3479(2) 0.6394(2) 0.1316(2)
C10 C 0.3386(2) 0.5054(3) 0.1222(2)
H10 H 0.2449 0.4285 0.0964
C11 C 0.4647(3) 0.4870(3) 0.1501(2)
H11 H 0.4567 0.3994 0.1491
C12 C 0.6084(2) 0.5992(3) 0.1808(2)
C13 C 0.7405(3) 0.5764(3) 0.1956(2)
H12 H 0.7334 0.4885 0.1932
C14 C 0.8774(3) 0.6807(3) 0.2134(2)
H13 H 0.9633 0.6643 0.2225
C15 C 0.8877(3) 0.8126(3) 0.2178(2)
H14 H 0.9812 0.8831 0.2281
C16 C 0.7637(2) 0.8408(3) 0.2075(2)
H15 H 0.7744 0.9303 0.2120
C17 C 0.6192(2) 0.7352(2) 0.1899(2)
C18 C 0.4844(2) 0.7575(2) 0.1744(2)
C19 C 0.4040(2) 0.9229(2) 0.1141(2)
C20 C 0.4122(3) 1.0589(3) 0.1340(2)
H16 H 0.3574 1.0708 0.0706
C21 C 0.4996(3) 1.1736(3) 0.2452(3)
H17 H 0.5065 1.2639 0.2562
C22 C 0.5803(3) 1.1575(3) 0.3449(2)
C23 C 0.6614(3) 1.2737(3) 0.4662(3)
H18 H 0.6661 1.3638 0.4792
C24 C 0.7317(3) 1.2560(3) 0.5629(3)
H19 H 0.7849 1.3334 0.6416
C25 C 0.7240(3) 1.1212(3) 0.5442(2)
H20 H 0.7713 1.1089 0.6115
C26 C 0.6486(2) 1.0069(3) 0.4294(2)
H21 H 0.6456 0.9181 0.4195
C27 C 0.5744(2) 1.0206(2) 0.3242(2)
C28 C 0.4897(2) 0.9018(2) 0.2025(2)
loop_
_geom_bond_atom_site_label_1
_geom_bond_atom_site_label_2
_geom_bond_site_symmetry_1
_geom_bond_site_symmetry_2
N1 C1 1_555 1_555
N2 H1 1_555 1_555
N3 H2 1_555 1_555
C1 C2 1_555 1_555
C2 H3 1_555 1_555
C3 C2 1_555 1_555
H4 C3 1_555 1_555
C4 C3 1_555 1_555
C5 C4 1_555 1_555
H5 C5 1_555 1_555
C6 C1 1_555 1_555
H6 C6 1_555 1_555
C7 C4 1_555 1_555
H7 C7 1_555 1_555
H8 C7 1_555 1_555
H9 C7 1_555 1_555
C8 N1 1_555 1_555
C9 N2 1_555 1_555
C10 C9 1_555 1_555
H10 C10 1_555 1_555
C11 C10 1_555 1_555
H11 C11 1_555 1_555
C12 C11 1_555 1_555
C13 C12 1_555 1_555
H12 C13 1_555 1_555
C14 C13 1_555 1_555
H13 C14 1_555 1_555
C15 C14 1_555 1_555
H14 C15 1_555 1_555
C16 C15 1_555 1_555
H15 C16 1_555 1_555
C17 C12 1_555 1_555
C18 C9 1_555 1_555
C19 N3 1_555 1_555
C20 C19 1_555 1_555
H16 C20 1_555 1_555
C21 C20 1_555 1_555
H17 C21 1_555 1_555
C22 C21 1_555 1_555
C23 C22 1_555 1_555
H18 C23 1_555 1_555
C24 C23 1_555 1_555
H19 C24 1_555 1_555
C25 C24 1_555 1_555
H20 C25 1_555 1_555
C26 C25 1_555 1_555
H21 C26 1_555 1_555
C27 C22 1_555 1_555
C28 C18 1_555 1_555
N2 C8 1_555 1_555
N3 C8 1_555 1_555
C5 C6 1_555 1_555
C16 C17 1_555 1_555
C17 C18 1_555 1_555
C19 C28 1_555 1_555
C26 C27 1_555 1_555
C27 C28 1_555 1_555

#END
