
#######################################################################
#
#                 Cambridge Crystallographic Data Centre
#                                CCDC 
#
#######################################################################
#
# If this CIF has been generated from an entry in the Cambridge 
# Structural Database, then it will include bibliographic, chemical, 
# crystal, experimental, refinement or atomic coordinate data resulting 
# from the CCDC's data processing and validation procedures.
#
#######################################################################

data_ABUVEA
_chemical_formula_moiety         'C23 H13 Cl1 N2 O5'
_chemical_name_systematic        
'Methyl 13-chloro-2-methoxy-7,12-dioxo-7,12-dihydronaphtho[2,3-b]phenazine-6-carboxylate'
_symmetry_cell_setting           monoclinic
_symmetry_space_group_name_H-M   'P 21/c'
_symmetry_Int_Tables_number      14
_space_group_name_Hall           '-P 2ybc'
loop_
_symmetry_equiv_pos_site_id
_symmetry_equiv_pos_as_xyz
1 x,y,z
2 -x,1/2+y,1/2-z
3 -x,-y,-z
4 x,1/2-y,1/2+z
_cell_length_a                   8.672(2)
_cell_length_b                   11.450(3)
_cell_length_c                   18.265(5)
_cell_angle_alpha                90
_cell_angle_beta                 95.833(5)
_cell_angle_gamma                90
_cell_volume                     1804.22
_exptl_crystal_colour            yellow
_exptl_crystal_description       cube
_cell_formula_units_Z            4
loop_
_atom_site_label
_atom_site_type_symbol
_atom_site_fract_x
_atom_site_fract_y
_atom_site_fract_z
Cl1 Cl 0.08101(11) 1.21203(7) 0.03388(5)
N1 N 0.1201(3) 1.0418(2) 0.14839(15)
N2 N 0.2620(3) 0.8187(2) 0.14028(15)
O1 O 0.1135(3) 1.1940(2) -0.11779(13)
O2 O 0.4973(3) 0.8263(2) -0.09835(13)
O3 O 0.3241(3) 0.6619(2) -0.01066(13)
O4 O 0.5392(3) 0.73725(19) 0.05115(13)
O5 O 0.0085(3) 0.9435(2) 0.39211(12)
C1 C 0.1723(4) 1.0796(3) 0.02397(19)
C2 C 0.1821(4) 1.0058(3) 0.08767(18)
C3 C 0.2553(4) 0.8947(3) 0.08361(18)
C4 C 0.3268(4) 0.8641(3) 0.01966(18)
C5 C 0.3205(4) 0.9393(3) -0.03922(18)
C6 C 0.2339(4) 1.0469(3) -0.03939(18)
C7 C 0.2098(4) 1.1164(3) -0.10906(19)
C8 C 0.3029(4) 1.0861(3) -0.17046(18)
C9 C 0.4003(4) 0.9887(3) -0.16670(18)
C10 C 0.4123(4) 0.9111(3) -0.10177(19)
C11 C 0.2914(4) 1.1564(3) -0.23314(19)
H1 H 0.2236 1.2218 -0.2363
C12 C 0.3774(4) 1.1318(3) -0.2904(2)
H2 H 0.3698 1.1804 -0.3328
C13 C 0.4754(5) 1.0356(3) -0.2863(2)
H3 H 0.5352 1.0192 -0.3258
C14 C 0.4871(4) 0.9639(3) -0.22568(19)
H4 H 0.5536 0.8978 -0.2237
C15 C 0.1295(4) 0.9678(3) 0.20499(18)
C16 C 0.1986(4) 0.8540(3) 0.20052(18)
C17 C 0.2003(4) 0.7774(3) 0.26203(18)
H5 H 0.2454 0.7020 0.2600
C18 C 0.1384(4) 0.8117(3) 0.32296(19)
H6 H 0.1407 0.7599 0.3637
C19 C 0.0688(4) 0.9245(3) 0.32805(18)
C20 C 0.0662(4) 1.0012(3) 0.27080(18)
H7 H 0.0222 1.0766 0.2748
C21 C -0.0749(5) 1.0500(3) 0.3999(2)
C22 C 0.3958(4) 0.7431(3) 0.01709(18)
C23 C 0.6142(5) 0.6250(3) 0.0459(3)
H8 H -0.164(4) 1.056(3) 0.363(2)
H9 H 0.637(5) 0.616(4) -0.004(3)
H10 H -0.008(4) 1.119(4) 0.397(2)
H11 H 0.707(5) 0.624(4) 0.078(3)
H12 H -0.115(4) 1.048(3) 0.448(2)
H13 H 0.548(4) 0.561(3) 0.0579(19)
loop_
_geom_bond_atom_site_label_1
_geom_bond_atom_site_label_2
_geom_bond_site_symmetry_1
_geom_bond_site_symmetry_2
Cl1 C1 1_555 1_555
N1 C2 1_555 1_555
N2 C3 1_555 1_555
O1 C7 1_555 1_555
O2 C10 1_555 1_555
O3 C22 1_555 1_555
O4 C22 1_555 1_555
O5 C19 1_555 1_555
C1 C2 1_555 1_555
C2 C3 1_555 1_555
C3 C4 1_555 1_555
C4 C5 1_555 1_555
C5 C6 1_555 1_555
C6 C1 1_555 1_555
C7 C6 1_555 1_555
C8 C7 1_555 1_555
C9 C8 1_555 1_555
C10 C5 1_555 1_555
C11 C8 1_555 1_555
H1 C11 1_555 1_555
C12 C11 1_555 1_555
H2 C12 1_555 1_555
C13 C12 1_555 1_555
H3 C13 1_555 1_555
C14 C9 1_555 1_555
H4 C14 1_555 1_555
C15 N1 1_555 1_555
C16 N2 1_555 1_555
C17 C16 1_555 1_555
H5 C17 1_555 1_555
C18 C17 1_555 1_555
H6 C18 1_555 1_555
C19 C18 1_555 1_555
C20 C15 1_555 1_555
H7 C20 1_555 1_555
C21 O5 1_555 1_555
C22 C4 1_555 1_555
C23 O4 1_555 1_555
H8 C21 1_555 1_555
H9 C23 1_555 1_555
H10 C21 1_555 1_555
H11 C23 1_555 1_555
H12 C21 1_555 1_555
H13 C23 1_555 1_555
C9 C10 1_555 1_555
C13 C14 1_555 1_555
C15 C16 1_555 1_555
C19 C20 1_555 1_555

#END
