
#######################################################################
#
#                 Cambridge Crystallographic Data Centre
#                                CCDC 
#
#######################################################################
#
# If this CIF has been generated from an entry in the Cambridge 
# Structural Database, then it will include bibliographic, chemical, 
# crystal, experimental, refinement or atomic coordinate data resulting 
# from the CCDC's data processing and validation procedures.
#
#######################################################################

data_ABUWOM
_chemical_name_common            3-(2'-hydroxybenzylidene)nopinone
_chemical_formula_moiety         'C16 H18 O2'
_chemical_name_systematic        
3-(2-hydroxybenzylidene)-6,6-dimethylbicyclo[3.1.1]heptan-2-one
_symmetry_cell_setting           orthorhombic
_symmetry_space_group_name_H-M   'P 21 21 21'
_symmetry_Int_Tables_number      19
_space_group_name_Hall           'P 2ac 2ab'
loop_
_symmetry_equiv_pos_site_id
_symmetry_equiv_pos_as_xyz
1 x,y,z
2 1/2-x,-y,1/2+z
3 -x,1/2+y,1/2-z
4 1/2+x,1/2-y,-z
_cell_length_a                   8.938(4)
_cell_length_b                   11.742(5)
_cell_length_c                   12.745(6)
_cell_angle_alpha                90
_cell_angle_beta                 90
_cell_angle_gamma                90
_cell_volume                     1337.59
_exptl_crystal_colour            'pale yellow'
_chemical_melting_point          '238.8-238.9 deg.C'
_cell_formula_units_Z            4
_exptl_crystal_recrystallization_method ethanol
loop_
_atom_site_label
_atom_site_type_symbol
_atom_site_fract_x
_atom_site_fract_y
_atom_site_fract_z
C1 C 0.04493(16) 0.86492(11) 0.36392(10)
H1 H 0.1419 0.8936 0.3631
O1 O 0.19446(12) 0.95510(10) 0.53147(9)
C2 C 0.05964(15) 0.93589(11) 0.53906(10)
C3 C -0.00538(16) 0.81763(11) 0.26390(10)
C4 C -0.18418(16) 0.84019(14) 0.48305(11)
H2 H -0.1900 0.7582 0.4910
H3 H -0.2501 0.8622 0.4261
O2 O 0.16350(16) 0.94643(12) 0.18723(9)
H4 H 0.1967 0.9665 0.1302
C5 C -0.02474(15) 0.87396(11) 0.45635(10)
C6 C 0.06262(16) 0.86131(13) 0.17297(11)
C7 C -0.23530(17) 0.89733(14) 0.58418(12)
H5 H -0.3412 0.8866 0.6015
C8 C -0.0762(2) 0.73043(15) 0.06651(13)
H6 H -0.1001 0.7014 0.0007
C9 C 0.02610(19) 0.81824(14) 0.07473(11)
H7 H 0.0703 0.8484 0.0148
C10 C -0.12494(18) 0.87437(14) 0.67559(11)
C11 C -0.03198(18) 0.97647(12) 0.62920(12)
H8 H 0.0191 1.0254 0.6802
C12 C -0.10786(18) 0.72958(13) 0.25229(12)
H9 H -0.1539 0.6996 0.3116
C13 C -0.1816(2) 1.02266(14) 0.58367(15)
H10 H -0.2363 1.0722 0.6309
H11 H -0.1728 1.0559 0.5143
C14 C -0.1433(2) 0.68526(14) 0.15467(13)
H12 H -0.2115 0.6258 0.1486
C15 C -0.1914(3) 0.9072(2) 0.78228(14)
H13 H -0.2478 0.8444 0.8097
H14 H -0.2558 0.9720 0.7739
H15 H -0.1120 0.9259 0.8300
C16 C -0.0493(2) 0.75901(16) 0.68407(15)
H16 H -0.1182 0.7048 0.7132
H17 H 0.0368 0.7651 0.7288
H18 H -0.0187 0.7342 0.6156
loop_
_geom_bond_atom_site_label_1
_geom_bond_atom_site_label_2
_geom_bond_site_symmetry_1
_geom_bond_site_symmetry_2
C1 H1 1_555 1_555
O1 C2 1_555 1_555
C2 C5 1_555 1_555
C3 C1 1_555 1_555
C4 H2 1_555 1_555
H3 C4 1_555 1_555
O2 H4 1_555 1_555
C5 C1 1_555 1_555
C6 C3 1_555 1_555
C7 C4 1_555 1_555
H5 C7 1_555 1_555
C8 H6 1_555 1_555
C9 C6 1_555 1_555
H7 C9 1_555 1_555
C10 C7 1_555 1_555
C11 C2 1_555 1_555
H8 C11 1_555 1_555
C12 C3 1_555 1_555
H9 C12 1_555 1_555
C13 C7 1_555 1_555
H10 C13 1_555 1_555
H11 C13 1_555 1_555
C14 C8 1_555 1_555
H12 C14 1_555 1_555
C15 C10 1_555 1_555
H13 C15 1_555 1_555
H14 C15 1_555 1_555
H15 C15 1_555 1_555
C16 C10 1_555 1_555
H16 C16 1_555 1_555
H17 C16 1_555 1_555
H18 C16 1_555 1_555
C4 C5 1_555 1_555
O2 C6 1_555 1_555
C8 C9 1_555 1_555
C10 C11 1_555 1_555
C11 C13 1_555 1_555
C12 C14 1_555 1_555

#END
