
#######################################################################
#
#                 Cambridge Crystallographic Data Centre
#                                CCDC 
#
#######################################################################
#
# If this CIF has been generated from an entry in the Cambridge 
# Structural Database, then it will include bibliographic, chemical, 
# crystal, experimental, refinement or atomic coordinate data resulting 
# from the CCDC's data processing and validation procedures.
#
#######################################################################

data_ABUWIG
_chemical_formula_moiety         'C28 H21 N2 1+,B1 F4 1-'
_chemical_name_systematic        
"11-methyl-6,7-diphenylpyrido[2',1':2,3]pyrimido[1,6-a]indol-13-ium tetrafluoroborate"
_symmetry_cell_setting           triclinic
_symmetry_space_group_name_H-M   'P -1'
_symmetry_Int_Tables_number      2
_space_group_name_Hall           '-P 1'
loop_
_symmetry_equiv_pos_site_id
_symmetry_equiv_pos_as_xyz
1 x,y,z
2 -x,-y,-z
_cell_length_a                   8.283(13)
_cell_length_b                   9.617(15)
_cell_length_c                   15.51(2)
_cell_angle_alpha                96.05(3)
_cell_angle_beta                 101.76(3)
_cell_angle_gamma                107.07(3)
_cell_volume                     1138.11
_exptl_crystal_colour            red
_exptl_crystal_description       Block
_cell_formula_units_Z            2
loop_
_atom_site_label
_atom_site_type_symbol
_atom_site_fract_x
_atom_site_fract_y
_atom_site_fract_z
N1 N 0.0924(3) 0.3562(3) 0.06550(17)
C1 C 0.1822(4) 0.4783(4) 0.1357(2)
N2 N -0.0713(3) 0.2331(3) 0.15860(17)
C2 C 0.2903(4) 0.5854(4) 0.1042(2)
H1 H 0.3620 0.6776 0.1364
C3 C 0.2735(4) 0.5304(4) 0.0129(2)
C4 C 0.3614(5) 0.5924(5) -0.0505(3)
H2 H 0.4385 0.6886 -0.0364
C5 C 0.3310(5) 0.5086(5) -0.1328(3)
H3 H 0.3875 0.5497 -0.1746
C6 C 0.2161(5) 0.3611(5) -0.1561(2)
C7 C 0.1271(5) 0.3012(4) -0.0958(2)
H4 H 0.0504 0.2048 -0.1102
C8 C 0.1543(4) 0.3885(4) -0.0113(2)
C9 C 0.0331(4) 0.3463(4) 0.2357(2)
C10 C 0.1559(4) 0.4647(4) 0.2234(2)
C11 C -0.0376(4) 0.2386(4) 0.0750(2)
C12 C -0.1411(5) 0.1223(5) 0.0047(2)
H5 H -0.1205 0.1244 -0.0520
C13 C -0.2712(5) 0.0058(5) 0.0171(3)
H6 H -0.3367 -0.0707 -0.0304
C14 C -0.3045(5) 0.0031(5) 0.1016(3)
H7 H -0.3915 -0.0753 0.1118
C15 C -0.2056(5) 0.1191(5) 0.1695(3)
H8 H -0.2311 0.1201 0.2252
C16 C -0.0105(5) 0.3202(4) 0.3224(2)
C17 C 0.0532(6) 0.2305(6) 0.3730(3)
H9 H 0.1300 0.1874 0.3543
C18 C 0.0049(7) 0.2034(6) 0.4511(3)
H10 H 0.0507 0.1436 0.4852
C19 C -0.1099(7) 0.2640(7) 0.4785(3)
H11 H -0.1439 0.2440 0.5307
C20 C -0.1746(8) 0.3538(7) 0.4294(4)
H12 H -0.2522 0.3956 0.4483
C21 C -0.1253(6) 0.3828(6) 0.3521(3)
H13 H -0.1691 0.4449 0.3192
C22 C 0.2796(4) 0.5827(4) 0.2994(2)
C23 C 0.3969(5) 0.5435(5) 0.3627(2)
H14 H 0.3939 0.4456 0.3591
C24 C 0.5179(6) 0.6517(6) 0.4309(3)
H15 H 0.5942 0.6254 0.4738
C25 C 0.5262(6) 0.7973(6) 0.4355(3)
H16 H 0.6085 0.8691 0.4811
C26 C 0.4126(6) 0.8362(5) 0.3728(3)
H17 H 0.4176 0.9345 0.3762
C27 C 0.2904(5) 0.7295(5) 0.3044(3)
H18 H 0.2152 0.7571 0.2615
C28 C 0.1924(6) 0.2677(5) -0.2459(3)
H19 H 0.1117 0.1711 -0.2498
H20 H 0.3027 0.2594 -0.2515
H21 H 0.1480 0.3137 -0.2932
F1 F 0.1564(3) 0.0385(4) 0.2009(2)
B1 B 0.3321(7) 0.1080(6) 0.2213(3)
F2 F 0.4081(4) 0.0060(4) 0.19720(18)
F3 F 0.3583(6) 0.2171(4) 0.1712(2)
F4 F 0.3909(4) 0.1686(4) 0.31045(17)
loop_
_geom_bond_atom_site_label_1
_geom_bond_atom_site_label_2
_geom_bond_site_symmetry_1
_geom_bond_site_symmetry_2
N1 C1 1_555 1_555
C1 C2 1_555 1_555
N2 C9 1_555 1_555
C2 H1 1_555 1_555
C3 C2 1_555 1_555
C4 C3 1_555 1_555
H2 C4 1_555 1_555
C5 C4 1_555 1_555
H3 C5 1_555 1_555
C6 C5 1_555 1_555
C7 C6 1_555 1_555
H4 C7 1_555 1_555
C8 N1 1_555 1_555
C9 C10 1_555 1_555
C10 C1 1_555 1_555
C11 N1 1_555 1_555
C12 C11 1_555 1_555
H5 C12 1_555 1_555
C13 C12 1_555 1_555
H6 C13 1_555 1_555
C14 C13 1_555 1_555
H7 C14 1_555 1_555
C15 N2 1_555 1_555
H8 C15 1_555 1_555
C16 C9 1_555 1_555
C17 C16 1_555 1_555
H9 C17 1_555 1_555
C18 C17 1_555 1_555
H10 C18 1_555 1_555
C19 C18 1_555 1_555
H11 C19 1_555 1_555
C20 C19 1_555 1_555
H12 C20 1_555 1_555
C21 C16 1_555 1_555
H13 C21 1_555 1_555
C22 C10 1_555 1_555
C23 C22 1_555 1_555
H14 C23 1_555 1_555
C24 C23 1_555 1_555
H15 C24 1_555 1_555
C25 C24 1_555 1_555
H16 C25 1_555 1_555
C26 C25 1_555 1_555
H17 C26 1_555 1_555
C27 C22 1_555 1_555
H18 C27 1_555 1_555
C28 C6 1_555 1_555
H19 C28 1_555 1_555
H20 C28 1_555 1_555
H21 C28 1_555 1_555
F1 B1 1_555 1_555
B1 F2 1_555 1_555
F3 B1 1_555 1_555
F4 B1 1_555 1_555
N2 C11 1_555 1_555
C3 C8 1_555 1_555
C7 C8 1_555 1_555
C14 C15 1_555 1_555
C20 C21 1_555 1_555
C26 C27 1_555 1_555

#END
