
#######################################################################
#
#                 Cambridge Crystallographic Data Centre
#                                CCDC 
#
#######################################################################
#
# If this CIF has been generated from an entry in the Cambridge 
# Structural Database, then it will include bibliographic, chemical, 
# crystal, experimental, refinement or atomic coordinate data resulting 
# from the CCDC's data processing and validation procedures.
#
#######################################################################

data_ABUZED
_chemical_formula_moiety         'C14 H12 N6'
_chemical_name_systematic        anti-1,2-bis(Benzotriazol-1-yl)ethane
_symmetry_cell_setting           monoclinic
_symmetry_space_group_name_H-M   'P 21/c'
_symmetry_Int_Tables_number      14
_space_group_name_Hall           '-P 2ybc'
loop_
_symmetry_equiv_pos_site_id
_symmetry_equiv_pos_as_xyz
1 x,y,z
2 x,1/2-y,1/2+z
3 -x,-y,-z
4 -x,1/2+y,1/2-z
_cell_length_a                   7.526(2)
_cell_length_b                   10.836(2)
_cell_length_c                   8.412(2)
_cell_angle_alpha                90
_cell_angle_beta                 116.629(5)
_cell_angle_gamma                90
_cell_volume                     613.246
_exptl_crystal_colour            colorless
_exptl_crystal_description       Block
_cell_formula_units_Z            2
loop_
_atom_site_label
_atom_site_type_symbol
_atom_site_fract_x
_atom_site_fract_y
_atom_site_fract_z
N1 N 0.3295(3) 0.57092(16) 0.2820(2)
N2 N 0.3989(3) 0.66458(18) 0.2187(3)
N3 N 0.2480(3) 0.73226(18) 0.1116(3)
C1 C 0.1284(3) 0.57891(18) 0.2152(2)
C2 C 0.0776(3) 0.68159(19) 0.1052(3)
C3 C -0.1229(3) 0.71619(19) 0.0073(3)
H1 H -0.1599 0.7852 -0.0706
C4 C -0.2618(3) 0.6468(2) 0.0286(3)
H2 H -0.3982 0.6689 -0.0334
C5 C -0.2065(3) 0.5429(2) 0.1410(3)
H3 H -0.3075 0.4964 0.1519
C6 C -0.0136(3) 0.5064(2) 0.2349(3)
H4 H 0.0221 0.4357 0.3095
C7 C 0.4661(3) 0.4806(2) 0.4041(3)
H5 H 0.5832 0.4719 0.3807
H6 H 0.3993 0.3993 0.3838
C7B C 0.5339(3) 0.5194(2) 0.5959(3)
N1B N 0.6705(3) 0.42908(16) 0.7180(2)
N2B N 0.6011(3) 0.33542(18) 0.7813(3)
N3B N 0.7520(3) 0.26774(18) 0.8884(3)
C2B C 0.9224(3) 0.31841(19) 0.8948(3)
C1B C 0.8716(3) 0.42109(18) 0.7848(2)
C6B C 1.0136(3) 0.4936(2) 0.7651(3)
C5B C 1.2065(3) 0.4571(2) 0.8590(3)
C4B C 1.2618(3) 0.3532(2) 0.9714(3)
C3B C 1.1229(3) 0.28381(19) 0.9927(3)
H1B H 1.1599 0.2148 1.0706
H2B H 1.3982 0.3311 1.0334
H3B H 1.3075 0.5036 0.8481
H4B H 0.9779 0.5643 0.6905
H5B H 0.4168 0.5281 0.6193
H6B H 0.6007 0.6007 0.6162
loop_
_geom_bond_atom_site_label_1
_geom_bond_atom_site_label_2
_geom_bond_site_symmetry_1
_geom_bond_site_symmetry_2
N1 N2 1_555 1_555
N2 N3 1_555 1_555
N3 C2 1_555 1_555
C1 N1 1_555 1_555
C2 C1 1_555 1_555
C3 C2 1_555 1_555
H1 C3 1_555 1_555
C4 C3 1_555 1_555
H2 C4 1_555 1_555
C5 C4 1_555 1_555
H3 C5 1_555 1_555
C6 C1 1_555 1_555
H4 C6 1_555 1_555
C7 N1 1_555 1_555
H5 C7 1_555 1_555
H6 C7 1_555 1_555
C7B C7 1_555 1_555
N1B C7B 1_555 1_555
N2B N1B 1_555 1_555
N3B N2B 1_555 1_555
C2B N3B 1_555 1_555
C1B N1B 1_555 1_555
C6B C1B 1_555 1_555
C5B C6B 1_555 1_555
C4B C5B 1_555 1_555
C3B C2B 1_555 1_555
H1B C3B 1_555 1_555
H2B C4B 1_555 1_555
H3B C5B 1_555 1_555
H4B C6B 1_555 1_555
H5B C7B 1_555 1_555
H6B C7B 1_555 1_555
C5 C6 1_555 1_555
C2B C1B 1_555 1_555
C4B C3B 1_555 1_555

#END
