
#######################################################################
#
#                 Cambridge Crystallographic Data Centre
#                                CCDC 
#
#######################################################################
#
# If this CIF has been generated from an entry in the Cambridge 
# Structural Database, then it will include bibliographic, chemical, 
# crystal, experimental, refinement or atomic coordinate data resulting 
# from the CCDC's data processing and validation procedures.
#
#######################################################################

data_ABVPRO
_chemical_formula_moiety         'C20 H16 Br1 N1 O2'
_chemical_name_systematic        
cis-1-Acetyl-4-(1-(p-bromophenyl)-2-phenyl)-vinyl-3-pyrrolin-2-one
_symmetry_cell_setting           monoclinic
_symmetry_space_group_name_H-M   'P 21/c'
_symmetry_Int_Tables_number      14
_space_group_name_Hall           '-P 2ybc'
loop_
_symmetry_equiv_pos_site_id
_symmetry_equiv_pos_as_xyz
1 x,y,z
2 -x,1/2+y,1/2-z
3 -x,-y,-z
4 x,1/2-y,1/2+z
_cell_length_a                   15.15(8)
_cell_length_b                   13.82(8)
_cell_length_c                   8.26(3)
_cell_angle_alpha                90
_cell_angle_beta                 90.5(2)
_cell_angle_gamma                90
_cell_volume                     1729.36
_cell_formula_units_Z            4
loop_
_atom_site_label
_atom_site_type_symbol
_atom_site_fract_x
_atom_site_fract_y
_atom_site_fract_z
Br1 Br 0.09840 0.16750 0.00580
C1 C -0.26240 0.10520 -0.76540
C2 C -0.29120 0.01060 -0.82250
C3 C -0.35480 0.00260 -0.94360
C4 C -0.38840 0.08270 -1.02460
C5 C -0.36240 0.17960 -0.97790
C6 C -0.29990 0.18450 -0.85460
C7 C -0.26900 0.00190 -0.43710
C8 C -0.35480 0.01330 -0.44030
C9 C -0.39810 -0.07410 -0.37270
C10 C 0.00500 0.13090 -0.14760
C11 C -0.24160 -0.09740 -0.36400
C12 C -0.33260 -0.22900 -0.24910
C13 C -0.42760 -0.27040 -0.22370
C14 C 0.02700 0.12270 -0.30740
C15 C -0.04290 0.10500 -0.42070
C16 C -0.12540 0.09280 -0.37770
C17 C -0.14700 0.09960 -0.20720
C18 C -0.07670 0.11860 -0.09260
C19 C -0.20000 0.07220 -0.48450
C20 C -0.20320 0.11600 -0.62680
N1 N -0.32840 -0.13640 -0.32510
O1 O -0.26570 -0.26620 -0.19680
O2 O -0.47650 -0.08980 -0.35010
loop_
_geom_bond_atom_site_label_1
_geom_bond_atom_site_label_2
_geom_bond_site_symmetry_1
_geom_bond_site_symmetry_2
Br1 C10 1_555 1_555
C1 C2 1_555 1_555
C2 C3 1_555 1_555
C3 C4 1_555 1_555
C4 C5 1_555 1_555
C5 C6 1_555 1_555
C6 C1 1_555 1_555
C7 C8 1_555 1_555
C8 C9 1_555 1_555
C9 N1 1_555 1_555
C10 C14 1_555 1_555
C11 C7 1_555 1_555
C12 C13 1_555 1_555
C14 C15 1_555 1_555
C15 C16 1_555 1_555
C16 C17 1_555 1_555
C17 C18 1_555 1_555
C18 C10 1_555 1_555
C19 C7 1_555 1_555
C20 C1 1_555 1_555
N1 C11 1_555 1_555
O1 C12 1_555 1_555
O2 C9 1_555 1_555
C12 N1 1_555 1_555
C16 C19 1_555 1_555
C19 C20 1_555 1_555

#END
