
#######################################################################
#
#                 Cambridge Crystallographic Data Centre
#                                CCDC 
#
#######################################################################
#
# If this CIF has been generated from an entry in the Cambridge 
# Structural Database, then it will include bibliographic, chemical, 
# crystal, experimental, refinement or atomic coordinate data resulting 
# from the CCDC's data processing and validation procedures.
#
#######################################################################

data_ACAFUH
_chemical_formula_moiety         'C20 H24 Br1 N1 O8'
_chemical_name_systematic        
'(2S,3R,4S)-Dimethyl 2-(2-bromophenyl)-4-(2-ethoxy-2-oxoethyl)-3-nitrocyclohexane-1,1-dicarboxylate'
_symmetry_cell_setting           orthorhombic
_symmetry_space_group_name_H-M   'P 21 21 21'
_symmetry_Int_Tables_number      19
_space_group_name_Hall           'P 2ac 2ab'
loop_
_symmetry_equiv_pos_site_id
_symmetry_equiv_pos_as_xyz
1 x,y,z
2 1/2-x,-y,1/2+z
3 -x,1/2+y,1/2-z
4 1/2+x,1/2-y,-z
_cell_length_a                   10.122(6)
_cell_length_b                   10.799(6)
_cell_length_c                   20.017(11)
_cell_angle_alpha                90
_cell_angle_beta                 90
_cell_angle_gamma                90
_cell_volume                     2188.01
_exptl_crystal_colour            colorless
_exptl_crystal_description       block
_cell_formula_units_Z            4
loop_
_atom_site_label
_atom_site_type_symbol
_atom_site_fract_x
_atom_site_fract_y
_atom_site_fract_z
Br1 Br 0.12000(6) 1.04926(7) 0.96620(4)
C1 C 0.2647(6) 1.1395(6) 0.9316(3)
C2 C 0.2551(7) 1.2673(6) 0.9336(3)
H1 H 0.1807 1.3045 0.9520
C3 C 0.3542(7) 1.3386(6) 0.9087(3)
H2 H 0.3477 1.4244 0.9109
C4 C 0.4638(7) 1.2852(6) 0.8804(3)
H3 H 0.5307 1.3344 0.8629
C5 C 0.4737(6) 1.1570(5) 0.8782(3)
H4 H 0.5472 1.1212 0.8582
C6 C 0.3766(6) 1.0808(5) 0.9050(3)
C7 C 0.3870(5) 0.9406(5) 0.9030(2)
H5 H 0.2972 0.9098 0.9105
C8 C 0.4743(5) 0.8802(5) 0.9593(3)
C9 C 0.4781(6) 0.7374(5) 0.9493(3)
H6 H 0.5400 0.7018 0.9808
H7 H 0.3914 0.7036 0.9590
C10 C 0.5179(6) 0.6993(6) 0.8789(3)
H8 H 0.5185 0.6097 0.8759
H9 H 0.6068 0.7285 0.8699
C11 C 0.4236(6) 0.7518(5) 0.8263(3)
H10 H 0.4585 0.7307 0.7821
C12 C 0.4275(5) 0.8924(5) 0.8338(3)
H11 H 0.5180 0.9200 0.8249
C13 C 0.2856(6) 0.6928(6) 0.8332(3)
H12 H 0.2960 0.6068 0.8462
H13 H 0.2381 0.7347 0.8687
C14 C 0.2043(7) 0.6982(6) 0.7709(4)
C15 C -0.0201(8) 0.6950(10) 0.7320(4)
H14 H 0.0180 0.7367 0.6936
H15 H -0.0441 0.6116 0.7187
C16 C -0.1356(10) 0.7606(10) 0.7543(5)
H16 H -0.1586 0.7336 0.7984
H17 H -0.2077 0.7442 0.7244
H18 H -0.1176 0.8479 0.7548
C17 C 0.6186(6) 0.9235(4) 0.9660(3)
C18 C 0.8091(6) 0.9896(7) 0.9094(4)
H19 H 0.8220 1.0491 0.9445
H20 H 0.8327 1.0260 0.8673
H21 H 0.8637 0.9185 0.9175
C19 C 0.4082(6) 0.9049(6) 1.0269(3)
C20 C 0.3614(9) 1.0564(8) 1.1089(4)
H22 H 0.2794 1.0129 1.1143
H23 H 0.3453 1.1439 1.1092
H24 H 0.4198 1.0355 1.1450
N1 N 0.3384(5) 0.9505(5) 0.7823(3)
O1 O 0.2436(5) 0.7051(5) 0.7141(3)
O2 O 0.0764(5) 0.6903(5) 0.7865(2)
O3 O 0.6760(4) 0.9229(4) 1.0174(2)
O4 O 0.6704(3) 0.9518(5) 0.9078(2)
O5 O 0.3470(5) 0.8288(5) 1.0589(2)
O6 O 0.4216(4) 1.0213(4) 1.0462(2)
O7 O 0.3892(5) 0.9903(4) 0.7313(2)
O8 O 0.2194(4) 0.9534(5) 0.7939(2)
loop_
_geom_bond_atom_site_label_1
_geom_bond_atom_site_label_2
_geom_bond_site_symmetry_1
_geom_bond_site_symmetry_2
Br1 C1 1_555 1_555
C1 C2 1_555 1_555
C2 H1 1_555 1_555
C3 C2 1_555 1_555
H2 C3 1_555 1_555
C4 C3 1_555 1_555
H3 C4 1_555 1_555
C5 C4 1_555 1_555
H4 C5 1_555 1_555
C6 C1 1_555 1_555
C7 C6 1_555 1_555
H5 C7 1_555 1_555
C8 C7 1_555 1_555
C9 C8 1_555 1_555
H6 C9 1_555 1_555
H7 C9 1_555 1_555
C10 C9 1_555 1_555
H8 C10 1_555 1_555
H9 C10 1_555 1_555
C11 C10 1_555 1_555
H10 C11 1_555 1_555
C12 C7 1_555 1_555
H11 C12 1_555 1_555
C13 C11 1_555 1_555
H12 C13 1_555 1_555
H13 C13 1_555 1_555
C14 C13 1_555 1_555
C15 H14 1_555 1_555
H15 C15 1_555 1_555
C16 C15 1_555 1_555
H16 C16 1_555 1_555
H17 C16 1_555 1_555
H18 C16 1_555 1_555
C17 C8 1_555 1_555
C18 H19 1_555 1_555
H20 C18 1_555 1_555
H21 C18 1_555 1_555
C19 C8 1_555 1_555
C20 H22 1_555 1_555
H23 C20 1_555 1_555
H24 C20 1_555 1_555
N1 C12 1_555 1_555
O1 C14 1_555 1_555
O2 C14 1_555 1_555
O3 C17 1_555 1_555
O4 C17 1_555 1_555
O5 C19 1_555 1_555
O6 C19 1_555 1_555
O7 N1 1_555 1_555
O8 N1 1_555 1_555
C5 C6 1_555 1_555
C11 C12 1_555 1_555
C15 O2 1_555 1_555
C18 O4 1_555 1_555
C20 O6 1_555 1_555

#END
