
#######################################################################
#
#                 Cambridge Crystallographic Data Centre
#                                CCDC 
#
#######################################################################
#
# If this CIF has been generated from an entry in the Cambridge 
# Structural Database, then it will include bibliographic, chemical, 
# crystal, experimental, refinement or atomic coordinate data resulting 
# from the CCDC's data processing and validation procedures.
#
#######################################################################

data_ACAGIW
_chemical_formula_moiety         'C18 H26 O9'
_chemical_name_systematic        
'trans-Dimethyl (9-(3-ethoxy-3-oxopropyl)-8-oxo-1,4-dioxaspiro[4.5]dec-6-yl)malonate'
_symmetry_cell_setting           monoclinic
_symmetry_space_group_name_H-M   'P 21'
_symmetry_Int_Tables_number      4
_space_group_name_Hall           'P 2yb'
loop_
_symmetry_equiv_pos_site_id
_symmetry_equiv_pos_as_xyz
1 x,y,z
2 -x,1/2+y,-z
_cell_length_a                   7.1862(7)
_cell_length_b                   11.0958(13)
_cell_length_c                   11.8947(11)
_cell_angle_alpha                90
_cell_angle_beta                 104.528(10)
_cell_angle_gamma                90
_cell_volume                     918.117
_exptl_crystal_colour            colorless
_exptl_crystal_description       plate
_chemical_melting_point          '354.9 K'
_cell_formula_units_Z            2
loop_
_atom_site_label
_atom_site_type_symbol
_atom_site_fract_x
_atom_site_fract_y
_atom_site_fract_z
O1 O 0.4500(2) 0.61065(16) 0.46419(12)
O2 O 0.0337(2) 0.58630(17) 0.47766(13)
O3 O 1.0315(2) 0.81942(18) 0.06281(15)
O4 O -0.1788(2) 0.39839(18) 0.21538(16)
O5 O 0.4656(2) 0.5397(2) 0.02511(14)
O6 O 0.2738(2) 0.73849(15) 0.33040(13)
O7 O 1.0072(2) 0.99635(17) 0.15071(14)
O8 O 0.1678(3) 0.40207(17) 0.49612(14)
O9 O 0.1025(3) 0.30142(18) 0.23784(16)
C1 C 0.2503(3) 0.5469(2) 0.14767(17)
H1 H 0.2040 0.4714 0.1097
H2 H 0.1484 0.6059 0.1242
C2 C 0.0984(3) 0.5046(2) 0.30996(17)
H3 H 0.0107 0.5713 0.2796
C3 C 0.7017(3) 0.7282(2) 0.12428(18)
H4 H 0.7925 0.6618 0.1384
H5 H 0.6593 0.7400 0.0410
C4 C 0.1101(3) 0.4905(2) 0.43862(18)
C5 C 0.5287(3) 0.6944(2) 0.17036(18)
H6 H 0.4404 0.7632 0.1564
C6 C 0.2925(3) 0.5291(2) 0.27995(17)
H7 H 0.3745 0.4579 0.3011
C7 C 0.9594(3) 0.8814(2) 0.12432(18)
C8 C 0.4218(3) 0.5880(2) 0.10642(18)
C9 C 0.3173(4) 0.8037(2) 0.43783(19)
H8 H 0.2014 0.8185 0.4634
H9 H 0.3771 0.8804 0.4293
C10 C 1.1651(3) 1.0464(2) 0.1095(2)
H10 H 1.1352 1.1287 0.0835
H11 H 1.1831 0.9996 0.0442
C11 C 0.3983(3) 0.6378(2) 0.34386(17)
C12 C 0.4549(3) 0.7236(2) 0.52384(19)
H12 H 0.5837 0.7571 0.5433
H13 H 0.4126 0.7138 0.5946
C13 C 0.8029(3) 0.8414(2) 0.17970(19)
H14 H 0.7094 0.9057 0.1732
H15 H 0.8582 0.8266 0.2617
C14 C 0.0127(3) 0.3892(2) 0.25052(18)
C15 C 0.5776(3) 0.6672(2) 0.30112(18)
H16 H 0.6656 0.5994 0.3175
H17 H 0.6421 0.7364 0.3434
C16 C -0.2760(4) 0.2960(3) 0.1508(2)
H18 H -0.2377 0.2882 0.0794
H19 H -0.4125 0.3079 0.1340
H20 H -0.2420 0.2240 0.1961
C17 C 0.0278(4) 0.5819(3) 0.5979(2)
H21 H -0.0520 0.5160 0.6093
H22 H -0.0240 0.6561 0.6185
H23 H 0.1556 0.5707 0.6460
C18 C 1.3454(3) 1.0443(3) 0.2054(2)
H24 H 1.4495 1.0769 0.1779
H25 H 1.3748 0.9627 0.2306
H26 H 1.3277 1.0918 0.2694
loop_
_geom_bond_atom_site_label_1
_geom_bond_atom_site_label_2
_geom_bond_site_symmetry_1
_geom_bond_site_symmetry_2
O1 C11 1_555 1_555
O2 C4 1_555 1_555
O3 C7 1_555 1_555
O4 C14 1_555 1_555
O5 C8 1_555 1_555
O6 C9 1_555 1_555
O7 C7 1_555 1_555
O8 C4 1_555 1_555
O9 C14 1_555 1_555
C1 H1 1_555 1_555
H2 C1 1_555 1_555
C2 H3 1_555 1_555
C3 H4 1_555 1_555
H5 C3 1_555 1_555
C4 C2 1_555 1_555
C5 C3 1_555 1_555
H6 C5 1_555 1_555
C6 C1 1_555 1_555
H7 C6 1_555 1_555
C7 C13 1_555 1_555
C8 C1 1_555 1_555
C9 H8 1_555 1_555
H9 C9 1_555 1_555
C10 O7 1_555 1_555
H10 C10 1_555 1_555
H11 C10 1_555 1_555
C11 O6 1_555 1_555
C12 O1 1_555 1_555
H12 C12 1_555 1_555
H13 C12 1_555 1_555
C13 C3 1_555 1_555
H14 C13 1_555 1_555
H15 C13 1_555 1_555
C14 C2 1_555 1_555
C15 C5 1_555 1_555
H16 C15 1_555 1_555
H17 C15 1_555 1_555
C16 O4 1_555 1_555
H18 C16 1_555 1_555
H19 C16 1_555 1_555
H20 C16 1_555 1_555
C17 O2 1_555 1_555
H21 C17 1_555 1_555
H22 C17 1_555 1_555
H23 C17 1_555 1_555
C18 C10 1_555 1_555
H24 C18 1_555 1_555
H25 C18 1_555 1_555
H26 C18 1_555 1_555
C2 C6 1_555 1_555
C5 C8 1_555 1_555
C6 C11 1_555 1_555
C9 C12 1_555 1_555
C11 C15 1_555 1_555

#END
