
#######################################################################
#
#                 Cambridge Crystallographic Data Centre
#                                CCDC 
#
#######################################################################
#
# If this CIF has been generated from an entry in the Cambridge 
# Structural Database, then it will include bibliographic, chemical, 
# crystal, experimental, refinement or atomic coordinate data resulting 
# from the CCDC's data processing and validation procedures.
#
#######################################################################

data_ACAGIX
_chemical_formula_moiety         'C26 H24 O1 Si1'
_chemical_name_systematic        (2-methoxybenzyl)(triphenyl)silane
_symmetry_cell_setting           triclinic
_symmetry_space_group_name_H-M   'P -1'
_symmetry_Int_Tables_number      2
_space_group_name_Hall           '-P 1'
loop_
_symmetry_equiv_pos_site_id
_symmetry_equiv_pos_as_xyz
1 x,y,z
2 -x,-y,-z
_cell_length_a                   7.28601(19)
_cell_length_b                   7.7601(2)
_cell_length_c                   18.8063(4)
_cell_angle_alpha                95.381(2)
_cell_angle_beta                 99.033(2)
_cell_angle_gamma                99.598(2)
_cell_volume                     1027.54
_cell_formula_units_Z            2
loop_
_atom_site_label
_atom_site_type_symbol
_atom_site_fract_x
_atom_site_fract_y
_atom_site_fract_z
Si1 Si 0.60194(5) 0.23369(4) 0.21810(2)
O1 O 0.82832(14) 0.26112(12) 0.41673(5)
C1 C 0.70853(18) 0.09530(16) 0.15425(7)
C2 C 0.76174(18) 0.48250(17) 0.34504(7)
C3 C 0.90963(19) -0.11981(18) 0.13510(8)
H1 H 0.9884 -0.1934 0.1540
C4 C 0.67676(18) 0.10162(17) 0.07926(7)
H2 H 0.5993 0.1758 0.0599
C5 C 0.82805(19) -0.01707(17) 0.18130(7)
H3 H 0.8530 -0.0228 0.2310
C6 C 0.5414(2) 0.50568(17) 0.12906(7)
H4 H 0.6726 0.5324 0.1356
C7 C 0.44065(19) 0.08980(18) 0.26598(7)
C8 C 0.77158(19) 0.42078(17) 0.41301(7)
C9 C 0.45542(19) 0.37055(16) 0.16407(7)
C10 C 0.2575(2) 0.33489(18) 0.15288(7)
H5 H 0.1959 0.2458 0.1752
C11 C 0.7024(2) 0.64265(18) 0.33776(8)
H6 H 0.6947 0.6853 0.2930
C12 C 0.87376(19) -0.11258(18) 0.06109(8)
H7 H 0.9268 -0.1827 0.0302
C13 C 0.3972(2) -0.09296(18) 0.24679(7)
H8 H 0.4563 -0.1442 0.2121
C14 C 0.6669(2) 0.6779(2) 0.46211(8)
H9 H 0.6360 0.7430 0.5011
C15 C 0.1513(2) 0.43046(19) 0.10893(8)
H10 H 0.0200 0.4055 0.1025
C16 C 0.7251(2) 0.51797(19) 0.47150(8)
H11 H 0.7329 0.4765 0.5165
C17 C 0.3469(2) 0.1620(2) 0.31807(7)
H12 H 0.3731 0.2829 0.3321
C18 C 0.2401(2) 0.56251(18) 0.07472(8)
H13 H 0.1688 0.6255 0.0450
C19 C 0.80948(19) 0.37726(18) 0.28127(7)
H14 H 0.8962 0.3029 0.2995
H15 H 0.8755 0.4583 0.2534
C20 C 0.75877(19) -0.00089(18) 0.03301(7)
H16 H 0.7364 0.0056 -0.0166
C21 C 0.4361(2) 0.60055(18) 0.08492(8)
H17 H 0.4966 0.6894 0.0622
C22 C 0.2678(2) -0.1996(2) 0.27831(8)
H18 H 0.2426 -0.3209 0.2653
C23 C 0.2158(2) 0.0559(2) 0.34890(8)
H19 H 0.1541 0.1061 0.3829
C24 C 0.6546(2) 0.74050(19) 0.39569(8)
H20 H 0.6148 0.8468 0.3896
C25 C 0.1767(2) -0.1251(2) 0.32909(8)
H21 H 0.0893 -0.1961 0.3500
C26 C 0.8271(2) 0.1887(2) 0.48362(8)
H22 H 0.8659 0.0764 0.4794
H23 H 0.7017 0.1740 0.4948
H24 H 0.9128 0.2669 0.5216
loop_
_geom_bond_atom_site_label_1
_geom_bond_atom_site_label_2
_geom_bond_site_symmetry_1
_geom_bond_site_symmetry_2
Si1 C1 1_555 1_555
O1 C8 1_555 1_555
C1 C4 1_555 1_555
C2 C8 1_555 1_555
C3 H1 1_555 1_555
C4 H2 1_555 1_555
C5 C1 1_555 1_555
H3 C5 1_555 1_555
C6 H4 1_555 1_555
C7 Si1 1_555 1_555
C8 C16 1_555 1_555
C9 Si1 1_555 1_555
C10 C9 1_555 1_555
H5 C10 1_555 1_555
C11 C2 1_555 1_555
H6 C11 1_555 1_555
C12 C3 1_555 1_555
H7 C12 1_555 1_555
C13 C7 1_555 1_555
H8 C13 1_555 1_555
C14 H9 1_555 1_555
C15 C10 1_555 1_555
H10 C15 1_555 1_555
C16 C14 1_555 1_555
H11 C16 1_555 1_555
C17 C7 1_555 1_555
H12 C17 1_555 1_555
C18 C15 1_555 1_555
H13 C18 1_555 1_555
C19 Si1 1_555 1_555
H14 C19 1_555 1_555
H15 C19 1_555 1_555
C20 C4 1_555 1_555
H16 C20 1_555 1_555
C21 C6 1_555 1_555
H17 C21 1_555 1_555
C22 C13 1_555 1_555
H18 C22 1_555 1_555
C23 C17 1_555 1_555
H19 C23 1_555 1_555
C24 C11 1_555 1_555
H20 C24 1_555 1_555
C25 C22 1_555 1_555
H21 C25 1_555 1_555
C26 O1 1_555 1_555
H22 C26 1_555 1_555
H23 C26 1_555 1_555
H24 C26 1_555 1_555
C2 C19 1_555 1_555
C3 C5 1_555 1_555
C6 C9 1_555 1_555
C12 C20 1_555 1_555
C14 C24 1_555 1_555
C18 C21 1_555 1_555
C23 C25 1_555 1_555

#END
