
#######################################################################
#
#                 Cambridge Crystallographic Data Centre
#                                CCDC 
#
#######################################################################
#
# If this CIF has been generated from an entry in the Cambridge 
# Structural Database, then it will include bibliographic, chemical, 
# crystal, experimental, refinement or atomic coordinate data resulting 
# from the CCDC's data processing and validation procedures.
#
#######################################################################

data_ACAGUJ
_chemical_formula_moiety         'C20 H8 F10 N4 O2,C2 H3 N1'
_chemical_name_systematic        
"N'^1^,N'^3^-bis(pentafluorophenyl)isophthalohydrazide acetonitrile solvate"
_symmetry_cell_setting           triclinic
_symmetry_space_group_name_H-M   'P -1'
_symmetry_Int_Tables_number      2
_space_group_name_Hall           '-P 1'
loop_
_symmetry_equiv_pos_site_id
_symmetry_equiv_pos_as_xyz
1 x,y,z
2 -x,-y,-z
_cell_length_a                   9.1588(9)
_cell_length_b                   10.6738(11)
_cell_length_c                   11.2243(11)
_cell_angle_alpha                96.254(2)
_cell_angle_beta                 90.635(2)
_cell_angle_gamma                93.181(2)
_cell_volume                     1088.91
_exptl_crystal_colour            colorless
_exptl_crystal_description       needle
_cell_formula_units_Z            2
_exptl_crystal_recrystallization_method acetonitrile
loop_
_atom_site_label
_atom_site_type_symbol
_atom_site_fract_x
_atom_site_fract_y
_atom_site_fract_z
C1 C 0.85100(9) 1.51129(8) 1.39940(8)
C2 C 0.79466(10) 1.55755(9) 1.50854(8)
C3 C 0.84540(10) 1.67398(9) 1.56514(8)
C4 C 0.95306(10) 1.74303(9) 1.51077(8)
C5 C 1.00694(9) 1.69621(8) 1.40118(8)
C6 C 0.95854(9) 1.57942(8) 1.34243(7)
N1 N 1.02644(8) 1.52932(8) 1.23742(7)
H1 H 1.0905(15) 1.5871(13) 1.2116(12)
N2 N 0.93183(8) 1.47703(7) 1.14329(7)
H2 H 0.9307(15) 1.3966(11) 1.1275(12)
C7 C 0.84236(9) 1.55211(8) 1.08990(8)
C8 C 0.74101(9) 1.48863(8) 0.99344(7)
C9 C 0.68480(10) 1.56478(8) 0.91169(8)
H3 H 0.7172 1.6512 0.9155
C10 C 0.58194(10) 1.51436(9) 0.82522(8)
H4 H 0.5461 1.5657 0.7686
C11 C 0.53133(10) 1.38859(9) 0.82154(8)
H5 H 0.4584 1.3549 0.7642
C12 C 0.58785(9) 1.31176(8) 0.90230(8)
C13 C 0.69537(9) 1.36102(8) 0.98671(8)
H6 H 0.7370 1.3080 1.0391
C14 C 0.53408(9) 1.17670(8) 0.90057(7)
N3 N 0.38825(8) 1.15538(7) 0.87942(7)
H7 H 0.3313(16) 1.2145(13) 0.8813(12)
N4 N 0.32562(8) 1.03074(7) 0.86293(7)
H8 H 0.3566(15) 0.9896(12) 0.9196(11)
C15 C 0.34984(9) 0.97094(8) 0.74689(8)
C16 C 0.30321(9) 1.02409(8) 0.64561(8)
C17 C 0.32307(10) 0.96768(9) 0.53039(8)
C18 C 0.38897(10) 0.85363(9) 0.51280(8)
C19 C 0.43393(10) 0.79746(8) 0.61145(8)
C20 C 0.41527(9) 0.85608(8) 0.72608(8)
F1 F 0.80350(7) 1.39540(5) 1.35014(5)
F2 F 0.69569(7) 1.48637(6) 1.56163(5)
F3 F 0.79276(7) 1.71894(6) 1.67080(5)
F4 F 1.00318(7) 1.85636(6) 1.56274(6)
F5 F 1.10928(6) 1.76638(6) 1.34924(6)
O1 O 0.84438(7) 1.66684(6) 1.11990(6)
O2 O 0.61520(7) 1.09168(6) 0.91683(6)
F6 F 0.23663(7) 1.13367(6) 0.65924(6)
F7 F 0.27899(7) 1.02347(6) 0.43596(5)
F8 F 0.41231(7) 0.79963(6) 0.40190(5)
F9 F 0.49911(7) 0.68780(6) 0.59482(6)
F10 F 0.46345(7) 0.80022(6) 0.81968(5)
N5 N 0.03687(11) 0.79870(9) 0.87434(9)
C21 C -0.00286(11) 0.89413(10) 0.85455(9)
C22 C -0.05406(11) 1.01546(10) 0.82860(10)
H9 H 0.0188 1.0829 0.8576
H10 H -0.1469 1.0302 0.8689
H11 H -0.0684 1.0148 0.7419
loop_
_geom_bond_atom_site_label_1
_geom_bond_atom_site_label_2
_geom_bond_site_symmetry_1
_geom_bond_site_symmetry_2
C1 C2 1_555 1_555
C2 C3 1_555 1_555
C3 C4 1_555 1_555
C4 C5 1_555 1_555
C5 C6 1_555 1_555
C6 C1 1_555 1_555
N1 C6 1_555 1_555
H1 N1 1_555 1_555
N2 N1 1_555 1_555
H2 N2 1_555 1_555
C7 N2 1_555 1_555
C8 C7 1_555 1_555
C9 C8 1_555 1_555
H3 C9 1_555 1_555
C10 C9 1_555 1_555
H4 C10 1_555 1_555
C11 C10 1_555 1_555
H5 C11 1_555 1_555
C12 C11 1_555 1_555
C13 C8 1_555 1_555
H6 C13 1_555 1_555
C14 C12 1_555 1_555
N3 C14 1_555 1_555
H7 N3 1_555 1_555
N4 N3 1_555 1_555
H8 N4 1_555 1_555
C15 N4 1_555 1_555
C16 C15 1_555 1_555
C17 C16 1_555 1_555
C18 C17 1_555 1_555
C19 C18 1_555 1_555
C20 C15 1_555 1_555
F1 C1 1_555 1_555
F2 C2 1_555 1_555
F3 C3 1_555 1_555
F4 C4 1_555 1_555
F5 C5 1_555 1_555
O1 C7 1_555 1_555
O2 C14 1_555 1_555
F6 C16 1_555 1_555
F7 C17 1_555 1_555
F8 C18 1_555 1_555
F9 C19 1_555 1_555
F10 C20 1_555 1_555
N5 C21 1_555 1_555
C21 C22 1_555 1_555
C22 H9 1_555 1_555
H10 C22 1_555 1_555
H11 C22 1_555 1_555
C12 C13 1_555 1_555
C19 C20 1_555 1_555

#END
