
#######################################################################
#
#                 Cambridge Crystallographic Data Centre
#                                CCDC 
#
#######################################################################
#
# If this CIF has been generated from an entry in the Cambridge 
# Structural Database, then it will include bibliographic, chemical, 
# crystal, experimental, refinement or atomic coordinate data resulting 
# from the CCDC's data processing and validation procedures.
#
#######################################################################

data_ACAKOE
_chemical_formula_moiety         'C19 H23 N1 O1'
_chemical_name_systematic        'N-2,6-dimethylphenyl 4-t-butylbenzamide'
_symmetry_cell_setting           orthorhombic
_symmetry_space_group_name_H-M   'P 21 21 21'
_symmetry_Int_Tables_number      19
_space_group_name_Hall           'P 2ac 2ab'
loop_
_symmetry_equiv_pos_site_id
_symmetry_equiv_pos_as_xyz
1 x,y,z
2 1/2-x,-y,1/2+z
3 1/2+x,1/2-y,-z
4 -x,1/2+y,1/2-z
_cell_length_a                   9.7512(14)
_cell_length_b                   28.576(4)
_cell_length_c                   6.0247(7)
_cell_angle_alpha                90
_cell_angle_beta                 90
_cell_angle_gamma                90
_cell_volume                     1678.78
_cell_formula_units_Z            4
loop_
_atom_site_label
_atom_site_type_symbol
_atom_site_fract_x
_atom_site_fract_y
_atom_site_fract_z
O1 O 0.7112(2) 0.24375(5) -0.1159(3)
N1 N 0.4970(2) 0.26773(6) -0.0262(4)
C1 C 0.5993(2) 0.34512(8) 0.0297(5)
C2 C 0.6076(3) 0.39200(10) -0.0389(8)
C3 C 0.5372(4) 0.40775(10) -0.2219(8)
C4 C 0.4575(3) 0.37797(11) -0.3423(6)
C5 C 0.4454(3) 0.33082(9) -0.2832(5)
C6 C 0.5156(2) 0.31544(7) -0.0961(4)
C7 C 0.6785(3) 0.32863(13) 0.2274(6)
C8 C 0.3600(4) 0.29843(13) -0.4194(6)
C9 C 0.5966(2) 0.23489(8) -0.0386(4)
C10 C 0.5632(2) 0.18752(7) 0.0521(4)
C11 C 0.4613(3) 0.17938(9) 0.2047(5)
C12 C 0.4415(3) 0.13497(9) 0.2935(5)
C13 C 0.5231(2) 0.09730(8) 0.2321(4)
C14 C 0.6232(3) 0.10579(8) 0.0743(5)
C15 C 0.6452(3) 0.14986(8) -0.0149(5)
C16 C 0.5057(3) 0.04842(8) 0.3341(5)
C17 C 0.6384(4) 0.03430(14) 0.4493(8)
C18 C 0.4736(6) 0.01361(12) 0.1497(8)
C19 C 0.3914(4) 0.04701(14) 0.5078(9)
H1 H 0.6695(36) 0.4128(12) 0.0598(70)
H2 H 0.5447(33) 0.4428(13) -0.2733(63)
H3 H 0.4031(36) 0.3868(12) -0.4871(72)
H4 H 0.7651(54) 0.3145(17) 0.189(10)
H5 H 0.6848(49) 0.3530(16) 0.357(10)
H6 H 0.6419(54) 0.2983(17) 0.309(10)
H7 H 0.4224(48) 0.2674(15) -0.4572(85)
H8 H 0.2813(48) 0.2807(15) -0.3376(89)
H9 H 0.3445(47) 0.3082(15) -0.5729(90)
H10 H 0.4167(28) 0.2596(9) 0.0185(46)
H11 H 0.3987(30) 0.2062(11) 0.2616(57)
H12 H 0.3681(31) 0.1295(10) 0.4009(62)
H13 H 0.6927(32) 0.0791(11) 0.0170(58)
H14 H 0.7137(32) 0.1565(10) -0.1286(61)
H15 H 0.6583(45) 0.0586(14) 0.5940(88)
H16 H 0.7160(47) 0.0315(14) 0.3164(88)
H17 H 0.6301(41) -0.0033(15) 0.5016(83)
H18 H 0.5658(44) 0.0126(17) 0.0129(91)
H19 H 0.4706(47) -0.0182(17) 0.2182(82)
H20 H 0.3665(49) 0.0220(16) 0.0801(95)
H21 H 0.4216(37) 0.0722(14) 0.6211(74)
H22 H 0.2945(40) 0.0555(12) 0.4217(69)
H23 H 0.3829(36) 0.0149(14) 0.5802(73)
loop_
_geom_bond_atom_site_label_1
_geom_bond_atom_site_label_2
_geom_bond_site_symmetry_1
_geom_bond_site_symmetry_2
O1 C9 1_555 1_555
N1 C6 1_555 1_555
C1 C2 1_555 1_555
C2 C3 1_555 1_555
C3 C4 1_555 1_555
C4 C5 1_555 1_555
C5 C6 1_555 1_555
C6 C1 1_555 1_555
C7 C1 1_555 1_555
C8 C5 1_555 1_555
C9 N1 1_555 1_555
C10 C9 1_555 1_555
C11 C10 1_555 1_555
C12 C11 1_555 1_555
C13 C12 1_555 1_555
C14 C13 1_555 1_555
C15 C10 1_555 1_555
C16 C13 1_555 1_555
C17 C16 1_555 1_555
C18 C16 1_555 1_555
C19 C16 1_555 1_555
H1 C2 1_555 1_555
H2 C3 1_555 1_555
H3 C4 1_555 1_555
H4 C7 1_555 1_555
H5 C7 1_555 1_555
H6 C7 1_555 1_555
H7 C8 1_555 1_555
H8 C8 1_555 1_555
H9 C8 1_555 1_555
H10 N1 1_555 1_555
H11 C11 1_555 1_555
H12 C12 1_555 1_555
H13 C14 1_555 1_555
H14 C15 1_555 1_555
H15 C17 1_555 1_555
H16 C17 1_555 1_555
H17 C17 1_555 1_555
H18 C18 1_555 1_555
H19 C18 1_555 1_555
H20 C18 1_555 1_555
H21 C19 1_555 1_555
H22 C19 1_555 1_555
H23 C19 1_555 1_555
C14 C15 1_555 1_555

#END
