
#######################################################################
#
#                 Cambridge Crystallographic Data Centre
#                                CCDC 
#
#######################################################################
#
# If this CIF has been generated from an entry in the Cambridge 
# Structural Database, then it will include bibliographic, chemical, 
# crystal, experimental, refinement or atomic coordinate data resulting 
# from the CCDC's data processing and validation procedures.
#
#######################################################################

data_ACAKUK
_chemical_formula_moiety         'C21 H27 N1 O1'
_chemical_name_systematic        'N-2,6-diethylphenyl 4-t-butylbenzamide'
_symmetry_cell_setting           orthorhombic
_symmetry_space_group_name_H-M   'P n a 21'
_symmetry_Int_Tables_number      33
_space_group_name_Hall           'P 2c -2n'
loop_
_symmetry_equiv_pos_site_id
_symmetry_equiv_pos_as_xyz
1 x,y,z
2 -x,-y,1/2+z
3 1/2-x,1/2+y,1/2+z
4 1/2+x,1/2-y,z
_cell_length_a                   27.4017(6)
_cell_length_b                   20.5783(3)
_cell_length_c                   9.9928(3)
_cell_angle_alpha                90
_cell_angle_beta                 90
_cell_angle_gamma                90
_cell_volume                     5634.74
_cell_formula_units_Z            12
loop_
_atom_site_label
_atom_site_type_symbol
_atom_site_fract_x
_atom_site_fract_y
_atom_site_fract_z
O1 O 0.4882(7) 0.4962(9) 0.246(2)
N1 N 0.5069(4) 0.4862(5) 0.4825(13)
H1 H 0.5036 0.5046 0.5615
C1 C 0.5839(4) 0.4312(5) 0.4522(13)
C2 C 0.6106(4) 0.3738(5) 0.4457(13)
H2 H 0.6452 0.3754 0.4383
C3 C 0.5868(4) 0.3142(5) 0.4501(13)
H3 H 0.6051 0.2751 0.4457
C4 C 0.5363(4) 0.3120(5) 0.4608(13)
H4 H 0.5200 0.2712 0.4638
C5 C 0.5095(4) 0.3693(5) 0.4673(13)
C6 C 0.5333(4) 0.4289(5) 0.4629(13)
C7 C 0.4849(4) 0.5135(6) 0.3597(18)
C8 C 0.4541(4) 0.5732(6) 0.4052(18)
C9 C 0.4445(4) 0.5903(6) 0.5372(18)
H5 H 0.4567 0.5642 0.6082
C10 C 0.4170(4) 0.6454(6) 0.5652(18)
H6 H 0.4104 0.6570 0.6554
C11 C 0.3991(4) 0.6835(6) 0.4613(18)
C12 C 0.4088(4) 0.6664(6) 0.3293(18)
H7 H 0.3966 0.6925 0.2583
C13 C 0.4363(4) 0.6113(6) 0.3012(18)
H8 H 0.4429 0.5997 0.2110
C14 C 0.6096(13) 0.4950(13) 0.4475(15)
H9 H 0.5852 0.5303 0.4398
H10 H 0.6278 0.5015 0.5321
C15 C 0.644(3) 0.499(4) 0.334(7)
H11 H 0.6768 0.4873 0.3638
H12 H 0.6442 0.5434 0.2982
H13 H 0.6336 0.4689 0.2631
C16 C 0.4561(7) 0.3639(12) 0.4784(15)
H14 H 0.4446 0.3243 0.4321
H15 H 0.4403 0.4021 0.4366
C17 C 0.4435(15) 0.3607(19) 0.624(3)
H16 H 0.4089 0.3711 0.6357
H17 H 0.4634 0.3921 0.6733
H18 H 0.4500 0.3168 0.6575
C18 C 0.3697(6) 0.7423(10) 0.493(4)
C19 C 0.3186(14) 0.716(3) 0.512(7)
H19 H 0.3075 0.6954 0.4291
H20 H 0.2965 0.7515 0.5356
H21 H 0.3187 0.6836 0.5844
C20 C 0.390(2) 0.778(3) 0.614(5)
H22 H 0.4065 0.7466 0.6733
H23 H 0.3634 0.7988 0.6631
H24 H 0.4135 0.8108 0.5848
C21 C 0.3648(19) 0.790(2) 0.379(5)
H25 H 0.3973 0.8047 0.3523
H26 H 0.3452 0.8269 0.4082
H27 H 0.3489 0.7683 0.3034
O2 O 0.3282(9) 0.2827(12) 0.727(3)
N2 N 0.3403(4) 0.2713(5) 0.9840(14)
H28 H 0.3308 0.2819 1.0652
C22 C 0.4273(4) 0.2482(5) 0.9634(14)
C23 C 0.4662(4) 0.2052(5) 0.9559(14)
H29 H 0.4988 0.2211 0.9588
C24 C 0.4576(4) 0.1389(5) 0.9442(14)
H30 H 0.4843 0.1095 0.9391
C25 C 0.4100(4) 0.1156(5) 0.9400(14)
H31 H 0.4042 0.0703 0.9320
C26 C 0.3711(4) 0.1586(5) 0.9476(14)
C27 C 0.3797(4) 0.2250(5) 0.9593(14)
C28 C 0.3194(4) 0.2969(5) 0.8722(18)
C29 C 0.2815(4) 0.3478(5) 0.9108(18)
C30 C 0.2679(4) 0.3611(5) 1.0419(18)
H32 H 0.2825 0.3380 1.1137
C31 C 0.2328(4) 0.4082(5) 1.0680(18)
H33 H 0.2235 0.4173 1.1577
C32 C 0.2114(4) 0.4421(5) 0.9630(18)
C33 C 0.2250(4) 0.4288(5) 0.8318(18)
H34 H 0.2103 0.4519 0.7600
C34 C 0.2600(4) 0.3816(5) 0.8057(18)
H35 H 0.2693 0.3725 0.7161
C35 C 0.4357(12) 0.3215(10) 0.9761(15)
H36 H 0.4660 0.3337 0.9282
H37 H 0.4081 0.3452 0.9343
C36 C 0.4398(17) 0.341(2) 1.121(3)
H38 H 0.4415 0.3013 1.1767
H39 H 0.4112 0.3662 1.1473
H40 H 0.4695 0.3664 1.1346
C37 C 0.3216(11) 0.1289(16) 0.9418(16)
H41 H 0.2999 0.1592 0.8933
H42 H 0.3239 0.0888 0.8874
C38 C 0.2980(19) 0.112(3) 1.069(4)
H43 H 0.2625 0.1103 1.0560
H44 H 0.3058 0.1450 1.1362
H45 H 0.3097 0.0695 1.0991
C39 C 0.1733(7) 0.4936(10) 0.987(4)
C40 C 0.196(2) 0.554(2) 0.928(7)
H46 H 0.1708 0.5782 0.8768
H47 H 0.2226 0.5424 0.8678
H48 H 0.2082 0.5821 0.9997
C41 C 0.1353(17) 0.480(2) 0.881(5)
H49 H 0.1092 0.4530 0.9190
H50 H 0.1506 0.4565 0.8061
H51 H 0.1216 0.5209 0.8484
C42 C 0.1520(19) 0.500(3) 1.125(4)
H52 H 0.1307 0.4632 1.1442
H53 H 0.1330 0.5407 1.1307
H54 H 0.1785 0.5017 1.1914
O3 O 0.3304(8) 0.2650(11) 1.236(3)
N3 N 0.3212(5) 0.2875(6) 1.4836(12)
H55 H 0.3338 0.2820 1.5638
C43 C 0.2817(5) 0.3921(6) 1.4429(12)
C44 C 0.2394(5) 0.4295(6) 1.4390(12)
H56 H 0.2416 0.4754 1.4310
C45 C 0.1940(5) 0.3997(6) 1.4466(12)
H57 H 0.1651 0.4252 1.4439
C46 C 0.1908(5) 0.3325(6) 1.4582(12)
H58 H 0.1597 0.3122 1.4634
C47 C 0.2330(5) 0.2951(6) 1.4622(12)
C48 C 0.2784(5) 0.3249(6) 1.4545(12)
C49 C 0.3396(5) 0.2616(5) 1.368(2)
C50 C 0.3830(5) 0.2163(5) 1.410(2)
C51 C 0.3966(5) 0.2041(5) 1.541(2)
H59 H 0.3779 0.2215 1.6130
C52 C 0.4375(5) 0.1663(5) 1.568(2)
H60 H 0.4468 0.1580 1.6582
C53 C 0.4648(5) 0.1407(5) 1.464(2)
C54 C 0.4512(5) 0.1529(5) 1.332(2)
H61 H 0.4698 0.1355 1.2603
C55 C 0.4102(5) 0.1907(5) 1.305(2)
H62 H 0.4009 0.1990 1.2151
C56 C 0.3298(10) 0.4251(19) 1.4345(14)
H63 H 0.3332 0.4462 1.3459
H64 H 0.3562 0.3927 1.4439
C57 C 0.334(3) 0.476(3) 1.543(6)
H65 H 0.3584 0.5083 1.5166
H66 H 0.3449 0.4546 1.6264
H67 H 0.3026 0.4965 1.5574
C58 C 0.2265(13) 0.2241(12) 1.4742(14)
H68 H 0.1937 0.2123 1.4404
H69 H 0.2509 0.2020 1.4173
C59 C 0.231(2) 0.201(3) 1.612(4)
H70 H 0.2420 0.1554 1.6107
H71 H 0.2000 0.2044 1.6575
H72 H 0.2558 0.2272 1.6586
C60 C 0.5087(7) 0.1003(7) 1.493(4)
C61 C 0.5464(14) 0.131(2) 1.582(4)
H73 H 0.5577 0.0994 1.6482
H74 H 0.5319 0.1685 1.6285
H75 H 0.5741 0.1460 1.5280
C62 C 0.4988(16) 0.0407(16) 1.572(4)
H76 H 0.5294 0.0247 1.6112
H77 H 0.4849 0.0072 1.5140
H78 H 0.4757 0.0508 1.6442
C63 C 0.539(2) 0.092(3) 1.366(5)
H79 H 0.5734 0.0871 1.3901
H80 H 0.5350 0.1308 1.3096
H81 H 0.5278 0.0537 1.3174
loop_
_geom_bond_atom_site_label_1
_geom_bond_atom_site_label_2
_geom_bond_site_symmetry_1
_geom_bond_site_symmetry_2
O1 C7 1_555 1_555
N1 H1 1_555 1_555
C1 C2 1_555 1_555
C2 H2 1_555 1_555
C3 C2 1_555 1_555
H3 C3 1_555 1_555
C4 C3 1_555 1_555
H4 C4 1_555 1_555
C5 C4 1_555 1_555
C6 N1 1_555 1_555
C7 N1 1_555 1_555
C8 C7 1_555 1_555
C9 C8 1_555 1_555
H5 C9 1_555 1_555
C10 C9 1_555 1_555
H6 C10 1_555 1_555
C11 C10 1_555 1_555
C12 C11 1_555 1_555
H7 C12 1_555 1_555
C13 C8 1_555 1_555
H8 C13 1_555 1_555
C14 C1 1_555 1_555
H9 C14 1_555 1_555
H10 C14 1_555 1_555
C15 C14 1_555 1_555
H11 C15 1_555 1_555
H12 C15 1_555 1_555
H13 C15 1_555 1_555
C16 C5 1_555 1_555
H14 C16 1_555 1_555
H15 C16 1_555 1_555
C17 C16 1_555 1_555
H16 C17 1_555 1_555
H17 C17 1_555 1_555
H18 C17 1_555 1_555
C18 C11 1_555 1_555
C19 C18 1_555 1_555
H19 C19 1_555 1_555
H20 C19 1_555 1_555
H21 C19 1_555 1_555
C20 C18 1_555 1_555
H22 C20 1_555 1_555
H23 C20 1_555 1_555
H24 C20 1_555 1_555
C21 C18 1_555 1_555
H25 C21 1_555 1_555
H26 C21 1_555 1_555
H27 C21 1_555 1_555
O2 C28 1_555 1_555
N2 H28 1_555 1_555
C22 C23 1_555 1_555
C23 H29 1_555 1_555
C24 C23 1_555 1_555
H30 C24 1_555 1_555
C25 C24 1_555 1_555
H31 C25 1_555 1_555
C26 C25 1_555 1_555
C27 N2 1_555 1_555
C28 N2 1_555 1_555
C29 C28 1_555 1_555
C30 C29 1_555 1_555
H32 C30 1_555 1_555
C31 C30 1_555 1_555
H33 C31 1_555 1_555
C32 C31 1_555 1_555
C33 C32 1_555 1_555
H34 C33 1_555 1_555
C34 C29 1_555 1_555
H35 C34 1_555 1_555
C35 C22 1_555 1_555
H36 C35 1_555 1_555
H37 C35 1_555 1_555
C36 C35 1_555 1_555
H38 C36 1_555 1_555
H39 C36 1_555 1_555
H40 C36 1_555 1_555
C37 C26 1_555 1_555
H41 C37 1_555 1_555
H42 C37 1_555 1_555
C38 C37 1_555 1_555
H43 C38 1_555 1_555
H44 C38 1_555 1_555
H45 C38 1_555 1_555
C39 C32 1_555 1_555
C40 C39 1_555 1_555
H46 C40 1_555 1_555
H47 C40 1_555 1_555
H48 C40 1_555 1_555
C41 C39 1_555 1_555
H49 C41 1_555 1_555
H50 C41 1_555 1_555
H51 C41 1_555 1_555
C42 C39 1_555 1_555
H52 C42 1_555 1_555
H53 C42 1_555 1_555
H54 C42 1_555 1_555
O3 C49 1_555 1_555
N3 H55 1_555 1_555
C43 C44 1_555 1_555
C44 H56 1_555 1_555
C45 C44 1_555 1_555
H57 C45 1_555 1_555
C46 C45 1_555 1_555
H58 C46 1_555 1_555
C47 C46 1_555 1_555
C48 N3 1_555 1_555
C49 N3 1_555 1_555
C50 C49 1_555 1_555
C51 C50 1_555 1_555
H59 C51 1_555 1_555
C52 C51 1_555 1_555
H60 C52 1_555 1_555
C53 C52 1_555 1_555
C54 C53 1_555 1_555
H61 C54 1_555 1_555
C55 C50 1_555 1_555
H62 C55 1_555 1_555
C56 C43 1_555 1_555
H63 C56 1_555 1_555
H64 C56 1_555 1_555
C57 C56 1_555 1_555
H65 C57 1_555 1_555
H66 C57 1_555 1_555
H67 C57 1_555 1_555
C58 C47 1_555 1_555
H68 C58 1_555 1_555
H69 C58 1_555 1_555
C59 C58 1_555 1_555
H70 C59 1_555 1_555
H71 C59 1_555 1_555
H72 C59 1_555 1_555
C60 C53 1_555 1_555
C61 C60 1_555 1_555
H73 C61 1_555 1_555
H74 C61 1_555 1_555
H75 C61 1_555 1_555
C62 C60 1_555 1_555
H76 C62 1_555 1_555
H77 C62 1_555 1_555
H78 C62 1_555 1_555
C63 C60 1_555 1_555
H79 C63 1_555 1_555
H80 C63 1_555 1_555
H81 C63 1_555 1_555
C1 C6 1_555 1_555
C5 C6 1_555 1_555
C12 C13 1_555 1_555
C22 C27 1_555 1_555
C26 C27 1_555 1_555
C33 C34 1_555 1_555
C43 C48 1_555 1_555
C47 C48 1_555 1_555
C54 C55 1_555 1_555

#END
