
#######################################################################
#
#                 Cambridge Crystallographic Data Centre
#                                CCDC 
#
#######################################################################
#
# If this CIF has been generated from an entry in the Cambridge 
# Structural Database, then it will include bibliographic, chemical, 
# crystal, experimental, refinement or atomic coordinate data resulting 
# from the CCDC's data processing and validation procedures.
#
#######################################################################

data_ACALOF
_chemical_formula_moiety         'C19 H22 N2 O3'
_chemical_name_systematic        'N-2,6-diisopropylphenyl 4-nitrobenzamide'
_symmetry_cell_setting           monoclinic
_symmetry_space_group_name_H-M   'P 21/n'
_symmetry_Int_Tables_number      14
_space_group_name_Hall           '-P 2yn'
loop_
_symmetry_equiv_pos_site_id
_symmetry_equiv_pos_as_xyz
1 x,y,z
2 1/2+x,1/2-y,1/2+z
3 -x,-y,-z
4 1/2-x,1/2+y,1/2-z
_cell_length_a                   19.197(3)
_cell_length_b                   9.7545(15)
_cell_length_c                   19.767(3)
_cell_angle_alpha                90
_cell_angle_beta                 90.374(3)
_cell_angle_gamma                90
_cell_volume                     3701.43
_exptl_crystal_colour            colorless
_exptl_crystal_description       block
_cell_formula_units_Z            8
loop_
_atom_site_label
_atom_site_type_symbol
_atom_site_fract_x
_atom_site_fract_y
_atom_site_fract_z
N1 N 0.23824(12) 0.7438(2) 0.24863(11)
H1 H 0.2523 0.8284 0.2414
N2 N 0.50692(13) 0.7532(3) 0.05142(12)
O1 O 0.25774(12) 0.52146(19) 0.23120(13)
O2 O 0.52701(13) 0.8710(2) 0.04383(13)
O3 O 0.53405(13) 0.6558(2) 0.02337(12)
C1 C 0.27489(15) 0.6418(3) 0.22227(14)
C2 C 0.33607(14) 0.6771(2) 0.17844(13)
C3 C 0.37244(16) 0.5691(3) 0.14971(15)
H2 H 0.3589 0.4774 0.1592
C4 C 0.42828(15) 0.5934(3) 0.10731(14)
H3 H 0.4527 0.5197 0.0869
C5 C 0.44743(15) 0.7277(3) 0.09542(13)
C6 C 0.41286(16) 0.8358(3) 0.12333(14)
H4 H 0.4273 0.9271 0.1142
C7 C 0.35662(15) 0.8115(3) 0.16511(14)
H5 H 0.3321 0.8861 0.1846
C8 C 0.17694(14) 0.7232(2) 0.28821(13)
C9 C 0.11211(16) 0.7247(3) 0.25474(15)
C10 C 0.05321(17) 0.7152(3) 0.29524(17)
H6 H 0.0084 0.7168 0.2746
C11 C 0.05838(18) 0.7036(3) 0.36447(17)
H7 H 0.0173 0.6987 0.3910
C12 C 0.12230(18) 0.6991(3) 0.39526(15)
H8 H 0.1252 0.6895 0.4430
C13 C 0.18297(15) 0.7083(3) 0.35796(14)
C14 C 0.25369(19) 0.7076(3) 0.39307(16)
H9 H 0.2897 0.7021 0.3568
C15 C 0.2663(3) 0.8400(4) 0.4311(3)
H10 H 0.2599 0.9178 0.4003
H11 H 0.3139 0.8407 0.4492
H12 H 0.2331 0.8472 0.4684
C16 C 0.2637(3) 0.5836(4) 0.4381(3)
H13 H 0.2558 0.5000 0.4116
H14 H 0.2304 0.5873 0.4754
H15 H 0.3113 0.5832 0.4563
C17 C 0.10559(18) 0.7371(3) 0.17831(16)
H16 H 0.1537 0.7331 0.1594
C18 C 0.0745(3) 0.8729(4) 0.1576(2)
H17 H 0.0714 0.8776 0.1081
H18 H 0.1041 0.9475 0.1743
H19 H 0.0278 0.8818 0.1769
C19 C 0.0651(2) 0.6180(4) 0.14845(18)
H20 H 0.0622 0.6285 0.0992
H21 H 0.0181 0.6166 0.1674
H22 H 0.0890 0.5319 0.1594
N3 N 0.75369(12) 0.2701(2) 0.23238(11)
H23 H 0.7539 0.1880 0.2508
N4 N 0.55608(13) 0.2591(3) 0.49800(12)
O4 O 0.71995(11) 0.49041(17) 0.24180(10)
O5 O 0.54532(13) 0.1412(2) 0.51460(12)
O6 O 0.53283(14) 0.3567(2) 0.52858(12)
C20 C 0.71958(15) 0.3713(3) 0.26380(14)
C21 C 0.67890(14) 0.3359(2) 0.32610(13)
C22 C 0.67107(17) 0.2027(3) 0.34998(14)
H24 H 0.6932 0.1286 0.3276
C23 C 0.63063(17) 0.1788(3) 0.40682(15)
H25 H 0.6253 0.0883 0.4238
C24 C 0.59872(14) 0.2858(3) 0.43791(13)
C25 C 0.60620(16) 0.4195(3) 0.41548(15)
H26 H 0.5843 0.4933 0.4384
C26 C 0.64574(16) 0.4419(3) 0.35976(15)
H27 H 0.6508 0.5330 0.3434
C27 C 0.78986(15) 0.2905(2) 0.16991(13)
C28 C 0.75147(16) 0.2947(3) 0.10946(14)
C29 C 0.78810(18) 0.3105(3) 0.04960(15)
H28 H 0.7634 0.3158 0.0079
C30 C 0.85984(19) 0.3186(3) 0.04988(16)
H29 H 0.8841 0.3284 0.0084
C31 C 0.89624(17) 0.3125(3) 0.10964(17)
H30 H 0.9456 0.3184 0.1090
C32 C 0.86281(15) 0.2981(3) 0.17074(14)
C33 C 0.90310(17) 0.2866(3) 0.23685(17)
H31 H 0.8768 0.2244 0.2677
C34 C 0.9771(2) 0.2245(5) 0.2258(2)
H32 H 0.9727 0.1345 0.2041
H33 H 1.0008 0.2143 0.2696
H34 H 1.0042 0.2857 0.1968
C35 C 0.9098(2) 0.4250(3) 0.27070(19)
H35 H 0.8632 0.4627 0.2788
H36 H 0.9358 0.4873 0.2413
H37 H 0.9346 0.4147 0.3139
C36 C 0.67287(17) 0.2787(3) 0.10725(16)
H38 H 0.6570 0.2650 0.1548
C37 C 0.6373(2) 0.4076(4) 0.0807(2)
H39 H 0.6522 0.4867 0.1078
H40 H 0.5867 0.3970 0.0839
H41 H 0.6502 0.4222 0.0334
C38 C 0.65136(19) 0.1520(4) 0.06720(19)
H42 H 0.6749 0.0712 0.0859
H43 H 0.6645 0.1636 0.0197
H44 H 0.6008 0.1396 0.0702
loop_
_geom_bond_atom_site_label_1
_geom_bond_atom_site_label_2
_geom_bond_site_symmetry_1
_geom_bond_site_symmetry_2
N1 H1 1_555 1_555
N2 O2 1_555 1_555
O1 C1 1_555 1_555
O3 N2 1_555 1_555
C1 N1 1_555 1_555
C2 C1 1_555 1_555
C3 C2 1_555 1_555
H2 C3 1_555 1_555
C4 C3 1_555 1_555
H3 C4 1_555 1_555
C5 N2 1_555 1_555
C6 C5 1_555 1_555
H4 C6 1_555 1_555
C7 C2 1_555 1_555
H5 C7 1_555 1_555
C8 N1 1_555 1_555
C9 C8 1_555 1_555
C10 C9 1_555 1_555
H6 C10 1_555 1_555
C11 C10 1_555 1_555
H7 C11 1_555 1_555
C12 C11 1_555 1_555
H8 C12 1_555 1_555
C13 C8 1_555 1_555
C14 C13 1_555 1_555
H9 C14 1_555 1_555
C15 C14 1_555 1_555
H10 C15 1_555 1_555
H11 C15 1_555 1_555
H12 C15 1_555 1_555
C16 C14 1_555 1_555
H13 C16 1_555 1_555
H14 C16 1_555 1_555
H15 C16 1_555 1_555
C17 C9 1_555 1_555
H16 C17 1_555 1_555
C18 C17 1_555 1_555
H17 C18 1_555 1_555
H18 C18 1_555 1_555
H19 C18 1_555 1_555
C19 C17 1_555 1_555
H20 C19 1_555 1_555
H21 C19 1_555 1_555
H22 C19 1_555 1_555
N3 H23 1_555 1_555
N4 O5 1_555 1_555
O4 C20 1_555 1_555
O6 N4 1_555 1_555
C20 N3 1_555 1_555
C21 C20 1_555 1_555
C22 C21 1_555 1_555
H24 C22 1_555 1_555
C23 C22 1_555 1_555
H25 C23 1_555 1_555
C24 N4 1_555 1_555
C25 C24 1_555 1_555
H26 C25 1_555 1_555
C26 C21 1_555 1_555
H27 C26 1_555 1_555
C27 N3 1_555 1_555
C28 C27 1_555 1_555
C29 C28 1_555 1_555
H28 C29 1_555 1_555
C30 C29 1_555 1_555
H29 C30 1_555 1_555
C31 C30 1_555 1_555
H30 C31 1_555 1_555
C32 C27 1_555 1_555
C33 C32 1_555 1_555
H31 C33 1_555 1_555
C34 C33 1_555 1_555
H32 C34 1_555 1_555
H33 C34 1_555 1_555
H34 C34 1_555 1_555
C35 C33 1_555 1_555
H35 C35 1_555 1_555
H36 C35 1_555 1_555
H37 C35 1_555 1_555
C36 C28 1_555 1_555
H38 C36 1_555 1_555
C37 C36 1_555 1_555
H39 C37 1_555 1_555
H40 C37 1_555 1_555
H41 C37 1_555 1_555
C38 C36 1_555 1_555
H42 C38 1_555 1_555
H43 C38 1_555 1_555
H44 C38 1_555 1_555
C4 C5 1_555 1_555
C6 C7 1_555 1_555
C12 C13 1_555 1_555
C23 C24 1_555 1_555
C25 C26 1_555 1_555
C31 C32 1_555 1_555

#END
