
#######################################################################
#
#                 Cambridge Crystallographic Data Centre
#                                CCDC 
#
#######################################################################
#
# If this CIF has been generated from an entry in the Cambridge 
# Structural Database, then it will include bibliographic, chemical, 
# crystal, experimental, refinement or atomic coordinate data resulting 
# from the CCDC's data processing and validation procedures.
#
#######################################################################

data_ACALUL
_chemical_formula_moiety         'C17 H18 N2 O3'
_chemical_name_systematic        'N-4-nitrophenyl 4-t-butylbenzamide'
_symmetry_cell_setting           triclinic
_symmetry_space_group_name_H-M   'P -1'
_symmetry_Int_Tables_number      2
_space_group_name_Hall           '-P 1'
loop_
_symmetry_equiv_pos_site_id
_symmetry_equiv_pos_as_xyz
1 x,y,z
2 -x,-y,-z
_cell_length_a                   5.712(2)
_cell_length_b                   10.575(3)
_cell_length_c                   12.798(5)
_cell_angle_alpha                88.08(3)
_cell_angle_beta                 77.96(2)
_cell_angle_gamma                85.32(3)
_cell_volume                     753.422
_exptl_crystal_colour            colorless
_exptl_crystal_description       block
_cell_formula_units_Z            2
loop_
_atom_site_label
_atom_site_type_symbol
_atom_site_fract_x
_atom_site_fract_y
_atom_site_fract_z
O1 O 0.1444(10) -0.3897(3) -0.1028(2)
O2 O -0.2069(8) -0.6746(2) -0.5631(2)
O3 O 0.1186(7) -0.7630(3) -0.5266(2)
N1 N -0.2302(8) -0.40941(19) -0.13038(19)
H1 H -0.3797 -0.3909 -0.1038
N2 N -0.0604(10) -0.6908(2) -0.5060(2)
C1 C -0.1795(8) -0.4824(2) -0.2235(2)
C2 C -0.3475(8) -0.4718(2) -0.2873(2)
H2 H -0.4867 -0.4185 -0.2682
C3 C -0.3076(8) -0.5411(3) -0.3798(2)
H3 H -0.4192 -0.5340 -0.4237
C4 C -0.1053(8) -0.6194(2) -0.4065(2)
C5 C 0.0637(9) -0.6320(2) -0.3434(2)
H4 H 0.2020 -0.6859 -0.3628
C6 C 0.0237(8) -0.5633(2) -0.2512(2)
H5 H 0.1349 -0.5716 -0.2072
C7 C -0.0732(16) -0.3646(3) -0.0773(3)
C8 C -0.1830(8) -0.2789(2) 0.0126(2)
C9 C -0.4118(8) -0.2853(2) 0.0711(2)
H6 H -0.5065 -0.3465 0.0553
C10 C -0.5039(8) -0.2025(2) 0.1531(2)
H7 H -0.6592 -0.2098 0.1919
C11 C -0.3715(8) -0.1085(2) 0.1793(2)
C12 C -0.1413(9) -0.1042(3) 0.1204(3)
H8 H -0.0460 -0.0430 0.1359
C13 C -0.0478(8) -0.1874(3) 0.0393(2)
H9 H 0.1092 -0.1819 0.0019
C14 C -0.4810(8) -0.0100(2) 0.2652(2)
C15 C -0.6616(8) -0.0673(3) 0.3551(2)
H10 H -0.7824 -0.1034 0.3259
H11 H -0.7356 -0.0024 0.4045
H12 H -0.5807 -0.1324 0.3916
C16 C -0.6108(8) 0.0972(3) 0.2110(3)
H13 H -0.7288 0.0630 0.1788
H14 H -0.4967 0.1375 0.1570
H15 H -0.6883 0.1584 0.2633
C17 C -0.2929(10) 0.0437(4) 0.3158(4)
H16 H -0.3698 0.1043 0.3688
H17 H -0.1799 0.0846 0.2618
H18 H -0.2102 -0.0239 0.3490
loop_
_geom_bond_atom_site_label_1
_geom_bond_atom_site_label_2
_geom_bond_site_symmetry_1
_geom_bond_site_symmetry_2
O1 C7 1_555 1_555
O2 N2 1_555 1_555
O3 N2 1_555 1_555
N1 H1 1_555 1_555
N2 C4 1_555 1_555
C1 N1 1_555 1_555
C2 C1 1_555 1_555
H2 C2 1_555 1_555
C3 C2 1_555 1_555
H3 C3 1_555 1_555
C4 C3 1_555 1_555
C5 C4 1_555 1_555
H4 C5 1_555 1_555
C6 C1 1_555 1_555
H5 C6 1_555 1_555
C7 N1 1_555 1_555
C8 C7 1_555 1_555
C9 C8 1_555 1_555
H6 C9 1_555 1_555
C10 C9 1_555 1_555
H7 C10 1_555 1_555
C11 C10 1_555 1_555
C12 C11 1_555 1_555
H8 C12 1_555 1_555
C13 C8 1_555 1_555
H9 C13 1_555 1_555
C14 C11 1_555 1_555
C15 C14 1_555 1_555
H10 C15 1_555 1_555
H11 C15 1_555 1_555
H12 C15 1_555 1_555
C16 C14 1_555 1_555
H13 C16 1_555 1_555
H14 C16 1_555 1_555
H15 C16 1_555 1_555
C17 C14 1_555 1_555
H16 C17 1_555 1_555
H17 C17 1_555 1_555
H18 C17 1_555 1_555
C5 C6 1_555 1_555
C12 C13 1_555 1_555

#END
