
#######################################################################
#
#                 Cambridge Crystallographic Data Centre
#                                CCDC 
#
#######################################################################
#
# If this CIF has been generated from an entry in the Cambridge 
# Structural Database, then it will include bibliographic, chemical, 
# crystal, experimental, refinement or atomic coordinate data resulting 
# from the CCDC's data processing and validation procedures.
#
#######################################################################

data_ACALIZ
_chemical_formula_moiety         'C17 H18 N2 O3'
_chemical_name_systematic        'N-2,6-diethylphenyl 4-nitrobenzamide'
_symmetry_cell_setting           monoclinic
_symmetry_space_group_name_H-M   'C c'
_symmetry_Int_Tables_number      9
_space_group_name_Hall           'C -2yc'
loop_
_symmetry_equiv_pos_site_id
_symmetry_equiv_pos_as_xyz
1 x,y,z
2 x,-y,1/2+z
3 1/2+x,1/2+y,z
4 1/2+x,1/2-y,1/2+z
_cell_length_a                   8.916(5)
_cell_length_b                   23.665(7)
_cell_length_c                   7.924(3)
_cell_angle_alpha                90
_cell_angle_beta                 107.02(3)
_cell_angle_gamma                90
_cell_volume                     1598.71
_exptl_crystal_colour            colorless
_exptl_crystal_description       prismatic
_cell_formula_units_Z            4
loop_
_atom_site_label
_atom_site_type_symbol
_atom_site_fract_x
_atom_site_fract_y
_atom_site_fract_z
N1 N -0.0267(7) 0.5034(2) -0.0356(9)
N2 N -0.0219(5) 0.2292(2) 0.0062(5)
H1 H -0.1000(5) 0.2414(2) -0.0867(5)
O1 O -0.1320(6) 0.5180(2) -0.1668(7)
O2 O 0.0541(7) 0.5364(2) 0.0661(7)
O3 O 0.1979(5) 0.2524(2) 0.2121(5)
C1 C 0.0010(7) 0.4418(2) -0.0051(8)
C2 C -0.1010(7) 0.4056(2) -0.1069(8)
H2 H -0.1885(7) 0.4192(2) -0.2003(8)
C3 C -0.0778(8) 0.3478(2) -0.0754(7)
H3 H -0.1530(8) 0.3215(2) -0.1442(7)
C4 C 0.0480(6) 0.3282(2) 0.0533(6)
C5 C 0.1507(7) 0.3679(2) 0.1539(8)
H4 H 0.2418(7) 0.3550(2) 0.2439(8)
C6 C 0.1286(8) 0.4248(2) 0.1268(8)
H5 H 0.1983(8) 0.4520(2) 0.1997(8)
C7 C 0.0830(7) 0.2668(2) 0.0991(7)
C8 C -0.0143(7) 0.1695(2) 0.0431(6)
C9 C -0.0995(8) 0.1475(2) 0.1488(7)
C10 C -0.0954(9) 0.0901(3) 0.1767(9)
H6 H -0.1517(9) 0.0744(3) 0.2519(9)
C11 C -0.0113(10) 0.0554(3) 0.0986(11)
H7 H -0.0133(10) 0.0153(3) 0.1151(11)
C12 C 0.0713(8) 0.0770(3) -0.0023(9)
H8 H 0.1295(8) 0.0520(3) -0.0552(9)
C13 C 0.0745(7) 0.1353(2) -0.0333(8)
C14 C 0.1704(9) 0.1585(3) -0.1457(9)
H9 H 0.2702(9) 0.1398(3) -0.1175(9)
H10 H 0.1889(9) 0.1981(3) -0.1212(9)
C15 C 0.1009(13) 0.1506(4) -0.3306(12)
H11 H 0.1629(13) 0.1658(4) -0.4005(12)
H12 H 0.0838(13) 0.1110(4) -0.3552(12)
H13 H 0.0018(13) 0.1698(4) -0.3590(12)
C16 C -0.2022(9) 0.1842(3) 0.2256(9)
H14 H -0.1559(9) 0.2211(3) 0.2491(9)
H15 H -0.2041(9) 0.1680(3) 0.3360(9)
C17 C -0.3671(9) 0.1909(3) 0.1083(9)
H16 H -0.4267(9) 0.2143(3) 0.1640(9)
H17 H -0.3656(9) 0.2078(3) -0.0014(9)
H18 H -0.4143(9) 0.1542(3) 0.0862(9)
loop_
_geom_bond_atom_site_label_1
_geom_bond_atom_site_label_2
_geom_bond_site_symmetry_1
_geom_bond_site_symmetry_2
N1 O1 1_555 1_555
N2 H1 1_555 1_555
O2 N1 1_555 1_555
O3 C7 1_555 1_555
C1 N1 1_555 1_555
C2 C1 1_555 1_555
H2 C2 1_555 1_555
C3 C2 1_555 1_555
H3 C3 1_555 1_555
C4 C3 1_555 1_555
C5 C4 1_555 1_555
H4 C5 1_555 1_555
C6 C1 1_555 1_555
H5 C6 1_555 1_555
C7 N2 1_555 1_555
C8 N2 1_555 1_555
C9 C8 1_555 1_555
C10 C9 1_555 1_555
H6 C10 1_555 1_555
C11 C10 1_555 1_555
H7 C11 1_555 1_555
C12 C11 1_555 1_555
H8 C12 1_555 1_555
C13 C8 1_555 1_555
C14 C13 1_555 1_555
H9 C14 1_555 1_555
H10 C14 1_555 1_555
C15 C14 1_555 1_555
H11 C15 1_555 1_555
H12 C15 1_555 1_555
H13 C15 1_555 1_555
C16 C9 1_555 1_555
H14 C16 1_555 1_555
H15 C16 1_555 1_555
C17 C16 1_555 1_555
H16 C17 1_555 1_555
H17 C17 1_555 1_555
H18 C17 1_555 1_555
C4 C7 1_555 1_555
C5 C6 1_555 1_555
C12 C13 1_555 1_555

#END
