
#######################################################################
#
#                 Cambridge Crystallographic Data Centre
#                                CCDC 
#
#######################################################################
#
# If this CIF has been generated from an entry in the Cambridge 
# Structural Database, then it will include bibliographic, chemical, 
# crystal, experimental, refinement or atomic coordinate data resulting 
# from the CCDC's data processing and validation procedures.
#
#######################################################################

data_ACAMIA
_chemical_formula_moiety         'C21 H26 N2 O3'
_chemical_name_systematic        
'N-2,6-diethyl-4-nitrophenyl 4-t-butylbenzamide'
_symmetry_cell_setting           monoclinic
_symmetry_space_group_name_H-M   'P 21/n'
_symmetry_Int_Tables_number      14
_space_group_name_Hall           '-P 2yn'
loop_
_symmetry_equiv_pos_site_id
_symmetry_equiv_pos_as_xyz
1 x,y,z
2 1/2+x,1/2-y,1/2+z
3 -x,-y,-z
4 1/2-x,1/2+y,1/2-z
_cell_length_a                   10.601(2)
_cell_length_b                   20.517(5)
_cell_length_c                   27.623(6)
_cell_angle_alpha                90
_cell_angle_beta                 94.625(4)
_cell_angle_gamma                90
_cell_volume                     5988.46
_cell_formula_units_Z            12
loop_
_atom_site_label
_atom_site_type_symbol
_atom_site_fract_x
_atom_site_fract_y
_atom_site_fract_z
O1 O 0.5349(10) -0.0201(4) 0.6152(5)
O2 O 0.3417(10) -0.0155(4) 0.6084(5)
O3 O 0.4375(6) 0.3159(3) 0.5913(2)
N1 N 0.4413(13) 0.0094(4) 0.6144(4)
N2 N 0.4666(7) 0.2730(3) 0.6652(3)
H1 H 0.4753 0.2807 0.6959
C1 C 0.4457(4) 0.07787(18) 0.62574(13)
C2 C 0.5622(4) 0.10933(18) 0.62896(13)
H4 H 0.6351 0.0863 0.6234
C3 C 0.5696(4) 0.17522(18) 0.64055(13)
C4 C 0.4605(4) 0.20964(18) 0.64891(13)
C5 C 0.3440(4) 0.17818(18) 0.64569(13)
C6 C 0.3366(4) 0.11229(18) 0.63411(13)
H5 H 0.2587 0.0912 0.6320
C7 C 0.2089(19) 0.2203(7) 0.6435(8)
H6 H 0.2190 0.2641 0.6312
H7 H 0.1411 0.1984 0.6243
C8 C 0.191(2) 0.2202(10) 0.6881(8)
H8 H 0.2313 0.1826 0.7033
H9 H 0.1021 0.2188 0.6920
H10 H 0.2269 0.2590 0.7031
C9 C 0.6914(11) 0.2144(8) 0.6348(11)
H11 H 0.7322 0.1933 0.6087
H12 H 0.6639 0.2568 0.6225
C10 C 0.759(2) 0.2230(12) 0.6603(12)
H13 H 0.7230 0.2425 0.6877
H14 H 0.8196 0.2521 0.6482
H15 H 0.7994 0.1827 0.6701
C11 C 0.4592(4) 0.32256(19) 0.63405(16)
C12 C 0.4745(4) 0.38958(19) 0.65585(16)
C13 C 0.4869(4) 0.40195(19) 0.70548(16)
H16 H 0.4844 0.3677 0.7274
C14 C 0.5032(4) 0.46549(19) 0.72230(16)
H17 H 0.5115 0.4738 0.7555
C15 C 0.5070(4) 0.51667(19) 0.68948(16)
C16 C 0.4946(4) 0.50430(19) 0.63985(16)
H18 H 0.4972 0.5385 0.6179
C17 C 0.4784(4) 0.44076(19) 0.62303(16)
H19 H 0.4701 0.4325 0.5898
C18 C 0.5134(17) 0.5876(5) 0.7077(5)
C19 C 0.523(2) 0.5929(6) 0.7597(7)
H20 H 0.5991 0.5715 0.7728
H21 H 0.4511 0.5727 0.7723
H22 H 0.5264 0.6381 0.7688
C20 C 0.623(3) 0.6165(9) 0.6906(11)
H23 H 0.6972 0.5974 0.7071
H24 H 0.6224 0.6625 0.6969
H25 H 0.6235 0.6092 0.6563
C21 C 0.3992(13) 0.6278(5) 0.6892(7)
H26 H 0.4089 0.6717 0.7009
H27 H 0.3240 0.6091 0.7005
H28 H 0.3925 0.6280 0.6543
O4 O 0.3382(8) -0.0307(3) 0.4891(4)
O5 O 0.1431(9) -0.0243(3) 0.4959(4)
O6 O 0.1916(7) 0.2908(3) 0.4328(2)
N3 N 0.2449(10) -0.0005(4) 0.4947(4)
N4 N 0.2785(7) 0.2711(3) 0.5077(2)
H2 H 0.3120 0.2870 0.5346
C22 C 0.2550(4) 0.06989(18) 0.49645(13)
C23 C 0.3725(4) 0.10014(18) 0.49705(13)
H29 H 0.4453 0.0752 0.4956
C24 C 0.3810(4) 0.1677(2) 0.49987(13)
C25 C 0.2722(4) 0.20492(18) 0.50208(13)
C26 C 0.1547(4) 0.17468(18) 0.50148(13)
C27 C 0.1462(4) 0.10716(19) 0.49866(14)
H30 H 0.0676 0.0869 0.4983
C28 C 0.0357(10) 0.2127(5) 0.5077(5)
H31 H 0.0570 0.2451 0.5326
H32 H 0.0159 0.2364 0.4777
C29 C -0.0725(12) 0.1840(6) 0.5191(7)
H33 H -0.0962 0.1509 0.4955
H34 H -0.1385 0.2161 0.5190
H35 H -0.0599 0.1647 0.5507
C30 C 0.5068(10) 0.1980(5) 0.5013(5)
H36 H 0.5027 0.2404 0.5167
H37 H 0.5658 0.1715 0.5215
C31 C 0.5528(16) 0.2058(8) 0.4573(6)
H38 H 0.5554 0.1644 0.4413
H39 H 0.6367 0.2237 0.4615
H40 H 0.4990 0.2350 0.4379
C32 C 0.2351(3) 0.31033(15) 0.47363(14)
C33 C 0.2401(3) 0.38214(15) 0.48160(14)
C34 C 0.2306(3) 0.40832(15) 0.52757(14)
H41 H 0.2234 0.3809 0.5540
C35 C 0.2320(3) 0.47551(15) 0.53404(14)
H42 H 0.2256 0.4930 0.5648
C36 C 0.2428(3) 0.51651(15) 0.49453(14)
C37 C 0.2523(3) 0.49033(15) 0.44856(14)
H43 H 0.2596 0.5178 0.4221
C38 C 0.2510(3) 0.42314(15) 0.44209(14)
H44 H 0.2573 0.4056 0.4113
C39 C 0.2389(12) 0.5909(4) 0.5011(4)
C40 C 0.375(2) 0.6077(6) 0.5156(10)
H45 H 0.3948 0.5975 0.5493
H46 H 0.3887 0.6534 0.5106
H47 H 0.4295 0.5830 0.4963
C41 C 0.168(2) 0.6113(5) 0.5412(6)
H48 H 0.0851 0.5918 0.5379
H49 H 0.1592 0.6579 0.5408
H50 H 0.2113 0.5978 0.5713
C42 C 0.216(2) 0.6291(2) 0.45091(18)
H51 H 0.1391 0.6141 0.4338
H52 H 0.2858 0.6213 0.4315
H53 H 0.2098 0.6750 0.4572
O7 O 0.1520(9) -0.0592(4) 0.3791(5)
O8 O -0.0445(9) -0.0572(4) 0.3831(4)
O9 O -0.0102(7) 0.2380(3) 0.2701(3)
N5 N 0.0546(12) -0.0317(4) 0.3787(4)
N6 N 0.0523(4) 0.23985(18) 0.34913(13)
H3 H 0.0688 0.2638 0.3744
C43 C 0.0584(5) 0.0378(2) 0.37125(15)
C44 C 0.1724(5) 0.0688(2) 0.36463(15)
H54 H 0.2469 0.0447 0.3655
C45 C 0.1751(5) 0.1356(2) 0.35674(15)
C46 C 0.0637(4) 0.1716(2) 0.35548(15)
C47 C -0.0503(4) 0.1407(2) 0.36210(15)
C48 C -0.0529(4) 0.0738(2) 0.36998(15)
H55 H -0.1292 0.0531 0.3744
C49 C 0.2890(12) 0.1724(6) 0.3519(6)
H56 H 0.2797 0.2156 0.3654
H57 H 0.3593 0.1511 0.3702
C50 C 0.3142(18) 0.1775(8) 0.3051(8)
H58 H 0.3069 0.1353 0.2900
H59 H 0.3986 0.1937 0.3034
H60 H 0.2550 0.2069 0.2886
C51 C -0.1804(13) 0.1791(7) 0.3747(8)
H61 H -0.2158 0.1595 0.4026
H62 H -0.1628 0.2247 0.3818
C52 C -0.259(2) 0.1732(9) 0.3358(7)
H63 H -0.2146 0.1822 0.3075
H64 H -0.3272 0.2034 0.3375
H65 H -0.2912 0.1295 0.3339
C53 C 0.0190(4) 0.2697(2) 0.30842(17)
C54 C 0.0081(4) 0.3403(2) 0.30794(17)
C55 C 0.0134(4) 0.3753(2) 0.35113(17)
H66 H 0.0260 0.3537 0.3807
C56 C -0.0001(4) 0.4427(2) 0.35010(17)
H67 H 0.0035 0.4661 0.3790
C57 C -0.0189(4) 0.4750(2) 0.30590(17)
C58 C -0.0242(4) 0.4400(2) 0.26271(17)
H68 H -0.0368 0.4616 0.2331
C59 C -0.0107(4) 0.3726(2) 0.26373(17)
H69 H -0.0143 0.3492 0.2348
C60 C -0.0257(16) 0.5514(5) 0.3057(5)
C61 C 0.1093(19) 0.5785(7) 0.3108(7)
H70 H 0.1559 0.5614 0.2852
H71 H 0.1500 0.5658 0.3417
H72 H 0.1066 0.6252 0.3087
C62 C -0.093(2) 0.5755(6) 0.3475(7)
H73 H -0.1009 0.6220 0.3457
H74 H -0.0462 0.5636 0.3774
H75 H -0.1760 0.5562 0.3464
C63 C -0.083(2) 0.5740(6) 0.2587(6)
H76 H -0.1637 0.5537 0.2519
H77 H -0.0285 0.5628 0.2337
H78 H -0.0932 0.6205 0.2595
loop_
_geom_bond_atom_site_label_1
_geom_bond_atom_site_label_2
_geom_bond_site_symmetry_1
_geom_bond_site_symmetry_2
O1 N1 1_555 1_555
O2 N1 1_555 1_555
O3 C11 1_555 1_555
O4 N3 1_555 1_555
O5 N3 1_555 1_555
O6 C32 1_555 1_555
O7 N5 1_555 1_555
O8 N5 1_555 1_555
O9 C53 1_555 1_555
N1 C1 1_555 1_555
N2 H1 1_555 1_555
N3 C22 1_555 1_555
N4 H2 1_555 1_555
N5 C43 1_555 1_555
N6 H3 1_555 1_555
C1 C2 1_555 1_555
C2 H4 1_555 1_555
C3 C2 1_555 1_555
C4 N2 1_555 1_555
C5 C4 1_555 1_555
C6 C1 1_555 1_555
H5 C6 1_555 1_555
C7 C5 1_555 1_555
H6 C7 1_555 1_555
H7 C7 1_555 1_555
C8 C7 1_555 1_555
H8 C8 1_555 1_555
H9 C8 1_555 1_555
H10 C8 1_555 1_555
C9 C3 1_555 1_555
H11 C9 1_555 1_555
H12 C9 1_555 1_555
C10 C9 1_555 1_555
H13 C10 1_555 1_555
H14 C10 1_555 1_555
H15 C10 1_555 1_555
C11 N2 1_555 1_555
C12 C11 1_555 1_555
C13 C12 1_555 1_555
H16 C13 1_555 1_555
C14 C13 1_555 1_555
H17 C14 1_555 1_555
C15 C14 1_555 1_555
C16 C15 1_555 1_555
H18 C16 1_555 1_555
C17 C12 1_555 1_555
H19 C17 1_555 1_555
C18 C15 1_555 1_555
C19 C18 1_555 1_555
H20 C19 1_555 1_555
H21 C19 1_555 1_555
H22 C19 1_555 1_555
C20 C18 1_555 1_555
H23 C20 1_555 1_555
H24 C20 1_555 1_555
H25 C20 1_555 1_555
C21 C18 1_555 1_555
H26 C21 1_555 1_555
H27 C21 1_555 1_555
H28 C21 1_555 1_555
C22 C23 1_555 1_555
C23 H29 1_555 1_555
C24 C23 1_555 1_555
C25 N4 1_555 1_555
C26 C25 1_555 1_555
C27 C22 1_555 1_555
H30 C27 1_555 1_555
C28 C26 1_555 1_555
H31 C28 1_555 1_555
H32 C28 1_555 1_555
C29 C28 1_555 1_555
H33 C29 1_555 1_555
H34 C29 1_555 1_555
H35 C29 1_555 1_555
C30 C24 1_555 1_555
H36 C30 1_555 1_555
H37 C30 1_555 1_555
C31 C30 1_555 1_555
H38 C31 1_555 1_555
H39 C31 1_555 1_555
H40 C31 1_555 1_555
C32 N4 1_555 1_555
C33 C32 1_555 1_555
C34 C33 1_555 1_555
H41 C34 1_555 1_555
C35 C34 1_555 1_555
H42 C35 1_555 1_555
C36 C35 1_555 1_555
C37 C36 1_555 1_555
H43 C37 1_555 1_555
C38 C33 1_555 1_555
H44 C38 1_555 1_555
C39 C36 1_555 1_555
C40 C39 1_555 1_555
H45 C40 1_555 1_555
H46 C40 1_555 1_555
H47 C40 1_555 1_555
C41 C39 1_555 1_555
H48 C41 1_555 1_555
H49 C41 1_555 1_555
H50 C41 1_555 1_555
C42 C39 1_555 1_555
H51 C42 1_555 1_555
H52 C42 1_555 1_555
H53 C42 1_555 1_555
C43 C44 1_555 1_555
C44 H54 1_555 1_555
C45 C44 1_555 1_555
C46 N6 1_555 1_555
C47 C46 1_555 1_555
C48 C43 1_555 1_555
H55 C48 1_555 1_555
C49 C45 1_555 1_555
H56 C49 1_555 1_555
H57 C49 1_555 1_555
C50 C49 1_555 1_555
H58 C50 1_555 1_555
H59 C50 1_555 1_555
H60 C50 1_555 1_555
C51 C47 1_555 1_555
H61 C51 1_555 1_555
H62 C51 1_555 1_555
C52 C51 1_555 1_555
H63 C52 1_555 1_555
H64 C52 1_555 1_555
H65 C52 1_555 1_555
C53 N6 1_555 1_555
C54 C53 1_555 1_555
C55 C54 1_555 1_555
H66 C55 1_555 1_555
C56 C55 1_555 1_555
H67 C56 1_555 1_555
C57 C56 1_555 1_555
C58 C57 1_555 1_555
H68 C58 1_555 1_555
C59 C54 1_555 1_555
H69 C59 1_555 1_555
C60 C57 1_555 1_555
C61 C60 1_555 1_555
H70 C61 1_555 1_555
H71 C61 1_555 1_555
H72 C61 1_555 1_555
C62 C60 1_555 1_555
H73 C62 1_555 1_555
H74 C62 1_555 1_555
H75 C62 1_555 1_555
C63 C60 1_555 1_555
H76 C63 1_555 1_555
H77 C63 1_555 1_555
H78 C63 1_555 1_555
C3 C4 1_555 1_555
C5 C6 1_555 1_555
C16 C17 1_555 1_555
C24 C25 1_555 1_555
C26 C27 1_555 1_555
C37 C38 1_555 1_555
C45 C46 1_555 1_555
C47 C48 1_555 1_555
C58 C59 1_555 1_555

#END
