
#######################################################################
#
#                 Cambridge Crystallographic Data Centre
#                                CCDC 
#
#######################################################################
#
# If this CIF has been generated from an entry in the Cambridge 
# Structural Database, then it will include bibliographic, chemical, 
# crystal, experimental, refinement or atomic coordinate data resulting 
# from the CCDC's data processing and validation procedures.
#
#######################################################################

data_ACAMAS
_chemical_formula_moiety         'C18 H20 N2 O3,0.17(C1 H2 Cl2)'
_chemical_name_systematic        
'N-4-nitro-o-tolyl 4-t-butylbenzamide dichloromethane solvate'
_symmetry_cell_setting           triclinic
_symmetry_space_group_name_H-M   'P -1'
_symmetry_Int_Tables_number      2
_space_group_name_Hall           '-P 1'
loop_
_symmetry_equiv_pos_site_id
_symmetry_equiv_pos_as_xyz
1 x,y,z
2 -x,-y,-z
_cell_length_a                   12.782(5)
_cell_length_b                   14.751(6)
_cell_length_c                   15.297(6)
_cell_angle_alpha                117.470(8)
_cell_angle_beta                 92.146(8)
_cell_angle_gamma                95.081(8)
_cell_volume                     2538.94
_exptl_crystal_colour            colorless
_exptl_crystal_description       Block
_cell_formula_units_Z            6
loop_
_atom_site_label
_atom_site_type_symbol
_atom_site_fract_x
_atom_site_fract_y
_atom_site_fract_z
O4 O 0.6431(2) 0.4748(2) 0.05851(19)
O5 O 0.9025(3) 0.9266(2) 0.4241(2)
O6 O 0.8827(3) 0.9409(2) 0.2907(2)
N3 N 0.8580(3) 0.9012(3) 0.3425(3)
N4 N 0.5487(2) 0.5592(2) 0.1895(2)
H21 H 0.4930 0.5562 0.2183
C19 C 0.7703(3) 0.8180(3) 0.3046(3)
C20 C 0.7314(3) 0.7759(3) 0.2072(3)
H22 H 0.7563 0.8026 0.1665
C21 C 0.6545(3) 0.6930(3) 0.1719(3)
H23 H 0.6263 0.6645 0.1065
C22 C 0.6180(3) 0.6511(3) 0.2309(3)
C23 C 0.6538(3) 0.6984(3) 0.3322(3)
C24 C 0.7314(3) 0.7814(3) 0.3660(3)
H24 H 0.7578 0.8131 0.4321
C25 C 0.6111(3) 0.6591(3) 0.4002(3)
H25 H 0.6445 0.7010 0.4659
H26 H 0.6251 0.5892 0.3773
H27 H 0.5364 0.6620 0.4010
C26 C 0.5669(3) 0.4735(3) 0.1042(3)
C27 C 0.4940(3) 0.3784(3) 0.0711(3)
C28 C 0.5296(3) 0.2844(3) 0.0119(3)
H28 H 0.5982 0.2833 -0.0066
C29 C 0.4661(3) 0.1933(3) -0.0196(3)
H29 H 0.4933 0.1321 -0.0584
C30 C 0.3616(3) 0.1890(3) 0.0045(3)
C31 C 0.3249(3) 0.2840(3) 0.0626(3)
H30 H 0.2557 0.2851 0.0794
C32 C 0.3890(3) 0.3756(3) 0.0953(3)
H31 H 0.3623 0.4370 0.1342
C33 C 0.2962(3) 0.0865(3) -0.0232(3)
C34 C 0.3079(4) 0.0070(3) -0.1315(3)
H32 H 0.2828 0.0321 -0.1753
H33 H 0.2674 -0.0572 -0.1467
H34 H 0.3808 -0.0030 -0.1397
C35 C 0.3348(4) 0.0474(4) 0.0487(4)
H35 H 0.3261 0.0969 0.1154
H36 H 0.4080 0.0379 0.0422
H37 H 0.2945 -0.0170 0.0333
C36 C 0.1802(3) 0.0959(3) -0.0147(3)
H38 H 0.1548 0.1201 -0.0591
H39 H 0.1693 0.1437 0.0519
H40 H 0.1428 0.0298 -0.0317
O7 O 0.9844(2) 0.6133(2) 0.2866(2)
O8 O 1.0549(3) 0.7738(3) -0.1024(3)
O9 O 1.1604(4) 0.8546(4) 0.0304(3)
N5 N 1.0839(4) 0.7925(3) -0.0184(4)
N6 N 0.8715(3) 0.5677(2) 0.1504(2)
H41 H 0.8127 0.5324 0.1191
C37 C 1.0289(4) 0.7341(3) 0.0265(3)
C38 C 1.0466(3) 0.7698(3) 0.1281(3)
H42 H 1.0930 0.8285 0.1673
C39 C 0.9932(3) 0.7153(3) 0.1680(3)
H43 H 1.0021 0.7392 0.2360
C40 C 0.9260(3) 0.6254(3) 0.1105(3)
C41 C 0.9101(3) 0.5901(3) 0.0070(3)
C42 C 0.9623(3) 0.6469(3) -0.0335(3)
H44 H 0.9521 0.6257 -0.1010
C43 C 0.8381(3) 0.4932(3) -0.0584(3)
H45 H 0.8372 0.4811 -0.1257
H46 H 0.7680 0.5007 -0.0376
H47 H 0.8631 0.4360 -0.0535
C44 C 0.9038(3) 0.5628(3) 0.2350(3)
C45 C 0.8371(3) 0.4926(3) 0.2585(3)
C46 C 0.8335(3) 0.5155(3) 0.3573(3)
H48 H 0.8774 0.5711 0.4058
C47 C 0.7647(3) 0.4556(3) 0.3841(3)
H49 H 0.7635 0.4731 0.4507
C48 C 0.6979(3) 0.3709(3) 0.3152(3)
C49 C 0.7088(3) 0.3445(3) 0.2152(3)
H50 H 0.6696 0.2854 0.1661
C50 C 0.7764(3) 0.4041(3) 0.1880(3)
H51 H 0.7811 0.3845 0.1213
C51 C 0.6164(3) 0.3136(3) 0.3476(3)
C52 C 0.6717(4) 0.2571(3) 0.3957(3)
H52 H 0.7201 0.3056 0.4501
H53 H 0.7095 0.2059 0.3478
H54 H 0.6200 0.2245 0.4194
C53 C 0.5385(3) 0.2360(3) 0.2622(3)
H55 H 0.5029 0.2709 0.2324
H56 H 0.4876 0.2035 0.2868
H57 H 0.5758 0.1847 0.2137
C54 C 0.5506(3) 0.3919(3) 0.4237(3)
H58 H 0.5967 0.4422 0.4793
H59 H 0.5003 0.3565 0.4458
H60 H 0.5142 0.4258 0.3933
O1 O 0.3713(2) 0.56776(19) 0.31372(18)
O2 O 0.3283(3) 1.0699(2) 0.3395(3)
O3 O 0.4082(3) 0.9767(2) 0.2140(2)
N1 N 0.3541(3) 0.9866(3) 0.2803(3)
N2 N 0.2167(3) 0.6374(2) 0.3252(2)
H1 H 0.1509 0.6303 0.3338
C1 C 0.3190(3) 0.8952(3) 0.2909(3)
C2 C 0.3609(3) 0.8045(3) 0.2366(3)
H2 H 0.4103 0.8006 0.1922
C3 C 0.3287(3) 0.7198(3) 0.2487(3)
H3 H 0.3567 0.6585 0.2121
C4 C 0.2545(3) 0.7246(3) 0.3154(3)
C5 C 0.2105(3) 0.8171(3) 0.3718(3)
C6 C 0.2438(3) 0.9016(3) 0.3577(3)
H4 H 0.2158 0.9632 0.3930
C7 C 0.1350(3) 0.8261(3) 0.4463(3)
H5 H 0.1142 0.8942 0.4766
H6 H 0.1682 0.8131 0.4961
H7 H 0.0739 0.7767 0.4144
C8 C 0.2760(3) 0.5620(3) 0.3224(3)
C9 C 0.2168(3) 0.4737(3) 0.3278(3)
C10 C 0.2707(3) 0.3898(3) 0.3144(3)
H8 H 0.3423 0.3927 0.3056
C11 C 0.2198(3) 0.3039(3) 0.3141(3)
H9 H 0.2582 0.2500 0.3051
C12 C 0.1123(3) 0.2940(3) 0.3266(3)
C13 C 0.0604(3) 0.3794(3) 0.3427(3)
H10 H -0.0108 0.3772 0.3530
C14 C 0.1109(3) 0.4665(3) 0.3438(3)
H11 H 0.0733 0.5216 0.3556
C15 C 0.0557(3) 0.1967(3) 0.3226(3)
C16 C 0.0758(4) 0.1024(3) 0.2264(3)
H12 H 0.0486 0.1090 0.1706
H13 H 0.0412 0.0411 0.2248
H14 H 0.1503 0.0982 0.2239
C17 C 0.0993(4) 0.1845(3) 0.4120(3)
H15 H 0.0879 0.2434 0.4723
H16 H 0.1735 0.1790 0.4088
H17 H 0.0636 0.1235 0.4101
C18 C -0.0635(3) 0.1997(3) 0.3284(3)
H18 H -0.0766 0.2582 0.3884
H19 H -0.0951 0.1379 0.3277
H20 H -0.0935 0.2050 0.2726
C55? C 0.4946(10) 0.0727(7) 0.5215(9)
H61? H 0.4419 0.0986 0.4956
H62? H 0.5386 0.1308 0.5721
Cl1? Cl 0.57042(16) 0.00000(18) 0.42491(15)
loop_
_geom_bond_atom_site_label_1
_geom_bond_atom_site_label_2
_geom_bond_site_symmetry_1
_geom_bond_site_symmetry_2
O1 C8 1_555 1_555
O2 N1 1_555 1_555
O3 N1 1_555 1_555
N1 C1 1_555 1_555
N2 H1 1_555 1_555
C1 C2 1_555 1_555
C2 H2 1_555 1_555
C3 C2 1_555 1_555
H3 C3 1_555 1_555
C4 N2 1_555 1_555
C5 C4 1_555 1_555
C6 C1 1_555 1_555
H4 C6 1_555 1_555
C7 C5 1_555 1_555
H5 C7 1_555 1_555
H6 C7 1_555 1_555
H7 C7 1_555 1_555
C8 N2 1_555 1_555
C9 C8 1_555 1_555
C10 C9 1_555 1_555
H8 C10 1_555 1_555
C11 C10 1_555 1_555
H9 C11 1_555 1_555
C12 C11 1_555 1_555
C13 C12 1_555 1_555
H10 C13 1_555 1_555
C14 C9 1_555 1_555
H11 C14 1_555 1_555
C15 C12 1_555 1_555
C16 C15 1_555 1_555
H12 C16 1_555 1_555
H13 C16 1_555 1_555
H14 C16 1_555 1_555
C17 C15 1_555 1_555
H15 C17 1_555 1_555
H16 C17 1_555 1_555
H17 C17 1_555 1_555
C18 C15 1_555 1_555
H18 C18 1_555 1_555
H19 C18 1_555 1_555
H20 C18 1_555 1_555
O4 C26 1_555 1_555
O5 N3 1_555 1_555
O6 N3 1_555 1_555
N3 C19 1_555 1_555
N4 H21 1_555 1_555
C19 C20 1_555 1_555
C20 H22 1_555 1_555
C21 C20 1_555 1_555
H23 C21 1_555 1_555
C22 N4 1_555 1_555
C23 C22 1_555 1_555
C24 C19 1_555 1_555
H24 C24 1_555 1_555
C25 C23 1_555 1_555
H25 C25 1_555 1_555
H26 C25 1_555 1_555
H27 C25 1_555 1_555
C26 N4 1_555 1_555
C27 C26 1_555 1_555
C28 C27 1_555 1_555
H28 C28 1_555 1_555
C29 C28 1_555 1_555
H29 C29 1_555 1_555
C30 C29 1_555 1_555
C31 C30 1_555 1_555
H30 C31 1_555 1_555
C32 C27 1_555 1_555
H31 C32 1_555 1_555
C33 C30 1_555 1_555
C34 C33 1_555 1_555
H32 C34 1_555 1_555
H33 C34 1_555 1_555
H34 C34 1_555 1_555
C35 C33 1_555 1_555
H35 C35 1_555 1_555
H36 C35 1_555 1_555
H37 C35 1_555 1_555
C36 C33 1_555 1_555
H38 C36 1_555 1_555
H39 C36 1_555 1_555
H40 C36 1_555 1_555
O7 C44 1_555 1_555
O8 N5 1_555 1_555
O9 N5 1_555 1_555
N5 C37 1_555 1_555
N6 H41 1_555 1_555
C37 C38 1_555 1_555
C38 H42 1_555 1_555
C39 C38 1_555 1_555
H43 C39 1_555 1_555
C40 N6 1_555 1_555
C41 C40 1_555 1_555
C42 C37 1_555 1_555
H44 C42 1_555 1_555
C43 C41 1_555 1_555
H45 C43 1_555 1_555
H46 C43 1_555 1_555
H47 C43 1_555 1_555
C44 N6 1_555 1_555
C45 C44 1_555 1_555
C46 C45 1_555 1_555
H48 C46 1_555 1_555
C47 C46 1_555 1_555
H49 C47 1_555 1_555
C48 C47 1_555 1_555
C49 C48 1_555 1_555
H50 C49 1_555 1_555
C50 C45 1_555 1_555
H51 C50 1_555 1_555
C51 C48 1_555 1_555
C52 C51 1_555 1_555
H52 C52 1_555 1_555
H53 C52 1_555 1_555
H54 C52 1_555 1_555
C53 C51 1_555 1_555
H55 C53 1_555 1_555
H56 C53 1_555 1_555
H57 C53 1_555 1_555
C54 C51 1_555 1_555
H58 C54 1_555 1_555
H59 C54 1_555 1_555
H60 C54 1_555 1_555
C3 C4 1_555 1_555
C5 C6 1_555 1_555
C13 C14 1_555 1_555
C21 C22 1_555 1_555
C23 C24 1_555 1_555
C31 C32 1_555 1_555
C39 C40 1_555 1_555
C41 C42 1_555 1_555
C49 C50 1_555 1_555

#END
