
#######################################################################
#
#                 Cambridge Crystallographic Data Centre
#                                CCDC 
#
#######################################################################
#
# If this CIF has been generated from an entry in the Cambridge 
# Structural Database, then it will include bibliographic, chemical, 
# crystal, experimental, refinement or atomic coordinate data resulting 
# from the CCDC's data processing and validation procedures.
#
#######################################################################

data_ACAMEW
_chemical_formula_moiety         'C19 H22 N2 O3'
_chemical_name_systematic        
'N-2,6-dimethyl-4-nitrophenyl 4-t-butylbenzamide'
_symmetry_cell_setting           monoclinic
_symmetry_space_group_name_H-M   'P 21/n'
_symmetry_Int_Tables_number      14
_space_group_name_Hall           '-P 2yn'
loop_
_symmetry_equiv_pos_site_id
_symmetry_equiv_pos_as_xyz
1 x,y,z
2 1/2+x,1/2-y,1/2+z
3 -x,-y,-z
4 1/2-x,1/2+y,1/2-z
_cell_length_a                   10.818(4)
_cell_length_b                   26.351(8)
_cell_length_c                   19.810(5)
_cell_angle_alpha                90
_cell_angle_beta                 90.08(3)
_cell_angle_gamma                90
_cell_volume                     5647.13
_exptl_crystal_colour            colorless
_exptl_crystal_description       block
_cell_formula_units_Z            12
loop_
_atom_site_label
_atom_site_type_symbol
_atom_site_fract_x
_atom_site_fract_y
_atom_site_fract_z
O1 O 0.8492(7) -0.0041(4) 0.5412(3)
O2 O 0.6580(7) 0.0180(3) 0.5430(3)
O3 O 0.8229(7) 0.0647(3) 0.2065(3)
N1 N 0.7508(9) 0.0054(3) 0.5125(3)
N2 N 0.7341(6) -0.0102(2) 0.2290(3)
H1 H 0.7003 -0.0386 0.2117
C1 C 0.7456(9) 0.0029(3) 0.4387(4)
C2 C 0.8541(9) -0.0046(3) 0.4043(4)
H2 H 0.9300 -0.0086 0.4288
C3 C 0.8534(8) -0.0089(3) 0.3338(4)
C4 C 0.7381(9) -0.0048(3) 0.3009(4)
C5 C 0.6294(8) 0.0033(3) 0.3368(4)
C6 C 0.6338(8) 0.0070(3) 0.4063(4)
H3 H 0.5590 0.0119 0.4315
C7 C 0.7772(9) 0.0248(4) 0.1859(4)
C8 C 0.7677(8) 0.0146(3) 0.1134(4)
C9 C 0.7855(10) -0.0322(4) 0.0871(5)
H4 H 0.7982 -0.0601 0.1174
C10 C 0.7879(11) -0.0407(5) 0.0164(5)
H5 H 0.8074 -0.0735 -0.0019
C11 C 0.7591(9) -0.0019(4) -0.0286(4)
C12 C 0.7378(12) 0.0423(5) -0.0007(5)
H6 H 0.7228 0.0703 -0.0306
C13 C 0.7381(11) 0.0502(4) 0.0688(5)
H7 H 0.7221 0.0836 0.0860
C14 C 0.5081(8) 0.0077(4) 0.3003(4)
H8 H 0.5234 0.0048 0.2527
H9 H 0.4539 -0.0191 0.3144
H10 H 0.4704 0.0399 0.3096
C15 C 0.9720(9) -0.0184(4) 0.2966(4)
H11 H 0.9548 -0.0193 0.2491
H12 H 1.0299 0.0083 0.3060
H13 H 1.0067 -0.0503 0.3104
C16 C 0.7555(11) -0.0103(5) -0.1038(5)
C18 C 0.6172(18) -0.0163(10) -0.1211(8)
H17 H 0.5744 0.0156 -0.1223
H18 H 0.5796 -0.0380 -0.0879
H19 H 0.6124 -0.0322 -0.1646
C19 C 0.7810(16) 0.0338(5) -0.1462(6)
H20 H 0.8644 0.0449 -0.1389
H21 H 0.7691 0.0265 -0.1933
H22 H 0.7248 0.0601 -0.1327
C21 C 0.812(3) -0.0611(8) -0.1253(8)
H26 H 0.7973 -0.0673 -0.1724
H27 H 0.7850 -0.0899 -0.0995
H28 H 0.8985 -0.0556 -0.1179
O4 O 0.5587(7) 0.1216(3) 0.4723(3)
O5 O 0.3683(7) 0.1004(3) 0.4796(3)
O6 O 0.4258(6) 0.0913(2) 0.8245(3)
N3 N 0.4645(9) 0.1151(3) 0.5050(3)
N4 N 0.4781(6) 0.1669(2) 0.7801(3)
H29 H 0.5017 0.1991 0.7883
C22 C 0.4666(9) 0.1243(3) 0.5789(4)
C23 C 0.5802(8) 0.1294(3) 0.6096(4)
H30 H 0.6560 0.1245 0.5853
C24 C 0.5848(9) 0.1415(3) 0.6782(4)
C25 C 0.4724(9) 0.1496(3) 0.7116(4)
C26 C 0.3577(9) 0.1432(3) 0.6803(4)
C27 C 0.3560(8) 0.1303(3) 0.6125(4)
H31 H 0.2787 0.1258 0.5893
C28 C 0.4553(8) 0.1356(4) 0.8329(4)
C29 C 0.4696(8) 0.1587(3) 0.9012(4)
C30 C 0.4678(11) 0.1265(4) 0.9557(4)
H32 H 0.4568 0.0907 0.9488
C31 C 0.4824(13) 0.1456(4) 1.0199(5)
H33 H 0.4794 0.1225 1.0574
C32 C 0.4958(10) 0.1947(4) 1.0360(5)
C33 C 0.4868(10) 0.2076(4) 0.9160(5)
H34 H 0.4947 0.2311 0.8794
C34 C 0.4986(11) 0.2245(4) 0.9814(5)
H35 H 0.5070 0.2602 0.9894
C35 C 0.2378(8) 0.1517(4) 0.7170(4)
H36 H 0.2539 0.1602 0.7633
H37 H 0.1946 0.1791 0.6956
H38 H 0.1882 0.1215 0.7150
C36 C 0.7065(8) 0.1469(4) 0.7145(4)
H39 H 0.6930 0.1555 0.7610
H40 H 0.7522 0.1157 0.7119
H41 H 0.7525 0.1735 0.6930
C37 C 0.5080(15) 0.2147(5) 1.1075(6)
C38 C 0.514(2) 0.1753(6) 1.1574(6)
H42 H 0.4346 0.1588 1.1580
H43 H 0.5765 0.1512 1.1458
H44 H 0.5309 0.1892 1.2013
C39 C 0.440(3) 0.2641(9) 1.1213(9)
H45 H 0.3530 0.2587 1.1162
H46 H 0.4671 0.2895 1.0898
H47 H 0.4575 0.2753 1.1664
C41 C 0.648(2) 0.2288(12) 1.1195(15)
H51 H 0.6584 0.2429 1.1637
H52 H 0.6740 0.2530 1.0862
H53 H 0.6969 0.1985 1.1154
O7 O 0.5653(7) 0.3805(3) 1.0603(3)
O8 O 0.3725(8) 0.3846(4) 1.0584(4)
O9 O 0.5465(7) 0.2707(2) 0.7514(3)
N5 N 0.4687(9) 0.3792(3) 1.0304(4)
N6 N 0.4669(6) 0.3490(3) 0.7493(3)
H57 H 0.4392 0.3743 0.7228
C43 C 0.4676(10) 0.3709(3) 0.9568(4)
C44 C 0.5784(9) 0.3717(3) 0.9240(4)
H58 H 0.6540 0.3768 0.9485
C45 C 0.5806(9) 0.3636(3) 0.8540(4)
C46 C 0.4672(9) 0.3563(3) 0.8216(4)
C47 C 0.3537(9) 0.3563(3) 0.8556(4)
C48 C 0.3564(9) 0.3639(3) 0.9247(4)
H59 H 0.2807 0.3645 0.9499
C49 C 0.5047(8) 0.3060(3) 0.7183(4)
C50 C 0.4967(9) 0.3053(3) 0.6440(4)
C51 C 0.5418(11) 0.2653(4) 0.6090(5)
H60 H 0.5826 0.2392 0.6343
C52 C 0.5381(12) 0.2616(4) 0.5390(5)
H61 H 0.5754 0.2331 0.5167
C53 C 0.4883(10) 0.2983(4) 0.5000(4)
C54 C 0.4478(11) 0.3380(4) 0.5350(5)
H62 H 0.4172 0.3658 0.5086
C55 C 0.4515(11) 0.3420(4) 0.6050(4)
H63 H 0.4244 0.3727 0.6266
C56 C 0.2345(8) 0.3482(4) 0.8183(4)
H64 H 0.2531 0.3431 0.7714
H65 H 0.1916 0.3190 0.8354
H66 H 0.1834 0.3777 0.8233
C57 C 0.6987(9) 0.3655(4) 0.8162(4)
H67 H 0.6811 0.3599 0.7693
H68 H 0.7383 0.3979 0.8215
H69 H 0.7525 0.3393 0.8325
C58 C 0.4828(14) 0.2928(4) 0.4237(5)
C60 C 0.429(3) 0.3376(9) 0.3897(12)
H73 H 0.4507 0.3677 0.4143
H74 H 0.3410 0.3343 0.3878
H75 H 0.4617 0.3399 0.3447
C61 C 0.6017(19) 0.2742(11) 0.3969(7)
H76 H 0.5869 0.2519 0.3594
H77 H 0.6449 0.2561 0.4318
H78 H 0.6507 0.3025 0.3823
C63 C 0.424(3) 0.2439(8) 0.4030(9)
H82 H 0.4172 0.2426 0.3547
H83 H 0.3430 0.2416 0.4227
H84 H 0.4737 0.2161 0.4185
C17? C 0.669(5) -0.0515(17) -0.1296(18)
H14? H 0.5813 -0.0493 -0.1248
H15? H 0.7006 -0.0779 -0.1009
H16? H 0.6897 -0.0590 -0.1757
C20? C 0.888(3) -0.028(2) -0.1192(19)
H23? H 0.9146 -0.0162 -0.1625
H24? H 0.9002 -0.0644 -0.1168
H25? H 0.9366 -0.0122 -0.0845
C40? C 0.372(3) 0.224(2) 1.131(2)
H48? H 0.3329 0.1918 1.1397
H49? H 0.3276 0.2413 1.0959
H50? H 0.3721 0.2440 1.1712
C42? C 0.604(5) 0.2586(18) 1.108(4)
H54? H 0.6801 0.2457 1.1253
H55? H 0.5743 0.2855 1.1360
H56? H 0.6169 0.2713 1.0628
C59? C 0.533(4) 0.3397(13) 0.394(2)
H70? H 0.6101 0.3476 0.4154
H71? H 0.4753 0.3669 0.4019
H72? H 0.5448 0.3354 0.3467
C62? C 0.333(5) 0.2884(16) 0.4022(17)
H79? H 0.2874 0.3148 0.4241
H80? H 0.3015 0.2559 0.4159
H81? H 0.3255 0.2918 0.3542
loop_
_geom_bond_atom_site_label_1
_geom_bond_atom_site_label_2
_geom_bond_site_symmetry_1
_geom_bond_site_symmetry_2
O1 N1 1_555 1_555
O2 N1 1_555 1_555
O3 C7 1_555 1_555
N1 C1 1_555 1_555
N2 H1 1_555 1_555
C1 C2 1_555 1_555
C2 H2 1_555 1_555
C3 C2 1_555 1_555
C4 N2 1_555 1_555
C5 C4 1_555 1_555
C6 C1 1_555 1_555
H3 C6 1_555 1_555
C7 N2 1_555 1_555
C8 C7 1_555 1_555
C9 C8 1_555 1_555
H4 C9 1_555 1_555
C10 C9 1_555 1_555
H5 C10 1_555 1_555
C11 C10 1_555 1_555
C12 C11 1_555 1_555
H6 C12 1_555 1_555
C13 C8 1_555 1_555
H7 C13 1_555 1_555
C14 C5 1_555 1_555
H8 C14 1_555 1_555
H9 C14 1_555 1_555
H10 C14 1_555 1_555
C15 C3 1_555 1_555
H11 C15 1_555 1_555
H12 C15 1_555 1_555
H13 C15 1_555 1_555
C16 C11 1_555 1_555
C18 C16 1_555 1_555
H17 C18 1_555 1_555
H18 C18 1_555 1_555
H19 C18 1_555 1_555
C19 C16 1_555 1_555
H20 C19 1_555 1_555
H21 C19 1_555 1_555
H22 C19 1_555 1_555
C21 C16 1_555 1_555
H26 C21 1_555 1_555
H27 C21 1_555 1_555
H28 C21 1_555 1_555
O4 N3 1_555 1_555
O5 N3 1_555 1_555
O6 C28 1_555 1_555
N3 C22 1_555 1_555
N4 H29 1_555 1_555
C22 C23 1_555 1_555
C23 H30 1_555 1_555
C24 C23 1_555 1_555
C25 N4 1_555 1_555
C26 C25 1_555 1_555
C27 C22 1_555 1_555
H31 C27 1_555 1_555
C28 N4 1_555 1_555
C29 C28 1_555 1_555
C30 C29 1_555 1_555
H32 C30 1_555 1_555
C31 C30 1_555 1_555
H33 C31 1_555 1_555
C32 C31 1_555 1_555
C33 C29 1_555 1_555
H34 C33 1_555 1_555
C34 C32 1_555 1_555
H35 C34 1_555 1_555
C35 C26 1_555 1_555
H36 C35 1_555 1_555
H37 C35 1_555 1_555
H38 C35 1_555 1_555
C36 C24 1_555 1_555
H39 C36 1_555 1_555
H40 C36 1_555 1_555
H41 C36 1_555 1_555
C37 C32 1_555 1_555
C38 C37 1_555 1_555
H42 C38 1_555 1_555
H43 C38 1_555 1_555
H44 C38 1_555 1_555
C39 C37 1_555 1_555
H45 C39 1_555 1_555
H46 C39 1_555 1_555
H47 C39 1_555 1_555
C41 C37 1_555 1_555
H51 C41 1_555 1_555
H52 C41 1_555 1_555
H53 C41 1_555 1_555
O7 N5 1_555 1_555
O8 N5 1_555 1_555
O9 C49 1_555 1_555
N5 C43 1_555 1_555
N6 H57 1_555 1_555
C43 C44 1_555 1_555
C44 H58 1_555 1_555
C45 C44 1_555 1_555
C46 N6 1_555 1_555
C47 C46 1_555 1_555
C48 C43 1_555 1_555
H59 C48 1_555 1_555
C49 N6 1_555 1_555
C50 C49 1_555 1_555
C51 C50 1_555 1_555
H60 C51 1_555 1_555
C52 C51 1_555 1_555
H61 C52 1_555 1_555
C53 C52 1_555 1_555
C54 C53 1_555 1_555
H62 C54 1_555 1_555
C55 C50 1_555 1_555
H63 C55 1_555 1_555
C56 C47 1_555 1_555
H64 C56 1_555 1_555
H65 C56 1_555 1_555
H66 C56 1_555 1_555
C57 C45 1_555 1_555
H67 C57 1_555 1_555
H68 C57 1_555 1_555
H69 C57 1_555 1_555
C58 C53 1_555 1_555
C60 C58 1_555 1_555
H73 C60 1_555 1_555
H74 C60 1_555 1_555
H75 C60 1_555 1_555
C61 C58 1_555 1_555
H76 C61 1_555 1_555
H77 C61 1_555 1_555
H78 C61 1_555 1_555
C63 C58 1_555 1_555
H82 C63 1_555 1_555
H83 C63 1_555 1_555
H84 C63 1_555 1_555
C3 C4 1_555 1_555
C5 C6 1_555 1_555
C12 C13 1_555 1_555
C24 C25 1_555 1_555
C26 C27 1_555 1_555
C33 C34 1_555 1_555
C45 C46 1_555 1_555
C47 C48 1_555 1_555
C54 C55 1_555 1_555

#END
