
#######################################################################
#
#                 Cambridge Crystallographic Data Centre
#                                CCDC 
#
#######################################################################
#
# If this CIF has been generated from an entry in the Cambridge 
# Structural Database, then it will include bibliographic, chemical, 
# crystal, experimental, refinement or atomic coordinate data resulting 
# from the CCDC's data processing and validation procedures.
#
#######################################################################

data_ACAMBR01
_chemical_formula_moiety         'C2 H6 N1 O1 1+,C2 H5 N1 O1,Br1 1-'
_chemical_name_systematic        'Acetamide hemihydrobromide'
_symmetry_cell_setting           monoclinic
_symmetry_space_group_name_H-M   'P 21/c'
_symmetry_Int_Tables_number      14
_space_group_name_Hall           '-P 2ybc'
loop_
_symmetry_equiv_pos_site_id
_symmetry_equiv_pos_as_xyz
1 x,y,z
2 -x,1/2+y,1/2-z
3 -x,-y,-z
4 x,1/2-y,1/2+z
_cell_length_a                   6.47(2)
_cell_length_b                   8.59(3)
_cell_length_c                   8.25(3)
_cell_angle_alpha                90
_cell_angle_beta                 113.63
_cell_angle_gamma                90
_cell_volume                     420.068
_cell_formula_units_Z            2
loop_
_atom_site_label
_atom_site_type_symbol
_atom_site_fract_x
_atom_site_fract_y
_atom_site_fract_z
Br1 Br 0.00000 0.50000 0.00000
C1 C 0.29840 -0.04480 0.13990
C2 C 0.36220 0.11590 0.23530
N1 N 0.15990 -0.13960 0.18050
O1 O 0.36560 -0.09140 0.02260
loop_
_geom_bond_atom_site_label_1
_geom_bond_atom_site_label_2
_geom_bond_site_symmetry_1
_geom_bond_site_symmetry_2
C1 C2 1_555 1_555
N1 C1 1_555 1_555
O1 C1 1_555 1_555

#END
