
#######################################################################
#
#                 Cambridge Crystallographic Data Centre
#                                CCDC 
#
#######################################################################
#
# If this CIF has been generated from an entry in the Cambridge 
# Structural Database, then it will include bibliographic, chemical, 
# crystal, experimental, refinement or atomic coordinate data resulting 
# from the CCDC's data processing and validation procedures.
#
#######################################################################

data_ACAMUM
_chemical_formula_moiety         'C23 H33 N3 O1'
_chemical_name_systematic        
'N-(2,6-diisopropyl-4-dimethylaminophenyl) 4-dimethylaminobenzamide'
_symmetry_cell_setting           monoclinic
_symmetry_space_group_name_H-M   'C 2/c'
_symmetry_Int_Tables_number      15
_space_group_name_Hall           '-C 2yn'
loop_
_symmetry_equiv_pos_site_id
_symmetry_equiv_pos_as_xyz
1 x,y,z
2 1/2+x,1/2+y,z
3 x,-y,1/2+z
4 1/2+x,1/2-y,1/2+z
5 -x,-y,-z
6 1/2-x,1/2-y,-z
7 -x,y,1/2-z
8 1/2-x,1/2+y,1/2-z
_cell_length_a                   15.567(7)
_cell_length_b                   19.117(10)
_cell_length_c                   15.266(6)
_cell_angle_alpha                90
_cell_angle_beta                 97.25(3)
_cell_angle_gamma                90
_cell_volume                     4506.75
_exptl_crystal_colour            colorless
_exptl_crystal_description       needles
_cell_formula_units_Z            8
loop_
_atom_site_label
_atom_site_type_symbol
_atom_site_fract_x
_atom_site_fract_y
_atom_site_fract_z
O1 O 0.7500 0.2500 0.0000
N1 N 0.8739(3) 0.2494(2) 0.1300(3)
N2 N 0.8194(4) 0.5315(3) 0.2145(4)
N3 N 0.8982(4) -0.0808(3) 0.0405(3)
C1 C 0.8613(4) 0.3214(3) 0.1524(3)
C2 C 0.9122(4) 0.3731(3) 0.1214(3)
C3 C 0.8982(5) 0.4425(3) 0.1431(4)
H3 H 0.9331 0.4770 0.1234
C4 C 0.8324(5) 0.4620(3) 0.1945(4)
C5 C 0.7834(4) 0.4082(3) 0.2241(4)
H4 H 0.7401 0.4193 0.2585
C6 C 0.7968(4) 0.3379(3) 0.2040(4)
C7 C 0.8333(8) 0.2124(7) 0.0738(7)
C9 C 0.8544(8) 0.1334(6) 0.0645(7)
C11 C 0.9270(11) 0.1062(6) 0.1155(11)
H5 H 0.9633 0.1351 0.1527
C13 C 0.9445(10) 0.0353(5) 0.1099(9)
H7 H 0.9927 0.0174 0.1449
C15 C 0.8937(4) -0.0104(3) 0.0548(3)
C16 C 0.8279(10) 0.0230(6) 0.0000(10)
H9 H 0.7984 -0.0039 -0.0448
C18 C 0.8016(7) 0.0923(4) 0.0049(6)
H11 H 0.7525 0.1098 -0.0290
C20 C 0.9817(4) 0.3548(3) 0.0620(4)
H13 H 1.0025 0.3075 0.0777
C21 C 0.9401(5) 0.3530(5) -0.0355(4)
H14 H 0.8901 0.3232 -0.0410
H15 H 0.9813 0.3353 -0.0717
H16 H 0.9230 0.3995 -0.0542
C22 C 1.0595(5) 0.4029(4) 0.0717(5)
H17 H 1.0815 0.4073 0.1331
H18 H 1.0427 0.4481 0.0481
H19 H 1.1036 0.3837 0.0401
C23 C 0.7395(4) 0.2822(3) 0.2395(4)
H20 H 0.7518 0.2401 0.2067
C24 C 0.6458(5) 0.2939(4) 0.2126(5)
H21 H 0.6280 0.3358 0.2399
H22 H 0.6137 0.2548 0.2309
H23 H 0.6350 0.2985 0.1496
C25 C 0.774(4) 0.266(3) 0.329(4)
H24 H 0.8354 0.2593 0.3326
H25 H 0.7477 0.2233 0.3466
H26 H 0.7614 0.3032 0.3671
C27 C 0.7571(7) 0.5487(4) 0.2723(6)
H30 H 0.7698 0.5232 0.3266
H31 H 0.7002 0.5366 0.2448
H32 H 0.7595 0.5980 0.2845
C28 C 0.8769(5) 0.5842(3) 0.1939(6)
H33 H 0.8579 0.6286 0.2137
H34 H 0.8779 0.5857 0.1311
H35 H 0.9340 0.5744 0.2228
C29 C 0.9683(5) -0.1214(4) 0.0822(5)
H36 H 0.9649 -0.1679 0.0582
H37 H 0.9652 -0.1234 0.1445
H38 H 1.0221 -0.1003 0.0719
C30 C 0.8412(6) -0.1132(4) -0.0290(5)
H39 H 0.8584 -0.1610 -0.0356
H40 H 0.8440 -0.0885 -0.0833
H41 H 0.7829 -0.1119 -0.0146
C7E C 0.6667(8) 0.2876(7) -0.0738(7)
N1E N 0.6261(3) 0.2506(2) -0.1300(3)
C1E C 0.6387(4) 0.1786(3) -0.1524(3)
C2E C 0.5878(4) 0.1269(3) -0.1214(3)
C3E C 0.6018(5) 0.0575(3) -0.1431(4)
H3E H 0.5669 0.0230 -0.1234
C4E C 0.6676(5) 0.0380(3) -0.1945(4)
N2E N 0.6806(4) -0.0315(3) -0.2145(4)
C27E C 0.7429(7) -0.0487(4) -0.2723(6)
H30E H 0.7302 -0.0232 -0.3266
H31E H 0.7998 -0.0366 -0.2448
H32E H 0.7405 -0.0980 -0.2845
C28E C 0.6231(5) -0.0842(3) -0.1939(6)
H33E H 0.6421 -0.1286 -0.2137
H34E H 0.6221 -0.0857 -0.1311
H35E H 0.5660 -0.0744 -0.2228
C5E C 0.7166(4) 0.0918(3) -0.2241(4)
H4E H 0.7599 0.0807 -0.2585
C6E C 0.7032(4) 0.1621(3) -0.2040(4)
C23E C 0.7605(4) 0.2178(3) -0.2395(4)
H20E H 0.7482 0.2599 -0.2067
C24E C 0.8542(5) 0.2061(4) -0.2126(5)
H21E H 0.8720 0.1642 -0.2399
H22E H 0.8863 0.2452 -0.2309
H23E H 0.8650 0.2015 -0.1496
C25E C 0.726(4) 0.234(3) -0.329(4)
H24E H 0.6646 0.2407 -0.3326
H25E H 0.7523 0.2767 -0.3466
H26E H 0.7386 0.1968 -0.3671
C20E C 0.5183(4) 0.1452(3) -0.0620(4)
H13E H 0.4975 0.1925 -0.0777
C21E C 0.5599(5) 0.1470(5) 0.0355(4)
H14E H 0.6099 0.1768 0.0410
H15E H 0.5187 0.1647 0.0717
H16E H 0.5770 0.1005 0.0542
C22E C 0.4405(5) 0.0971(4) -0.0717(5)
H17E H 0.4185 0.0927 -0.1331
H18E H 0.4573 0.0519 -0.0481
H19E H 0.3964 0.1163 -0.0401
C9E C 0.6456(8) 0.3666(6) -0.0645(7)
C11E C 0.5730(11) 0.3938(6) -0.1155(11)
H5E H 0.5367 0.3649 -0.1527
C13E C 0.5555(10) 0.4647(5) -0.1099(9)
H7E H 0.5073 0.4826 -0.1449
C15E C 0.6063(4) 0.5104(3) -0.0548(3)
N3E N 0.6018(4) 0.5808(3) -0.0405(3)
C29E C 0.5317(5) 0.6214(4) -0.0822(5)
H36E H 0.5351 0.6679 -0.0582
H37E H 0.5348 0.6234 -0.1445
H38E H 0.4779 0.6003 -0.0719
C30E C 0.6588(6) 0.6132(4) 0.0290(5)
H39E H 0.6416 0.6610 0.0356
H40E H 0.6560 0.5885 0.0833
H41E H 0.7171 0.6119 0.0146
C16E C 0.6721(10) 0.4770(6) 0.0000(10)
H9E H 0.7016 0.5039 0.0448
C18E C 0.6984(7) 0.4077(4) -0.0049(6)
H11E H 0.7475 0.3902 0.0290
O2? O 0.9761(5) 0.2137(4) 0.2243(5)
H1? H 0.9167 0.2291 0.1611
H2? H 0.8387 0.2358 0.0853
C8? C 0.9235(6) 0.2012(6) 0.1606(6)
C10? C 0.9129(8) 0.1279(6) 0.1205(8)
C12? C 0.8463(11) 0.1087(7) 0.0532(11)
H6? H 0.8113 0.1439 0.0263
C14? C 0.8296(11) 0.0392(6) 0.0241(10)
H8? H 0.7797 0.0270 -0.0128
C17? C 0.9618(9) 0.0080(5) 0.1218(9)
H10? H 1.0005 -0.0266 0.1443
C19? C 0.9734(8) 0.0768(4) 0.1557(7)
H12? H 1.0187 0.0880 0.1992
C26? C 0.746(4) 0.285(3) 0.348(4)
H27? H 0.8047 0.2769 0.3729
H28? H 0.7096 0.2486 0.3674
H29? H 0.7268 0.3294 0.3658
loop_
_geom_bond_atom_site_label_1
_geom_bond_atom_site_label_2
_geom_bond_site_symmetry_1
_geom_bond_site_symmetry_2
O1 C7 1_555 1_555
N1 C1 1_555 1_555
N2 C4 1_555 1_555
N3 C15 1_555 1_555
C1 C2 1_555 1_555
C2 C3 1_555 1_555
C3 H3 1_555 1_555
C4 C3 1_555 1_555
C5 C4 1_555 1_555
H4 C5 1_555 1_555
C6 C1 1_555 1_555
C7 N1 1_555 1_555
C9 C7 1_555 1_555
C11 C9 1_555 1_555
H5 C11 1_555 1_555
C13 C11 1_555 1_555
H7 C13 1_555 1_555
C15 C13 1_555 1_555
C16 C15 1_555 1_555
H9 C16 1_555 1_555
C18 C9 1_555 1_555
H11 C18 1_555 1_555
C20 C2 1_555 1_555
H13 C20 1_555 1_555
C21 C20 1_555 1_555
H14 C21 1_555 1_555
H15 C21 1_555 1_555
H16 C21 1_555 1_555
C22 C20 1_555 1_555
H17 C22 1_555 1_555
H18 C22 1_555 1_555
H19 C22 1_555 1_555
C23 C6 1_555 1_555
H20 C23 1_555 1_555
C24 C23 1_555 1_555
H21 C24 1_555 1_555
H22 C24 1_555 1_555
H23 C24 1_555 1_555
C25 C23 1_555 1_555
H24 C25 1_555 1_555
H25 C25 1_555 1_555
H26 C25 1_555 1_555
C27 N2 1_555 1_555
H30 C27 1_555 1_555
H31 C27 1_555 1_555
H32 C27 1_555 1_555
C28 N2 1_555 1_555
H33 C28 1_555 1_555
H34 C28 1_555 1_555
H35 C28 1_555 1_555
C29 N3 1_555 1_555
H36 C29 1_555 1_555
H37 C29 1_555 1_555
H38 C29 1_555 1_555
C30 N3 1_555 1_555
H39 C30 1_555 1_555
H40 C30 1_555 1_555
H41 C30 1_555 1_555
C7E O1 1_555 1_555
N1E C7E 1_555 1_555
C1E N1E 1_555 1_555
C2E C1E 1_555 1_555
C3E C2E 1_555 1_555
H3E C3E 1_555 1_555
C4E C3E 1_555 1_555
N2E C4E 1_555 1_555
C27E N2E 1_555 1_555
H30E C27E 1_555 1_555
H31E C27E 1_555 1_555
H32E C27E 1_555 1_555
C28E N2E 1_555 1_555
H33E C28E 1_555 1_555
H34E C28E 1_555 1_555
H35E C28E 1_555 1_555
C5E C4E 1_555 1_555
H4E C5E 1_555 1_555
C6E C1E 1_555 1_555
C23E C6E 1_555 1_555
H20E C23E 1_555 1_555
C24E C23E 1_555 1_555
H21E C24E 1_555 1_555
H22E C24E 1_555 1_555
H23E C24E 1_555 1_555
C25E C23E 1_555 1_555
H24E C25E 1_555 1_555
H25E C25E 1_555 1_555
H26E C25E 1_555 1_555
C20E C2E 1_555 1_555
H13E C20E 1_555 1_555
C21E C20E 1_555 1_555
H14E C21E 1_555 1_555
H15E C21E 1_555 1_555
H16E C21E 1_555 1_555
C22E C20E 1_555 1_555
H17E C22E 1_555 1_555
H18E C22E 1_555 1_555
H19E C22E 1_555 1_555
C9E C7E 1_555 1_555
C11E C9E 1_555 1_555
H5E C11E 1_555 1_555
C13E C11E 1_555 1_555
H7E C13E 1_555 1_555
C15E C13E 1_555 1_555
N3E C15E 1_555 1_555
C29E N3E 1_555 1_555
H36E C29E 1_555 1_555
H37E C29E 1_555 1_555
H38E C29E 1_555 1_555
C30E N3E 1_555 1_555
H39E C30E 1_555 1_555
H40E C30E 1_555 1_555
H41E C30E 1_555 1_555
C16E C15E 1_555 1_555
H9E C16E 1_555 1_555
C18E C9E 1_555 1_555
H11E C18E 1_555 1_555
C5 C6 1_555 1_555
C16 C18 1_555 1_555
C5E C6E 1_555 1_555
C16E C18E 1_555 1_555

#END
