
#######################################################################
#
#                 Cambridge Crystallographic Data Centre
#                                CCDC 
#
#######################################################################
#
# If this CIF has been generated from an entry in the Cambridge 
# Structural Database, then it will include bibliographic, chemical, 
# crystal, experimental, refinement or atomic coordinate data resulting 
# from the CCDC's data processing and validation procedures.
#
#######################################################################

data_ACANEX
_chemical_formula_moiety         'C21 H28 N2 O1'
_chemical_name_systematic        
'N-(2,6-diisopropylphenyl) 4-dimethylaminobenzamide'
_symmetry_cell_setting           monoclinic
_symmetry_space_group_name_H-M   'C 2/c'
_symmetry_Int_Tables_number      15
_space_group_name_Hall           '-C 2yn'
loop_
_symmetry_equiv_pos_site_id
_symmetry_equiv_pos_as_xyz
1 x,y,z
2 1/2+x,1/2+y,z
3 x,-y,1/2+z
4 1/2+x,1/2-y,1/2+z
5 -x,-y,-z
6 1/2-x,1/2-y,-z
7 -x,y,1/2-z
8 1/2-x,1/2+y,1/2-z
_cell_length_a                   23.289(4)
_cell_length_b                   9.9638(15)
_cell_length_c                   17.896(3)
_cell_angle_alpha                90
_cell_angle_beta                 113.020(3)
_cell_angle_gamma                90
_cell_volume                     3822.02
_exptl_crystal_colour            colorless
_exptl_crystal_description       block
_cell_formula_units_Z            8
loop_
_atom_site_label
_atom_site_type_symbol
_atom_site_fract_x
_atom_site_fract_y
_atom_site_fract_z
N1 N 0.24516(9) 0.49944(17) 0.24161(11)
H1 H 0.2609 0.4179 0.2516
N2 N 0.47248(11) 0.4856(2) 0.59473(13)
O1 O 0.25667(8) 0.71810(15) 0.27691(10)
C1 C 0.27467(10) 0.6007(2) 0.29251(13)
C2 C 0.32845(10) 0.5648(2) 0.36810(13)
C3 C 0.36408(11) 0.6681(2) 0.41665(13)
H2 H 0.3550 0.7581 0.3983
C4 C 0.41177(11) 0.6441(2) 0.48987(14)
H3 H 0.4355 0.7171 0.5208
C5 C 0.42601(11) 0.5128(2) 0.51983(14)
C6 C 0.39027(12) 0.4078(2) 0.47086(14)
H4 H 0.3991 0.3177 0.4891
C7 C 0.34298(11) 0.4336(2) 0.39729(14)
H5 H 0.3196 0.3609 0.3655
C8 C 0.18895(10) 0.5221(2) 0.17197(13)
C9 C 0.19156(12) 0.5188(2) 0.09515(14)
C10 C 0.13551(13) 0.5372(2) 0.02829(14)
H6 H 0.1357 0.5369 -0.0247
C11 C 0.08028(13) 0.5556(2) 0.03733(15)
H7 H 0.0427 0.5674 -0.0092
C12 C 0.07892(12) 0.5570(2) 0.11392(14)
H8 H 0.0404 0.5704 0.1195
C13 C 0.13334(11) 0.5392(2) 0.18300(13)
C14 C 0.13041(12) 0.5328(2) 0.26632(14)
H9 H 0.1741 0.5222 0.3072
C15 C 0.09405(16) 0.4094(3) 0.27256(18)
H10 H 0.1124 0.3291 0.2591
H11 H 0.0505 0.4180 0.2345
H12 H 0.0959 0.4016 0.3280
C16 C 0.10469(16) 0.6613(3) 0.28676(19)
H13 H 0.1298 0.7377 0.2827
H14 H 0.1063 0.6557 0.3422
H15 H 0.0614 0.6737 0.2486
C17 C 0.25258(13) 0.4966(3) 0.08620(16)
H16 H 0.2762 0.4271 0.1270
C18 C 0.29194(16) 0.6240(4) 0.10625(19)
H17 H 0.2965 0.6569 0.1599
H18 H 0.2714 0.6928 0.0653
H19 H 0.3332 0.6044 0.1064
C19 C 0.24476(16) 0.4437(3) 0.00282(18)
H20 H 0.2194 0.3619 -0.0092
H21 H 0.2858 0.4235 0.0025
H22 H 0.2240 0.5119 -0.0384
C20 C 0.48617(14) 0.3495(3) 0.62392(16)
H23 H 0.4573 0.2879 0.5841
H24 H 0.4814 0.3409 0.6757
H25 H 0.5291 0.3272 0.6317
C21 C 0.50872(13) 0.5943(3) 0.64371(15)
H26 H 0.4938 0.6796 0.6155
H27 H 0.5527 0.5819 0.6530
H28 H 0.5043 0.5953 0.6960
loop_
_geom_bond_atom_site_label_1
_geom_bond_atom_site_label_2
_geom_bond_site_symmetry_1
_geom_bond_site_symmetry_2
N1 H1 1_555 1_555
N2 C5 1_555 1_555
O1 C1 1_555 1_555
C1 N1 1_555 1_555
C2 C1 1_555 1_555
C3 C2 1_555 1_555
H2 C3 1_555 1_555
C4 C3 1_555 1_555
H3 C4 1_555 1_555
C5 C4 1_555 1_555
C6 C5 1_555 1_555
H4 C6 1_555 1_555
C7 C2 1_555 1_555
H5 C7 1_555 1_555
C8 N1 1_555 1_555
C9 C8 1_555 1_555
C10 C9 1_555 1_555
H6 C10 1_555 1_555
C11 C10 1_555 1_555
H7 C11 1_555 1_555
C12 C11 1_555 1_555
H8 C12 1_555 1_555
C13 C8 1_555 1_555
C14 C13 1_555 1_555
H9 C14 1_555 1_555
C15 C14 1_555 1_555
H10 C15 1_555 1_555
H11 C15 1_555 1_555
H12 C15 1_555 1_555
C16 C14 1_555 1_555
H13 C16 1_555 1_555
H14 C16 1_555 1_555
H15 C16 1_555 1_555
C17 C9 1_555 1_555
H16 C17 1_555 1_555
C18 C17 1_555 1_555
H17 C18 1_555 1_555
H18 C18 1_555 1_555
H19 C18 1_555 1_555
C19 C17 1_555 1_555
H20 C19 1_555 1_555
H21 C19 1_555 1_555
H22 C19 1_555 1_555
C20 N2 1_555 1_555
H23 C20 1_555 1_555
H24 C20 1_555 1_555
H25 C20 1_555 1_555
C21 N2 1_555 1_555
H26 C21 1_555 1_555
H27 C21 1_555 1_555
H28 C21 1_555 1_555
C6 C7 1_555 1_555
C12 C13 1_555 1_555

#END
