
#######################################################################
#
#                 Cambridge Crystallographic Data Centre
#                                CCDC 
#
#######################################################################
#
# If this CIF has been generated from an entry in the Cambridge 
# Structural Database, then it will include bibliographic, chemical, 
# crystal, experimental, refinement or atomic coordinate data resulting 
# from the CCDC's data processing and validation procedures.
#
#######################################################################

data_ACANAT
_chemical_formula_moiety         'C25 H36 N2 O1'
_chemical_name_systematic        
'N-(4-dimethylamino-2,6-diisopropylphenyl) 4-t-butylbenzamide'
_symmetry_cell_setting           monoclinic
_symmetry_space_group_name_H-M   'P 21/n'
_symmetry_Int_Tables_number      14
_space_group_name_Hall           '-P 2yn'
loop_
_symmetry_equiv_pos_site_id
_symmetry_equiv_pos_as_xyz
1 x,y,z
2 1/2+x,1/2-y,1/2+z
3 -x,-y,-z
4 1/2-x,1/2+y,1/2-z
_cell_length_a                   9.539(2)
_cell_length_b                   10.092(2)
_cell_length_c                   25.400(5)
_cell_angle_alpha                90
_cell_angle_beta                 99.911(4)
_cell_angle_gamma                90
_cell_volume                     2408.71
_cell_formula_units_Z            4
loop_
_atom_site_label
_atom_site_type_symbol
_atom_site_fract_x
_atom_site_fract_y
_atom_site_fract_z
O1 O 0.2571(4) 0.3415(3) 0.75460(13)
N1 N -0.1463(5) 0.1567(5) 0.5407(2)
N2 N 0.2082(4) 0.1260(3) 0.74126(13)
H1 H 0.2165(4) 0.0479(3) 0.75501(13)
C1 C -0.0593(5) 0.1545(4) 0.5905(2)
C2 C -0.1156(5) 0.1511(4) 0.6375(2)
H2 H -0.2139(5) 0.1524(4) 0.6352(2)
C3 C -0.0297(5) 0.1460(4) 0.6878(2)
C4 C 0.1176(5) 0.1442(4) 0.6908(2)
C5 C 0.1773(5) 0.1490(4) 0.6447(2)
C6 C 0.0886(5) 0.1560(4) 0.5949(2)
H3 H 0.1289(5) 0.1619(4) 0.5641(2)
C7 C -0.0890(6) 0.1785(5) 0.4926(2)
H4 H -0.1647(6) 0.1767(5) 0.4624(2)
H5 H -0.0214(6) 0.1101(5) 0.4889(2)
H6 H -0.0426(6) 0.2632(5) 0.4945(2)
C8 C -0.2966(5) 0.1342(5) 0.5365(2)
H7 H -0.3412(5) 0.1390(5) 0.4996(2)
H8 H -0.3367(5) 0.2005(5) 0.5566(2)
H9 H -0.3124(5) 0.0480(5) 0.5504(2)
C9 C -0.0921(6) 0.1441(6) 0.7378(2)
H10 H -0.0209(6) 0.1011(6) 0.7648(2)
C10 C 0.3368(5) 0.1457(6) 0.6466(2)
H11 H 0.3799(5) 0.1369(6) 0.6843(2)
C11 C 0.3832(6) 0.0265(7) 0.6186(3)
H12 H 0.3451(6) -0.0521(7) 0.6320(3)
H13 H 0.4852(6) 0.0217(7) 0.6249(3)
H14 H 0.3489(6) 0.0338(7) 0.5809(3)
C12 C 0.3927(6) 0.2726(6) 0.6274(3)
H15 H 0.3606(6) 0.3458(6) 0.6464(3)
H16 H 0.3584(6) 0.2827(6) 0.5898(3)
H17 H 0.4948(6) 0.2705(6) 0.6339(3)
C13 C 0.2810(5) 0.2262(4) 0.7680(2)
C14 C 0.3953(5) 0.1913(4) 0.8137(2)
C15 C 0.4748(5) 0.2915(4) 0.8405(2)
H18 H 0.4490(5) 0.3790(4) 0.8324(2)
C16 C 0.5915(5) 0.2659(4) 0.8791(2)
H19 H 0.6438(5) 0.3366(4) 0.8958(2)
C17 C 0.6330(5) 0.1397(4) 0.8936(2)
C18 C 0.5501(6) 0.0391(4) 0.8679(2)
H20 H 0.5735(6) -0.0481(4) 0.8775(2)
C19 C 0.4337(5) 0.0627(4) 0.8286(2)
H21 H 0.3809(5) -0.0080(4) 0.8122(2)
C20 C 0.7668(6) 0.1082(5) 0.9345(2)
C21 C 0.8621(7) 0.0198(7) 0.9103(3)
H22 H 0.8092(7) -0.0555(7) 0.8946(3)
H23 H 0.9385(7) -0.0097(7) 0.9375(3)
H24 H 0.9004(7) 0.0672(7) 0.8833(3)
C22 C 0.8381(6) 0.2290(5) 0.9603(3)
H25 H 0.7702(6) 0.2812(5) 0.9750(3)
H26 H 0.8760(6) 0.2802(5) 0.9341(3)
H27 H 0.9140(6) 0.2032(5) 0.9883(3)
C23 C 0.7185(7) 0.0270(6) 0.9820(3)
H28 H 0.6562(7) 0.0807(6) 0.9990(3)
H29 H 0.8009(7) 0.0034(6) 1.0077(3)
H30 H 0.6695(7) -0.0519(6) 0.9681(3)
C24 C -0.2138(16) 0.0782(15) 0.7381(4)
H31 H -0.2062(16) -0.0094(15) 0.7242(4)
H32 H -0.2908(16) 0.1243(15) 0.7164(4)
H33 H -0.2318(16) 0.0725(15) 0.7741(4)
C25 C -0.1166(15) 0.2716(10) 0.7590(5)
H34 H -0.0329(15) 0.3252(10) 0.7606(5)
H35 H -0.1384(15) 0.2615(10) 0.7944(5)
H36 H -0.1951(15) 0.3136(10) 0.7365(5)
loop_
_geom_bond_atom_site_label_1
_geom_bond_atom_site_label_2
_geom_bond_site_symmetry_1
_geom_bond_site_symmetry_2
O1 C13 1_555 1_555
N1 C1 1_555 1_555
N2 H1 1_555 1_555
C1 C2 1_555 1_555
C2 H2 1_555 1_555
C3 C2 1_555 1_555
C4 N2 1_555 1_555
C5 C4 1_555 1_555
C6 C1 1_555 1_555
H3 C6 1_555 1_555
C7 N1 1_555 1_555
H4 C7 1_555 1_555
H5 C7 1_555 1_555
H6 C7 1_555 1_555
C8 N1 1_555 1_555
H7 C8 1_555 1_555
H8 C8 1_555 1_555
H9 C8 1_555 1_555
C9 C3 1_555 1_555
H10 C9 1_555 1_555
C10 C5 1_555 1_555
H11 C10 1_555 1_555
C11 C10 1_555 1_555
H12 C11 1_555 1_555
H13 C11 1_555 1_555
H14 C11 1_555 1_555
C12 C10 1_555 1_555
H15 C12 1_555 1_555
H16 C12 1_555 1_555
H17 C12 1_555 1_555
C13 N2 1_555 1_555
C14 C13 1_555 1_555
C15 C14 1_555 1_555
H18 C15 1_555 1_555
C16 C15 1_555 1_555
H19 C16 1_555 1_555
C17 C16 1_555 1_555
C18 C17 1_555 1_555
H20 C18 1_555 1_555
C19 C14 1_555 1_555
H21 C19 1_555 1_555
C20 C17 1_555 1_555
C21 C20 1_555 1_555
H22 C21 1_555 1_555
H23 C21 1_555 1_555
H24 C21 1_555 1_555
C22 C20 1_555 1_555
H25 C22 1_555 1_555
H26 C22 1_555 1_555
H27 C22 1_555 1_555
C23 C20 1_555 1_555
H28 C23 1_555 1_555
H29 C23 1_555 1_555
H30 C23 1_555 1_555
C24 C9 1_555 1_555
H31 C24 1_555 1_555
H32 C24 1_555 1_555
H33 C24 1_555 1_555
C25 C9 1_555 1_555
H34 C25 1_555 1_555
H35 C25 1_555 1_555
H36 C25 1_555 1_555
C3 C4 1_555 1_555
C5 C6 1_555 1_555
C18 C19 1_555 1_555

#END
