
#######################################################################
#
#                 Cambridge Crystallographic Data Centre
#                                CCDC 
#
#######################################################################
#
# If this CIF has been generated from an entry in the Cambridge 
# Structural Database, then it will include bibliographic, chemical, 
# crystal, experimental, refinement or atomic coordinate data resulting 
# from the CCDC's data processing and validation procedures.
#
#######################################################################

data_ACANIL06
_chemical_formula_moiety         'C8 H9 N1 O1'
_chemical_name_systematic        N-Phenylacetamide
_symmetry_cell_setting           orthorhombic
_symmetry_space_group_name_H-M   'P b c a'
_symmetry_Int_Tables_number      61
_space_group_name_Hall           '-P 2ac 2ab'
loop_
_symmetry_equiv_pos_site_id
_symmetry_equiv_pos_as_xyz
1 x,y,z
2 1/2+x,1/2-y,-z
3 -x,1/2+y,1/2-z
4 1/2-x,-y,1/2+z
5 -x,-y,-z
6 1/2-x,1/2+y,z
7 x,1/2-y,1/2+z
8 1/2+x,y,1/2-z
_cell_length_a                   9.4237(4)
_cell_length_b                   7.8685(4)
_cell_length_c                   19.5593(10)
_cell_angle_alpha                90
_cell_angle_beta                 90
_cell_angle_gamma                90
_cell_volume                     1450.33
_exptl_crystal_colour            colorless
_exptl_crystal_description       Block
_cell_formula_units_Z            8
loop_
_atom_site_label
_atom_site_type_symbol
_atom_site_fract_x
_atom_site_fract_y
_atom_site_fract_z
N1 N 0.54463(10) 0.19765(13) 0.52713(4)
H1 H 0.4574 0.2343 0.5208
O1 O 0.75722(9) 0.16207(13) 0.47416(4)
C1 C 0.57429(11) 0.12808(14) 0.59221(5)
C2 C 0.68989(12) 0.02342(15) 0.60566(6)
H2 H 0.7529 -0.0082 0.5699
C3 C 0.71228(13) -0.03439(17) 0.67198(6)
H3 H 0.7917 -0.1050 0.6814
C4 C 0.62139(14) 0.00892(16) 0.72420(6)
H4 H 0.6390 -0.0295 0.7695
C5 C 0.50403(14) 0.10885(17) 0.71026(6)
H5 H 0.4396 0.1368 0.7459
C6 C 0.48010(12) 0.16813(16) 0.64479(6)
H6 H 0.3992 0.2364 0.6356
C7 C 0.63431(12) 0.21479(15) 0.47330(5)
C8 C 0.57433(13) 0.30473(18) 0.41226(6)
H7 H 0.6234 0.4135 0.4060
H8 H 0.4728 0.3253 0.4194
H9 H 0.5876 0.2342 0.3715
loop_
_geom_bond_atom_site_label_1
_geom_bond_atom_site_label_2
_geom_bond_site_symmetry_1
_geom_bond_site_symmetry_2
N1 H1 1_555 1_555
O1 C7 1_555 1_555
C1 N1 1_555 1_555
C2 C1 1_555 1_555
H2 C2 1_555 1_555
C3 C2 1_555 1_555
H3 C3 1_555 1_555
C4 C3 1_555 1_555
H4 C4 1_555 1_555
C5 C4 1_555 1_555
H5 C5 1_555 1_555
C6 C1 1_555 1_555
H6 C6 1_555 1_555
C7 N1 1_555 1_555
C8 C7 1_555 1_555
H7 C8 1_555 1_555
H8 C8 1_555 1_555
H9 C8 1_555 1_555
C5 C6 1_555 1_555

#END
