
#######################################################################
#
#                 Cambridge Crystallographic Data Centre
#                                CCDC 
#
#######################################################################
#
# If this CIF has been generated from an entry in the Cambridge 
# Structural Database, then it will include bibliographic, chemical, 
# crystal, experimental, refinement or atomic coordinate data resulting 
# from the CCDC's data processing and validation procedures.
#
#######################################################################

data_ACAREB
_chemical_formula_moiety         'C26 H46 N4 O2 P2 S2'
_chemical_name_systematic        
"O-(5-((bis(diethylamino)phosphorothioyl)oxy)-1-naphthyl) N,N,N',N'-tetraethyldiamidothiophosphate"
_symmetry_cell_setting           triclinic
_symmetry_space_group_name_H-M   'P -1'
_symmetry_Int_Tables_number      2
_space_group_name_Hall           '-P 1'
loop_
_symmetry_equiv_pos_site_id
_symmetry_equiv_pos_as_xyz
1 x,y,z
2 -x,-y,-z
_cell_length_a                   7.378(1)
_cell_length_b                   7.658(2)
_cell_length_c                   14.319(3)
_cell_angle_alpha                101.53(3)
_cell_angle_beta                 100.91(3)
_cell_angle_gamma                87.22(3)
_cell_volume                     778.332
_exptl_crystal_colour            colorless
_exptl_crystal_description       prism
_chemical_melting_point          '187-188 deg.C'
_cell_formula_units_Z            1
loop_
_atom_site_label
_atom_site_type_symbol
_atom_site_fract_x
_atom_site_fract_y
_atom_site_fract_z
S1 S 0.54133(8) 0.51314(8) 0.78215(4)
P1 P 0.35622(7) 0.33069(6) 0.75682(3)
O1 O 0.1762(2) 0.3638(2) 0.67845(9)
N1 N 0.4369(2) 0.1309(2) 0.72040(13)
N2 N 0.2433(2) 0.3137(2) 0.84337(12)
C1 C 0.1734(3) 0.4008(2) 0.58700(13)
C2 C 0.3140(3) 0.3575(3) 0.53683(15)
C3 C 0.2948(3) 0.3947(3) 0.44297(14)
C4 C 0.1391(3) 0.4716(3) 0.40150(14)
C5 C 0.0083(3) 0.4823(2) 0.54774(13)
C6 C 0.6250(3) 0.0938(4) 0.7013(2)
C7 C 0.7470(5) 0.0095(6) 0.7772(3)
C8 C 0.3127(4) -0.0232(3) 0.6948(2)
C9 C 0.2460(7) -0.0804(5) 0.5870(3)
C10 C 0.0757(4) 0.4200(4) 0.8582(2)
C11 C 0.1008(7) 0.6179(5) 0.8863(3)
C12 C 0.3545(4) 0.2673(4) 0.9323(2)
C13 C 0.2759(6) 0.1128(5) 0.9608(3)
H1 H 0.4258(33) 0.3099(31) 0.5644(16)
H2 H 0.3963(29) 0.3701(27) 0.4132(15)
H3 H 0.1348(31) 0.4975(29) 0.3399(17)
H4 H 0.6773(38) 0.2037(38) 0.6949(19)
H5 H 0.6092(39) 0.0155(39) 0.6361(22)
H6 H 0.6899(50) -0.1024(54) 0.7850(26)
H7 H 0.8665(65) -0.0166(57) 0.7567(31)
H8 H 0.7632(52) 0.0988(53) 0.8365(28)
H9 H 0.2112(38) 0.0157(35) 0.7305(20)
H10 H 0.3848(47) -0.1216(47) 0.7211(24)
H11 H 0.1739(65) -0.1753(67) 0.5795(33)
H12 H 0.1641(52) 0.0108(53) 0.5641(27)
H13 H 0.3531(86) -0.1030(76) 0.5490(43)
H14 H -0.0176(34) 0.3850(32) 0.7979(19)
H15 H 0.0269(36) 0.3764(34) 0.9091(19)
H16 H 0.1900(41) 0.6308(38) 0.9501(23)
H17 H -0.0210(53) 0.6804(49) 0.8998(25)
H18 H 0.1476(53) 0.6640(49) 0.8332(28)
H19 H 0.3596(40) 0.3734(40) 0.9848(22)
H20 H 0.4825(46) 0.2433(42) 0.9217(22)
H21 H 0.3352(54) 0.0977(50) 1.0187(31)
H22 H 0.2893(48) 0.0058(50) 0.9132(26)
H23 H 0.1479(58) 0.1327(49) 0.9630(27)
C5A C -0.0083(3) 0.5177(2) 0.45226(13)
C1A C -0.1734(3) 0.5992(2) 0.41300(13)
O1A O -0.1762(2) 0.6362(2) 0.32155(9)
P1A P -0.35622(7) 0.66931(6) 0.24318(3)
S1A S -0.54133(8) 0.48686(8) 0.21785(4)
N1A N -0.4369(2) 0.8691(2) 0.27960(13)
C6A C -0.6250(3) 0.9062(4) 0.2987(2)
C7A C -0.7470(5) 0.9905(6) 0.2228(3)
H6A H -0.6899(50) 1.1024(54) 0.2150(26)
H7A H -0.8665(65) 1.0166(57) 0.2433(31)
H8A H -0.7632(52) 0.9012(53) 0.1635(28)
H4A H -0.6773(38) 0.7963(38) 0.3051(19)
H5A H -0.6092(39) 0.9845(39) 0.3639(22)
C8A C -0.3127(4) 1.0232(3) 0.3052(2)
C9A C -0.2460(7) 1.0804(5) 0.4130(3)
H11A H -0.1739(65) 1.1753(67) 0.4205(33)
H12A H -0.1641(52) 0.9892(53) 0.4359(27)
H13A H -0.3531(86) 1.1030(76) 0.4510(43)
H9A H -0.2112(38) 0.9843(35) 0.2695(20)
H10A H -0.3848(47) 1.1216(47) 0.2789(24)
N2A N -0.2433(2) 0.6863(2) 0.15663(12)
C10A C -0.0757(4) 0.5800(4) 0.1418(2)
C11A C -0.1008(7) 0.3821(5) 0.1137(3)
H16A H -0.1900(41) 0.3692(38) 0.0499(23)
H17A H 0.0210(53) 0.3196(49) 0.1002(25)
H18A H -0.1476(53) 0.3360(49) 0.1668(28)
H14A H 0.0176(34) 0.6150(32) 0.2021(19)
H15A H -0.0269(36) 0.6236(34) 0.0909(19)
C12A C -0.3545(4) 0.7327(4) 0.0677(2)
C13A C -0.2759(6) 0.8872(5) 0.0392(3)
H21A H -0.3352(54) 0.9023(50) -0.0187(31)
H22A H -0.2893(48) 0.9942(50) 0.0868(26)
H23A H -0.1479(58) 0.8673(49) 0.0370(27)
H19A H -0.3596(40) 0.6266(40) 0.0152(22)
H20A H -0.4825(46) 0.7567(42) 0.0783(22)
C2A C -0.3140(3) 0.6425(3) 0.46317(15)
C3A C -0.2948(3) 0.6053(3) 0.55703(14)
C4A C -0.1391(3) 0.5284(3) 0.59850(14)
H3A H -0.1348(31) 0.5025(29) 0.6601(17)
H2A H -0.3963(29) 0.6299(27) 0.5868(15)
H1A H -0.4258(33) 0.6901(31) 0.4356(16)
loop_
_geom_bond_atom_site_label_1
_geom_bond_atom_site_label_2
_geom_bond_site_symmetry_1
_geom_bond_site_symmetry_2
S1 P1 1_555 1_555
P1 O1 1_555 1_555
O1 C1 1_555 1_555
N1 P1 1_555 1_555
N2 P1 1_555 1_555
C1 C2 1_555 1_555
C2 C3 1_555 1_555
C3 C4 1_555 1_555
C4 H3 1_555 1_555
C5 C1 1_555 1_555
C6 N1 1_555 1_555
C7 C6 1_555 1_555
C8 N1 1_555 1_555
C9 C8 1_555 1_555
C10 N2 1_555 1_555
C11 C10 1_555 1_555
C12 N2 1_555 1_555
C13 C12 1_555 1_555
H1 C2 1_555 1_555
H2 C3 1_555 1_555
H4 C6 1_555 1_555
H5 C6 1_555 1_555
H6 C7 1_555 1_555
H7 C7 1_555 1_555
H8 C7 1_555 1_555
H9 C8 1_555 1_555
H10 C8 1_555 1_555
H11 C9 1_555 1_555
H12 C9 1_555 1_555
H13 C9 1_555 1_555
H14 C10 1_555 1_555
H15 C10 1_555 1_555
H16 C11 1_555 1_555
H17 C11 1_555 1_555
H18 C11 1_555 1_555
H19 C12 1_555 1_555
H20 C12 1_555 1_555
H21 C13 1_555 1_555
H22 C13 1_555 1_555
H23 C13 1_555 1_555
C5A C4 1_555 1_555
C1A C5A 1_555 1_555
O1A C1A 1_555 1_555
P1A O1A 1_555 1_555
S1A P1A 1_555 1_555
N1A P1A 1_555 1_555
C6A N1A 1_555 1_555
C7A C6A 1_555 1_555
H6A C7A 1_555 1_555
H7A C7A 1_555 1_555
H8A C7A 1_555 1_555
H4A C6A 1_555 1_555
H5A C6A 1_555 1_555
C8A N1A 1_555 1_555
C9A C8A 1_555 1_555
H11A C9A 1_555 1_555
H12A C9A 1_555 1_555
H13A C9A 1_555 1_555
H9A C8A 1_555 1_555
H10A C8A 1_555 1_555
N2A P1A 1_555 1_555
C10A N2A 1_555 1_555
C11A C10A 1_555 1_555
H16A C11A 1_555 1_555
H17A C11A 1_555 1_555
H18A C11A 1_555 1_555
H14A C10A 1_555 1_555
H15A C10A 1_555 1_555
C12A N2A 1_555 1_555
C13A C12A 1_555 1_555
H21A C13A 1_555 1_555
H22A C13A 1_555 1_555
H23A C13A 1_555 1_555
H19A C12A 1_555 1_555
H20A C12A 1_555 1_555
C2A C1A 1_555 1_555
C3A C2A 1_555 1_555
C4A C5 1_555 1_555
H3A C4A 1_555 1_555
H2A C3A 1_555 1_555
H1A C2A 1_555 1_555
C5 C5A 1_555 1_555
C3A C4A 1_555 1_555

#END
