
#######################################################################
#
#                 Cambridge Crystallographic Data Centre
#                                CCDC 
#
#######################################################################
#
# If this CIF has been generated from an entry in the Cambridge 
# Structural Database, then it will include bibliographic, chemical, 
# crystal, experimental, refinement or atomic coordinate data resulting 
# from the CCDC's data processing and validation procedures.
#
#######################################################################

data_ACARIF
_chemical_formula_moiety         'C26 H46 N4 O2 P2 S2'
_chemical_name_systematic        
"O-(7-((bis(diethylamino)phosphorothioyl)oxy)-2-naphthyl) N,N,N',N'-tetraethyldiamidothiophosphate"
_symmetry_cell_setting           monoclinic
_symmetry_space_group_name_H-M   'P 21/c'
_symmetry_Int_Tables_number      14
_space_group_name_Hall           '-P 2ybc'
loop_
_symmetry_equiv_pos_site_id
_symmetry_equiv_pos_as_xyz
1 x,y,z
2 x,1/2-y,1/2+z
3 -x,-y,-z
4 -x,1/2+y,1/2-z
_cell_length_a                   14.177(3)
_cell_length_b                   18.133(4)
_cell_length_c                   13.414(3)
_cell_angle_alpha                90
_cell_angle_beta                 110.63(3)
_cell_angle_gamma                90
_cell_volume                     3227.23
_exptl_crystal_colour            white
_exptl_crystal_description       prism
_chemical_melting_point          '104-105 deg.C'
_cell_formula_units_Z            4
loop_
_atom_site_label
_atom_site_type_symbol
_atom_site_fract_x
_atom_site_fract_y
_atom_site_fract_z
S1 S 0.6481(2) 0.84872(14) 0.2195(2)
S2 S 0.16228(19) 0.87662(18) -0.5799(3)
P1 P 0.76147(18) 0.83452(13) 0.1750(2)
P2 P 0.28406(18) 0.83327(14) -0.5861(2)
O1 O 0.7307(4) 0.8230(3) 0.0484(5)
O2 O 0.3613(4) 0.8080(3) -0.4720(5)
N1 N 0.8423(5) 0.9023(4) 0.2060(6)
N2 N 0.8271(6) 0.7576(4) 0.2108(6)
N3 N 0.3449(6) 0.8872(4) -0.6383(6)
N4 N 0.2775(6) 0.7534(4) -0.6453(7)
C1 C 0.6082(6) 0.8202(4) -0.1213(7)
C2 C 0.6525(7) 0.8585(5) -0.0303(8)
C3 C 0.6259(7) 0.9326(5) -0.0186(8)
C4 C 0.5514(7) 0.9640(4) -0.0978(8)
C5 C 0.4248(7) 0.9597(5) -0.2794(8)
C6 C 0.3778(7) 0.9228(5) -0.3713(8)
C7 C 0.4063(6) 0.8500(5) -0.3822(7)
C8 C 0.4807(6) 0.8156(5) -0.3027(8)
C9 C 0.5309(6) 0.8531(4) -0.2061(7)
C10 C 0.5027(6) 0.9269(5) -0.1953(7)
C11 C 0.8315(8) 0.9678(6) 0.2664(10)
C12 C 0.8997(14) 0.9728(10) 0.3697(15)
C13 C 0.9277(8) 0.9021(6) 0.1678(9)
C14 C 0.9186(10) 0.9555(9) 0.0819(12)
C15 C 0.9034(12) 0.7545(7) 0.3172(13)
C16 C 0.902(2) 0.7247(16) 0.3936(18)
C17 C 0.7803(9) 0.6873(5) 0.1655(10)
C18 C 0.8352(16) 0.6435(7) 0.1178(15)
C19 C 0.3139(9) 0.9643(6) -0.6721(10)
C20 C 0.2545(11) 0.9711(7) -0.7866(11)
C21 C 0.4411(9) 0.8632(6) -0.6482(10)
C22 C 0.5340(8) 0.8894(7) -0.5586(10)
C23 C 0.2389(10) 0.7479(7) -0.7612(10)
C24 C 0.1396(13) 0.7338(14) -0.8150(14)
C25 C 0.2494(15) 0.6815(14) -0.5744(16)
C26 C 0.3267(17) 0.6539(15) -0.566(2)
H1 H 0.6414 0.7721 -0.1289
H2 H 0.6470 0.9379 0.0598
H3 H 0.5267 1.0160 -0.0886
H4 H 0.3931 0.9968 -0.2645
H5 H 0.3075 0.9379 -0.4278
H6 H 0.5201 0.7682 -0.3182
H7 H 0.7617 0.9723 0.2452
H8 H 0.8551 1.0252 0.2338
H9 H 0.8754 1.0033 0.4109
H10 H 0.9704 0.9885 0.3742
H11 H 0.9174 0.9214 0.4058
H12 H 0.9922 0.9096 0.2328
H13 H 0.9166 0.8486 0.1388
H14 H 0.9795 0.9565 0.0778
H15 H 0.9067 0.9967 0.1028
H16 H 0.8629 0.9406 0.0079
H17 H 0.9368 0.8034 0.3173
H18 H 0.9597 0.7226 0.3067
H19 H 0.9385 0.7311 0.4669
H20 H 0.8812 0.6726 0.3828
H21 H 0.8267 0.7439 0.3955
H22 H 0.7495 0.6609 0.2252
H23 H 0.7175 0.7016 0.1067
H24 H 0.8984 0.6332 0.1727
H25 H 0.8503 0.6708 0.0493
H26 H 0.7973 0.5973 0.0899
H27 H 0.2539 0.9806 -0.6301
H28 H 0.3737 0.9976 -0.6497
H29 H 0.3071 0.9395 -0.8222
H30 H 0.1874 0.9476 -0.8309
H31 H 0.2532 1.0039 -0.8323
H32 H 0.4415 0.8848 -0.7301
H33 H 0.4368 0.8104 -0.6576
H34 H 0.5936 0.8858 -0.5646
H35 H 0.5367 0.9503 -0.5666
H36 H 0.5231 0.8684 -0.4958
H37 H 0.2676 0.7048 -0.7856
H38 H 0.2582 0.7921 -0.7943
H39 H 0.1330 0.6929 -0.8736
H40 H 0.1209 0.7026 -0.7541
H41 H 0.0975 0.7696 -0.8462
H42 H 0.1900 0.6553 -0.6225
H43 H 0.2352 0.6994 -0.5158
H44 H 0.3208 0.6002 -0.5129
H45 H 0.3395 0.6273 -0.6154
H46 H 0.3848 0.6715 -0.5086
loop_
_geom_bond_atom_site_label_1
_geom_bond_atom_site_label_2
_geom_bond_site_symmetry_1
_geom_bond_site_symmetry_2
S1 P1 1_555 1_555
S2 P2 1_555 1_555
P1 O1 1_555 1_555
P2 O2 1_555 1_555
O1 C2 1_555 1_555
O2 C7 1_555 1_555
N1 P1 1_555 1_555
N2 P1 1_555 1_555
N3 P2 1_555 1_555
N4 P2 1_555 1_555
C1 C2 1_555 1_555
C2 C3 1_555 1_555
C3 C4 1_555 1_555
C4 C10 1_555 1_555
C5 C6 1_555 1_555
C6 C7 1_555 1_555
C7 C8 1_555 1_555
C8 C9 1_555 1_555
C9 C1 1_555 1_555
C10 C5 1_555 1_555
C11 N1 1_555 1_555
C12 C11 1_555 1_555
C13 N1 1_555 1_555
C14 C13 1_555 1_555
C15 N2 1_555 1_555
C16 C15 1_555 1_555
C17 N2 1_555 1_555
C18 C17 1_555 1_555
C19 N3 1_555 1_555
C20 C19 1_555 1_555
C21 N3 1_555 1_555
C22 C21 1_555 1_555
C23 N4 1_555 1_555
C24 C23 1_555 1_555
C25 N4 1_555 1_555
C26 C25 1_555 1_555
H1 C1 1_555 1_555
H2 C3 1_555 1_555
H3 C4 1_555 1_555
H4 C5 1_555 1_555
H5 C6 1_555 1_555
H6 C8 1_555 1_555
H7 C11 1_555 1_555
H8 C11 1_555 1_555
H9 C12 1_555 1_555
H10 C12 1_555 1_555
H11 C12 1_555 1_555
H12 C13 1_555 1_555
H13 C13 1_555 1_555
H14 C14 1_555 1_555
H15 C14 1_555 1_555
H16 C14 1_555 1_555
H17 C15 1_555 1_555
H18 C15 1_555 1_555
H19 C16 1_555 1_555
H20 C16 1_555 1_555
H21 C16 1_555 1_555
H22 C17 1_555 1_555
H23 C17 1_555 1_555
H24 C18 1_555 1_555
H25 C18 1_555 1_555
H26 C18 1_555 1_555
H27 C19 1_555 1_555
H28 C19 1_555 1_555
H29 C20 1_555 1_555
H30 C20 1_555 1_555
H31 C20 1_555 1_555
H32 C21 1_555 1_555
H33 C21 1_555 1_555
H34 C22 1_555 1_555
H35 C22 1_555 1_555
H36 C22 1_555 1_555
H37 C23 1_555 1_555
H38 C23 1_555 1_555
H39 C24 1_555 1_555
H40 C24 1_555 1_555
H41 C24 1_555 1_555
H42 C25 1_555 1_555
H43 C25 1_555 1_555
H44 C26 1_555 1_555
H45 C26 1_555 1_555
H46 C26 1_555 1_555
C9 C10 1_555 1_555

#END
