
#######################################################################
#
#                 Cambridge Crystallographic Data Centre
#                                CCDC 
#
#######################################################################
#
# If this CIF has been generated from an entry in the Cambridge 
# Structural Database, then it will include bibliographic, chemical, 
# crystal, experimental, refinement or atomic coordinate data resulting 
# from the CCDC's data processing and validation procedures.
#
#######################################################################

data_ACAWOT
_chemical_formula_moiety         'C23 H35 Cl1 F1 N1 O3'
_chemical_name_systematic        
'methyl 2-[(acetylamino)(4-chloro-2-fluorophenyl)methyl]tridecanoate unknown solvate'
_symmetry_cell_setting           monoclinic
_symmetry_space_group_name_H-M   'P 21/n'
_symmetry_Int_Tables_number      14
_space_group_name_Hall           '-P 2yn'
loop_
_symmetry_equiv_pos_site_id
_symmetry_equiv_pos_as_xyz
1 x,y,z
2 1/2-x,1/2+y,1/2-z
3 -x,-y,-z
4 1/2+x,1/2-y,1/2+z
_cell_length_a                   8.1200(8)
_cell_length_b                   41.543(4)
_cell_length_c                   9.1244(7)
_cell_angle_alpha                90
_cell_angle_beta                 113.735(10)
_cell_angle_gamma                90
_cell_volume                     2817.59
_exptl_crystal_colour            colorless
_exptl_crystal_description       plate
_cell_formula_units_Z            4
loop_
_atom_site_label
_atom_site_type_symbol
_atom_site_fract_x
_atom_site_fract_y
_atom_site_fract_z
Cl1 Cl 0.8472(2) 0.36184(4) 0.2260(2)
F1 F 0.2562(4) 0.34486(9) 0.2702(4)
O1 O 0.2476(5) 0.25219(9) 0.3220(4)
O2 O 0.1677(5) 0.29742(9) 0.7339(4)
O3 O 0.4474(5) 0.29078(9) 0.9218(4)
N1 N 0.4314(5) 0.26765(10) 0.5696(4)
H1 H 0.507435 0.261723 0.665670
C1 C 0.1061(10) 0.62644(17) 1.1716(11)
H2 H -0.016511 0.625693 1.088255
H3 H 0.184927 0.637571 1.130275
H4 H 0.105771 0.638041 1.265013
C2 C 0.1748(12) 0.59206(17) 1.2204(13)
H5 H 0.301099 0.592912 1.299951
H6 H 0.102136 0.581638 1.271932
C3 C 0.1650(10) 0.57185(17) 1.0775(13)
H7 H 0.237904 0.582292 1.026337
H8 H 0.038719 0.571137 0.997892
C4 C 0.2333(12) 0.53709(17) 1.1251(14)
H9 H 0.360009 0.537765 1.203646
H10 H 0.161264 0.526702 1.177369
C5 C 0.2208(12) 0.51689(17) 0.9809(16)
H11 H 0.094193 0.516590 0.901845
H12 H 0.293709 0.527276 0.929482
C6 C 0.2848(11) 0.48253(17) 1.0234(14)
H13 H 0.214126 0.472287 1.077408
H14 H 0.412455 0.482776 1.100043
C7 C 0.2669(11) 0.46226(17) 0.8775(14)
H15 H 0.335939 0.472666 0.822395
H16 H 0.138963 0.461657 0.801693
C8 C 0.3353(10) 0.42751(15) 0.9223(11)
H17 H 0.463784 0.427961 0.996844
H18 H 0.266991 0.417006 0.977686
C9 C 0.3138(9) 0.40795(14) 0.7734(9)
H19 H 0.185378 0.408012 0.698687
H20 H 0.382453 0.418669 0.718772
C10 C 0.3771(7) 0.37333(13) 0.8085(7)
H21 H 0.309521 0.362568 0.863895
H22 H 0.506115 0.373161 0.881747
C11 C 0.3521(7) 0.35439(12) 0.6583(6)
H23 H 0.416388 0.365610 0.601204
H24 H 0.222586 0.354062 0.586678
C12 C 0.4205(6) 0.31976(11) 0.6919(5)
H25 H 0.552612 0.320316 0.759653
C13 C 0.3899(6) 0.30146(12) 0.5355(5)
H26 H 0.260157 0.303469 0.461377
C14 C 0.5028(6) 0.31618(12) 0.4550(5)
C15 C 0.6856(7) 0.30905(13) 0.5077(6)
H27 H 0.738673 0.294444 0.594208
C16 C 0.7926(7) 0.32281(14) 0.4368(6)
H28 H 0.916536 0.317491 0.473657
C17 C 0.7156(7) 0.34409(14) 0.3134(7)
C18 C 0.5345(7) 0.35167(14) 0.2548(6)
H29 H 0.481256 0.366118 0.167681
C19 C 0.4347(7) 0.33735(13) 0.3283(6)
C20 C 0.3552(6) 0.24529(12) 0.4563(5)
C21 C 0.4111(7) 0.21110(13) 0.5083(6)
H30 H 0.448744 0.200596 0.430694
H31 H 0.309250 0.199345 0.514202
H32 H 0.511438 0.211146 0.613918
C22 C 0.3288(6) 0.30160(12) 0.7823(5)
C23 C 0.3759(8) 0.27219(16) 1.0176(6)
H33 H 0.289304 0.256389 0.949394
H34 H 0.315742 0.286643 1.065279
H35 H 0.474515 0.260979 1.102684
loop_
_geom_bond_atom_site_label_1
_geom_bond_atom_site_label_2
_geom_bond_site_symmetry_1
_geom_bond_site_symmetry_2
Cl1 C17 1_555 1_555
F1 C19 1_555 1_555
O1 C20 1_555 1_555
O2 C22 1_555 1_555
O3 C22 1_555 1_555
N1 H1 1_555 1_555
C1 H2 1_555 1_555
H3 C1 1_555 1_555
H4 C1 1_555 1_555
C2 C1 1_555 1_555
H5 C2 1_555 1_555
H6 C2 1_555 1_555
C3 C2 1_555 1_555
H7 C3 1_555 1_555
H8 C3 1_555 1_555
C4 C3 1_555 1_555
H9 C4 1_555 1_555
H10 C4 1_555 1_555
C5 C4 1_555 1_555
H11 C5 1_555 1_555
H12 C5 1_555 1_555
C6 C5 1_555 1_555
H13 C6 1_555 1_555
H14 C6 1_555 1_555
C7 C6 1_555 1_555
H15 C7 1_555 1_555
H16 C7 1_555 1_555
C8 C7 1_555 1_555
H17 C8 1_555 1_555
H18 C8 1_555 1_555
C9 C8 1_555 1_555
H19 C9 1_555 1_555
H20 C9 1_555 1_555
C10 C9 1_555 1_555
H21 C10 1_555 1_555
H22 C10 1_555 1_555
C11 C10 1_555 1_555
H23 C11 1_555 1_555
H24 C11 1_555 1_555
C12 C11 1_555 1_555
H25 C12 1_555 1_555
C13 N1 1_555 1_555
H26 C13 1_555 1_555
C14 C13 1_555 1_555
C15 C14 1_555 1_555
H27 C15 1_555 1_555
C16 C15 1_555 1_555
H28 C16 1_555 1_555
C17 C16 1_555 1_555
C18 C17 1_555 1_555
H29 C18 1_555 1_555
C19 C14 1_555 1_555
C20 N1 1_555 1_555
C21 C20 1_555 1_555
H30 C21 1_555 1_555
H31 C21 1_555 1_555
H32 C21 1_555 1_555
C22 C12 1_555 1_555
C23 O3 1_555 1_555
H33 C23 1_555 1_555
H34 C23 1_555 1_555
H35 C23 1_555 1_555
C12 C13 1_555 1_555
C18 C19 1_555 1_555

#END
