
#######################################################################
#
#                 Cambridge Crystallographic Data Centre
#                                CCDC 
#
#######################################################################
#
# If this CIF has been generated from an entry in the Cambridge 
# Structural Database, then it will include bibliographic, chemical, 
# crystal, experimental, refinement or atomic coordinate data resulting 
# from the CCDC's data processing and validation procedures.
#
#######################################################################

data_ACAXAG
_chemical_formula_moiety         'C14 H19 N1 O3'
_chemical_name_systematic        
'methyl 2-[(acetylamino)(phenyl)methyl]butanoate'
_symmetry_cell_setting           monoclinic
_symmetry_space_group_name_H-M   'C c'
_symmetry_Int_Tables_number      9
_space_group_name_Hall           'C -2yc'
loop_
_symmetry_equiv_pos_site_id
_symmetry_equiv_pos_as_xyz
1 x,y,z
2 x,-y,1/2+z
3 1/2+x,1/2+y,z
4 1/2+x,1/2-y,1/2+z
_cell_length_a                   9.2472(14)
_cell_length_b                   20.993(2)
_cell_length_c                   8.0780(14)
_cell_angle_alpha                90
_cell_angle_beta                 113.679(19)
_cell_angle_gamma                90
_cell_volume                     1436.13
_exptl_crystal_colour            colorless
_exptl_crystal_description       prism
_cell_formula_units_Z            4
loop_
_atom_site_label
_atom_site_type_symbol
_atom_site_fract_x
_atom_site_fract_y
_atom_site_fract_z
O1 O 1.0436(5) 0.6453(2) 0.3068(5)
O2 O 1.2140(3) 0.67026(14) 0.5827(4)
O3 O 0.6377(3) 0.74738(15) 0.3803(4)
N1 N 0.8781(3) 0.71432(13) 0.5649(4)
H1 H 0.971752 0.724768 0.638795
C1 C 0.7984(5) 0.63195(19) 0.8095(6)
H2 H 0.888392 0.656167 0.870678
C2 C 0.7141(8) 0.6075(3) 0.9021(8)
H3 H 0.748020 0.615191 1.025396
C3 C 0.5811(8) 0.5721(3) 0.8146(13)
H4 H 0.523329 0.556490 0.877101
C4 C 0.5338(7) 0.5598(3) 0.6339(13)
H5 H 0.444914 0.534807 0.574415
C5 C 0.6165(5) 0.5842(2) 0.5395(8)
H6 H 0.582327 0.576040 0.416498
C6 C 0.7505(4) 0.62081(17) 0.6269(5)
C7 C 0.8399(4) 0.64737(17) 0.5235(5)
H7 H 0.772364 0.643924 0.394284
C8 C 0.9938(4) 0.60996(17) 0.5597(5)
H8 H 1.058330 0.610322 0.690057
C9 C 0.9591(5) 0.54095(19) 0.4979(7)
H9 H 0.894820 0.521970 0.554645
H10 H 0.898410 0.540165 0.368217
C10 C 1.1070(6) 0.5010(2) 0.5429(9)
H11 H 1.077819 0.457357 0.511854
H12 H 1.171684 0.504134 0.669907
H13 H 1.164872 0.516336 0.475450
C11 C 1.0841(5) 0.64322(19) 0.4657(6)
C12 C 0.7711(4) 0.75966(17) 0.4908(5)
C13 C 0.8239(6) 0.82644(18) 0.5490(6)
H14 H 0.920011 0.825613 0.656077
H15 H 0.743712 0.848379 0.573829
H16 H 0.841735 0.848154 0.454269
C14 C 1.3049(7) 0.7091(3) 0.5112(10)
H17 H 1.372493 0.737103 0.604068
H18 H 1.234481 0.733943 0.411543
H19 H 1.367895 0.682182 0.470547
loop_
_geom_bond_atom_site_label_1
_geom_bond_atom_site_label_2
_geom_bond_site_symmetry_1
_geom_bond_site_symmetry_2
O1 C11 1_555 1_555
O2 C11 1_555 1_555
O3 C12 1_555 1_555
N1 H1 1_555 1_555
C1 H2 1_555 1_555
C2 C1 1_555 1_555
H3 C2 1_555 1_555
C3 C2 1_555 1_555
H4 C3 1_555 1_555
C4 C3 1_555 1_555
H5 C4 1_555 1_555
C5 C4 1_555 1_555
H6 C5 1_555 1_555
C6 C1 1_555 1_555
C7 N1 1_555 1_555
H7 C7 1_555 1_555
C8 C7 1_555 1_555
H8 C8 1_555 1_555
C9 C8 1_555 1_555
H9 C9 1_555 1_555
H10 C9 1_555 1_555
C10 C9 1_555 1_555
H11 C10 1_555 1_555
H12 C10 1_555 1_555
H13 C10 1_555 1_555
C11 C8 1_555 1_555
C12 N1 1_555 1_555
C13 C12 1_555 1_555
H14 C13 1_555 1_555
H15 C13 1_555 1_555
H16 C13 1_555 1_555
C14 O2 1_555 1_555
H17 C14 1_555 1_555
H18 C14 1_555 1_555
H19 C14 1_555 1_555
C5 C6 1_555 1_555
C6 C7 1_555 1_555

#END
