
#######################################################################
#
#                 Cambridge Crystallographic Data Centre
#                                CCDC 
#
#######################################################################
#
# If this CIF has been generated from an entry in the Cambridge 
# Structural Database, then it will include bibliographic, chemical, 
# crystal, experimental, refinement or atomic coordinate data resulting 
# from the CCDC's data processing and validation procedures.
#
#######################################################################

data_ACDHAL01
_chemical_name_common            N-Acetyldehydroalanine
_chemical_formula_moiety         'C5 H7 N1 O3'
_chemical_name_systematic        '2-(Acetylamino)propenoic acid'
_symmetry_cell_setting           monoclinic
_symmetry_space_group_name_H-M   'P 21/n'
_symmetry_Int_Tables_number      14
_space_group_name_Hall           '-P 2yn'
loop_
_symmetry_equiv_pos_site_id
_symmetry_equiv_pos_as_xyz
1 x,y,z
2 1/2-x,1/2+y,1/2-z
3 -x,-y,-z
4 1/2+x,1/2-y,1/2+z
_cell_length_a                   3.8363(6)
_cell_length_b                   10.0513(16)
_cell_length_c                   14.892(2)
_cell_angle_alpha                90
_cell_angle_beta                 91.12(1)
_cell_angle_gamma                90
_cell_volume                     574.123
_exptl_crystal_colour            'pale yellow'
_exptl_crystal_description       needle
_cell_formula_units_Z            4
loop_
_atom_site_label
_atom_site_type_symbol
_atom_site_fract_x
_atom_site_fract_y
_atom_site_fract_z
O1 O 0.3453(3) 0.30735(10) 0.38995(6)
H1 H 0.260(6) 0.286(2) 0.3350(15)
O2 O 0.1354(3) 0.10854(9) 0.43175(6)
O3 O 0.6157(3) 0.22417(10) 0.72673(6)
N1 N 0.3545(3) 0.14026(11) 0.60136(7)
H2 H 0.237(5) 0.0747(17) 0.5793(12)
C1 C 0.2918(4) 0.21127(13) 0.44809(8)
C2 C 0.4434(4) 0.24034(13) 0.53979(8)
C3 C 0.6392(4) 0.34714(14) 0.55538(9)
H3 H 0.742(4) 0.3642(16) 0.6120(12)
H4 H 0.679(4) 0.4059(15) 0.5046(11)
C4 C 0.4468(4) 0.13428(13) 0.68938(8)
C5 C 0.3384(4) 0.01133(14) 0.73863(9)
H5 H 0.169(5) -0.0392(17) 0.7054(12)
H6 H 0.252(5) 0.0351(17) 0.7978(12)
H7 H 0.546(5) -0.046(2) 0.7478(13)
loop_
_geom_bond_atom_site_label_1
_geom_bond_atom_site_label_2
_geom_bond_site_symmetry_1
_geom_bond_site_symmetry_2
O1 H1 1_555 1_555
O2 C1 1_555 1_555
O3 C4 1_555 1_555
N1 H2 1_555 1_555
C1 O1 1_555 1_555
C2 N1 1_555 1_555
C3 C2 1_555 1_555
H3 C3 1_555 1_555
H4 C3 1_555 1_555
C4 N1 1_555 1_555
C5 C4 1_555 1_555
H5 C5 1_555 1_555
H6 C5 1_555 1_555
H7 C5 1_555 1_555
C1 C2 1_555 1_555

#END
