
#######################################################################
#
#                 Cambridge Crystallographic Data Centre
#                                CCDC 
#
#######################################################################
#
# If this CIF has been generated from an entry in the Cambridge 
# Structural Database, then it will include bibliographic, chemical, 
# crystal, experimental, refinement or atomic coordinate data resulting 
# from the CCDC's data processing and validation procedures.
#
#######################################################################

data_ACEBAN
_chemical_formula_moiety         'C11 H23 N6 1+,Cl1 1-'
_chemical_name_systematic        
'2-amino-4,6-bis(butylamino)-1,3,5-triazin-1-ium chloride'
_symmetry_cell_setting           triclinic
_symmetry_space_group_name_H-M   'P -1'
_symmetry_Int_Tables_number      2
_space_group_name_Hall           '-P 1'
loop_
_symmetry_equiv_pos_site_id
_symmetry_equiv_pos_as_xyz
1 x,y,z
2 -x,-y,-z
_cell_length_a                   4.4289(4)
_cell_length_b                   9.6455(18)
_cell_length_c                   17.6718(18)
_cell_angle_alpha                101.395(8)
_cell_angle_beta                 95.279(8)
_cell_angle_gamma                92.673(7)
_cell_volume                     735.275
_exptl_crystal_colour            colorless
_exptl_crystal_description       plate
_cell_formula_units_Z            2
loop_
_atom_site_label
_atom_site_type_symbol
_atom_site_fract_x
_atom_site_fract_y
_atom_site_fract_z
Cl1 Cl 0.3698(2) 0.13376(10) 0.59680(7)
N1 N 0.7361(7) 0.6959(3) 0.67073(19)
N2 N 0.3341(7) 0.5682(3) 0.57731(19)
N3 N 0.4542(7) 0.8107(3) 0.5852(2)
H1 H 0.404(9) 0.879(5) 0.573(2)
N4 N 0.6219(8) 0.4579(4) 0.6588(2)
H2 H 0.536(10) 0.392(5) 0.636(3)
N5 N 0.0592(8) 0.6923(4) 0.4994(2)
H3 H -0.027(10) 0.620(5) 0.476(2)
H4 H 0.012(9) 0.767(5) 0.483(2)
N6 N 0.8432(8) 0.9326(4) 0.6720(2)
H5 H 0.800(10) 0.996(5) 0.654(3)
C1 C 0.5628(8) 0.5773(4) 0.6348(2)
C2 C 0.2813(8) 0.6884(4) 0.5533(2)
C3 C 0.6782(8) 0.8112(4) 0.6430(2)
C4 C 0.8655(9) 0.4405(5) 0.7164(3)
H6 H 1.0258 0.5141 0.7196
H7 H 0.9499 0.3497 0.6999
C5 C 0.7600(11) 0.4477(7) 0.7961(3)
H8 H 0.5862 0.3803 0.7913
H9 H 0.9210 0.4173 0.8289
C6 C 0.6729(12) 0.5903(8) 0.8366(3)
H10 H 0.5067 0.6198 0.8051
H11 H 0.8443 0.6587 0.8409
C7 C 0.585(4) 0.5521(14) 0.9132(6)
H12 H 0.5236 0.6351 0.9463
H13 H 0.7571 0.5171 0.9389
H14 H 0.4204 0.4804 0.9018
C8 C 1.0697(10) 0.9493(5) 0.7381(3)
H15 H 1.2260 1.0206 0.7340
H16 H 1.1649 0.8605 0.7373
C9 C 0.9376(13) 0.9920(6) 0.8135(3)
H17 H 0.7915 1.0612 0.8060
H18 H 0.8225 0.9091 0.8216
C10 C 1.1212(18) 1.0494(10) 0.8852(4)
H19 H 1.2544 1.1261 0.8765
H20 H 1.2494 0.9762 0.8973
C11 C 0.962(2) 1.1050(12) 0.9562(5)
H21 H 1.1109 1.1394 0.9998
H22 H 0.8339 1.0301 0.9673
H23 H 0.8408 1.1809 0.9467
C12? C 0.882(2) 1.1351(7) 0.8369(4)
C13? C 0.778(2) 1.1714(10) 0.9175(5)
C14? C 0.6729(12) 0.5903(8) 0.8366(3)
C15? C 0.573(4) 0.6253(12) 0.9194(5)
C16? C 0.9376(13) 0.9920(6) 0.8135(3)
H24? H 0.7271 1.1593 0.8001
H25? H 1.0660 1.1927 0.8357
H26? H 0.7464 1.2707 0.9302
H27? H 0.9314 1.1490 0.9546
H28? H 0.5920 1.1174 0.9189
H29? H 0.5079 0.6179 0.8017
H30? H 0.8389 0.6556 0.8367
H31? H 0.5316 0.7236 0.9319
H32? H 0.7327 0.6065 0.9558
H33? H 0.3930 0.5676 0.9217
H34? H 0.7473 0.9362 0.8104
H35? H 1.0743 0.9663 0.8538
loop_
_geom_bond_atom_site_label_1
_geom_bond_atom_site_label_2
_geom_bond_site_symmetry_1
_geom_bond_site_symmetry_2
N1 C1 1_555 1_555
N2 C1 1_555 1_555
N3 H1 1_555 1_555
N4 H2 1_555 1_555
N5 H3 1_555 1_555
H4 N5 1_555 1_555
N6 H5 1_555 1_555
C1 N4 1_555 1_555
C2 N2 1_555 1_555
C3 N1 1_555 1_555
C4 N4 1_555 1_555
H6 C4 1_555 1_555
H7 C4 1_555 1_555
C5 C4 1_555 1_555
H8 C5 1_555 1_555
H9 C5 1_555 1_555
C6 C5 1_555 1_555
H10 C6 1_555 1_555
H11 C6 1_555 1_555
C7 C6 1_555 1_555
H12 C7 1_555 1_555
H13 C7 1_555 1_555
H14 C7 1_555 1_555
C8 N6 1_555 1_555
H15 C8 1_555 1_555
H16 C8 1_555 1_555
C9 C8 1_555 1_555
H17 C9 1_555 1_555
H18 C9 1_555 1_555
C10 C9 1_555 1_555
H19 C10 1_555 1_555
H20 C10 1_555 1_555
C11 C10 1_555 1_555
H21 C11 1_555 1_555
H22 C11 1_555 1_555
H23 C11 1_555 1_555
N3 C2 1_555 1_555
N3 C3 1_555 1_555
N5 C2 1_555 1_555
N6 C3 1_555 1_555

#END
