
#######################################################################
#
#                 Cambridge Crystallographic Data Centre
#                                CCDC 
#
#######################################################################
#
# If this CIF has been generated from an entry in the Cambridge 
# Structural Database, then it will include bibliographic, chemical, 
# crystal, experimental, refinement or atomic coordinate data resulting 
# from the CCDC's data processing and validation procedures.
#
#######################################################################

data_ACEGUM
_chemical_formula_moiety         '2(C24 H20 B1 1-),C9 H24 N4 2+,2(C2 H3 N1)'
_chemical_name_systematic        
'2-(((dimethylamino)(dimethyliminio)methyl)amino)-N,N-dimethylethanaminium bis(tetraphenylborate) acetonitrile solvate'
_symmetry_cell_setting           triclinic
_symmetry_space_group_name_H-M   'P -1'
_symmetry_Int_Tables_number      2
_space_group_name_Hall           '-P 1'
loop_
_symmetry_equiv_pos_site_id
_symmetry_equiv_pos_as_xyz
1 x,y,z
2 -x,-y,-z
_cell_length_a                   9.7806(3)
_cell_length_b                   16.6590(5)
_cell_length_c                   16.9201(7)
_cell_angle_alpha                97.133(3)
_cell_angle_beta                 99.435(2)
_cell_angle_gamma                102.258(3)
_cell_volume                     2621.19
_exptl_crystal_colour            colorless
_exptl_crystal_description       block
_cell_formula_units_Z            2
loop_
_atom_site_label
_atom_site_type_symbol
_atom_site_fract_x
_atom_site_fract_y
_atom_site_fract_z
N1 N 0.12780(19) 0.79708(11) 0.40366(10)
N2 N 0.19843(17) 0.85127(9) 0.29294(10)
N3 N 0.23186(18) 0.72156(10) 0.31758(10)
H1 H 0.253(2) 0.6942(14) 0.3582(15)
N4 N 0.37764(18) 0.64728(10) 0.13703(10)
H2 H 0.339(2) 0.6793(13) 0.1087(14)
C1 C 0.1858(2) 0.79044(12) 0.33746(12)
C2 C 0.1506(3) 0.87754(15) 0.45617(15)
H3 H 0.2244 0.9187 0.4404
H4 H 0.1813 0.8716 0.5128
H5 H 0.0614 0.8961 0.4504
C3 C 0.0533(2) 0.72462(14) 0.43334(13)
H6 H 0.0265 0.6762 0.3899
H7 H -0.0327 0.7360 0.4504
H8 H 0.1163 0.7131 0.4797
C4 C 0.0994(2) 0.90591(12) 0.28645(15)
H9 H 0.0175 0.8840 0.3105
H10 H 0.0664 0.9083 0.2291
H11 H 0.1482 0.9620 0.3154
C5 C 0.3128(2) 0.86981(13) 0.24798(14)
H12 H 0.3884 0.8425 0.2672
H13 H 0.3518 0.9302 0.2565
H14 H 0.2753 0.8493 0.1900
C6 C 0.2266(2) 0.68210(11) 0.23495(11)
H15 H 0.1916 0.7164 0.1960
H16 H 0.1593 0.6266 0.2234
C7 C 0.3742(2) 0.67273(12) 0.22452(11)
H17 H 0.4447 0.7263 0.2461
H18 H 0.4013 0.6303 0.2560
C8 C 0.5267(2) 0.66292(13) 0.12355(13)
H19 H 0.5744 0.7216 0.1433
H20 H 0.5259 0.6497 0.0654
H21 H 0.5780 0.6278 0.1531
C9 C 0.2992(2) 0.55931(12) 0.10509(14)
H22 H 0.3447 0.5220 0.1350
H23 H 0.3014 0.5464 0.0473
H24 H 0.2000 0.5517 0.1120
B1 B 0.8423(2) 0.49209(12) 0.22777(13)
C10 C 0.7026(2) 0.41873(11) 0.17988(11)
C11 C 0.5922(2) 0.43152(11) 0.12213(12)
H25 H 0.6045 0.4831 0.1025
C12 C 0.4645(2) 0.37096(12) 0.09247(12)
H26 H 0.3912 0.3824 0.0544
C13 C 0.4449(2) 0.29479(12) 0.11840(13)
H27 H 0.3582 0.2537 0.0986
C14 C 0.5538(2) 0.27883(12) 0.17394(13)
H28 H 0.5427 0.2261 0.1913
C15 C 0.6784(2) 0.34013(11) 0.20381(12)
H29 H 0.7507 0.3283 0.2423
C16 C 0.9888(2) 0.45751(11) 0.23619(11)
C17 C 1.0050(2) 0.39222(12) 0.18059(12)
H30 H 0.9258 0.3639 0.1390
C18 C 1.1328(2) 0.36705(13) 0.18385(13)
H31 H 1.1391 0.3227 0.1445
C19 C 1.2501(2) 0.40593(13) 0.24363(13)
H32 H 1.3370 0.3886 0.2460
C20 C 1.2391(2) 0.47089(12) 0.30025(12)
H33 H 1.3187 0.4982 0.3421
C21 C 1.1117(2) 0.49594(11) 0.29580(12)
H34 H 1.1072 0.5411 0.3348
C22 C 0.86845(19) 0.56925(11) 0.17519(11)
C23 C 0.8950(2) 0.55249(11) 0.09617(11)
H35 H 0.8964 0.4971 0.0753
C24 C 0.9193(2) 0.61330(12) 0.04722(12)
H36 H 0.9374 0.5991 -0.0056
C25 C 0.9171(2) 0.69512(12) 0.07605(13)
H37 H 0.9323 0.7369 0.0429
C26 C 0.8927(2) 0.71447(12) 0.15314(12)
H38 H 0.8907 0.7699 0.1733
C27 C 0.8707(2) 0.65267(11) 0.20201(12)
H39 H 0.8567 0.6680 0.2555
C28 C 0.8000(2) 0.51991(11) 0.31521(11)
C29 C 0.8588(2) 0.49906(12) 0.38924(12)
H40 H 0.9298 0.4680 0.3897
C30 C 0.8168(2) 0.52222(12) 0.46205(12)
H41 H 0.8608 0.5078 0.5109
C31 C 0.7120(2) 0.56588(12) 0.46362(13)
H42 H 0.6850 0.5828 0.5134
C32 C 0.6464(2) 0.58482(12) 0.39133(13)
H43 H 0.5723 0.6137 0.3910
C33 C 0.6896(2) 0.56138(11) 0.31981(12)
H44 H 0.6420 0.5740 0.2710
B2 B 0.7069(2) 1.01966(12) 0.26857(13)
C34 C 0.7468(2) 0.97942(11) 0.18397(11)
C35 C 0.8785(2) 1.00537(12) 0.16146(12)
H45 H 0.9471 1.0509 0.1952
C36 C 0.9138(2) 0.96757(13) 0.09198(12)
H46 H 1.0052 0.9872 0.0797
C37 C 0.8164(2) 0.90159(12) 0.04074(12)
H47 H 0.8397 0.8758 -0.0069
C38 C 0.6841(2) 0.87380(12) 0.06043(13)
H48 H 0.6158 0.8286 0.0260
C39 C 0.6513(2) 0.91170(12) 0.13008(12)
H49 H 0.5601 0.8912 0.1422
C40 C 0.5648(2) 1.05832(11) 0.25103(12)
C41 C 0.4687(2) 1.04355(12) 0.17661(13)
H50 H 0.4912 1.0146 0.1303
C42 C 0.3420(2) 1.06942(14) 0.16769(15)
H51 H 0.2800 1.0577 0.1160
C43 C 0.3051(2) 1.11197(14) 0.23299(17)
H52 H 0.2167 1.1278 0.2273
C44 C 0.3992(2) 1.13136(13) 0.30706(15)
H53 H 0.3764 1.1616 0.3525
C45 C 0.5268(2) 1.10647(12) 0.31471(14)
H54 H 0.5917 1.1227 0.3654
C46 C 0.6753(2) 0.94470(11) 0.32418(12)
C47 C 0.7173(2) 0.86967(11) 0.30912(12)
H55 H 0.7630 0.8612 0.2644
C48 C 0.6955(2) 0.80706(12) 0.35621(13)
H56 H 0.7274 0.7578 0.3437
C49 C 0.6279(2) 0.81639(12) 0.42094(12)
H57 H 0.6113 0.7735 0.4528
C50 C 0.5844(2) 0.88925(13) 0.43874(13)
H58 H 0.5379 0.8968 0.4832
C51 C 0.6090(2) 0.95165(12) 0.39139(12)
H59 H 0.5794 1.0014 0.4054
C52 C 0.8450(2) 1.09275(11) 0.31764(11)
C53 C 0.9591(2) 1.07403(12) 0.36826(12)
H60 H 0.9501 1.0187 0.3789
C54 C 1.0842(2) 1.13311(13) 0.40330(13)
H61 H 1.1593 1.1177 0.4365
C55 C 1.0995(2) 1.21446(13) 0.38983(13)
H62 H 1.1848 1.2552 0.4140
C56 C 0.9896(2) 1.23616(12) 0.34086(13)
H63 H 0.9990 1.2919 0.3313
C57 C 0.8657(2) 1.17584(12) 0.30582(12)
H64 H 0.7916 1.1917 0.2723
N5 N 0.2837(2) 0.75591(12) 0.03570(12)
C58 C 0.2713(3) 0.79757(15) -0.01154(15)
C59 C 0.2549(4) 0.8520(2) -0.0712(2)
H65 H 0.2389 0.9042 -0.0452
H66 H 0.1731 0.8247 -0.1149
H67 H 0.3415 0.8639 -0.0940
N6 N 0.3554(2) 0.65812(12) 0.46628(12)
C60 C 0.4029(2) 0.65366(12) 0.53127(13)
C61 C 0.4650(3) 0.64810(14) 0.61415(13)
H68 H 0.5693 0.6627 0.6216
H69 H 0.4329 0.5911 0.6243
H70 H 0.4347 0.6868 0.6523
loop_
_geom_bond_atom_site_label_1
_geom_bond_atom_site_label_2
_geom_bond_site_symmetry_1
_geom_bond_site_symmetry_2
N1 C1 1_555 1_555
N2 C1 1_555 1_555
N3 H1 1_555 1_555
N4 H2 1_555 1_555
C1 N3 1_555 1_555
C2 N1 1_555 1_555
H3 C2 1_555 1_555
H4 C2 1_555 1_555
H5 C2 1_555 1_555
C3 N1 1_555 1_555
H6 C3 1_555 1_555
H7 C3 1_555 1_555
H8 C3 1_555 1_555
C4 N2 1_555 1_555
H9 C4 1_555 1_555
H10 C4 1_555 1_555
H11 C4 1_555 1_555
C5 N2 1_555 1_555
H12 C5 1_555 1_555
H13 C5 1_555 1_555
H14 C5 1_555 1_555
C6 N3 1_555 1_555
H15 C6 1_555 1_555
H16 C6 1_555 1_555
C7 N4 1_555 1_555
H17 C7 1_555 1_555
H18 C7 1_555 1_555
C8 N4 1_555 1_555
H19 C8 1_555 1_555
H20 C8 1_555 1_555
H21 C8 1_555 1_555
C9 N4 1_555 1_555
H22 C9 1_555 1_555
H23 C9 1_555 1_555
H24 C9 1_555 1_555
B1 C10 1_555 1_555
C10 C11 1_555 1_555
C11 H25 1_555 1_555
C12 C11 1_555 1_555
H26 C12 1_555 1_555
C13 C12 1_555 1_555
H27 C13 1_555 1_555
C14 C13 1_555 1_555
H28 C14 1_555 1_555
C15 C10 1_555 1_555
H29 C15 1_555 1_555
C16 B1 1_555 1_555
C17 C16 1_555 1_555
H30 C17 1_555 1_555
C18 C17 1_555 1_555
H31 C18 1_555 1_555
C19 C18 1_555 1_555
H32 C19 1_555 1_555
C20 C19 1_555 1_555
H33 C20 1_555 1_555
C21 C16 1_555 1_555
H34 C21 1_555 1_555
C22 B1 1_555 1_555
C23 C22 1_555 1_555
H35 C23 1_555 1_555
C24 C23 1_555 1_555
H36 C24 1_555 1_555
C25 C24 1_555 1_555
H37 C25 1_555 1_555
C26 C25 1_555 1_555
H38 C26 1_555 1_555
C27 C22 1_555 1_555
H39 C27 1_555 1_555
C28 B1 1_555 1_555
C29 C28 1_555 1_555
H40 C29 1_555 1_555
C30 C29 1_555 1_555
H41 C30 1_555 1_555
C31 C30 1_555 1_555
H42 C31 1_555 1_555
C32 C31 1_555 1_555
H43 C32 1_555 1_555
C33 C28 1_555 1_555
H44 C33 1_555 1_555
B2 C34 1_555 1_555
C34 C35 1_555 1_555
C35 H45 1_555 1_555
C36 C35 1_555 1_555
H46 C36 1_555 1_555
C37 C36 1_555 1_555
H47 C37 1_555 1_555
C38 C37 1_555 1_555
H48 C38 1_555 1_555
C39 C34 1_555 1_555
H49 C39 1_555 1_555
C40 B2 1_555 1_555
C41 C40 1_555 1_555
H50 C41 1_555 1_555
C42 C41 1_555 1_555
H51 C42 1_555 1_555
C43 C42 1_555 1_555
H52 C43 1_555 1_555
C44 C43 1_555 1_555
H53 C44 1_555 1_555
C45 C40 1_555 1_555
H54 C45 1_555 1_555
C46 B2 1_555 1_555
C47 C46 1_555 1_555
H55 C47 1_555 1_555
C48 C47 1_555 1_555
H56 C48 1_555 1_555
C49 C48 1_555 1_555
H57 C49 1_555 1_555
C50 C49 1_555 1_555
H58 C50 1_555 1_555
C51 C46 1_555 1_555
H59 C51 1_555 1_555
C52 B2 1_555 1_555
C53 C52 1_555 1_555
H60 C53 1_555 1_555
C54 C53 1_555 1_555
H61 C54 1_555 1_555
C55 C54 1_555 1_555
H62 C55 1_555 1_555
C56 C55 1_555 1_555
H63 C56 1_555 1_555
C57 C52 1_555 1_555
H64 C57 1_555 1_555
N5 C58 1_555 1_555
C58 C59 1_555 1_555
C59 H65 1_555 1_555
H66 C59 1_555 1_555
H67 C59 1_555 1_555
N6 C60 1_555 1_555
C60 C61 1_555 1_555
C61 H68 1_555 1_555
H69 C61 1_555 1_555
H70 C61 1_555 1_555
C6 C7 1_555 1_555
C14 C15 1_555 1_555
C20 C21 1_555 1_555
C26 C27 1_555 1_555
C32 C33 1_555 1_555
C38 C39 1_555 1_555
C44 C45 1_555 1_555
C50 C51 1_555 1_555
C56 C57 1_555 1_555

#END
