
#######################################################################
#
#                 Cambridge Crystallographic Data Centre
#                                CCDC 
#
#######################################################################
#
# If this CIF has been generated from an entry in the Cambridge 
# Structural Database, then it will include bibliographic, chemical, 
# crystal, experimental, refinement or atomic coordinate data resulting 
# from the CCDC's data processing and validation procedures.
#
#######################################################################

data_ACEHOH
_chemical_formula_moiety         'C24 H20 B1 1-,C10 H25 N4 1+'
_chemical_name_systematic        
'N-(bis(dimethylamino)methylene)-3-(dimethylamino)propan-1-aminium tetraphenylborate'
_symmetry_cell_setting           monoclinic
_symmetry_space_group_name_H-M   'P 21'
_symmetry_Int_Tables_number      4
_space_group_name_Hall           'P 2yb'
loop_
_symmetry_equiv_pos_site_id
_symmetry_equiv_pos_as_xyz
1 x,y,z
2 -x,1/2+y,-z
_cell_length_a                   9.3591(2)
_cell_length_b                   15.6676(6)
_cell_length_c                   11.0847(4)
_cell_angle_alpha                90
_cell_angle_beta                 113.373(1)
_cell_angle_gamma                90
_cell_volume                     1492.02
_exptl_crystal_colour            colorless
_exptl_crystal_description       polyhedral
_cell_formula_units_Z            2
loop_
_atom_site_label
_atom_site_type_symbol
_atom_site_fract_x
_atom_site_fract_y
_atom_site_fract_z
N1 N 0.71573(12) 0.10121(6) 0.61008(10)
N2 N 0.74016(11) 0.03724(7) 0.42993(10)
N3 N 0.53252(11) 0.12789(6) 0.40209(9)
H1 H 0.4702(18) 0.1513(10) 0.4351(16)
N4 N 0.29437(12) 0.22693(7) 0.41502(10)
C1 C 0.66245(13) 0.08896(7) 0.47962(11)
C2 C 0.66419(14) 0.17415(8) 0.66435(12)
H2 H 0.6532 0.2242 0.6083
H3 H 0.7411 0.1862 0.7531
H4 H 0.5636 0.1611 0.6681
C3 C 0.79356(15) 0.03334(8) 0.70383(12)
H5 H 0.7828 -0.0208 0.6567
H6 H 0.7458 0.0281 0.7678
H7 H 0.9042 0.0473 0.7498
C4 C 0.65874(16) -0.01372(8) 0.31134(12)
H8 H 0.5489 -0.0194 0.2970
H9 H 0.7063 -0.0705 0.3223
H10 H 0.6666 0.0147 0.2354
C5 C 0.90938(15) 0.02868(9) 0.48927(14)
H11 H 0.9541 0.0749 0.5527
H12 H 0.9503 0.0318 0.4205
H13 H 0.9374 -0.0264 0.5344
C6 C 0.48893(15) 0.15296(8) 0.26404(11)
H14 H 0.4245 0.1077 0.2052
H15 H 0.5837 0.1605 0.2461
C7 C 0.39762(14) 0.23639(8) 0.23784(12)
H16 H 0.4674 0.2824 0.2899
H17 H 0.3638 0.2513 0.1438
C8 C 0.25490(14) 0.23270(9) 0.27172(12)
H18 H 0.1910 0.2844 0.2367
H19 H 0.1912 0.1825 0.2277
C9 C 0.34472(18) 0.30919(9) 0.48003(14)
H20 H 0.2576 0.3495 0.4486
H21 H 0.4307 0.3313 0.4598
H22 H 0.3797 0.3019 0.5753
C10 C 0.16020(16) 0.19652(10) 0.43884(14)
H23 H 0.1868 0.1945 0.5337
H24 H 0.1315 0.1393 0.4015
H25 H 0.0723 0.2355 0.3973
B1 B 0.98330(14) 0.37610(8) -0.16390(11)
C11 C 1.11107(12) 0.45522(7) -0.11073(10)
C12 C 1.26358(13) 0.44352(8) -0.01695(11)
H26 H 1.2966 0.3875 0.0146
C13 C 1.36872(14) 0.51094(8) 0.03174(11)
H27 H 1.4708 0.4999 0.0949
C14 C 1.32542(14) 0.59392(8) -0.01133(12)
H28 H 1.3969 0.6398 0.0214
C15 C 1.17501(14) 0.60837(8) -0.10354(12)
H29 H 1.1424 0.6646 -0.1340
C16 C 1.07241(13) 0.54015(7) -0.15114(11)
H30 H 0.9706 0.5517 -0.2145
C17 C 0.87300(12) 0.37716(7) -0.07953(10)
C18 C 0.93683(13) 0.39361(7) 0.05622(11)
H31 H 1.0420 0.4119 0.0964
C19 C 0.85230(14) 0.38416(8) 0.13431(11)
H32 H 0.9003 0.3956 0.2259
C20 C 0.69789(14) 0.35800(8) 0.07836(12)
H33 H 0.6401 0.3504 0.1313
C21 C 0.62935(14) 0.34322(8) -0.05588(12)
H34 H 0.5232 0.3264 -0.0957
C22 C 0.71554(13) 0.35294(7) -0.13245(11)
H35 H 0.6658 0.3428 -0.2243
C23 C 0.87435(12) 0.38831(7) -0.32219(10)
C24 C 0.76121(13) 0.45336(7) -0.36733(11)
H36 H 0.7439 0.4883 -0.3044
C25 C 0.67364(13) 0.46853(8) -0.50041(12)
H37 H 0.6009 0.5142 -0.5263
C26 C 0.69218(14) 0.41723(8) -0.59514(11)
H38 H 0.6342 0.4280 -0.6859
C27 C 0.79689(14) 0.34991(8) -0.55503(11)
H39 H 0.8080 0.3128 -0.6185
C28 C 0.88603(13) 0.33661(8) -0.42145(11)
H40 H 0.9578 0.2905 -0.3966
C29 C 1.07514(13) 0.28391(7) -0.13765(11)
C30 C 1.04278(13) 0.21532(7) -0.07151(11)
H41 H 0.9656 0.2226 -0.0368
C31 C 1.11869(13) 0.13652(8) -0.05407(11)
H42 H 1.0923 0.0919 -0.0086
C32 C 1.23204(14) 0.12331(8) -0.10273(12)
H43 H 1.2834 0.0698 -0.0917
C33 C 1.26943(14) 0.18989(8) -0.16818(12)
H44 H 1.3472 0.1820 -0.2020
C34 C 1.19325(13) 0.26793(8) -0.18416(11)
H45 H 1.2218 0.3125 -0.2283
loop_
_geom_bond_atom_site_label_1
_geom_bond_atom_site_label_2
_geom_bond_site_symmetry_1
_geom_bond_site_symmetry_2
N1 C1 1_555 1_555
N2 C1 1_555 1_555
N3 H1 1_555 1_555
N4 C8 1_555 1_555
C1 N3 1_555 1_555
C2 N1 1_555 1_555
H2 C2 1_555 1_555
H3 C2 1_555 1_555
H4 C2 1_555 1_555
C3 N1 1_555 1_555
H5 C3 1_555 1_555
H6 C3 1_555 1_555
H7 C3 1_555 1_555
C4 N2 1_555 1_555
H8 C4 1_555 1_555
H9 C4 1_555 1_555
H10 C4 1_555 1_555
C5 N2 1_555 1_555
H11 C5 1_555 1_555
H12 C5 1_555 1_555
H13 C5 1_555 1_555
C6 N3 1_555 1_555
H14 C6 1_555 1_555
H15 C6 1_555 1_555
C7 C6 1_555 1_555
H16 C7 1_555 1_555
H17 C7 1_555 1_555
C8 C7 1_555 1_555
H18 C8 1_555 1_555
H19 C8 1_555 1_555
C9 N4 1_555 1_555
H20 C9 1_555 1_555
H21 C9 1_555 1_555
H22 C9 1_555 1_555
C10 N4 1_555 1_555
H23 C10 1_555 1_555
H24 C10 1_555 1_555
H25 C10 1_555 1_555
B1 C11 1_555 1_555
C11 C12 1_555 1_555
C12 H26 1_555 1_555
C13 C12 1_555 1_555
H27 C13 1_555 1_555
C14 C13 1_555 1_555
H28 C14 1_555 1_555
C15 C14 1_555 1_555
H29 C15 1_555 1_555
C16 C11 1_555 1_555
H30 C16 1_555 1_555
C17 B1 1_555 1_555
C18 C17 1_555 1_555
H31 C18 1_555 1_555
C19 C18 1_555 1_555
H32 C19 1_555 1_555
C20 C19 1_555 1_555
H33 C20 1_555 1_555
C21 C20 1_555 1_555
H34 C21 1_555 1_555
C22 C17 1_555 1_555
H35 C22 1_555 1_555
C23 B1 1_555 1_555
C24 C23 1_555 1_555
H36 C24 1_555 1_555
C25 C24 1_555 1_555
H37 C25 1_555 1_555
C26 C25 1_555 1_555
H38 C26 1_555 1_555
C27 C26 1_555 1_555
H39 C27 1_555 1_555
C28 C23 1_555 1_555
H40 C28 1_555 1_555
C29 B1 1_555 1_555
C30 C29 1_555 1_555
H41 C30 1_555 1_555
C31 C30 1_555 1_555
H42 C31 1_555 1_555
C32 C31 1_555 1_555
H43 C32 1_555 1_555
C33 C32 1_555 1_555
H44 C33 1_555 1_555
C34 C29 1_555 1_555
H45 C34 1_555 1_555
C15 C16 1_555 1_555
C21 C22 1_555 1_555
C27 C28 1_555 1_555
C33 C34 1_555 1_555

#END
