
#######################################################################
#
#                 Cambridge Crystallographic Data Centre
#                                CCDC 
#
#######################################################################
#
# If this CIF has been generated from an entry in the Cambridge 
# Structural Database, then it will include bibliographic, chemical, 
# crystal, experimental, refinement or atomic coordinate data resulting 
# from the CCDC's data processing and validation procedures.
#
#######################################################################

data_ACEHUN
_chemical_formula_moiety         'C10 H26 N4 2+,H2 O1,2(Cl1 1-)'
_chemical_name_systematic        
"N'-(bis(dimethylamino)methylene)-N,N-dimethylpropane-1,3-diaminium dichloride monohydrate"
_symmetry_cell_setting           orthorhombic
_symmetry_space_group_name_H-M   'P n a 21'
_symmetry_Int_Tables_number      33
_space_group_name_Hall           'P 2c -2n'
loop_
_symmetry_equiv_pos_site_id
_symmetry_equiv_pos_as_xyz
1 x,y,z
2 -x,-y,1/2+z
3 1/2-x,1/2+y,1/2+z
4 1/2+x,1/2-y,z
_cell_length_a                   22.1967(9)
_cell_length_b                   7.8371(3)
_cell_length_c                   9.0316(5)
_cell_angle_alpha                90
_cell_angle_beta                 90
_cell_angle_gamma                90
_cell_volume                     1571.12
_exptl_crystal_colour            colorless
_exptl_crystal_description       polyhedral
_cell_formula_units_Z            4
loop_
_atom_site_label
_atom_site_type_symbol
_atom_site_fract_x
_atom_site_fract_y
_atom_site_fract_z
Cl1 Cl 0.17293(5) 0.69996(16) 0.25747(13)
Cl2 Cl 0.41140(5) 0.72715(15) 0.28163(13)
N1 N 0.46345(17) 0.6411(5) -0.2098(5)
N2 N 0.49771(19) 0.8670(5) -0.0669(5)
N3 N 0.56557(19) 0.6822(6) -0.1816(4)
H1 H 0.5674(18) 0.569(6) -0.203(5)
C1 C 0.5093(2) 0.7302(7) -0.1518(5)
C2 C 0.4080(2) 0.6070(7) -0.1273(5)
H2 H 0.4132 0.6425 -0.0241
H3 H 0.3990 0.4846 -0.1309
H4 H 0.3747 0.6709 -0.1718
C3 C 0.4701(2) 0.5466(7) -0.3501(6)
H5 H 0.5030 0.5963 -0.4080
H6 H 0.4325 0.5541 -0.4067
H7 H 0.4791 0.4267 -0.3289
C4 C 0.5376(2) 0.9224(7) 0.0542(6)
H8 H 0.5693 0.8373 0.0691
H9 H 0.5141 0.9345 0.1454
H10 H 0.5558 1.0324 0.0287
C5 C 0.4426(3) 0.9675(7) -0.0800(6)
H11 H 0.4215 0.9361 -0.1713
H12 H 0.4528 1.0892 -0.0828
H13 H 0.4165 0.9448 0.0053
C6 C 0.6178(2) 0.7957(6) -0.1917(5)
H14 H 0.6418 0.7881 -0.0995
H15 H 0.6041 0.9151 -0.2035
C7 C 0.6566(2) 0.7447(6) -0.3236(5)
H16 H 0.6713 0.6264 -0.3103
H17 H 0.6323 0.7489 -0.4153
C8 C 0.7097(2) 0.8645(7) -0.3376(6)
H18 H 0.6946 0.9828 -0.3473
H19 H 0.7340 0.8583 -0.2458
N4 N 0.7492(2) 0.8254(6) -0.4661(5)
H20 H 0.731(3) 0.801(7) -0.545(6)
C9 C 0.7913(3) 0.9697(6) -0.4956(6)
H21 H 0.8142 0.9955 -0.4055
H22 H 0.7682 1.0706 -0.5255
H23 H 0.8191 0.9379 -0.5751
C10 C 0.7827(2) 0.6627(6) -0.4476(6)
H24 H 0.8066 0.6675 -0.3565
H25 H 0.8095 0.6457 -0.5325
H26 H 0.7541 0.5677 -0.4416
O1 O 0.2960(2) 0.6980(6) 0.0759(5)
H27 H 0.334(3) 0.696(11) 0.132(8)
H28 H 0.264(2) 0.671(10) 0.144(7)
loop_
_geom_bond_atom_site_label_1
_geom_bond_atom_site_label_2
_geom_bond_site_symmetry_1
_geom_bond_site_symmetry_2
N1 C1 1_555 1_555
N2 C1 1_555 1_555
N3 H1 1_555 1_555
C1 N3 1_555 1_555
C2 N1 1_555 1_555
H2 C2 1_555 1_555
H3 C2 1_555 1_555
H4 C2 1_555 1_555
C3 N1 1_555 1_555
H5 C3 1_555 1_555
H6 C3 1_555 1_555
H7 C3 1_555 1_555
C4 N2 1_555 1_555
H8 C4 1_555 1_555
H9 C4 1_555 1_555
H10 C4 1_555 1_555
C5 N2 1_555 1_555
H11 C5 1_555 1_555
H12 C5 1_555 1_555
H13 C5 1_555 1_555
C6 N3 1_555 1_555
H14 C6 1_555 1_555
H15 C6 1_555 1_555
C7 C6 1_555 1_555
H16 C7 1_555 1_555
H17 C7 1_555 1_555
C8 C7 1_555 1_555
H18 C8 1_555 1_555
H19 C8 1_555 1_555
N4 C8 1_555 1_555
H20 N4 1_555 1_555
C9 N4 1_555 1_555
H21 C9 1_555 1_555
H22 C9 1_555 1_555
H23 C9 1_555 1_555
C10 N4 1_555 1_555
H24 C10 1_555 1_555
H25 C10 1_555 1_555
H26 C10 1_555 1_555
O1 H27 1_555 1_555
H28 O1 1_555 1_555

#END
